MODEL 1
REMARK VINA RESULT:    -4.778      0.000      0.000
REMARK INTER + INTRA:          -4.778
REMARK INTER:                  -4.778
REMARK INTRA:                   0.000
REMARK UNBOUND:                 0.000
REMARK SMILES C=C1CCC[C@]2(C)CC(=O)C(=C(C)C)C[C@@H]12
REMARK SMILES IDX 13 1 12 2 11 3 15 4 16 5 2 6 1 7 3 8 4 9 5 10 6 11 8 12 9 13
REMARK SMILES IDX 10 14 7 15 14 16
REMARK H PARENT
REMARK Flexibility Score: inf
ROOT
ATOM      1  C   UNL     1     187.197 196.448 209.841  1.00  0.00     0.039 C 
ATOM      2  C   UNL     1     186.086 197.426 209.535  1.00  0.00    -0.070 C 
ATOM      3  C   UNL     1     186.035 198.652 210.136  1.00  0.00    -0.006 C 
ATOM      4  C   UNL     1     187.085 199.069 211.156  1.00  0.00     0.047 C 
ATOM      5  C   UNL     1     186.561 200.089 212.202  1.00  0.00     0.025 C 
ATOM      6  C   UNL     1     187.625 200.616 213.171  1.00  0.00    -0.073 C 
ATOM      7  C   UNL     1     188.879 200.132 213.242  1.00  0.00     0.008 C 
ATOM      8  C   UNL     1     187.235 201.727 214.118  1.00  0.00     0.031 C 
ATOM      9  C   UNL     1     185.731 202.001 214.076  1.00  0.00     0.005 C 
ATOM     10  C   UNL     1     185.236 202.277 212.646  1.00  0.00     0.008 C 
ATOM     11  C   UNL     1     185.796 201.292 211.550  1.00  0.00    -0.018 C 
ATOM     12  C   UNL     1     184.606 200.727 210.736  1.00  0.00     0.088 C 
ATOM     13  C   UNL     1     185.038 199.689 209.745  1.00  0.00     0.159 C 
ATOM     14  O   UNL     1     184.556 199.726 208.581  1.00  0.00    -0.295 OA
ATOM     15  C   UNL     1     186.730 202.094 210.602  1.00  0.00     0.012 C 
ATOM     16  C   UNL     1     185.021 196.969 208.564  1.00  0.00     0.039 C 
ENDROOT
TORSDOF 0
ENDMDL
MODEL 2
REMARK VINA RESULT:    -4.443      3.645      6.057
REMARK INTER + INTRA:          -4.443
REMARK INTER:                  -4.443
REMARK INTRA:                   0.000
REMARK UNBOUND:                 0.000
REMARK SMILES C=C1CCC[C@]2(C)CC(=O)C(=C(C)C)C[C@@H]12
REMARK SMILES IDX 13 1 12 2 11 3 15 4 16 5 2 6 1 7 3 8 4 9 5 10 6 11 8 12 9 13
REMARK SMILES IDX 10 14 7 15 14 16
REMARK H PARENT
REMARK Flexibility Score: inf
ROOT
ATOM      1  C   UNL     1     191.087 204.673 209.865  1.00  0.00     0.039 C 
ATOM      2  C   UNL     1     191.164 204.264 211.319  1.00  0.00    -0.070 C 
ATOM      3  C   UNL     1     190.218 203.450 211.878  1.00  0.00    -0.006 C 
ATOM      4  C   UNL     1     189.038 202.944 211.060  1.00  0.00     0.047 C 
ATOM      5  C   UNL     1     187.774 202.656 211.914  1.00  0.00     0.025 C 
ATOM      6  C   UNL     1     186.607 202.035 211.138  1.00  0.00    -0.073 C 
ATOM      7  C   UNL     1     186.589 201.893 209.799  1.00  0.00     0.008 C 
ATOM      8  C   UNL     1     185.397 201.578 211.920  1.00  0.00     0.031 C 
ATOM      9  C   UNL     1     185.473 202.019 213.382  1.00  0.00     0.005 C 
ATOM     10  C   UNL     1     186.782 201.567 214.052  1.00  0.00     0.008 C 
ATOM     11  C   UNL     1     188.081 201.795 213.187  1.00  0.00    -0.018 C 
ATOM     12  C   UNL     1     189.123 202.552 214.045  1.00  0.00     0.088 C 
ATOM     13  C   UNL     1     190.349 202.915 213.262  1.00  0.00     0.159 C 
ATOM     14  O   UNL     1     191.479 202.739 213.793  1.00  0.00    -0.295 OA
ATOM     15  C   UNL     1     188.655 200.406 212.792  1.00  0.00     0.012 C 
ATOM     16  C   UNL     1     192.311 204.827 212.128  1.00  0.00     0.039 C 
ENDROOT
TORSDOF 0
ENDMDL
MODEL 3
REMARK VINA RESULT:    -4.238      3.124      4.880
REMARK INTER + INTRA:          -4.238
REMARK INTER:                  -4.238
REMARK INTRA:                   0.000
REMARK UNBOUND:                 0.000
REMARK SMILES C=C1CCC[C@]2(C)CC(=O)C(=C(C)C)C[C@@H]12
REMARK SMILES IDX 13 1 12 2 11 3 15 4 16 5 2 6 1 7 3 8 4 9 5 10 6 11 8 12 9 13
REMARK SMILES IDX 10 14 7 15 14 16
REMARK H PARENT
REMARK Flexibility Score: inf
ROOT
ATOM      1  C   UNL     1     185.716 201.974 213.693  1.00  0.00     0.039 C 
ATOM      2  C   UNL     1     185.802 201.862 212.187  1.00  0.00    -0.070 C 
ATOM      3  C   UNL     1     186.960 202.146 211.520  1.00  0.00    -0.006 C 
ATOM      4  C   UNL     1     188.202 202.612 212.269  1.00  0.00     0.047 C 
ATOM      5  C   UNL     1     189.135 203.513 211.417  1.00  0.00     0.025 C 
ATOM      6  C   UNL     1     190.449 203.901 212.103  1.00  0.00    -0.073 C 
ATOM      7  C   UNL     1     190.726 203.638 213.394  1.00  0.00     0.008 C 
ATOM      8  C   UNL     1     191.482 204.645 211.290  1.00  0.00     0.031 C 
ATOM      9  C   UNL     1     190.928 205.071 209.930  1.00  0.00     0.005 C 
ATOM     10  C   UNL     1     190.343 203.882 209.149  1.00  0.00     0.008 C 
ATOM     11  C   UNL     1     189.435 202.915 210.000  1.00  0.00    -0.018 C 
ATOM     12  C   UNL     1     188.088 202.719 209.261  1.00  0.00     0.088 C 
ATOM     13  C   UNL     1     187.116 201.903 210.058  1.00  0.00     0.159 C 
ATOM     14  O   UNL     1     186.454 201.005 209.470  1.00  0.00    -0.295 OA
ATOM     15  C   UNL     1     190.157 201.543 210.119  1.00  0.00     0.012 C 
ATOM     16  C   UNL     1     184.541 201.456 211.459  1.00  0.00     0.039 C 
ENDROOT
TORSDOF 0
ENDMDL
MODEL 4
REMARK VINA RESULT:    -4.121      2.077      3.164
REMARK INTER + INTRA:          -4.121
REMARK INTER:                  -4.121
REMARK INTRA:                   0.000
REMARK UNBOUND:                 0.000
REMARK SMILES C=C1CCC[C@]2(C)CC(=O)C(=C(C)C)C[C@@H]12
REMARK SMILES IDX 13 1 12 2 11 3 15 4 16 5 2 6 1 7 3 8 4 9 5 10 6 11 8 12 9 13
REMARK SMILES IDX 10 14 7 15 14 16
REMARK H PARENT
REMARK Flexibility Score: inf
ROOT
ATOM      1  C   UNL     1     189.417 196.912 214.013  1.00  0.00     0.039 C 
ATOM      2  C   UNL     1     188.914 196.863 212.588  1.00  0.00    -0.070 C 
ATOM      3  C   UNL     1     188.266 197.928 212.027  1.00  0.00    -0.006 C 
ATOM      4  C   UNL     1     188.006 199.196 212.828  1.00  0.00     0.047 C 
ATOM      5  C   UNL     1     186.746 199.974 212.360  1.00  0.00     0.025 C 
ATOM      6  C   UNL     1     186.524 201.315 213.068  1.00  0.00    -0.073 C 
ATOM      7  C   UNL     1     187.246 201.733 214.125  1.00  0.00     0.008 C 
ATOM      8  C   UNL     1     185.413 202.207 212.566  1.00  0.00     0.031 C 
ATOM      9  C   UNL     1     184.545 201.496 211.527  1.00  0.00     0.005 C 
ATOM     10  C   UNL     1     185.383 200.930 210.368  1.00  0.00     0.008 C 
ATOM     11  C   UNL     1     186.699 200.181 210.807  1.00  0.00    -0.018 C 
ATOM     12  C   UNL     1     186.729 198.789 210.130  1.00  0.00     0.088 C 
ATOM     13  C   UNL     1     187.892 197.961 210.585  1.00  0.00     0.159 C 
ATOM     14  O   UNL     1     188.549 197.316 209.723  1.00  0.00    -0.295 OA
ATOM     15  C   UNL     1     187.920 201.012 210.322  1.00  0.00     0.012 C 
ATOM     16  C   UNL     1     189.130 195.572 211.831  1.00  0.00     0.039 C 
ENDROOT
TORSDOF 0
ENDMDL
MODEL 5
REMARK VINA RESULT:    -4.099      2.828      5.468
REMARK INTER + INTRA:          -4.099
REMARK INTER:                  -4.099
REMARK INTRA:                   0.000
REMARK UNBOUND:                 0.000
REMARK SMILES C=C1CCC[C@]2(C)CC(=O)C(=C(C)C)C[C@@H]12
REMARK SMILES IDX 13 1 12 2 11 3 15 4 16 5 2 6 1 7 3 8 4 9 5 10 6 11 8 12 9 13
REMARK SMILES IDX 10 14 7 15 14 16
REMARK H PARENT
REMARK Flexibility Score: inf
ROOT
ATOM      1  C   UNL     1     189.816 204.509 209.445  1.00  0.00     0.039 C 
ATOM      2  C   UNL     1     189.427 204.075 210.841  1.00  0.00    -0.070 C 
ATOM      3  C   UNL     1     188.624 202.989 211.048  1.00  0.00    -0.006 C 
ATOM      4  C   UNL     1     188.069 202.190 209.876  1.00  0.00     0.047 C 
ATOM      5  C   UNL     1     186.716 201.495 210.188  1.00  0.00     0.025 C 
ATOM      6  C   UNL     1     186.191 200.589 209.069  1.00  0.00    -0.073 C 
ATOM      7  C   UNL     1     186.746 200.511 207.845  1.00  0.00     0.008 C 
ATOM      8  C   UNL     1     184.964 199.754 209.349  1.00  0.00     0.031 C 
ATOM      9  C   UNL     1     184.321 200.128 210.686  1.00  0.00     0.005 C 
ATOM     10  C   UNL     1     185.328 200.060 211.846  1.00  0.00     0.008 C 
ATOM     11  C   UNL     1     186.733 200.708 211.543  1.00  0.00    -0.018 C 
ATOM     12  C   UNL     1     187.077 201.703 212.678  1.00  0.00     0.088 C 
ATOM     13  C   UNL     1     188.347 202.453 212.410  1.00  0.00     0.159 C 
ATOM     14  O   UNL     1     189.172 202.602 213.352  1.00  0.00    -0.295 OA
ATOM     15  C   UNL     1     187.798 199.577 211.513  1.00  0.00     0.012 C 
ATOM     16  C   UNL     1     189.940 204.918 211.987  1.00  0.00     0.039 C 
ENDROOT
TORSDOF 0
ENDMDL
MODEL 6
REMARK VINA RESULT:    -3.982      2.870      4.910
REMARK INTER + INTRA:          -3.982
REMARK INTER:                  -3.982
REMARK INTRA:                   0.000
REMARK UNBOUND:                 0.000
REMARK SMILES C=C1CCC[C@]2(C)CC(=O)C(=C(C)C)C[C@@H]12
REMARK SMILES IDX 13 1 12 2 11 3 15 4 16 5 2 6 1 7 3 8 4 9 5 10 6 11 8 12 9 13
REMARK SMILES IDX 10 14 7 15 14 16
REMARK H PARENT
REMARK Flexibility Score: inf
ROOT
ATOM      1  C   UNL     1     191.300 200.690 209.694  1.00  0.00     0.039 C 
ATOM      2  C   UNL     1     191.080 201.141 211.120  1.00  0.00    -0.070 C 
ATOM      3  C   UNL     1     189.837 201.120 211.686  1.00  0.00    -0.006 C 
ATOM      4  C   UNL     1     188.621 200.663 210.891  1.00  0.00     0.047 C 
ATOM      5  C   UNL     1     187.293 201.312 211.365  1.00  0.00     0.025 C 
ATOM      6  C   UNL     1     186.037 200.785 210.662  1.00  0.00    -0.073 C 
ATOM      7  C   UNL     1     186.065 199.952 209.605  1.00  0.00     0.008 C 
ATOM      8  C   UNL     1     184.692 201.248 211.170  1.00  0.00     0.031 C 
ATOM      9  C   UNL     1     184.835 202.361 212.209  1.00  0.00     0.005 C 
ATOM     10  C   UNL     1     185.766 201.954 213.364  1.00  0.00     0.008 C 
ATOM     11  C   UNL     1     187.100 201.241 212.919  1.00  0.00    -0.018 C 
ATOM     12  C   UNL     1     188.296 201.959 213.591  1.00  0.00     0.088 C 
ATOM     13  C   UNL     1     189.615 201.418 213.129  1.00  0.00     0.159 C 
ATOM     14  O   UNL     1     190.515 201.206 213.987  1.00  0.00    -0.295 OA
ATOM     15  C   UNL     1     187.051 199.765 213.403  1.00  0.00     0.012 C 
ATOM     16  C   UNL     1     192.290 201.647 211.872  1.00  0.00     0.039 C 
ENDROOT
TORSDOF 0
ENDMDL
MODEL 7
REMARK VINA RESULT:    -3.879      3.005      5.001
REMARK INTER + INTRA:          -3.879
REMARK INTER:                  -3.879
REMARK INTRA:                   0.000
REMARK UNBOUND:                 0.000
REMARK SMILES C=C1CCC[C@]2(C)CC(=O)C(=C(C)C)C[C@@H]12
REMARK SMILES IDX 13 1 12 2 11 3 15 4 16 5 2 6 1 7 3 8 4 9 5 10 6 11 8 12 9 13
REMARK SMILES IDX 10 14 7 15 14 16
REMARK H PARENT
REMARK Flexibility Score: inf
ROOT
ATOM      1  C   UNL     1     188.300 203.142 206.963  1.00  0.00     0.039 C 
ATOM      2  C   UNL     1     189.120 203.436 208.199  1.00  0.00    -0.070 C 
ATOM      3  C   UNL     1     188.798 202.891 209.410  1.00  0.00    -0.006 C 
ATOM      4  C   UNL     1     187.583 201.986 209.563  1.00  0.00     0.047 C 
ATOM      5  C   UNL     1     186.965 202.017 210.987  1.00  0.00     0.025 C 
ATOM      6  C   UNL     1     185.814 201.029 211.206  1.00  0.00    -0.073 C 
ATOM      7  C   UNL     1     185.254 200.302 210.221  1.00  0.00     0.008 C 
ATOM      8  C   UNL     1     185.260 200.883 212.604  1.00  0.00     0.031 C 
ATOM      9  C   UNL     1     185.836 201.937 213.551  1.00  0.00     0.005 C 
ATOM     10  C   UNL     1     187.374 201.932 213.549  1.00  0.00     0.008 C 
ATOM     11  C   UNL     1     188.034 201.844 212.120  1.00  0.00    -0.018 C 
ATOM     12  C   UNL     1     189.076 202.981 211.983  1.00  0.00     0.088 C 
ATOM     13  C   UNL     1     189.670 203.044 210.608  1.00  0.00     0.159 C 
ATOM     14  O   UNL     1     190.915 203.210 210.495  1.00  0.00    -0.295 OA
ATOM     15  C   UNL     1     188.755 200.472 211.997  1.00  0.00     0.012 C 
ATOM     16  C   UNL     1     190.286 204.385 208.036  1.00  0.00     0.039 C 
ENDROOT
TORSDOF 0
ENDMDL
MODEL 8
REMARK VINA RESULT:    -3.860      2.552      3.849
REMARK INTER + INTRA:          -3.860
REMARK INTER:                  -3.860
REMARK INTRA:                   0.000
REMARK UNBOUND:                 0.000
REMARK SMILES C=C1CCC[C@]2(C)CC(=O)C(=C(C)C)C[C@@H]12
REMARK SMILES IDX 13 1 12 2 11 3 15 4 16 5 2 6 1 7 3 8 4 9 5 10 6 11 8 12 9 13
REMARK SMILES IDX 10 14 7 15 14 16
REMARK H PARENT
REMARK Flexibility Score: inf
ROOT
ATOM      1  C   UNL     1     187.644 197.177 209.749  1.00  0.00     0.039 C 
ATOM      2  C   UNL     1     187.980 197.221 211.222  1.00  0.00    -0.070 C 
ATOM      3  C   UNL     1     188.053 198.408 211.897  1.00  0.00    -0.006 C 
ATOM      4  C   UNL     1     187.821 199.732 211.182  1.00  0.00     0.047 C 
ATOM      5  C   UNL     1     188.575 200.924 211.830  1.00  0.00     0.025 C 
ATOM      6  C   UNL     1     188.270 202.289 211.204  1.00  0.00    -0.073 C 
ATOM      7  C   UNL     1     187.544 202.453 210.082  1.00  0.00     0.008 C 
ATOM      8  C   UNL     1     188.838 203.520 211.872  1.00  0.00     0.031 C 
ATOM      9  C   UNL     1     189.822 203.153 212.984  1.00  0.00     0.005 C 
ATOM     10  C   UNL     1     189.200 202.190 214.009  1.00  0.00     0.008 C 
ATOM     11  C   UNL     1     188.379 200.998 213.383  1.00  0.00    -0.018 C 
ATOM     12  C   UNL     1     188.883 199.670 214.000  1.00  0.00     0.088 C 
ATOM     13  C   UNL     1     188.235 198.472 213.375  1.00  0.00     0.159 C 
ATOM     14  O   UNL     1     187.838 197.539 214.125  1.00  0.00    -0.295 OA
ATOM     15  C   UNL     1     186.880 201.193 213.744  1.00  0.00     0.012 C 
ATOM     16  C   UNL     1     188.265 195.900 211.899  1.00  0.00     0.039 C 
ENDROOT
TORSDOF 0
ENDMDL
