MODEL 1
REMARK VINA RESULT:    -4.394      0.000      0.000
REMARK INTER + INTRA:          -9.683
REMARK INTER:                  -8.504
REMARK INTRA:                  -1.179
REMARK UNBOUND:                -1.179
REMARK SMILES CCCCCCCCCCCCCCCCCC(=O)[O-]
REMARK SMILES IDX 10 1 11 2 12 3 13 4 14 5 15 6 16 7 17 8 18 9 19 10 20 11
REMARK SMILES IDX 9 12 8 13 7 14 6 15 5 16 4 17 3 18 2 19 1 20
REMARK H PARENT
REMARK Flexibility Score: inf
ROOT
ATOM      1  C   UNL     1     317.672 234.954 199.563  1.00  0.00     0.000 C 
ENDROOT
BRANCH   1   2
ATOM      2  C   UNL     1     317.789 234.398 200.993  1.00  0.00     0.000 C 
BRANCH   2   3
ATOM      3  C   UNL     1     319.235 234.250 201.512  1.00  0.00     0.000 C 
BRANCH   3   4
ATOM      4  C   UNL     1     320.313 234.112 200.416  1.00  0.00     0.000 C 
BRANCH   4   5
ATOM      5  C   UNL     1     320.475 232.695 199.835  1.00  0.00     0.000 C 
BRANCH   5   6
ATOM      6  C   UNL     1     321.931 232.362 199.481  1.00  0.00     0.000 C 
BRANCH   6   7
ATOM      7  C   UNL     1     322.791 233.629 199.450  1.00  0.00     0.006 C 
BRANCH   7   8
ATOM      8  C   UNL     1     324.157 233.378 200.099  1.00  0.00     0.053 C 
BRANCH   8   9
ATOM      9  C   UNL     1     324.389 234.331 201.230  1.00  0.00     0.041 C 
ATOM     10  O   UNL     1     325.501 234.914 201.349  1.00  0.00    -0.550 OA
ATOM     11  O   UNL     1     323.378 234.581 202.150  1.00  0.00    -0.550 OA
ENDBRANCH   8   9
ENDBRANCH   7   8
ENDBRANCH   6   7
ENDBRANCH   5   6
ENDBRANCH   4   5
ENDBRANCH   3   4
ENDBRANCH   2   3
ENDBRANCH   1   2
BRANCH   1  12
ATOM     12  C   UNL     1     316.217 235.284 199.179  1.00  0.00     0.000 C 
BRANCH  12  13
ATOM     13  C   UNL     1     315.246 234.148 199.541  1.00  0.00    -0.000 C 
BRANCH  13  14
ATOM     14  C   UNL     1     314.195 233.897 198.449  1.00  0.00    -0.000 C 
BRANCH  14  15
ATOM     15  C   UNL     1     314.297 232.491 197.830  1.00  0.00    -0.000 C 
BRANCH  15  16
ATOM     16  C   UNL     1     315.566 232.266 196.976  1.00  0.00    -0.000 C 
BRANCH  16  17
ATOM     17  C   UNL     1     315.283 231.774 195.540  1.00  0.00    -0.000 C 
BRANCH  17  18
ATOM     18  C   UNL     1     315.115 232.922 194.516  1.00  0.00    -0.000 C 
BRANCH  18  19
ATOM     19  C   UNL     1     313.838 232.762 193.678  1.00  0.00    -0.003 C 
ATOM     20  C   UNL     1     312.892 231.735 194.301  1.00  0.00     0.004 C 
ENDBRANCH  18  19
ENDBRANCH  17  18
ENDBRANCH  16  17
ENDBRANCH  15  16
ENDBRANCH  14  15
ENDBRANCH  13  14
ENDBRANCH  12  13
ENDBRANCH   1  12
TORSDOF 16
ENDMDL
MODEL 2
REMARK VINA RESULT:    -4.380      7.068      9.838
REMARK INTER + INTRA:          -9.654
REMARK INTER:                  -8.994
REMARK INTRA:                  -0.660
REMARK UNBOUND:                -1.179
REMARK SMILES CCCCCCCCCCCCCCCCCC(=O)[O-]
REMARK SMILES IDX 10 1 11 2 12 3 13 4 14 5 15 6 16 7 17 8 18 9 19 10 20 11
REMARK SMILES IDX 9 12 8 13 7 14 6 15 5 16 4 17 3 18 2 19 1 20
REMARK H PARENT
REMARK Flexibility Score: inf
ROOT
ATOM      1  C   UNL     1     315.490 236.091 206.551  1.00  0.00     0.000 C 
ENDROOT
BRANCH   1   2
ATOM      2  C   UNL     1     316.155 235.950 205.170  1.00  0.00     0.000 C 
BRANCH   2   3
ATOM      3  C   UNL     1     316.222 234.505 204.631  1.00  0.00     0.000 C 
BRANCH   3   4
ATOM      4  C   UNL     1     317.590 234.083 204.055  1.00  0.00     0.000 C 
BRANCH   4   5
ATOM      5  C   UNL     1     317.757 234.304 202.541  1.00  0.00     0.000 C 
BRANCH   5   6
ATOM      6  C   UNL     1     319.215 234.173 202.078  1.00  0.00     0.000 C 
BRANCH   6   7
ATOM      7  C   UNL     1     319.292 233.978 200.560  1.00  0.00     0.006 C 
BRANCH   7   8
ATOM      8  C   UNL     1     320.490 234.731 199.973  1.00  0.00     0.053 C 
BRANCH   8   9
ATOM      9  C   UNL     1     321.751 233.943 200.150  1.00  0.00     0.041 C 
ATOM     10  O   UNL     1     322.056 233.041 199.323  1.00  0.00    -0.550 OA
ATOM     11  O   UNL     1     322.593 234.207 201.223  1.00  0.00    -0.550 OA
ENDBRANCH   8   9
ENDBRANCH   7   8
ENDBRANCH   6   7
ENDBRANCH   5   6
ENDBRANCH   4   5
ENDBRANCH   3   4
ENDBRANCH   2   3
ENDBRANCH   1   2
BRANCH   1  12
ATOM     12  C   UNL     1     315.710 234.851 207.437  1.00  0.00     0.000 C 
BRANCH  12  13
ATOM     13  C   UNL     1     314.574 234.652 208.454  1.00  0.00    -0.000 C 
BRANCH  13  14
ATOM     14  C   UNL     1     314.990 233.769 209.640  1.00  0.00    -0.000 C 
BRANCH  14  15
ATOM     15  C   UNL     1     313.800 233.039 210.290  1.00  0.00    -0.000 C 
BRANCH  15  16
ATOM     16  C   UNL     1     313.779 231.514 210.038  1.00  0.00    -0.000 C 
BRANCH  16  17
ATOM     17  C   UNL     1     315.153 230.828 210.190  1.00  0.00    -0.000 C 
BRANCH  17  18
ATOM     18  C   UNL     1     315.326 230.084 211.536  1.00  0.00    -0.000 C 
BRANCH  18  19
ATOM     19  C   UNL     1     315.900 228.672 211.343  1.00  0.00    -0.003 C 
ATOM     20  C   UNL     1     316.786 228.600 210.098  1.00  0.00     0.004 C 
ENDBRANCH  18  19
ENDBRANCH  17  18
ENDBRANCH  16  17
ENDBRANCH  15  16
ENDBRANCH  14  15
ENDBRANCH  13  14
ENDBRANCH  12  13
ENDBRANCH   1  12
TORSDOF 16
ENDMDL
MODEL 3
REMARK VINA RESULT:    -4.369      2.437      5.613
REMARK INTER + INTRA:          -9.635
REMARK INTER:                  -7.311
REMARK INTRA:                  -2.324
REMARK UNBOUND:                -1.179
REMARK SMILES CCCCCCCCCCCCCCCCCC(=O)[O-]
REMARK SMILES IDX 10 1 11 2 12 3 13 4 14 5 15 6 16 7 17 8 18 9 19 10 20 11
REMARK SMILES IDX 9 12 8 13 7 14 6 15 5 16 4 17 3 18 2 19 1 20
REMARK H PARENT
REMARK Flexibility Score: inf
ROOT
ATOM      1  C   UNL     1     314.519 231.617 194.878  1.00  0.00     0.000 C 
ENDROOT
BRANCH   1   2
ATOM      2  C   UNL     1     315.258 232.613 195.789  1.00  0.00     0.000 C 
BRANCH   2   3
ATOM      3  C   UNL     1     314.837 234.087 195.608  1.00  0.00     0.000 C 
BRANCH   3   4
ATOM      4  C   UNL     1     315.369 235.056 196.684  1.00  0.00     0.000 C 
BRANCH   4   5
ATOM      5  C   UNL     1     315.932 234.382 197.949  1.00  0.00     0.000 C 
BRANCH   5   6
ATOM      6  C   UNL     1     316.580 235.382 198.917  1.00  0.00     0.000 C 
BRANCH   6   7
ATOM      7  C   UNL     1     317.405 234.654 199.984  1.00  0.00     0.006 C 
BRANCH   7   8
ATOM      8  C   UNL     1     318.886 235.032 199.881  1.00  0.00     0.053 C 
BRANCH   8   9
ATOM      9  C   UNL     1     319.695 234.289 200.898  1.00  0.00     0.041 C 
ATOM     10  O   UNL     1     319.199 234.013 202.024  1.00  0.00    -0.550 OA
ATOM     11  O   UNL     1     320.994 233.895 200.602  1.00  0.00    -0.550 OA
ENDBRANCH   8   9
ENDBRANCH   7   8
ENDBRANCH   6   7
ENDBRANCH   5   6
ENDBRANCH   4   5
ENDBRANCH   3   4
ENDBRANCH   2   3
ENDBRANCH   1   2
BRANCH   1  12
ATOM     12  C   UNL     1     313.588 232.320 193.873  1.00  0.00     0.000 C 
BRANCH  12  13
ATOM     13  C   UNL     1     312.230 231.612 193.741  1.00  0.00    -0.000 C 
BRANCH  13  14
ATOM     14  C   UNL     1     311.042 232.576 193.888  1.00  0.00    -0.000 C 
BRANCH  14  15
ATOM     15  C   UNL     1     311.293 233.682 194.929  1.00  0.00    -0.000 C 
BRANCH  15  16
ATOM     16  C   UNL     1     310.772 233.350 196.345  1.00  0.00    -0.000 C 
BRANCH  16  17
ATOM     17  C   UNL     1     311.757 232.531 197.207  1.00  0.00    -0.000 C 
BRANCH  17  18
ATOM     18  C   UNL     1     312.343 233.327 198.397  1.00  0.00    -0.000 C 
BRANCH  18  19
ATOM     19  C   UNL     1     313.201 232.442 199.314  1.00  0.00    -0.003 C 
ATOM     20  C   UNL     1     313.611 231.148 198.609  1.00  0.00     0.004 C 
ENDBRANCH  18  19
ENDBRANCH  17  18
ENDBRANCH  16  17
ENDBRANCH  15  16
ENDBRANCH  14  15
ENDBRANCH  13  14
ENDBRANCH  12  13
ENDBRANCH   1  12
TORSDOF 16
ENDMDL
MODEL 4
REMARK VINA RESULT:    -4.369      1.942      4.779
REMARK INTER + INTRA:          -9.633
REMARK INTER:                  -7.507
REMARK INTRA:                  -2.127
REMARK UNBOUND:                -1.179
REMARK SMILES CCCCCCCCCCCCCCCCCC(=O)[O-]
REMARK SMILES IDX 10 1 11 2 12 3 13 4 14 5 15 6 16 7 17 8 18 9 19 10 20 11
REMARK SMILES IDX 9 12 8 13 7 14 6 15 5 16 4 17 3 18 2 19 1 20
REMARK H PARENT
REMARK Flexibility Score: inf
ROOT
ATOM      1  C   UNL     1     315.654 232.769 196.894  1.00  0.00     0.000 C 
ENDROOT
BRANCH   1   2
ATOM      2  C   UNL     1     315.490 234.248 196.500  1.00  0.00     0.000 C 
BRANCH   2   3
ATOM      3  C   UNL     1     315.032 235.174 197.646  1.00  0.00     0.000 C 
BRANCH   3   4
ATOM      4  C   UNL     1     316.088 235.429 198.742  1.00  0.00     0.000 C 
BRANCH   4   5
ATOM      5  C   UNL     1     315.901 234.608 200.032  1.00  0.00     0.000 C 
BRANCH   5   6
ATOM      6  C   UNL     1     317.150 234.610 200.924  1.00  0.00     0.000 C 
BRANCH   6   7
ATOM      7  C   UNL     1     318.425 234.517 200.081  1.00  0.00     0.006 C 
BRANCH   7   8
ATOM      8  C   UNL     1     319.586 233.954 200.908  1.00  0.00     0.053 C 
BRANCH   8   9
ATOM      9  C   UNL     1     320.643 233.380 200.016  1.00  0.00     0.041 C 
ATOM     10  O   UNL     1     320.532 232.203 199.576  1.00  0.00    -0.550 OA
ATOM     11  O   UNL     1     321.748 234.145 199.665  1.00  0.00    -0.550 OA
ENDBRANCH   8   9
ENDBRANCH   7   8
ENDBRANCH   6   7
ENDBRANCH   5   6
ENDBRANCH   4   5
ENDBRANCH   3   4
ENDBRANCH   2   3
ENDBRANCH   1   2
BRANCH   1  12
ATOM     12  C   UNL     1     315.339 231.813 195.728  1.00  0.00     0.000 C 
BRANCH  12  13
ATOM     13  C   UNL     1     314.833 232.558 194.483  1.00  0.00    -0.000 C 
BRANCH  13  14
ATOM     14  C   UNL     1     313.328 232.362 194.246  1.00  0.00    -0.000 C 
BRANCH  14  15
ATOM     15  C   UNL     1     312.515 233.654 194.451  1.00  0.00    -0.000 C 
BRANCH  15  16
ATOM     16  C   UNL     1     311.880 233.786 195.853  1.00  0.00    -0.000 C 
BRANCH  16  17
ATOM     17  C   UNL     1     311.380 232.453 196.450  1.00  0.00    -0.000 C 
BRANCH  17  18
ATOM     18  C   UNL     1     311.590 232.346 197.979  1.00  0.00    -0.000 C 
BRANCH  18  19
ATOM     19  C   UNL     1     312.824 231.502 198.332  1.00  0.00    -0.003 C 
ATOM     20  C   UNL     1     313.366 231.866 199.715  1.00  0.00     0.004 C 
ENDBRANCH  18  19
ENDBRANCH  17  18
ENDBRANCH  16  17
ENDBRANCH  15  16
ENDBRANCH  14  15
ENDBRANCH  13  14
ENDBRANCH  12  13
ENDBRANCH   1  12
TORSDOF 16
ENDMDL
MODEL 5
REMARK VINA RESULT:    -4.305      5.487      9.626
REMARK INTER + INTRA:          -9.510
REMARK INTER:                  -6.793
REMARK INTRA:                  -2.717
REMARK UNBOUND:                -1.179
REMARK SMILES CCCCCCCCCCCCCCCCCC(=O)[O-]
REMARK SMILES IDX 10 1 11 2 12 3 13 4 14 5 15 6 16 7 17 8 18 9 19 10 20 11
REMARK SMILES IDX 9 12 8 13 7 14 6 15 5 16 4 17 3 18 2 19 1 20
REMARK H PARENT
REMARK Flexibility Score: inf
ROOT
ATOM      1  C   UNL     1     310.386 232.017 192.195  1.00  0.00     0.000 C 
ENDROOT
BRANCH   1   2
ATOM      2  C   UNL     1     310.230 233.541 192.051  1.00  0.00     0.000 C 
BRANCH   2   3
ATOM      3  C   UNL     1     309.859 234.278 193.355  1.00  0.00     0.000 C 
BRANCH   3   4
ATOM      4  C   UNL     1     311.044 234.934 194.096  1.00  0.00     0.000 C 
BRANCH   4   5
ATOM      5  C   UNL     1     311.229 234.483 195.557  1.00  0.00     0.000 C 
BRANCH   5   6
ATOM      6  C   UNL     1     310.770 233.038 195.796  1.00  0.00     0.000 C 
BRANCH   6   7
ATOM      7  C   UNL     1     311.648 232.351 196.847  1.00  0.00     0.006 C 
BRANCH   7   8
ATOM      8  C   UNL     1     311.856 233.261 198.062  1.00  0.00     0.053 C 
BRANCH   8   9
ATOM      9  C   UNL     1     311.729 232.483 199.335  1.00  0.00     0.041 C 
ATOM     10  O   UNL     1     312.745 231.947 199.855  1.00  0.00    -0.550 OA
ATOM     11  O   UNL     1     310.491 232.355 199.953  1.00  0.00    -0.550 OA
ENDBRANCH   8   9
ENDBRANCH   7   8
ENDBRANCH   6   7
ENDBRANCH   5   6
ENDBRANCH   4   5
ENDBRANCH   3   4
ENDBRANCH   2   3
ENDBRANCH   1   2
BRANCH   1  12
ATOM     12  C   UNL     1     311.803 231.613 192.645  1.00  0.00     0.000 C 
BRANCH  12  13
ATOM     13  C   UNL     1     312.898 232.368 191.875  1.00  0.00    -0.000 C 
BRANCH  13  14
ATOM     14  C   UNL     1     313.909 233.055 192.805  1.00  0.00    -0.000 C 
BRANCH  14  15
ATOM     15  C   UNL     1     314.112 232.302 194.132  1.00  0.00    -0.000 C 
BRANCH  15  16
ATOM     16  C   UNL     1     314.932 233.083 195.184  1.00  0.00    -0.000 C 
BRANCH  16  17
ATOM     17  C   UNL     1     315.455 232.216 196.350  1.00  0.00    -0.000 C 
BRANCH  17  18
ATOM     18  C   UNL     1     315.479 232.959 197.707  1.00  0.00    -0.000 C 
BRANCH  18  19
ATOM     19  C   UNL     1     315.532 234.484 197.527  1.00  0.00    -0.003 C 
ATOM     20  C   UNL     1     316.414 235.137 198.593  1.00  0.00     0.004 C 
ENDBRANCH  18  19
ENDBRANCH  17  18
ENDBRANCH  16  17
ENDBRANCH  15  16
ENDBRANCH  14  15
ENDBRANCH  13  14
ENDBRANCH  12  13
ENDBRANCH   1  12
TORSDOF 16
ENDMDL
MODEL 6
REMARK VINA RESULT:    -4.292      4.060      8.946
REMARK INTER + INTRA:          -9.485
REMARK INTER:                  -7.720
REMARK INTRA:                  -1.765
REMARK UNBOUND:                -1.179
REMARK SMILES CCCCCCCCCCCCCCCCCC(=O)[O-]
REMARK SMILES IDX 10 1 11 2 12 3 13 4 14 5 15 6 16 7 17 8 18 9 19 10 20 11
REMARK SMILES IDX 9 12 8 13 7 14 6 15 5 16 4 17 3 18 2 19 1 20
REMARK H PARENT
REMARK Flexibility Score: inf
ROOT
ATOM      1  C   UNL     1     315.466 232.616 196.695  1.00  0.00     0.000 C 
ENDROOT
BRANCH   1   2
ATOM      2  C   UNL     1     315.142 231.803 195.429  1.00  0.00     0.000 C 
BRANCH   2   3
ATOM      3  C   UNL     1     314.834 232.654 194.178  1.00  0.00     0.000 C 
BRANCH   3   4
ATOM      4  C   UNL     1     313.371 232.598 193.692  1.00  0.00     0.000 C 
BRANCH   4   5
ATOM      5  C   UNL     1     312.394 231.885 194.646  1.00  0.00     0.000 C 
BRANCH   5   6
ATOM      6  C   UNL     1     311.222 232.780 195.074  1.00  0.00     0.000 C 
BRANCH   6   7
ATOM      7  C   UNL     1     311.303 233.109 196.569  1.00  0.00     0.006 C 
BRANCH   7   8
ATOM      8  C   UNL     1     311.895 231.935 197.354  1.00  0.00     0.053 C 
BRANCH   8   9
ATOM      9  C   UNL     1     312.330 232.374 198.718  1.00  0.00     0.041 C 
ATOM     10  O   UNL     1     313.043 231.616 199.431  1.00  0.00    -0.550 OA
ATOM     11  O   UNL     1     311.955 233.622 199.201  1.00  0.00    -0.550 OA
ENDBRANCH   8   9
ENDBRANCH   7   8
ENDBRANCH   6   7
ENDBRANCH   5   6
ENDBRANCH   4   5
ENDBRANCH   3   4
ENDBRANCH   2   3
ENDBRANCH   1   2
BRANCH   1  12
ATOM     12  C   UNL     1     315.374 234.135 196.457  1.00  0.00     0.000 C 
BRANCH  12  13
ATOM     13  C   UNL     1     315.829 234.946 197.680  1.00  0.00    -0.000 C 
BRANCH  13  14
ATOM     14  C   UNL     1     315.630 234.188 199.001  1.00  0.00    -0.000 C 
BRANCH  14  15
ATOM     15  C   UNL     1     316.471 234.763 200.156  1.00  0.00    -0.000 C 
BRANCH  15  16
ATOM     16  C   UNL     1     317.974 234.915 199.829  1.00  0.00    -0.000 C 
BRANCH  16  17
ATOM     17  C   UNL     1     318.916 234.257 200.860  1.00  0.00    -0.000 C 
BRANCH  17  18
ATOM     18  C   UNL     1     320.087 233.478 200.215  1.00  0.00    -0.000 C 
BRANCH  18  19
ATOM     19  C   UNL     1     321.417 234.239 200.332  1.00  0.00    -0.003 C 
ATOM     20  C   UNL     1     321.744 234.985 199.038  1.00  0.00     0.004 C 
ENDBRANCH  18  19
ENDBRANCH  17  18
ENDBRANCH  16  17
ENDBRANCH  15  16
ENDBRANCH  14  15
ENDBRANCH  13  14
ENDBRANCH  12  13
ENDBRANCH   1  12
TORSDOF 16
ENDMDL
MODEL 7
REMARK VINA RESULT:    -4.217      4.168      6.971
REMARK INTER + INTRA:          -9.341
REMARK INTER:                  -6.629
REMARK INTRA:                  -2.712
REMARK UNBOUND:                -1.179
REMARK SMILES CCCCCCCCCCCCCCCCCC(=O)[O-]
REMARK SMILES IDX 10 1 11 2 12 3 13 4 14 5 15 6 16 7 17 8 18 9 19 10 20 11
REMARK SMILES IDX 9 12 8 13 7 14 6 15 5 16 4 17 3 18 2 19 1 20
REMARK H PARENT
REMARK Flexibility Score: inf
ROOT
ATOM      1  C   UNL     1     312.547 232.023 193.041  1.00  0.00     0.000 C 
ENDROOT
BRANCH   1   2
ATOM      2  C   UNL     1     312.913 231.575 194.467  1.00  0.00     0.000 C 
BRANCH   2   3
ATOM      3  C   UNL     1     314.409 231.704 194.821  1.00  0.00     0.000 C 
BRANCH   3   4
ATOM      4  C   UNL     1     314.948 233.149 194.871  1.00  0.00     0.000 C 
BRANCH   4   5
ATOM      5  C   UNL     1     315.196 233.703 196.286  1.00  0.00     0.000 C 
BRANCH   5   6
ATOM      6  C   UNL     1     315.449 235.218 196.296  1.00  0.00     0.000 C 
BRANCH   6   7
ATOM      7  C   UNL     1     316.070 235.661 197.625  1.00  0.00     0.006 C 
BRANCH   7   8
ATOM      8  C   UNL     1     315.680 234.702 198.755  1.00  0.00     0.053 C 
BRANCH   8   9
ATOM      9  C   UNL     1     316.699 234.732 199.851  1.00  0.00     0.041 C 
ATOM     10  O   UNL     1     317.917 234.916 199.580  1.00  0.00    -0.550 OA
ATOM     11  O   UNL     1     316.306 234.565 201.173  1.00  0.00    -0.550 OA
ENDBRANCH   8   9
ENDBRANCH   7   8
ENDBRANCH   6   7
ENDBRANCH   5   6
ENDBRANCH   4   5
ENDBRANCH   3   4
ENDBRANCH   2   3
ENDBRANCH   1   2
BRANCH   1  12
ATOM     12  C   UNL     1     311.168 232.707 192.977  1.00  0.00     0.000 C 
BRANCH  12  13
ATOM     13  C   UNL     1     310.680 233.167 194.360  1.00  0.00    -0.000 C 
BRANCH  13  14
ATOM     14  C   UNL     1     310.960 234.654 194.623  1.00  0.00    -0.000 C 
BRANCH  14  15
ATOM     15  C   UNL     1     311.669 234.903 195.966  1.00  0.00    -0.000 C 
BRANCH  15  16
ATOM     16  C   UNL     1     310.971 234.252 197.181  1.00  0.00    -0.000 C 
BRANCH  16  17
ATOM     17  C   UNL     1     311.914 233.441 198.096  1.00  0.00    -0.000 C 
BRANCH  17  18
ATOM     18  C   UNL     1     311.970 231.936 197.743  1.00  0.00    -0.000 C 
BRANCH  18  19
ATOM     19  C   UNL     1     313.195 231.245 198.361  1.00  0.00    -0.003 C 
ATOM     20  C   UNL     1     313.572 231.881 199.700  1.00  0.00     0.004 C 
ENDBRANCH  18  19
ENDBRANCH  17  18
ENDBRANCH  16  17
ENDBRANCH  15  16
ENDBRANCH  14  15
ENDBRANCH  13  14
ENDBRANCH  12  13
ENDBRANCH   1  12
TORSDOF 16
ENDMDL
MODEL 8
REMARK VINA RESULT:    -4.213      4.940      8.648
REMARK INTER + INTRA:          -9.333
REMARK INTER:                  -6.522
REMARK INTRA:                  -2.810
REMARK UNBOUND:                -1.179
REMARK SMILES CCCCCCCCCCCCCCCCCC(=O)[O-]
REMARK SMILES IDX 10 1 11 2 12 3 13 4 14 5 15 6 16 7 17 8 18 9 19 10 20 11
REMARK SMILES IDX 9 12 8 13 7 14 6 15 5 16 4 17 3 18 2 19 1 20
REMARK H PARENT
REMARK Flexibility Score: inf
ROOT
ATOM      1  C   UNL     1     312.331 232.001 193.095  1.00  0.00     0.000 C 
ENDROOT
BRANCH   1   2
ATOM      2  C   UNL     1     311.294 232.095 194.228  1.00  0.00     0.000 C 
BRANCH   2   3
ATOM      3  C   UNL     1     310.985 233.531 194.701  1.00  0.00     0.000 C 
BRANCH   3   4
ATOM      4  C   UNL     1     311.128 233.766 196.220  1.00  0.00     0.000 C 
BRANCH   4   5
ATOM      5  C   UNL     1     311.337 232.492 197.060  1.00  0.00     0.000 C 
BRANCH   5   6
ATOM      6  C   UNL     1     312.013 232.774 198.409  1.00  0.00     0.000 C 
BRANCH   6   7
ATOM      7  C   UNL     1     312.952 231.629 198.801  1.00  0.00     0.006 C 
BRANCH   7   8
ATOM      8  C   UNL     1     313.632 231.916 200.144  1.00  0.00     0.053 C 
BRANCH   8   9
ATOM      9  C   UNL     1     312.621 232.298 201.180  1.00  0.00     0.041 C 
ATOM     10  O   UNL     1     311.810 231.439 201.621  1.00  0.00    -0.550 OA
ATOM     11  O   UNL     1     312.577 233.600 201.664  1.00  0.00    -0.550 OA
ENDBRANCH   8   9
ENDBRANCH   7   8
ENDBRANCH   6   7
ENDBRANCH   5   6
ENDBRANCH   4   5
ENDBRANCH   3   4
ENDBRANCH   2   3
ENDBRANCH   1   2
BRANCH   1  12
ATOM     12  C   UNL     1     313.751 232.363 193.568  1.00  0.00     0.000 C 
BRANCH  12  13
ATOM     13  C   UNL     1     314.145 231.621 194.855  1.00  0.00    -0.000 C 
BRANCH  13  14
ATOM     14  C   UNL     1     315.005 232.480 195.795  1.00  0.00    -0.000 C 
BRANCH  14  15
ATOM     15  C   UNL     1     315.089 233.952 195.353  1.00  0.00    -0.000 C 
BRANCH  15  16
ATOM     16  C   UNL     1     315.606 234.913 196.447  1.00  0.00    -0.000 C 
BRANCH  16  17
ATOM     17  C   UNL     1     314.557 235.274 197.521  1.00  0.00    -0.000 C 
BRANCH  17  18
ATOM     18  C   UNL     1     315.071 235.095 198.969  1.00  0.00    -0.000 C 
BRANCH  18  19
ATOM     19  C   UNL     1     316.335 234.225 199.028  1.00  0.00    -0.003 C 
ATOM     20  C   UNL     1     317.440 234.907 199.836  1.00  0.00     0.004 C 
ENDBRANCH  18  19
ENDBRANCH  17  18
ENDBRANCH  16  17
ENDBRANCH  15  16
ENDBRANCH  14  15
ENDBRANCH  13  14
ENDBRANCH  12  13
ENDBRANCH   1  12
TORSDOF 16
ENDMDL
MODEL 9
REMARK VINA RESULT:    -4.169      4.154      6.316
REMARK INTER + INTRA:          -9.248
REMARK INTER:                  -6.448
REMARK INTRA:                  -2.800
REMARK UNBOUND:                -1.179
REMARK SMILES CCCCCCCCCCCCCCCCCC(=O)[O-]
REMARK SMILES IDX 10 1 11 2 12 3 13 4 14 5 15 6 16 7 17 8 18 9 19 10 20 11
REMARK SMILES IDX 9 12 8 13 7 14 6 15 5 16 4 17 3 18 2 19 1 20
REMARK H PARENT
REMARK Flexibility Score: inf
ROOT
ATOM      1  C   UNL     1     310.768 234.489 197.308  1.00  0.00     0.000 C 
ENDROOT
BRANCH   1   2
ATOM      2  C   UNL     1     311.174 233.147 196.675  1.00  0.00     0.000 C 
BRANCH   2   3
ATOM      3  C   UNL     1     311.417 232.005 197.684  1.00  0.00     0.000 C 
BRANCH   3   4
ATOM      4  C   UNL     1     312.890 231.575 197.844  1.00  0.00     0.000 C 
BRANCH   4   5
ATOM      5  C   UNL     1     313.805 232.619 198.512  1.00  0.00     0.000 C 
BRANCH   5   6
ATOM      6  C   UNL     1     313.330 233.012 199.919  1.00  0.00     0.000 C 
BRANCH   6   7
ATOM      7  C   UNL     1     314.218 234.113 200.508  1.00  0.00     0.006 C 
BRANCH   7   8
ATOM      8  C   UNL     1     315.415 234.395 199.595  1.00  0.00     0.053 C 
BRANCH   8   9
ATOM      9  C   UNL     1     316.651 234.647 200.402  1.00  0.00     0.041 C 
ATOM     10  O   UNL     1     316.590 234.679 201.661  1.00  0.00    -0.550 OA
ATOM     11  O   UNL     1     317.871 234.839 199.766  1.00  0.00    -0.550 OA
ENDBRANCH   8   9
ENDBRANCH   7   8
ENDBRANCH   6   7
ENDBRANCH   5   6
ENDBRANCH   4   5
ENDBRANCH   3   4
ENDBRANCH   2   3
ENDBRANCH   1   2
BRANCH   1  12
ATOM     12  C   UNL     1     311.734 235.629 196.934  1.00  0.00     0.000 C 
BRANCH  12  13
ATOM     13  C   UNL     1     312.777 235.193 195.892  1.00  0.00    -0.000 C 
BRANCH  13  14
ATOM     14  C   UNL     1     314.212 235.549 196.305  1.00  0.00    -0.000 C 
BRANCH  14  15
ATOM     15  C   UNL     1     315.276 234.878 195.417  1.00  0.00    -0.000 C 
BRANCH  15  16
ATOM     16  C   UNL     1     315.249 233.334 195.455  1.00  0.00    -0.000 C 
BRANCH  16  17
ATOM     17  C   UNL     1     314.850 232.675 194.117  1.00  0.00    -0.000 C 
BRANCH  17  18
ATOM     18  C   UNL     1     313.507 231.910 194.184  1.00  0.00    -0.000 C 
BRANCH  18  19
ATOM     19  C   UNL     1     312.565 232.300 193.035  1.00  0.00    -0.003 C 
ATOM     20  C   UNL     1     311.267 231.492 193.084  1.00  0.00     0.004 C 
ENDBRANCH  18  19
ENDBRANCH  17  18
ENDBRANCH  16  17
ENDBRANCH  15  16
ENDBRANCH  14  15
ENDBRANCH  13  14
ENDBRANCH  12  13
ENDBRANCH   1  12
TORSDOF 16
ENDMDL
