MODEL 1
REMARK VINA RESULT:    -3.824      0.000      0.000
REMARK INTER + INTRA:          -3.824
REMARK INTER:                  -3.824
REMARK INTRA:                   0.000
REMARK UNBOUND:                 0.000
REMARK SMILES Cc1cccc2ccccc12
REMARK SMILES IDX 1 1 2 2 3 3 4 4 5 5 6 6 7 7 8 8 9 9 10 10 11 11
REMARK H PARENT
REMARK Flexibility Score: inf
ROOT
ATOM      1  C   UNL     1      75.940  91.182  76.676  1.00  0.00     0.045 C 
ATOM      2  C   UNL     1      75.218  90.997  75.366  1.00  0.00    -0.043 A 
ATOM      3  C   UNL     1      74.673  92.125  74.728  1.00  0.00     0.004 A 
ATOM      4  C   UNL     1      73.998  92.001  73.513  1.00  0.00     0.001 A 
ATOM      5  C   UNL     1      73.852  90.752  72.914  1.00  0.00     0.009 A 
ATOM      6  C   UNL     1      74.383  89.608  73.525  1.00  0.00    -0.018 A 
ATOM      7  C   UNL     1      74.232  88.352  72.916  1.00  0.00     0.009 A 
ATOM      8  C   UNL     1      74.758  87.210  73.520  1.00  0.00     0.001 A 
ATOM      9  C   UNL     1      75.438  87.309  74.733  1.00  0.00     0.001 A 
ATOM     10  C   UNL     1      75.597  88.550  75.354  1.00  0.00     0.009 A 
ATOM     11  C   UNL     1      75.074  89.720  74.763  1.00  0.00    -0.015 A 
ENDROOT
TORSDOF 0
ENDMDL
MODEL 2
REMARK VINA RESULT:    -3.722      0.490      3.392
REMARK INTER + INTRA:          -3.722
REMARK INTER:                  -3.722
REMARK INTRA:                   0.000
REMARK UNBOUND:                 0.000
REMARK SMILES Cc1cccc2ccccc12
REMARK SMILES IDX 1 1 2 2 3 3 4 4 5 5 6 6 7 7 8 8 9 9 10 10 11 11
REMARK H PARENT
REMARK Flexibility Score: inf
ROOT
ATOM      1  C   UNL     1      76.471  88.460  76.546  1.00  0.00     0.045 C 
ATOM      2  C   UNL     1      75.671  88.425  75.268  1.00  0.00    -0.043 A 
ATOM      3  C   UNL     1      75.501  87.194  74.609  1.00  0.00     0.004 A 
ATOM      4  C   UNL     1      74.768  87.114  73.425  1.00  0.00     0.001 A 
ATOM      5  C   UNL     1      74.193  88.258  72.875  1.00  0.00     0.009 A 
ATOM      6  C   UNL     1      74.345  89.500  73.507  1.00  0.00    -0.018 A 
ATOM      7  C   UNL     1      73.763  90.648  72.948  1.00  0.00     0.009 A 
ATOM      8  C   UNL     1      73.911  91.887  73.572  1.00  0.00     0.001 A 
ATOM      9  C   UNL     1      74.638  91.992  74.758  1.00  0.00     0.001 A 
ATOM     10  C   UNL     1      75.224  90.860  75.328  1.00  0.00     0.009 A 
ATOM     11  C   UNL     1      75.089  89.596  74.715  1.00  0.00    -0.015 A 
ENDROOT
TORSDOF 0
ENDMDL
MODEL 3
REMARK VINA RESULT:    -3.610      0.753      2.541
REMARK INTER + INTRA:          -3.610
REMARK INTER:                  -3.610
REMARK INTRA:                   0.000
REMARK UNBOUND:                 0.000
REMARK SMILES Cc1cccc2ccccc12
REMARK SMILES IDX 1 1 2 2 3 3 4 4 5 5 6 6 7 7 8 8 9 9 10 10 11 11
REMARK H PARENT
REMARK Flexibility Score: inf
ROOT
ATOM      1  C   UNL     1      73.087  91.392  72.875  1.00  0.00     0.045 C 
ATOM      2  C   UNL     1      74.135  91.007  73.888  1.00  0.00    -0.043 A 
ATOM      3  C   UNL     1      74.611  91.988  74.777  1.00  0.00     0.004 A 
ATOM      4  C   UNL     1      75.579  91.677  75.731  1.00  0.00     0.001 A 
ATOM      5  C   UNL     1      76.091  90.384  75.818  1.00  0.00     0.009 A 
ATOM      6  C   UNL     1      75.639  89.384  74.947  1.00  0.00    -0.018 A 
ATOM      7  C   UNL     1      76.159  88.083  75.040  1.00  0.00     0.009 A 
ATOM      8  C   UNL     1      75.712  87.084  74.175  1.00  0.00     0.001 A 
ATOM      9  C   UNL     1      74.744  87.370  73.213  1.00  0.00     0.001 A 
ATOM     10  C   UNL     1      74.215  88.659  73.106  1.00  0.00     0.009 A 
ATOM     11  C   UNL     1      74.652  89.687  73.969  1.00  0.00    -0.015 A 
ENDROOT
TORSDOF 0
ENDMDL
MODEL 4
REMARK VINA RESULT:    -3.490      0.923      3.627
REMARK INTER + INTRA:          -3.490
REMARK INTER:                  -3.490
REMARK INTRA:                   0.000
REMARK UNBOUND:                 0.000
REMARK SMILES Cc1cccc2ccccc12
REMARK SMILES IDX 1 1 2 2 3 3 4 4 5 5 6 6 7 7 8 8 9 9 10 10 11 11
REMARK H PARENT
REMARK Flexibility Score: inf
ROOT
ATOM      1  C   UNL     1      73.433  92.125  73.088  1.00  0.00     0.045 C 
ATOM      2  C   UNL     1      74.119  90.863  73.544  1.00  0.00    -0.043 A 
ATOM      3  C   UNL     1      73.838  89.659  72.875  1.00  0.00     0.004 A 
ATOM      4  C   UNL     1      74.451  88.467  73.262  1.00  0.00     0.001 A 
ATOM      5  C   UNL     1      75.354  88.453  74.323  1.00  0.00     0.009 A 
ATOM      6  C   UNL     1      75.655  89.636  75.011  1.00  0.00    -0.018 A 
ATOM      7  C   UNL     1      76.566  89.615  76.080  1.00  0.00     0.009 A 
ATOM      8  C   UNL     1      76.869  90.790  76.768  1.00  0.00     0.001 A 
ATOM      9  C   UNL     1      76.270  91.994  76.399  1.00  0.00     0.001 A 
ATOM     10  C   UNL     1      75.361  92.034  75.339  1.00  0.00     0.009 A 
ATOM     11  C   UNL     1      75.038  90.858  74.627  1.00  0.00    -0.015 A 
ENDROOT
TORSDOF 0
ENDMDL
MODEL 5
REMARK VINA RESULT:    -3.411     21.410     23.439
REMARK INTER + INTRA:          -3.411
REMARK INTER:                  -3.411
REMARK INTRA:                   0.000
REMARK UNBOUND:                 0.000
REMARK SMILES Cc1cccc2ccccc12
REMARK SMILES IDX 1 1 2 2 3 3 4 4 5 5 6 6 7 7 8 8 9 9 10 10 11 11
REMARK H PARENT
REMARK Flexibility Score: inf
ROOT
ATOM      1  C   UNL     1      90.855  86.924  88.108  1.00  0.00     0.045 C 
ATOM      2  C   UNL     1      90.749  87.622  89.439  1.00  0.00    -0.043 A 
ATOM      3  C   UNL     1      90.399  88.984  89.463  1.00  0.00     0.004 A 
ATOM      4  C   UNL     1      90.287  89.671  90.672  1.00  0.00     0.001 A 
ATOM      5  C   UNL     1      90.523  89.015  91.878  1.00  0.00     0.009 A 
ATOM      6  C   UNL     1      90.874  87.658  91.889  1.00  0.00    -0.018 A 
ATOM      7  C   UNL     1      91.110  87.002  93.107  1.00  0.00     0.009 A 
ATOM      8  C   UNL     1      91.460  85.652  93.123  1.00  0.00     0.001 A 
ATOM      9  C   UNL     1      91.577  84.944  91.927  1.00  0.00     0.001 A 
ATOM     10  C   UNL     1      91.346  85.580  90.706  1.00  0.00     0.009 A 
ATOM     11  C   UNL     1      90.991  86.946  90.664  1.00  0.00    -0.015 A 
ENDROOT
TORSDOF 0
ENDMDL
MODEL 6
REMARK VINA RESULT:    -3.388      0.852      3.225
REMARK INTER + INTRA:          -3.388
REMARK INTER:                  -3.388
REMARK INTRA:                   0.000
REMARK UNBOUND:                 0.000
REMARK SMILES Cc1cccc2ccccc12
REMARK SMILES IDX 1 1 2 2 3 3 4 4 5 5 6 6 7 7 8 8 9 9 10 10 11 11
REMARK H PARENT
REMARK Flexibility Score: inf
ROOT
ATOM      1  C   UNL     1      76.603  91.836  77.056  1.00  0.00     0.045 C 
ATOM      2  C   UNL     1      76.142  90.639  76.264  1.00  0.00    -0.043 A 
ATOM      3  C   UNL     1      76.564  89.358  76.664  1.00  0.00     0.004 A 
ATOM      4  C   UNL     1      76.161  88.222  75.963  1.00  0.00     0.001 A 
ATOM      5  C   UNL     1      75.331  88.341  74.850  1.00  0.00     0.009 A 
ATOM      6  C   UNL     1      74.893  89.602  74.425  1.00  0.00    -0.018 A 
ATOM      7  C   UNL     1      74.056  89.715  73.303  1.00  0.00     0.009 A 
ATOM      8  C   UNL     1      73.617  90.968  72.876  1.00  0.00     0.001 A 
ATOM      9  C   UNL     1      74.006  92.118  73.562  1.00  0.00     0.001 A 
ATOM     10  C   UNL     1      74.838  92.025  74.680  1.00  0.00     0.009 A 
ATOM     11  C   UNL     1      75.296  90.769  75.131  1.00  0.00    -0.015 A 
ENDROOT
TORSDOF 0
ENDMDL
MODEL 7
REMARK VINA RESULT:    -3.340      0.723      3.635
REMARK INTER + INTRA:          -3.340
REMARK INTER:                  -3.340
REMARK INTRA:                   0.000
REMARK UNBOUND:                 0.000
REMARK SMILES Cc1cccc2ccccc12
REMARK SMILES IDX 1 1 2 2 3 3 4 4 5 5 6 6 7 7 8 8 9 9 10 10 11 11
REMARK H PARENT
REMARK Flexibility Score: inf
ROOT
ATOM      1  C   UNL     1      75.752  87.044  75.052  1.00  0.00     0.045 C 
ATOM      2  C   UNL     1      75.772  88.478  75.517  1.00  0.00    -0.043 A 
ATOM      3  C   UNL     1      76.440  88.793  76.714  1.00  0.00     0.004 A 
ATOM      4  C   UNL     1      76.485  90.106  77.182  1.00  0.00     0.001 A 
ATOM      5  C   UNL     1      75.865  91.129  76.467  1.00  0.00     0.009 A 
ATOM      6  C   UNL     1      75.191  90.848  75.270  1.00  0.00    -0.018 A 
ATOM      7  C   UNL     1      74.569  91.883  74.555  1.00  0.00     0.009 A 
ATOM      8  C   UNL     1      73.897  91.610  73.363  1.00  0.00     0.001 A 
ATOM      9  C   UNL     1      73.839  90.304  72.875  1.00  0.00     0.001 A 
ATOM     10  C   UNL     1      74.452  89.262  73.574  1.00  0.00     0.009 A 
ATOM     11  C   UNL     1      75.138  89.514  74.782  1.00  0.00    -0.015 A 
ENDROOT
TORSDOF 0
ENDMDL
MODEL 8
REMARK VINA RESULT:    -3.196     18.448     18.764
REMARK INTER + INTRA:          -3.196
REMARK INTER:                  -3.196
REMARK INTRA:                   0.000
REMARK UNBOUND:                 0.000
REMARK SMILES Cc1cccc2ccccc12
REMARK SMILES IDX 1 1 2 2 3 3 4 4 5 5 6 6 7 7 8 8 9 9 10 10 11 11
REMARK H PARENT
REMARK Flexibility Score: inf
ROOT
ATOM      1  C   UNL     1      76.309  86.650  92.743  1.00  0.00     0.045 C 
ATOM      2  C   UNL     1      75.813  88.073  92.749  1.00  0.00    -0.043 A 
ATOM      3  C   UNL     1      74.427  88.307  92.740  1.00  0.00     0.004 A 
ATOM      4  C   UNL     1      73.922  89.607  92.747  1.00  0.00     0.001 A 
ATOM      5  C   UNL     1      74.789  90.698  92.762  1.00  0.00     0.009 A 
ATOM      6  C   UNL     1      76.176  90.499  92.771  1.00  0.00    -0.018 A 
ATOM      7  C   UNL     1      77.044  91.602  92.786  1.00  0.00     0.009 A 
ATOM      8  C   UNL     1      78.426  91.410  92.795  1.00  0.00     0.001 A 
ATOM      9  C   UNL     1      78.954  90.119  92.790  1.00  0.00     0.001 A 
ATOM     10  C   UNL     1      78.105  89.010  92.774  1.00  0.00     0.009 A 
ATOM     11  C   UNL     1      76.704  89.179  92.765  1.00  0.00    -0.015 A 
ENDROOT
TORSDOF 0
ENDMDL
