MODEL 1
REMARK VINA RESULT:    -4.616      0.000      0.000
REMARK INTER + INTRA:          -7.430
REMARK INTER:                  -6.235
REMARK INTRA:                  -1.195
REMARK UNBOUND:                -1.195
REMARK SMILES C=CC(C)=CCC=C(C)CCC=C(C)C
REMARK SMILES IDX 8 1 7 2 9 3 10 4 11 5 12 6 14 7 13 8 15 9 6 10 5 11 3 12
REMARK SMILES IDX 4 13 2 14 1 15
REMARK H PARENT
REMARK Flexibility Score: inf
ROOT
ATOM      1  C   UNL     1       0.591  16.070  17.199  1.00  0.00    -0.077 C 
ATOM      2  C   UNL     1      -0.095  16.583  16.154  1.00  0.00    -0.024 C 
ATOM      3  C   UNL     1       1.874  16.702  17.686  1.00  0.00     0.039 C 
ENDROOT
BRANCH   1   4
ATOM      4  C   UNL     1       0.064  14.834  17.899  1.00  0.00     0.034 C 
BRANCH   4   5
ATOM      5  C   UNL     1       1.043  13.655  17.794  1.00  0.00     0.032 C 
BRANCH   5   6
ATOM      6  C   UNL     1       0.771  12.810  16.570  1.00  0.00    -0.028 C 
ATOM      7  C   UNL     1       2.626  13.838  15.238  1.00  0.00     0.039 C 
ATOM      8  C   UNL     1       1.491  12.859  15.428  1.00  0.00    -0.080 C 
ATOM      9  C   UNL     1       1.128  11.916  14.311  1.00  0.00     0.039 C 
ENDBRANCH   5   6
ENDBRANCH   4   5
ENDBRANCH   1   4
BRANCH   2  10
ATOM     10  C   UNL     1       0.354  17.814  15.403  1.00  0.00     0.055 C 
BRANCH  10  11
ATOM     11  C   UNL     1       1.221  17.469  14.217  1.00  0.00    -0.020 C 
ATOM     12  C   UNL     1       0.748  17.340  12.961  1.00  0.00    -0.055 C 
ATOM     13  C   UNL     1      -0.716  17.546  12.639  1.00  0.00     0.044 C 
BRANCH  12  14
ATOM     14  C   UNL     1       1.721  17.054  11.875  1.00  0.00    -0.005 C 
ATOM     15  C   UNL     1       3.005  17.413  11.922  1.00  0.00     0.009 C 
ENDBRANCH  12  14
ENDBRANCH  10  11
ENDBRANCH   2  10
TORSDOF 6
ENDMDL
MODEL 2
REMARK VINA RESULT:    -4.397      1.240      3.480
REMARK INTER + INTRA:          -7.134
REMARK INTER:                  -5.245
REMARK INTRA:                  -1.889
REMARK UNBOUND:                -1.195
REMARK SMILES C=CC(C)=CCC=C(C)CCC=C(C)C
REMARK SMILES IDX 8 1 7 2 9 3 10 4 11 5 12 6 14 7 13 8 15 9 6 10 5 11 3 12
REMARK SMILES IDX 4 13 2 14 1 15
REMARK H PARENT
REMARK Flexibility Score: inf
ROOT
ATOM      1  C   UNL     1       1.093  12.859  15.824  1.00  0.00    -0.077 C 
ATOM      2  C   UNL     1       2.225  13.494  15.452  1.00  0.00    -0.024 C 
ATOM      3  C   UNL     1       0.183  12.207  14.808  1.00  0.00     0.039 C 
ENDROOT
BRANCH   1   4
ATOM      4  C   UNL     1       0.723  12.798  17.292  1.00  0.00     0.034 C 
BRANCH   4   5
ATOM      5  C   UNL     1       0.532  14.198  17.893  1.00  0.00     0.032 C 
BRANCH   5   6
ATOM      6  C   UNL     1      -0.366  15.058  17.034  1.00  0.00    -0.028 C 
ATOM      7  C   UNL     1       1.335  16.877  16.776  1.00  0.00     0.039 C 
ATOM      8  C   UNL     1      -0.010  16.247  16.500  1.00  0.00    -0.080 C 
ATOM      9  C   UNL     1      -1.001  16.964  15.620  1.00  0.00     0.039 C 
ENDBRANCH   5   6
ENDBRANCH   4   5
ENDBRANCH   1   4
BRANCH   2  10
ATOM     10  C   UNL     1       2.673  13.597  14.012  1.00  0.00     0.055 C 
BRANCH  10  11
ATOM     11  C   UNL     1       2.762  15.030  13.549  1.00  0.00    -0.020 C 
ATOM     12  C   UNL     1       1.765  15.667  12.900  1.00  0.00    -0.055 C 
ATOM     13  C   UNL     1       0.452  14.980  12.592  1.00  0.00     0.044 C 
BRANCH  12  14
ATOM     14  C   UNL     1       1.962  17.098  12.552  1.00  0.00    -0.005 C 
ATOM     15  C   UNL     1       1.724  18.103  13.396  1.00  0.00     0.009 C 
ENDBRANCH  12  14
ENDBRANCH  10  11
ENDBRANCH   2  10
TORSDOF 6
ENDMDL
MODEL 3
REMARK VINA RESULT:    -4.372      1.421      5.834
REMARK INTER + INTRA:          -7.100
REMARK INTER:                  -5.362
REMARK INTRA:                  -1.738
REMARK UNBOUND:                -1.195
REMARK SMILES C=CC(C)=CCC=C(C)CCC=C(C)C
REMARK SMILES IDX 8 1 7 2 9 3 10 4 11 5 12 6 14 7 13 8 15 9 6 10 5 11 3 12
REMARK SMILES IDX 4 13 2 14 1 15
REMARK H PARENT
REMARK Flexibility Score: inf
ROOT
ATOM      1  C   UNL     1       1.945  14.156  13.683  1.00  0.00    -0.077 C 
ATOM      2  C   UNL     1       0.957  13.436  14.259  1.00  0.00    -0.024 C 
ATOM      3  C   UNL     1       3.381  14.026  14.135  1.00  0.00     0.039 C 
ENDROOT
BRANCH   1   4
ATOM      4  C   UNL     1       1.607  15.116  12.561  1.00  0.00     0.034 C 
BRANCH   4   5
ATOM      5  C   UNL     1       0.657  16.230  13.026  1.00  0.00     0.032 C 
BRANCH   5   6
ATOM      6  C   UNL     1       1.258  17.046  14.147  1.00  0.00    -0.028 C 
ATOM      7  C   UNL     1      -0.590  16.519  15.753  1.00  0.00     0.039 C 
ATOM      8  C   UNL     1       0.727  17.161  15.384  1.00  0.00    -0.080 C 
ATOM      9  C   UNL     1       1.473  17.972  16.412  1.00  0.00     0.039 C 
ENDBRANCH   5   6
ENDBRANCH   4   5
ENDBRANCH   1   4
BRANCH   2  10
ATOM     10  C   UNL     1       1.205  12.452  15.379  1.00  0.00     0.055 C 
BRANCH  10  11
ATOM     11  C   UNL     1       0.260  12.663  16.536  1.00  0.00    -0.020 C 
ATOM     12  C   UNL     1       0.521  13.490  17.569  1.00  0.00    -0.055 C 
ATOM     13  C   UNL     1       1.802  14.293  17.640  1.00  0.00     0.044 C 
BRANCH  12  14
ATOM     14  C   UNL     1      -0.522  13.649  18.615  1.00  0.00    -0.005 C 
ATOM     15  C   UNL     1      -0.792  12.723  19.536  1.00  0.00     0.009 C 
ENDBRANCH  12  14
ENDBRANCH  10  11
ENDBRANCH   2  10
TORSDOF 6
ENDMDL
MODEL 4
REMARK VINA RESULT:    -4.354      0.998      4.686
REMARK INTER + INTRA:          -7.076
REMARK INTER:                  -5.308
REMARK INTRA:                  -1.768
REMARK UNBOUND:                -1.195
REMARK SMILES C=CC(C)=CCC=C(C)CCC=C(C)C
REMARK SMILES IDX 8 1 7 2 9 3 10 4 11 5 12 6 14 7 13 8 15 9 6 10 5 11 3 12
REMARK SMILES IDX 4 13 2 14 1 15
REMARK H PARENT
REMARK Flexibility Score: inf
ROOT
ATOM      1  C   UNL     1       0.222  16.877  16.027  1.00  0.00    -0.077 C 
ATOM      2  C   UNL     1      -0.406  15.681  16.016  1.00  0.00    -0.024 C 
ATOM      3  C   UNL     1       1.520  17.079  16.775  1.00  0.00     0.039 C 
ENDROOT
BRANCH   1   4
ATOM      4  C   UNL     1      -0.386  18.042  15.274  1.00  0.00     0.034 C 
BRANCH   4   5
ATOM      5  C   UNL     1      -0.340  17.828  13.753  1.00  0.00     0.032 C 
BRANCH   5   6
ATOM      6  C   UNL     1       1.075  17.634  13.258  1.00  0.00    -0.028 C 
ATOM      7  C   UNL     1       0.645  15.316  12.416  1.00  0.00     0.039 C 
ATOM      8  C   UNL     1       1.523  16.526  12.630  1.00  0.00    -0.080 C 
ATOM      9  C   UNL     1       2.951  16.502  12.149  1.00  0.00     0.039 C 
ENDBRANCH   5   6
ENDBRANCH   4   5
ENDBRANCH   1   4
BRANCH   2  10
ATOM     10  C   UNL     1       0.132  14.465  16.735  1.00  0.00     0.055 C 
BRANCH  10  11
ATOM     11  C   UNL     1       0.276  13.280  15.812  1.00  0.00    -0.020 C 
ATOM     12  C   UNL     1       1.413  12.982  15.152  1.00  0.00    -0.055 C 
ATOM     13  C   UNL     1       2.661  13.826  15.300  1.00  0.00     0.044 C 
BRANCH  12  14
ATOM     14  C   UNL     1       1.436  11.751  14.320  1.00  0.00    -0.005 C 
ATOM     15  C   UNL     1       0.350  11.224  13.752  1.00  0.00     0.009 C 
ENDBRANCH  12  14
ENDBRANCH  10  11
ENDBRANCH   2  10
TORSDOF 6
ENDMDL
MODEL 5
REMARK VINA RESULT:    -4.324      1.451      4.918
REMARK INTER + INTRA:          -7.036
REMARK INTER:                  -5.567
REMARK INTRA:                  -1.469
REMARK UNBOUND:                -1.195
REMARK SMILES C=CC(C)=CCC=C(C)CCC=C(C)C
REMARK SMILES IDX 8 1 7 2 9 3 10 4 11 5 12 6 14 7 13 8 15 9 6 10 5 11 3 12
REMARK SMILES IDX 4 13 2 14 1 15
REMARK H PARENT
REMARK Flexibility Score: inf
ROOT
ATOM      1  C   UNL     1       0.779  17.338  15.014  1.00  0.00    -0.077 C 
ATOM      2  C   UNL     1      -0.190  16.456  15.342  1.00  0.00    -0.024 C 
ATOM      3  C   UNL     1       1.507  18.138  16.070  1.00  0.00     0.039 C 
ENDROOT
BRANCH   1   4
ATOM      4  C   UNL     1       1.147  17.531  13.557  1.00  0.00     0.034 C 
BRANCH   4   5
ATOM      5  C   UNL     1       1.200  16.196  12.798  1.00  0.00     0.032 C 
BRANCH   5   6
ATOM      6  C   UNL     1       2.582  15.585  12.839  1.00  0.00    -0.028 C 
ATOM      7  C   UNL     1       1.862  13.632  14.233  1.00  0.00     0.039 C 
ATOM      8  C   UNL     1       2.888  14.420  13.452  1.00  0.00    -0.080 C 
ATOM      9  C   UNL     1       4.304  13.914  13.363  1.00  0.00     0.039 C 
ENDBRANCH   5   6
ENDBRANCH   4   5
ENDBRANCH   1   4
BRANCH   2  10
ATOM     10  C   UNL     1      -0.615  16.197  16.769  1.00  0.00     0.055 C 
BRANCH  10  11
ATOM     11  C   UNL     1      -0.562  14.730  17.118  1.00  0.00    -0.020 C 
ATOM     12  C   UNL     1       0.538  14.119  17.601  1.00  0.00    -0.055 C 
ATOM     13  C   UNL     1       1.826  14.876  17.843  1.00  0.00     0.044 C 
BRANCH  12  14
ATOM     14  C   UNL     1       0.436  12.680  17.958  1.00  0.00    -0.005 C 
ATOM     15  C   UNL     1      -0.361  12.213  18.921  1.00  0.00     0.009 C 
ENDBRANCH  12  14
ENDBRANCH  10  11
ENDBRANCH   2  10
TORSDOF 6
ENDMDL
MODEL 6
REMARK VINA RESULT:    -4.266      4.491      7.282
REMARK INTER + INTRA:          -6.957
REMARK INTER:                  -6.197
REMARK INTRA:                  -0.760
REMARK UNBOUND:                -1.195
REMARK SMILES C=CC(C)=CCC=C(C)CCC=C(C)C
REMARK SMILES IDX 8 1 7 2 9 3 10 4 11 5 12 6 14 7 13 8 15 9 6 10 5 11 3 12
REMARK SMILES IDX 4 13 2 14 1 15
REMARK H PARENT
REMARK Flexibility Score: inf
ROOT
ATOM      1  C   UNL     1       3.137  10.679  12.141  1.00  0.00    -0.077 C 
ATOM      2  C   UNL     1       1.887  10.891  12.605  1.00  0.00    -0.024 C 
ATOM      3  C   UNL     1       4.087  11.825  11.879  1.00  0.00     0.039 C 
ENDROOT
BRANCH   1   4
ATOM      4  C   UNL     1       3.600   9.260  11.875  1.00  0.00     0.034 C 
BRANCH   4   5
ATOM      5  C   UNL     1       5.132   9.146  11.887  1.00  0.00     0.032 C 
BRANCH   5   6
ATOM      6  C   UNL     1       5.586   7.745  12.225  1.00  0.00    -0.028 C 
ATOM      7  C   UNL     1       7.663   8.515  13.391  1.00  0.00     0.039 C 
ATOM      8  C   UNL     1       6.702   7.447  12.925  1.00  0.00    -0.080 C 
ATOM      9  C   UNL     1       6.994   6.000  13.227  1.00  0.00     0.039 C 
ENDBRANCH   5   6
ENDBRANCH   4   5
ENDBRANCH   1   4
BRANCH   2  10
ATOM     10  C   UNL     1       1.345  12.270  12.902  1.00  0.00     0.055 C 
BRANCH  10  11
ATOM     11  C   UNL     1       0.978  12.433  14.357  1.00  0.00    -0.020 C 
ATOM     12  C   UNL     1       1.711  13.147  15.235  1.00  0.00    -0.055 C 
ATOM     13  C   UNL     1       2.977  13.862  14.816  1.00  0.00     0.044 C 
BRANCH  12  14
ATOM     14  C   UNL     1       1.204  13.274  16.626  1.00  0.00    -0.005 C 
ATOM     15  C   UNL     1       0.054  12.743  17.044  1.00  0.00     0.009 C 
ENDBRANCH  12  14
ENDBRANCH  10  11
ENDBRANCH   2  10
TORSDOF 6
ENDMDL
MODEL 7
REMARK VINA RESULT:    -4.242      1.356      3.690
REMARK INTER + INTRA:          -6.925
REMARK INTER:                  -5.077
REMARK INTRA:                  -1.848
REMARK UNBOUND:                -1.195
REMARK SMILES C=CC(C)=CCC=C(C)CCC=C(C)C
REMARK SMILES IDX 8 1 7 2 9 3 10 4 11 5 12 6 14 7 13 8 15 9 6 10 5 11 3 12
REMARK SMILES IDX 4 13 2 14 1 15
REMARK H PARENT
REMARK Flexibility Score: inf
ROOT
ATOM      1  C   UNL     1       1.554  13.420  14.156  1.00  0.00    -0.077 C 
ATOM      2  C   UNL     1       0.408  13.873  13.603  1.00  0.00    -0.024 C 
ATOM      3  C   UNL     1       2.904  13.907  13.684  1.00  0.00     0.039 C 
ENDROOT
BRANCH   1   4
ATOM      4  C   UNL     1       1.486  12.399  15.274  1.00  0.00     0.034 C 
BRANCH   4   5
ATOM      5  C   UNL     1       0.900  12.998  16.562  1.00  0.00     0.032 C 
BRANCH   5   6
ATOM      6  C   UNL     1       1.617  14.266  16.965  1.00  0.00    -0.028 C 
ATOM      7  C   UNL     1      -0.431  15.692  16.763  1.00  0.00     0.039 C 
ATOM      8  C   UNL     1       1.027  15.475  17.090  1.00  0.00    -0.080 C 
ATOM      9  C   UNL     1       1.867  16.638  17.551  1.00  0.00     0.039 C 
ENDBRANCH   5   6
ENDBRANCH   4   5
ENDBRANCH   1   4
BRANCH   2  10
ATOM     10  C   UNL     1       0.382  14.894  12.489  1.00  0.00     0.055 C 
BRANCH  10  11
ATOM     11  C   UNL     1      -0.441  16.105  12.850  1.00  0.00    -0.020 C 
ATOM     12  C   UNL     1       0.073  17.209  13.429  1.00  0.00    -0.055 C 
ATOM     13  C   UNL     1       1.546  17.322  13.757  1.00  0.00     0.044 C 
BRANCH  12  14
ATOM     14  C   UNL     1      -0.839  18.355  13.677  1.00  0.00    -0.005 C 
ATOM     15  C   UNL     1      -1.125  18.821  14.895  1.00  0.00     0.009 C 
ENDBRANCH  12  14
ENDBRANCH  10  11
ENDBRANCH   2  10
TORSDOF 6
ENDMDL
MODEL 8
REMARK VINA RESULT:    -4.177      1.419      4.078
REMARK INTER + INTRA:          -6.837
REMARK INTER:                  -5.352
REMARK INTRA:                  -1.484
REMARK UNBOUND:                -1.195
REMARK SMILES C=CC(C)=CCC=C(C)CCC=C(C)C
REMARK SMILES IDX 8 1 7 2 9 3 10 4 11 5 12 6 14 7 13 8 15 9 6 10 5 11 3 12
REMARK SMILES IDX 4 13 2 14 1 15
REMARK H PARENT
REMARK Flexibility Score: inf
ROOT
ATOM      1  C   UNL     1       0.383  15.867  16.543  1.00  0.00    -0.077 C 
ATOM      2  C   UNL     1       0.574  14.608  16.092  1.00  0.00    -0.024 C 
ATOM      3  C   UNL     1       1.482  16.626  17.251  1.00  0.00     0.039 C 
ENDROOT
BRANCH   1   4
ATOM      4  C   UNL     1      -0.961  16.535  16.335  1.00  0.00     0.034 C 
BRANCH   4   5
ATOM      5  C   UNL     1      -0.898  17.624  15.254  1.00  0.00     0.032 C 
BRANCH   5   6
ATOM      6  C   UNL     1      -0.621  17.040  13.888  1.00  0.00    -0.028 C 
ATOM      7  C   UNL     1       1.669  18.042  13.736  1.00  0.00     0.039 C 
ATOM      8  C   UNL     1       0.537  17.193  13.208  1.00  0.00    -0.080 C 
ATOM      9  C   UNL     1       0.682  16.506  11.875  1.00  0.00     0.039 C 
ENDBRANCH   5   6
ENDBRANCH   4   5
ENDBRANCH   1   4
BRANCH   2  10
ATOM     10  C   UNL     1       1.882  13.869  16.251  1.00  0.00     0.055 C 
BRANCH  10  11
ATOM     11  C   UNL     1       2.778  14.040  15.049  1.00  0.00    -0.020 C 
ATOM     12  C   UNL     1       2.644  13.329  13.912  1.00  0.00    -0.055 C 
ATOM     13  C   UNL     1       1.554  12.291  13.748  1.00  0.00     0.044 C 
BRANCH  12  14
ATOM     14  C   UNL     1       3.558  13.639  12.783  1.00  0.00    -0.005 C 
ATOM     15  C   UNL     1       4.092  14.844  12.574  1.00  0.00     0.009 C 
ENDBRANCH  12  14
ENDBRANCH  10  11
ENDBRANCH   2  10
TORSDOF 6
ENDMDL
MODEL 9
REMARK VINA RESULT:    -4.160      1.162      5.320
REMARK INTER + INTRA:          -6.813
REMARK INTER:                  -4.871
REMARK INTRA:                  -1.942
REMARK UNBOUND:                -1.195
REMARK SMILES C=CC(C)=CCC=C(C)CCC=C(C)C
REMARK SMILES IDX 8 1 7 2 9 3 10 4 11 5 12 6 14 7 13 8 15 9 6 10 5 11 3 12
REMARK SMILES IDX 4 13 2 14 1 15
REMARK H PARENT
REMARK Flexibility Score: inf
ROOT
ATOM      1  C   UNL     1       0.887  16.194  12.996  1.00  0.00    -0.077 C 
ATOM      2  C   UNL     1       0.055  15.167  13.273  1.00  0.00    -0.024 C 
ATOM      3  C   UNL     1       2.356  15.967  12.722  1.00  0.00     0.039 C 
ENDROOT
BRANCH   1   4
ATOM      4  C   UNL     1       0.339  17.606  12.961  1.00  0.00     0.034 C 
BRANCH   4   5
ATOM      5  C   UNL     1      -0.198  18.047  14.331  1.00  0.00     0.032 C 
BRANCH   5   6
ATOM      6  C   UNL     1       0.804  17.793  15.432  1.00  0.00    -0.028 C 
ATOM      7  C   UNL     1      -0.679  16.180  16.644  1.00  0.00     0.039 C 
ATOM      8  C   UNL     1       0.615  16.936  16.459  1.00  0.00    -0.080 C 
ATOM      9  C   UNL     1       1.732  16.752  17.454  1.00  0.00     0.039 C 
ENDBRANCH   5   6
ENDBRANCH   4   5
ENDBRANCH   1   4
BRANCH   2  10
ATOM     10  C   UNL     1       0.515  13.728  13.324  1.00  0.00     0.055 C 
BRANCH  10  11
ATOM     11  C   UNL     1       0.257  13.099  14.670  1.00  0.00    -0.020 C 
ATOM     12  C   UNL     1       1.155  13.099  15.676  1.00  0.00    -0.055 C 
ATOM     13  C   UNL     1       2.512  13.753  15.530  1.00  0.00     0.044 C 
BRANCH  12  14
ATOM     14  C   UNL     1       0.750  12.494  16.972  1.00  0.00    -0.005 C 
ATOM     15  C   UNL     1       0.825  13.133  18.140  1.00  0.00     0.009 C 
ENDBRANCH  12  14
ENDBRANCH  10  11
ENDBRANCH   2  10
TORSDOF 6
ENDMDL
