MODEL 1
REMARK VINA RESULT:    -3.366      0.000      0.000
REMARK INTER + INTRA:          -3.942
REMARK INTER:                  -3.858
REMARK INTRA:                  -0.084
REMARK UNBOUND:                -0.084
REMARK SMILES C=Cc1ccc(O)c(OC)c1
REMARK SMILES IDX 8 1 6 2 5 3 4 4 3 5 11 6 9 7 10 8 7 9 2 11 1 12
REMARK H PARENT 7 10
REMARK Flexibility Score: inf
ROOT
ATOM      1  C   UNL     1     133.749 137.621 144.178  1.00  0.00     0.161 A 
ATOM      2  C   UNL     1     135.061 137.236 143.870  1.00  0.00     0.157 A 
ATOM      3  C   UNL     1     136.127 138.099 144.145  1.00  0.00     0.051 A 
ATOM      4  C   UNL     1     135.896 139.345 144.731  1.00  0.00     0.012 A 
ATOM      5  C   UNL     1     134.587 139.745 145.060  1.00  0.00    -0.022 A 
ATOM      6  C   UNL     1     133.519 138.879 144.769  1.00  0.00     0.058 A 
ENDROOT
BRANCH   1   7
ATOM      7  O   UNL     1     132.705 136.730 143.883  1.00  0.00    -0.493 OA
ATOM      8  C   UNL     1     131.568 136.516 144.712  1.00  0.00     0.278 C 
ENDBRANCH   1   7
BRANCH   2   9
ATOM      9  O   UNL     1     135.295 135.993 143.286  1.00  0.00    -0.504 OA
ATOM     10  H   UNL     1     135.143 135.834 142.297  1.00  0.00     0.293 HD
ENDBRANCH   2   9
BRANCH   5  11
ATOM     11  C   UNL     1     134.285 141.061 145.675  1.00  0.00     0.000 C 
ATOM     12  C   UNL     1     134.283 142.218 145.011  1.00  0.00     0.009 C 
ENDBRANCH   5  11
TORSDOF 3
ENDMDL
MODEL 2
REMARK VINA RESULT:    -3.363     12.628     14.479
REMARK INTER + INTRA:          -3.938
REMARK INTER:                  -3.854
REMARK INTRA:                  -0.084
REMARK UNBOUND:                -0.084
REMARK SMILES C=Cc1ccc(O)c(OC)c1
REMARK SMILES IDX 8 1 6 2 5 3 4 4 3 5 11 6 9 7 10 8 7 9 2 11 1 12
REMARK H PARENT 7 10
REMARK Flexibility Score: inf
ROOT
ATOM      1  C   UNL     1     147.800 143.851 144.217  1.00  0.00     0.161 A 
ATOM      2  C   UNL     1     146.511 144.329 143.949  1.00  0.00     0.157 A 
ATOM      3  C   UNL     1     145.394 143.544 144.258  1.00  0.00     0.051 A 
ATOM      4  C   UNL     1     145.553 142.285 144.840  1.00  0.00     0.012 A 
ATOM      5  C   UNL     1     146.840 141.792 145.128  1.00  0.00    -0.022 A 
ATOM      6  C   UNL     1     147.957 142.579 144.802  1.00  0.00     0.058 A 
ENDROOT
BRANCH   1   7
ATOM      7  O   UNL     1     148.896 144.664 143.887  1.00  0.00    -0.493 OA
ATOM      8  C   UNL     1     149.977 144.957 144.766  1.00  0.00     0.278 C 
ENDBRANCH   1   7
BRANCH   2   9
ATOM      9  O   UNL     1     146.348 145.586 143.370  1.00  0.00    -0.504 OA
ATOM     10  H   UNL     1     146.796 146.409 143.754  1.00  0.00     0.293 HD
ENDBRANCH   2   9
BRANCH   5  11
ATOM     11  C   UNL     1     147.066 140.457 145.736  1.00  0.00     0.000 C 
ATOM     12  C   UNL     1     147.441 139.375 145.053  1.00  0.00     0.009 C 
ENDBRANCH   5  11
TORSDOF 3
ENDMDL
MODEL 3
REMARK VINA RESULT:    -3.360      8.182     10.164
REMARK INTER + INTRA:          -3.935
REMARK INTER:                  -3.857
REMARK INTRA:                  -0.078
REMARK UNBOUND:                -0.084
REMARK SMILES C=Cc1ccc(O)c(OC)c1
REMARK SMILES IDX 8 1 6 2 5 3 4 4 3 5 11 6 9 7 10 8 7 9 2 11 1 12
REMARK H PARENT 7 10
REMARK Flexibility Score: inf
ROOT
ATOM      1  C   UNL     1     137.600 147.720 144.171  1.00  0.00     0.161 A 
ATOM      2  C   UNL     1     137.147 146.442 143.818  1.00  0.00     0.157 A 
ATOM      3  C   UNL     1     137.942 145.321 144.076  1.00  0.00     0.051 A 
ATOM      4  C   UNL     1     139.188 145.463 144.690  1.00  0.00     0.012 A 
ATOM      5  C   UNL     1     139.656 146.737 145.064  1.00  0.00    -0.022 A 
ATOM      6  C   UNL     1     138.858 147.860 144.789  1.00  0.00     0.058 A 
ENDROOT
BRANCH   1   7
ATOM      7  O   UNL     1     136.776 148.822 143.891  1.00  0.00    -0.493 OA
ATOM      8  C   UNL     1     136.657 149.972 144.721  1.00  0.00     0.278 C 
ENDBRANCH   1   7
BRANCH   2   9
ATOM      9  O   UNL     1     135.904 146.296 143.205  1.00  0.00    -0.504 OA
ATOM     10  H   UNL     1     135.819 146.010 142.237  1.00  0.00     0.293 HD
ENDBRANCH   2   9
BRANCH   5  11
ATOM     11  C   UNL     1     140.975 146.945 145.710  1.00  0.00     0.000 C 
ATOM     12  C   UNL     1     142.058 147.398 145.076  1.00  0.00     0.009 C 
ENDBRANCH   5  11
TORSDOF 3
ENDMDL
MODEL 4
REMARK VINA RESULT:    -3.344      8.152     10.111
REMARK INTER + INTRA:          -3.917
REMARK INTER:                  -3.836
REMARK INTRA:                  -0.080
REMARK UNBOUND:                -0.084
REMARK SMILES C=Cc1ccc(O)c(OC)c1
REMARK SMILES IDX 8 1 6 2 5 3 4 4 3 5 11 6 9 7 10 8 7 9 2 11 1 12
REMARK H PARENT 7 10
REMARK Flexibility Score: inf
ROOT
ATOM      1  C   UNL     1     143.808 133.920 144.177  1.00  0.00     0.161 A 
ATOM      2  C   UNL     1     144.246 135.229 143.942  1.00  0.00     0.157 A 
ATOM      3  C   UNL     1     143.426 136.313 144.274  1.00  0.00     0.051 A 
ATOM      4  C   UNL     1     142.170 136.102 144.844  1.00  0.00     0.012 A 
ATOM      5  C   UNL     1     141.716 134.794 145.100  1.00  0.00    -0.022 A 
ATOM      6  C   UNL     1     142.538 133.709 144.751  1.00  0.00     0.058 A 
ENDROOT
BRANCH   1   7
ATOM      7  O   UNL     1     144.656 132.857 143.825  1.00  0.00    -0.493 OA
ATOM      8  C   UNL     1     144.834 131.677 144.600  1.00  0.00     0.278 C 
ENDBRANCH   1   7
BRANCH   2   9
ATOM      9  O   UNL     1     145.500 135.445 143.374  1.00  0.00    -0.504 OA
ATOM     10  H   UNL     1     146.178 136.066 143.801  1.00  0.00     0.293 HD
ENDBRANCH   2   9
BRANCH   5  11
ATOM     11  C   UNL     1     140.385 134.512 145.695  1.00  0.00     0.000 C 
ATOM     12  C   UNL     1     139.303 134.181 144.990  1.00  0.00     0.009 C 
ENDBRANCH   5  11
TORSDOF 3
ENDMDL
MODEL 5
REMARK VINA RESULT:    -3.340      1.859      3.160
REMARK INTER + INTRA:          -3.912
REMARK INTER:                  -3.812
REMARK INTRA:                  -0.100
REMARK UNBOUND:                -0.084
REMARK SMILES C=Cc1ccc(O)c(OC)c1
REMARK SMILES IDX 8 1 6 2 5 3 4 4 3 5 11 6 9 7 10 8 7 9 2 11 1 12
REMARK H PARENT 7 10
REMARK Flexibility Score: inf
ROOT
ATOM      1  C   UNL     1     133.226 136.051 144.037  1.00  0.00     0.161 A 
ATOM      2  C   UNL     1     132.188 136.970 144.242  1.00  0.00     0.157 A 
ATOM      3  C   UNL     1     132.472 138.337 144.341  1.00  0.00     0.051 A 
ATOM      4  C   UNL     1     133.786 138.796 144.231  1.00  0.00     0.012 A 
ATOM      5  C   UNL     1     134.841 137.890 144.013  1.00  0.00    -0.022 A 
ATOM      6  C   UNL     1     134.550 136.518 143.928  1.00  0.00     0.058 A 
ENDROOT
BRANCH   1   7
ATOM      7  O   UNL     1     132.903 134.687 143.948  1.00  0.00    -0.493 OA
ATOM      8  C   UNL     1     133.315 133.699 144.886  1.00  0.00     0.278 C 
ENDBRANCH   1   7
BRANCH   2   9
ATOM      9  O   UNL     1     130.876 136.516 144.350  1.00  0.00    -0.504 OA
ATOM     10  H   UNL     1     130.514 136.139 145.219  1.00  0.00     0.293 HD
ENDBRANCH   2   9
BRANCH   5  11
ATOM     11  C   UNL     1     136.256 138.324 143.899  1.00  0.00     0.000 C 
ATOM     12  C   UNL     1     136.919 138.978 144.853  1.00  0.00     0.009 C 
ENDBRANCH   5  11
TORSDOF 3
ENDMDL
MODEL 6
REMARK VINA RESULT:    -3.320      9.776     11.737
REMARK INTER + INTRA:          -3.890
REMARK INTER:                  -3.794
REMARK INTRA:                  -0.096
REMARK UNBOUND:                -0.084
REMARK SMILES C=Cc1ccc(O)c(OC)c1
REMARK SMILES IDX 8 1 6 2 5 3 4 4 3 5 11 6 9 7 10 8 7 9 2 11 1 12
REMARK H PARENT 7 10
REMARK Flexibility Score: inf
ROOT
ATOM      1  C   UNL     1     145.532 133.232 144.091  1.00  0.00     0.161 A 
ATOM      2  C   UNL     1     144.607 132.195 144.264  1.00  0.00     0.157 A 
ATOM      3  C   UNL     1     143.238 132.479 144.324  1.00  0.00     0.051 A 
ATOM      4  C   UNL     1     142.783 133.794 144.207  1.00  0.00     0.012 A 
ATOM      5  C   UNL     1     143.695 134.849 144.019  1.00  0.00    -0.022 A 
ATOM      6  C   UNL     1     145.069 134.558 143.975  1.00  0.00     0.058 A 
ENDROOT
BRANCH   1   7
ATOM      7  O   UNL     1     146.898 132.908 144.042  1.00  0.00    -0.493 OA
ATOM      8  C   UNL     1     147.877 133.403 144.949  1.00  0.00     0.278 C 
ENDBRANCH   1   7
BRANCH   2   9
ATOM      9  O   UNL     1     145.057 130.881 144.381  1.00  0.00    -0.504 OA
ATOM     10  H   UNL     1     144.526 130.103 144.008  1.00  0.00     0.293 HD
ENDBRANCH   2   9
BRANCH   5  11
ATOM     11  C   UNL     1     143.266 136.264 143.899  1.00  0.00     0.000 C 
ATOM     12  C   UNL     1     142.653 136.948 144.866  1.00  0.00     0.009 C 
ENDBRANCH   5  11
TORSDOF 3
ENDMDL
MODEL 7
REMARK VINA RESULT:    -3.319      8.696     10.433
REMARK INTER + INTRA:          -3.888
REMARK INTER:                  -3.795
REMARK INTRA:                  -0.093
REMARK UNBOUND:                -0.084
REMARK SMILES C=Cc1ccc(O)c(OC)c1
REMARK SMILES IDX 8 1 6 2 5 3 4 4 3 5 11 6 9 7 10 8 7 9 2 11 1 12
REMARK H PARENT 7 10
REMARK Flexibility Score: inf
ROOT
ATOM      1  C   UNL     1     136.049 148.398 144.098  1.00  0.00     0.161 A 
ATOM      2  C   UNL     1     136.956 149.453 144.259  1.00  0.00     0.157 A 
ATOM      3  C   UNL     1     138.331 149.199 144.280  1.00  0.00     0.051 A 
ATOM      4  C   UNL     1     138.812 147.896 144.135  1.00  0.00     0.012 A 
ATOM      5  C   UNL     1     137.918 146.823 143.959  1.00  0.00    -0.022 A 
ATOM      6  C   UNL     1     136.537 147.084 143.954  1.00  0.00     0.058 A 
ENDROOT
BRANCH   1   7
ATOM      7  O   UNL     1     134.676 148.692 144.089  1.00  0.00    -0.493 OA
ATOM      8  C   UNL     1     133.724 148.124 144.981  1.00  0.00     0.278 C 
ENDBRANCH   1   7
BRANCH   2   9
ATOM      9  O   UNL     1     136.480 150.755 144.403  1.00  0.00    -0.504 OA
ATOM     10  H   UNL     1     135.973 151.221 143.660  1.00  0.00     0.293 HD
ENDBRANCH   2   9
BRANCH   5  11
ATOM     11  C   UNL     1     138.375 145.419 143.811  1.00  0.00     0.000 C 
ATOM     12  C   UNL     1     138.866 144.680 144.807  1.00  0.00     0.009 C 
ENDBRANCH   5  11
TORSDOF 3
ENDMDL
MODEL 8
REMARK VINA RESULT:    -3.317     13.825     15.433
REMARK INTER + INTRA:          -3.886
REMARK INTER:                  -3.790
REMARK INTRA:                  -0.096
REMARK UNBOUND:                -0.084
REMARK SMILES C=Cc1ccc(O)c(OC)c1
REMARK SMILES IDX 8 1 6 2 5 3 4 4 3 5 11 6 9 7 10 8 7 9 2 11 1 12
REMARK H PARENT 7 10
REMARK Flexibility Score: inf
ROOT
ATOM      1  C   UNL     1     148.428 145.595 144.097  1.00  0.00     0.161 A 
ATOM      2  C   UNL     1     149.456 144.664 144.298  1.00  0.00     0.157 A 
ATOM      3  C   UNL     1     149.160 143.298 144.371  1.00  0.00     0.051 A 
ATOM      4  C   UNL     1     147.844 142.851 144.239  1.00  0.00     0.012 A 
ATOM      5  C   UNL     1     146.799 143.769 144.024  1.00  0.00    -0.022 A 
ATOM      6  C   UNL     1     147.101 145.140 143.966  1.00  0.00     0.058 A 
ENDROOT
BRANCH   1   7
ATOM      7  O   UNL     1     148.762 146.957 144.035  1.00  0.00    -0.493 OA
ATOM      8  C   UNL     1     148.234 147.957 144.899  1.00  0.00     0.278 C 
ENDBRANCH   1   7
BRANCH   2   9
ATOM      9  O   UNL     1     150.771 145.106 144.429  1.00  0.00    -0.504 OA
ATOM     10  H   UNL     1     151.005 145.916 144.992  1.00  0.00     0.293 HD
ENDBRANCH   2   9
BRANCH   5  11
ATOM     11  C   UNL     1     145.382 143.348 143.887  1.00  0.00     0.000 C 
ATOM     12  C   UNL     1     144.700 142.692 144.827  1.00  0.00     0.009 C 
ENDBRANCH   5  11
TORSDOF 3
ENDMDL
MODEL 9
REMARK VINA RESULT:    -3.271      9.481     11.684
REMARK INTER + INTRA:          -3.834
REMARK INTER:                  -3.739
REMARK INTRA:                  -0.095
REMARK UNBOUND:                -0.084
REMARK SMILES C=Cc1ccc(O)c(OC)c1
REMARK SMILES IDX 8 1 6 2 5 3 4 4 3 5 11 6 9 7 10 8 7 9 2 11 1 12
REMARK H PARENT 7 10
REMARK Flexibility Score: inf
ROOT
ATOM      1  C   UNL     1     144.707 135.661 144.138  1.00  0.00     0.161 A 
ATOM      2  C   UNL     1     143.371 135.713 143.718  1.00  0.00     0.157 A 
ATOM      3  C   UNL     1     142.541 134.598 143.879  1.00  0.00     0.051 A 
ATOM      4  C   UNL     1     143.033 133.429 144.462  1.00  0.00     0.012 A 
ATOM      5  C   UNL     1     144.368 133.360 144.903  1.00  0.00    -0.022 A 
ATOM      6  C   UNL     1     145.200 134.478 144.725  1.00  0.00     0.058 A 
ENDROOT
BRANCH   1   7
ATOM      7  O   UNL     1     145.510 136.797 143.955  1.00  0.00    -0.493 OA
ATOM      8  C   UNL     1     146.085 137.558 145.012  1.00  0.00     0.278 C 
ENDBRANCH   1   7
BRANCH   2   9
ATOM      9  O   UNL     1     142.877 136.879 143.137  1.00  0.00    -0.504 OA
ATOM     10  H   UNL     1     142.697 137.711 143.686  1.00  0.00     0.293 HD
ENDBRANCH   2   9
BRANCH   5  11
ATOM     11  C   UNL     1     144.944 132.139 145.520  1.00  0.00     0.000 C 
ATOM     12  C   UNL     1     145.382 131.085 144.830  1.00  0.00     0.009 C 
ENDBRANCH   5  11
TORSDOF 3
ENDMDL
