MODEL 1
REMARK VINA RESULT:    -4.387      0.000      0.000
REMARK INTER + INTRA:          -5.120
REMARK INTER:                  -4.900
REMARK INTRA:                  -0.220
REMARK UNBOUND:                -0.220
REMARK SMILES CC=C(C)C=CC=C(C)C
REMARK SMILES IDX 5 1 6 2 3 3 1 4 2 5 4 6 7 7 8 8 9 9 10 10
REMARK H PARENT
REMARK Flexibility Score: inf
ROOT
ATOM      1  C   UNL     1      29.135  24.524  11.846  1.00  0.00     0.003 C 
ATOM      2  C   UNL     1      29.673  24.026  12.967  1.00  0.00     0.000 C 
ENDROOT
BRANCH   1   3
ATOM      3  C   UNL     1      29.200  25.963  11.477  1.00  0.00    -0.055 C 
ATOM      4  C   UNL     1      28.089  28.218  11.529  1.00  0.00     0.036 C 
ATOM      5  C   UNL     1      28.192  26.762  11.875  1.00  0.00    -0.027 C 
ATOM      6  C   UNL     1      30.333  26.482  10.620  1.00  0.00     0.044 C 
ENDBRANCH   1   3
BRANCH   2   7
ATOM      7  C   UNL     1      29.578  22.582  13.270  1.00  0.00    -0.001 C 
ATOM      8  C   UNL     1      30.599  21.848  13.753  1.00  0.00    -0.076 C 
ATOM      9  C   UNL     1      31.953  22.450  14.032  1.00  0.00     0.039 C 
ATOM     10  C   UNL     1      30.370  20.386  14.021  1.00  0.00     0.039 C 
ENDBRANCH   2   7
TORSDOF 2
ENDMDL
MODEL 2
REMARK VINA RESULT:    -4.342      0.884      5.459
REMARK INTER + INTRA:          -5.070
REMARK INTER:                  -4.811
REMARK INTRA:                  -0.259
REMARK UNBOUND:                -0.220
REMARK SMILES CC=C(C)C=CC=C(C)C
REMARK SMILES IDX 5 1 6 2 3 3 1 4 2 5 4 6 7 7 8 8 9 9 10 10
REMARK H PARENT
REMARK Flexibility Score: inf
ROOT
ATOM      1  C   UNL     1      29.573  23.967  12.854  1.00  0.00     0.003 C 
ATOM      2  C   UNL     1      28.960  24.503  11.791  1.00  0.00     0.000 C 
ENDROOT
BRANCH   1   3
ATOM      3  C   UNL     1      30.274  22.656  12.820  1.00  0.00    -0.055 C 
ATOM      4  C   UNL     1      30.591  20.392  13.868  1.00  0.00     0.036 C 
ATOM      5  C   UNL     1      29.932  21.734  13.740  1.00  0.00    -0.027 C 
ATOM      6  C   UNL     1      31.382  22.407  11.821  1.00  0.00     0.044 C 
ENDBRANCH   1   3
BRANCH   2   7
ATOM      7  C   UNL     1      28.287  25.815  11.892  1.00  0.00    -0.001 C 
ATOM      8  C   UNL     1      28.813  26.966  11.432  1.00  0.00    -0.076 C 
ATOM      9  C   UNL     1      30.161  27.014  10.759  1.00  0.00     0.039 C 
ATOM     10  C   UNL     1      28.022  28.235  11.597  1.00  0.00     0.039 C 
ENDBRANCH   2   7
TORSDOF 2
ENDMDL
MODEL 3
REMARK VINA RESULT:    -4.339      1.606      2.696
REMARK INTER + INTRA:          -5.066
REMARK INTER:                  -4.808
REMARK INTRA:                  -0.258
REMARK UNBOUND:                -0.220
REMARK SMILES CC=C(C)C=CC=C(C)C
REMARK SMILES IDX 5 1 6 2 3 3 1 4 2 5 4 6 7 7 8 8 9 9 10 10
REMARK H PARENT
REMARK Flexibility Score: inf
ROOT
ATOM      1  C   UNL     1      30.053  26.631  12.171  1.00  0.00     0.003 C 
ATOM      2  C   UNL     1      29.647  25.480  11.619  1.00  0.00     0.000 C 
ENDROOT
BRANCH   1   3
ATOM      3  C   UNL     1      29.636  27.969  11.675  1.00  0.00    -0.055 C 
ATOM      4  C   UNL     1      30.317  30.312  11.066  1.00  0.00     0.036 C 
ATOM      5  C   UNL     1      30.591  28.903  11.503  1.00  0.00    -0.027 C 
ATOM      6  C   UNL     1      28.174  28.277  11.442  1.00  0.00     0.044 C 
ENDBRANCH   1   3
BRANCH   2   7
ATOM      7  C   UNL     1      30.095  24.182  12.167  1.00  0.00    -0.001 C 
ATOM      8  C   UNL     1      29.337  23.402  12.961  1.00  0.00    -0.076 C 
ATOM      9  C   UNL     1      27.939  23.794  13.366  1.00  0.00     0.039 C 
ATOM     10  C   UNL     1      29.913  22.102  13.451  1.00  0.00     0.039 C 
ENDBRANCH   2   7
TORSDOF 2
ENDMDL
MODEL 4
REMARK VINA RESULT:    -4.323      1.765      5.683
REMARK INTER + INTRA:          -5.048
REMARK INTER:                  -4.827
REMARK INTRA:                  -0.221
REMARK UNBOUND:                -0.220
REMARK SMILES CC=C(C)C=CC=C(C)C
REMARK SMILES IDX 5 1 6 2 3 3 1 4 2 5 4 6 7 7 8 8 9 9 10 10
REMARK H PARENT
REMARK Flexibility Score: inf
ROOT
ATOM      1  C   UNL     1      29.652  25.552  11.766  1.00  0.00     0.003 C 
ATOM      2  C   UNL     1      30.662  26.320  12.194  1.00  0.00     0.000 C 
ENDROOT
BRANCH   1   3
ATOM      3  C   UNL     1      29.203  24.322  12.471  1.00  0.00    -0.055 C 
ATOM      4  C   UNL     1      29.836  22.119  13.505  1.00  0.00     0.036 C 
ATOM      5  C   UNL     1      30.141  23.429  12.841  1.00  0.00    -0.027 C 
ATOM      6  C   UNL     1      27.730  24.064  12.696  1.00  0.00     0.044 C 
ENDBRANCH   1   3
BRANCH   2   7
ATOM      7  C   UNL     1      31.053  27.535  11.448  1.00  0.00    -0.001 C 
ATOM      8  C   UNL     1      30.501  28.746  11.645  1.00  0.00    -0.076 C 
ATOM      9  C   UNL     1      29.414  28.972  12.666  1.00  0.00     0.039 C 
ATOM     10  C   UNL     1      30.991  29.903  10.819  1.00  0.00     0.039 C 
ENDBRANCH   2   7
TORSDOF 2
ENDMDL
MODEL 5
REMARK VINA RESULT:    -3.976      1.399      5.809
REMARK INTER + INTRA:          -4.661
REMARK INTER:                  -4.388
REMARK INTRA:                  -0.273
REMARK UNBOUND:                -0.220
REMARK SMILES CC=C(C)C=CC=C(C)C
REMARK SMILES IDX 5 1 6 2 3 3 1 4 2 5 4 6 7 7 8 8 9 9 10 10
REMARK H PARENT
REMARK Flexibility Score: inf
ROOT
ATOM      1  C   UNL     1      30.377  22.567  13.332  1.00  0.00     0.003 C 
ATOM      2  C   UNL     1      30.057  23.167  12.179  1.00  0.00     0.000 C 
ENDROOT
BRANCH   1   3
ATOM      3  C   UNL     1      30.833  21.154  13.421  1.00  0.00    -0.055 C 
ATOM      4  C   UNL     1      32.073  19.252  12.340  1.00  0.00     0.036 C 
ATOM      5  C   UNL     1      31.590  20.671  12.418  1.00  0.00    -0.027 C 
ATOM      6  C   UNL     1      30.393  20.280  14.575  1.00  0.00     0.044 C 
ENDBRANCH   1   3
BRANCH   2   7
ATOM      7  C   UNL     1      29.618  24.579  12.161  1.00  0.00    -0.001 C 
ATOM      8  C   UNL     1      28.338  24.964  12.001  1.00  0.00    -0.076 C 
ATOM      9  C   UNL     1      27.220  23.969  11.822  1.00  0.00     0.039 C 
ATOM     10  C   UNL     1      28.025  26.436  12.002  1.00  0.00     0.039 C 
ENDBRANCH   2   7
TORSDOF 2
ENDMDL
MODEL 6
REMARK VINA RESULT:    -3.837      1.774      5.601
REMARK INTER + INTRA:          -4.505
REMARK INTER:                  -4.248
REMARK INTRA:                  -0.257
REMARK UNBOUND:                -0.220
REMARK SMILES CC=C(C)C=CC=C(C)C
REMARK SMILES IDX 5 1 6 2 3 3 1 4 2 5 4 6 7 7 8 8 9 9 10 10
REMARK H PARENT
REMARK Flexibility Score: inf
ROOT
ATOM      1  C   UNL     1      30.781  24.440  12.863  1.00  0.00     0.003 C 
ATOM      2  C   UNL     1      30.873  25.366  11.901  1.00  0.00     0.000 C 
ENDROOT
BRANCH   1   3
ATOM      3  C   UNL     1      30.886  22.979  12.606  1.00  0.00    -0.055 C 
ATOM      4  C   UNL     1      31.857  21.137  11.196  1.00  0.00     0.036 C 
ATOM      5  C   UNL     1      31.694  22.570  11.610  1.00  0.00    -0.027 C 
ATOM      6  C   UNL     1      30.053  22.001  13.404  1.00  0.00     0.044 C 
ENDBRANCH   1   3
BRANCH   2   7
ATOM      7  C   UNL     1      30.766  26.804  12.227  1.00  0.00    -0.001 C 
ATOM      8  C   UNL     1      29.620  27.507  12.156  1.00  0.00    -0.076 C 
ATOM      9  C   UNL     1      28.320  26.873  11.730  1.00  0.00     0.039 C 
ATOM     10  C   UNL     1      29.648  28.966  12.517  1.00  0.00     0.039 C 
ENDBRANCH   2   7
TORSDOF 2
ENDMDL
MODEL 7
REMARK VINA RESULT:    -3.799      2.199      6.001
REMARK INTER + INTRA:          -4.463
REMARK INTER:                  -4.229
REMARK INTRA:                  -0.234
REMARK UNBOUND:                -0.220
REMARK SMILES CC=C(C)C=CC=C(C)C
REMARK SMILES IDX 5 1 6 2 3 3 1 4 2 5 4 6 7 7 8 8 9 9 10 10
REMARK H PARENT
REMARK Flexibility Score: inf
ROOT
ATOM      1  C   UNL     1      31.501  25.804  12.056  1.00  0.00     0.003 C 
ATOM      2  C   UNL     1      31.377  27.062  12.496  1.00  0.00     0.000 C 
ENDROOT
BRANCH   1   3
ATOM      3  C   UNL     1      31.105  24.614  12.856  1.00  0.00    -0.055 C 
ATOM      4  C   UNL     1      29.316  22.943  13.429  1.00  0.00     0.036 C 
ATOM      5  C   UNL     1      29.876  24.101  12.658  1.00  0.00    -0.027 C 
ATOM      6  C   UNL     1      32.040  24.052  13.903  1.00  0.00     0.044 C 
ENDBRANCH   1   3
BRANCH   2   7
ATOM      7  C   UNL     1      31.784  28.201  11.645  1.00  0.00    -0.001 C 
ATOM      8  C   UNL     1      30.974  29.228  11.329  1.00  0.00    -0.076 C 
ATOM      9  C   UNL     1      29.553  29.307  11.827  1.00  0.00     0.039 C 
ATOM     10  C   UNL     1      31.513  30.326  10.453  1.00  0.00     0.039 C 
ENDBRANCH   2   7
TORSDOF 2
ENDMDL
MODEL 8
REMARK VINA RESULT:    -3.620      1.910      3.579
REMARK INTER + INTRA:          -4.263
REMARK INTER:                  -4.043
REMARK INTRA:                  -0.220
REMARK UNBOUND:                -0.220
REMARK SMILES CC=C(C)C=CC=C(C)C
REMARK SMILES IDX 5 1 6 2 3 3 1 4 2 5 4 6 7 7 8 8 9 9 10 10
REMARK H PARENT
REMARK Flexibility Score: inf
ROOT
ATOM      1  C   UNL     1      28.887  27.604  11.309  1.00  0.00     0.003 C 
ATOM      2  C   UNL     1      29.084  26.341  11.708  1.00  0.00     0.000 C 
ENDROOT
BRANCH   1   3
ATOM      3  C   UNL     1      29.988  28.514  10.894  1.00  0.00    -0.055 C 
ATOM      4  C   UNL     1      32.116  28.809   9.588  1.00  0.00     0.036 C 
ATOM      5  C   UNL     1      30.919  28.032  10.048  1.00  0.00    -0.027 C 
ATOM      6  C   UNL     1      30.083  29.910  11.467  1.00  0.00     0.044 C 
ENDBRANCH   1   3
BRANCH   2   7
ATOM      7  C   UNL     1      27.943  25.488  12.101  1.00  0.00    -0.001 C 
ATOM      8  C   UNL     1      28.073  24.273  12.665  1.00  0.00    -0.076 C 
ATOM      9  C   UNL     1      29.423  23.666  12.951  1.00  0.00     0.039 C 
ATOM     10  C   UNL     1      26.828  23.507  13.019  1.00  0.00     0.039 C 
ENDBRANCH   2   7
TORSDOF 2
ENDMDL
MODEL 9
REMARK VINA RESULT:    -3.332      2.667      6.363
REMARK INTER + INTRA:          -3.941
REMARK INTER:                  -3.660
REMARK INTRA:                  -0.281
REMARK UNBOUND:                -0.220
REMARK SMILES CC=C(C)C=CC=C(C)C
REMARK SMILES IDX 5 1 6 2 3 3 1 4 2 5 4 6 7 7 8 8 9 9 10 10
REMARK H PARENT
REMARK Flexibility Score: inf
ROOT
ATOM      1  C   UNL     1      29.488  27.600  11.597  1.00  0.00     0.003 C 
ATOM      2  C   UNL     1      30.757  28.021  11.533  1.00  0.00     0.000 C 
ENDROOT
BRANCH   1   3
ATOM      3  C   UNL     1      29.106  26.188  11.864  1.00  0.00    -0.055 C 
ATOM      4  C   UNL     1      29.863  23.819  12.234  1.00  0.00     0.036 C 
ATOM      5  C   UNL     1      30.094  25.286  12.019  1.00  0.00    -0.027 C 
ATOM      6  C   UNL     1      27.649  25.782  11.890  1.00  0.00     0.044 C 
ENDBRANCH   1   3
BRANCH   2   7
ATOM      7  C   UNL     1      31.067  29.443  11.271  1.00  0.00    -0.001 C 
ATOM      8  C   UNL     1      31.686  29.883  10.159  1.00  0.00    -0.076 C 
ATOM      9  C   UNL     1      32.124  28.944   9.064  1.00  0.00     0.039 C 
ATOM     10  C   UNL     1      31.941  31.359  10.015  1.00  0.00     0.039 C 
ENDBRANCH   2   7
TORSDOF 2
ENDMDL
