MODEL 1
REMARK VINA RESULT:    -6.679      0.000      0.000
REMARK INTER + INTRA:         -11.138
REMARK INTER:                  -9.803
REMARK INTRA:                  -1.335
REMARK UNBOUND:                -1.335
REMARK SMILES O=c1c(O[C@@H]2O[C@H](CO)[C@H](O)[C@@H](O)[C@H]2O)c(-c2ccc(O)c(O)c2)oc2cc(O)cc(O)c12
REMARK SMILES IDX 4 1 3 2 16 3 25 4 2 5 26 6 1 7 33 8 27 9 31 10 28 11 30 12
REMARK SMILES IDX 17 13 18 14 19 15 20 16 24 17 22 18 21 19 23 21 32 23 29 25
REMARK SMILES IDX 5 27 14 28 6 29 12 30 7 31 10 32 15 33 13 35 8 37 9 38 11 40
REMARK H PARENT 21 20 23 22 32 24 29 26 15 34 13 36 9 39 11 41
REMARK Flexibility Score: inf
ROOT
ATOM      1  O   UNL     1       0.032 -41.168 -33.480  1.00  0.00    -0.454 OA
ENDROOT
BRANCH   1   2
ATOM      2  C   UNL     1       0.110 -41.825 -34.713  1.00  0.00     0.214 A 
ATOM      3  C   UNL     1      -1.046 -42.215 -35.410  1.00  0.00     0.180 A 
ATOM      4  O   UNL     1      -0.930 -42.901 -36.541  1.00  0.00    -0.452 OA
ATOM      5  C   UNL     1       1.366 -42.116 -35.257  1.00  0.00     0.239 A 
ATOM      6  C   UNL     1       0.239 -43.233 -37.080  1.00  0.00     0.146 A 
ATOM      7  O   UNL     1       2.387 -41.683 -34.665  1.00  0.00    -0.285 OA
ATOM      8  C   UNL     1       1.461 -42.867 -36.455  1.00  0.00     0.111 A 
ATOM      9  C   UNL     1       0.240 -43.936 -38.285  1.00  0.00     0.094 A 
ATOM     10  C   UNL     1       2.686 -43.256 -37.076  1.00  0.00     0.134 A 
ATOM     11  C   UNL     1       1.442 -44.272 -38.906  1.00  0.00     0.123 A 
ATOM     12  C   UNL     1       2.651 -43.930 -38.304  1.00  0.00     0.093 A 
BRANCH   3  13
ATOM     13  C   UNL     1      -2.405 -41.869 -34.942  1.00  0.00     0.025 A 
ATOM     14  C   UNL     1      -2.882 -40.560 -35.102  1.00  0.00     0.016 A 
ATOM     15  C   UNL     1      -4.150 -40.209 -34.630  1.00  0.00     0.051 A 
ATOM     16  C   UNL     1      -4.948 -41.154 -33.977  1.00  0.00     0.157 A 
ATOM     17  C   UNL     1      -3.202 -42.815 -34.276  1.00  0.00     0.062 A 
ATOM     18  C   UNL     1      -4.474 -42.464 -33.799  1.00  0.00     0.158 A 
BRANCH  16  19
ATOM     19  O   UNL     1      -6.209 -40.774 -33.517  1.00  0.00    -0.504 OA
ATOM     20  H   UNL     1      -6.922 -41.453 -33.283  1.00  0.00     0.293 HD
ENDBRANCH  16  19
BRANCH  18  21
ATOM     21  O   UNL     1      -5.263 -43.411 -33.149  1.00  0.00    -0.504 OA
ATOM     22  H   UNL     1      -4.957 -44.371 -33.040  1.00  0.00     0.293 HD
ENDBRANCH  18  21
ENDBRANCH   3  13
BRANCH  10  23
ATOM     23  O   UNL     1       3.954 -43.031 -36.529  1.00  0.00    -0.507 OA
ATOM     24  H   UNL     1       4.387 -42.129 -36.408  1.00  0.00     0.293 HD
ENDBRANCH  10  23
BRANCH  11  25
ATOM     25  O   UNL     1       1.449 -44.956 -40.120  1.00  0.00    -0.508 OA
ATOM     26  H   UNL     1       0.646 -45.491 -40.434  1.00  0.00     0.293 HD
ENDBRANCH  11  25
ENDBRANCH   1   2
BRANCH   1  27
ATOM     27  C   UNL     1      -0.470 -41.813 -32.310  1.00  0.00     0.339 C 
ATOM     28  C   UNL     1       0.618 -41.774 -31.215  1.00  0.00     0.214 C 
ATOM     29  O   UNL     1      -1.625 -41.130 -31.862  1.00  0.00    -0.332 OA
ATOM     30  C   UNL     1      -0.012 -41.829 -29.800  1.00  0.00     0.180 C 
ATOM     31  C   UNL     1      -2.329 -41.886 -30.881  1.00  0.00     0.179 C 
ATOM     32  C   UNL     1      -1.376 -42.554 -29.828  1.00  0.00     0.177 C 
BRANCH  28  33
ATOM     33  O   UNL     1       1.510 -42.845 -31.406  1.00  0.00    -0.384 OA
ATOM     34  H   UNL     1       1.129 -43.408 -32.135  1.00  0.00     0.211 HD
ENDBRANCH  28  33
BRANCH  30  35
ATOM     35  O   UNL     1       0.864 -42.408 -28.860  1.00  0.00    -0.387 OA
ATOM     36  H   UNL     1       0.675 -42.004 -27.973  1.00  0.00     0.211 HD
ENDBRANCH  30  35
BRANCH  31  37
ATOM     37  C   UNL     1      -3.372 -40.961 -30.235  1.00  0.00     0.191 C 
BRANCH  37  38
ATOM     38  O   UNL     1      -4.500 -41.706 -29.853  1.00  0.00    -0.394 OA
ATOM     39  H   UNL     1      -4.188 -42.423 -29.240  1.00  0.00     0.210 HD
ENDBRANCH  37  38
ENDBRANCH  31  37
BRANCH  32  40
ATOM     40  O   UNL     1      -1.949 -42.636 -28.543  1.00  0.00    -0.387 OA
ATOM     41  H   UNL     1      -1.305 -43.103 -27.951  1.00  0.00     0.211 HD
ENDBRANCH  32  40
ENDBRANCH   1  27
TORSDOF 12
ENDMDL
MODEL 2
REMARK VINA RESULT:    -6.488      1.410      2.279
REMARK INTER + INTRA:         -10.857
REMARK INTER:                  -9.202
REMARK INTRA:                  -1.655
REMARK UNBOUND:                -1.335
REMARK SMILES O=c1c(O[C@@H]2O[C@H](CO)[C@H](O)[C@@H](O)[C@H]2O)c(-c2ccc(O)c(O)c2)oc2cc(O)cc(O)c12
REMARK SMILES IDX 4 1 3 2 16 3 25 4 2 5 26 6 1 7 33 8 27 9 31 10 28 11 30 12
REMARK SMILES IDX 17 13 18 14 19 15 20 16 24 17 22 18 21 19 23 21 32 23 29 25
REMARK SMILES IDX 5 27 14 28 6 29 12 30 7 31 10 32 15 33 13 35 8 37 9 38 11 40
REMARK H PARENT 21 20 23 22 32 24 29 26 15 34 13 36 9 39 11 41
REMARK Flexibility Score: inf
ROOT
ATOM      1  O   UNL     1       0.963 -41.281 -34.301  1.00  0.00    -0.454 OA
ENDROOT
BRANCH   1   2
ATOM      2  C   UNL     1       0.823 -42.060 -35.455  1.00  0.00     0.214 A 
ATOM      3  C   UNL     1      -0.365 -42.762 -35.725  1.00  0.00     0.180 A 
ATOM      4  O   UNL     1      -0.433 -43.549 -36.793  1.00  0.00    -0.452 OA
ATOM      5  C   UNL     1       1.893 -42.158 -36.352  1.00  0.00     0.239 A 
ATOM      6  C   UNL     1       0.567 -43.702 -37.655  1.00  0.00     0.146 A 
ATOM      7  O   UNL     1       2.913 -41.454 -36.140  1.00  0.00    -0.285 OA
ATOM      8  C   UNL     1       1.799 -43.020 -37.472  1.00  0.00     0.111 A 
ATOM      9  C   UNL     1       0.374 -44.538 -38.756  1.00  0.00     0.094 A 
ATOM     10  C   UNL     1       2.841 -43.228 -38.427  1.00  0.00     0.134 A 
ATOM     11  C   UNL     1       1.382 -44.700 -39.706  1.00  0.00     0.123 A 
ATOM     12  C   UNL     1       2.601 -44.045 -39.539  1.00  0.00     0.093 A 
BRANCH   3  13
ATOM     13  C   UNL     1      -1.565 -42.642 -34.871  1.00  0.00     0.025 A 
ATOM     14  C   UNL     1      -1.837 -43.628 -33.912  1.00  0.00     0.016 A 
ATOM     15  C   UNL     1      -2.987 -43.547 -33.124  1.00  0.00     0.051 A 
ATOM     16  C   UNL     1      -3.890 -42.492 -33.296  1.00  0.00     0.157 A 
ATOM     17  C   UNL     1      -2.477 -41.587 -35.051  1.00  0.00     0.062 A 
ATOM     18  C   UNL     1      -3.634 -41.506 -34.263  1.00  0.00     0.158 A 
BRANCH  16  19
ATOM     19  O   UNL     1      -5.030 -42.438 -32.494  1.00  0.00    -0.504 OA
ATOM     20  H   UNL     1      -5.737 -43.162 -32.516  1.00  0.00     0.293 HD
ENDBRANCH  16  19
BRANCH  18  21
ATOM     21  O   UNL     1      -4.529 -40.452 -34.440  1.00  0.00    -0.504 OA
ATOM     22  H   UNL     1      -4.337 -39.698 -35.090  1.00  0.00     0.293 HD
ENDBRANCH  18  21
ENDBRANCH   3  13
BRANCH  10  23
ATOM     23  O   UNL     1       4.125 -42.683 -38.324  1.00  0.00    -0.507 OA
ATOM     24  H   UNL     1       4.530 -42.295 -37.487  1.00  0.00     0.293 HD
ENDBRANCH  10  23
BRANCH  11  25
ATOM     25  O   UNL     1       1.188 -45.517 -40.817  1.00  0.00    -0.508 OA
ATOM     26  H   UNL     1       0.288 -45.578 -41.283  1.00  0.00     0.293 HD
ENDBRANCH  11  25
ENDBRANCH   1   2
BRANCH   1  27
ATOM     27  C   UNL     1       1.233 -41.861 -33.025  1.00  0.00     0.339 C 
ATOM     28  C   UNL     1       2.664 -41.471 -32.595  1.00  0.00     0.214 C 
ATOM     29  O   UNL     1       0.299 -41.369 -32.084  1.00  0.00    -0.332 OA
ATOM     30  C   UNL     1       2.802 -41.472 -31.051  1.00  0.00     0.180 C 
ATOM     31  C   UNL     1       0.334 -42.121 -30.874  1.00  0.00     0.179 C 
ATOM     32  C   UNL     1       1.795 -42.450 -30.404  1.00  0.00     0.177 C 
BRANCH  28  33
ATOM     33  O   UNL     1       3.585 -42.361 -33.179  1.00  0.00    -0.384 OA
ATOM     34  H   UNL     1       3.502 -42.252 -34.166  1.00  0.00     0.211 HD
ENDBRANCH  28  33
BRANCH  30  35
ATOM     35  O   UNL     1       4.124 -41.745 -30.645  1.00  0.00    -0.387 OA
ATOM     36  H   UNL     1       4.116 -41.918 -29.667  1.00  0.00     0.211 HD
ENDBRANCH  30  35
BRANCH  31  37
ATOM     37  C   UNL     1      -0.468 -41.347 -29.817  1.00  0.00     0.191 C 
BRANCH  37  38
ATOM     38  O   UNL     1      -0.962 -42.234 -28.847  1.00  0.00    -0.394 OA
ATOM     39  H   UNL     1      -0.355 -42.185 -28.063  1.00  0.00     0.210 HD
ENDBRANCH  37  38
ENDBRANCH  31  37
BRANCH  32  40
ATOM     40  O   UNL     1       1.927 -42.482 -29.002  1.00  0.00    -0.387 OA
ATOM     41  H   UNL     1       2.894 -42.534 -28.787  1.00  0.00     0.211 HD
ENDBRANCH  32  40
ENDBRANCH   1  27
TORSDOF 12
ENDMDL
MODEL 3
REMARK VINA RESULT:    -6.474      1.673      3.169
REMARK INTER + INTRA:         -10.837
REMARK INTER:                  -9.417
REMARK INTRA:                  -1.421
REMARK UNBOUND:                -1.335
REMARK SMILES O=c1c(O[C@@H]2O[C@H](CO)[C@H](O)[C@@H](O)[C@H]2O)c(-c2ccc(O)c(O)c2)oc2cc(O)cc(O)c12
REMARK SMILES IDX 4 1 3 2 16 3 25 4 2 5 26 6 1 7 33 8 27 9 31 10 28 11 30 12
REMARK SMILES IDX 17 13 18 14 19 15 20 16 24 17 22 18 21 19 23 21 32 23 29 25
REMARK SMILES IDX 5 27 14 28 6 29 12 30 7 31 10 32 15 33 13 35 8 37 9 38 11 40
REMARK H PARENT 21 20 23 22 32 24 29 26 15 34 13 36 9 39 11 41
REMARK Flexibility Score: inf
ROOT
ATOM      1  O   UNL     1       0.804 -40.801 -34.678  1.00  0.00    -0.454 OA
ENDROOT
BRANCH   1   2
ATOM      2  C   UNL     1       0.734 -41.687 -35.758  1.00  0.00     0.214 A 
ATOM      3  C   UNL     1      -0.342 -42.580 -35.904  1.00  0.00     0.180 A 
ATOM      4  O   UNL     1      -0.336 -43.456 -36.903  1.00  0.00    -0.452 OA
ATOM      5  C   UNL     1       1.764 -41.698 -36.706  1.00  0.00     0.239 A 
ATOM      6  C   UNL     1       0.636 -43.530 -37.806  1.00  0.00     0.146 A 
ATOM      7  O   UNL     1       2.672 -40.834 -36.608  1.00  0.00    -0.285 OA
ATOM      8  C   UNL     1       1.754 -42.656 -37.749  1.00  0.00     0.111 A 
ATOM      9  C   UNL     1       0.524 -44.475 -38.827  1.00  0.00     0.094 A 
ATOM     10  C   UNL     1       2.771 -42.786 -38.743  1.00  0.00     0.134 A 
ATOM     11  C   UNL     1       1.501 -44.563 -39.818  1.00  0.00     0.123 A 
ATOM     12  C   UNL     1       2.610 -43.721 -39.773  1.00  0.00     0.093 A 
BRANCH   3  13
ATOM     13  C   UNL     1      -1.507 -42.569 -34.993  1.00  0.00     0.025 A 
ATOM     14  C   UNL     1      -1.639 -43.573 -34.024  1.00  0.00     0.016 A 
ATOM     15  C   UNL     1      -2.752 -43.598 -33.181  1.00  0.00     0.051 A 
ATOM     16  C   UNL     1      -3.757 -42.632 -33.309  1.00  0.00     0.157 A 
ATOM     17  C   UNL     1      -2.521 -41.606 -35.130  1.00  0.00     0.062 A 
ATOM     18  C   UNL     1      -3.641 -41.631 -34.287  1.00  0.00     0.158 A 
BRANCH  16  19
ATOM     19  O   UNL     1      -4.858 -42.683 -32.454  1.00  0.00    -0.504 OA
ATOM     20  H   UNL     1      -4.759 -42.627 -31.448  1.00  0.00     0.293 HD
ENDBRANCH  16  19
BRANCH  18  21
ATOM     21  O   UNL     1      -4.639 -40.666 -34.420  1.00  0.00    -0.504 OA
ATOM     22  H   UNL     1      -5.337 -40.724 -35.153  1.00  0.00     0.293 HD
ENDBRANCH  18  21
ENDBRANCH   3  13
BRANCH  10  23
ATOM     23  O   UNL     1       3.958 -42.047 -38.758  1.00  0.00    -0.507 OA
ATOM     24  H   UNL     1       4.554 -41.914 -39.560  1.00  0.00     0.293 HD
ENDBRANCH  10  23
BRANCH  11  25
ATOM     25  O   UNL     1       1.385 -45.492 -40.850  1.00  0.00    -0.508 OA
ATOM     26  H   UNL     1       1.692 -46.453 -40.739  1.00  0.00     0.293 HD
ENDBRANCH  11  25
ENDBRANCH   1   2
BRANCH   1  27
ATOM     27  C   UNL     1       1.425 -41.160 -33.444  1.00  0.00     0.339 C 
ATOM     28  C   UNL     1       0.387 -41.029 -32.308  1.00  0.00     0.214 C 
ATOM     29  O   UNL     1       1.880 -42.497 -33.525  1.00  0.00    -0.332 OA
ATOM     30  C   UNL     1       0.729 -41.974 -31.128  1.00  0.00     0.180 C 
ATOM     31  C   UNL     1       2.753 -42.816 -32.446  1.00  0.00     0.179 C 
ATOM     32  C   UNL     1       2.246 -42.261 -31.068  1.00  0.00     0.177 C 
BRANCH  28  33
ATOM     33  O   UNL     1       0.336 -39.690 -31.876  1.00  0.00    -0.384 OA
ATOM     34  H   UNL     1       1.176 -39.522 -31.367  1.00  0.00     0.211 HD
ENDBRANCH  28  33
BRANCH  30  35
ATOM     35  O   UNL     1       0.246 -41.475 -29.902  1.00  0.00    -0.387 OA
ATOM     36  H   UNL     1      -0.419 -42.121 -29.547  1.00  0.00     0.211 HD
ENDBRANCH  30  35
BRANCH  31  37
ATOM     37  C   UNL     1       2.950 -44.340 -32.435  1.00  0.00     0.191 C 
BRANCH  37  38
ATOM     38  O   UNL     1       4.124 -44.666 -31.739  1.00  0.00    -0.394 OA
ATOM     39  H   UNL     1       3.890 -44.732 -30.776  1.00  0.00     0.210 HD
ENDBRANCH  37  38
ENDBRANCH  31  37
BRANCH  32  40
ATOM     40  O   UNL     1       2.576 -43.097 -29.984  1.00  0.00    -0.387 OA
ATOM     41  H   UNL     1       2.107 -43.962 -30.111  1.00  0.00     0.211 HD
ENDBRANCH  32  40
ENDBRANCH   1  27
TORSDOF 12
ENDMDL
MODEL 4
REMARK VINA RESULT:    -6.304      1.891      6.253
REMARK INTER + INTRA:         -10.588
REMARK INTER:                  -9.632
REMARK INTRA:                  -0.956
REMARK UNBOUND:                -1.335
REMARK SMILES O=c1c(O[C@@H]2O[C@H](CO)[C@H](O)[C@@H](O)[C@H]2O)c(-c2ccc(O)c(O)c2)oc2cc(O)cc(O)c12
REMARK SMILES IDX 4 1 3 2 16 3 25 4 2 5 26 6 1 7 33 8 27 9 31 10 28 11 30 12
REMARK SMILES IDX 17 13 18 14 19 15 20 16 24 17 22 18 21 19 23 21 32 23 29 25
REMARK SMILES IDX 5 27 14 28 6 29 12 30 7 31 10 32 15 33 13 35 8 37 9 38 11 40
REMARK H PARENT 21 20 23 22 32 24 29 26 15 34 13 36 9 39 11 41
REMARK Flexibility Score: inf
ROOT
ATOM      1  O   UNL     1      -0.529 -41.492 -32.757  1.00  0.00    -0.454 OA
ENDROOT
BRANCH   1   2
ATOM      2  C   UNL     1      -1.821 -41.908 -33.095  1.00  0.00     0.214 A 
ATOM      3  C   UNL     1      -2.104 -42.471 -34.352  1.00  0.00     0.180 A 
ATOM      4  O   UNL     1      -3.357 -42.785 -34.663  1.00  0.00    -0.452 OA
ATOM      5  C   UNL     1      -2.860 -41.746 -32.171  1.00  0.00     0.239 A 
ATOM      6  C   UNL     1      -4.381 -42.617 -33.833  1.00  0.00     0.146 A 
ATOM      7  O   UNL     1      -2.573 -41.323 -31.022  1.00  0.00    -0.285 OA
ATOM      8  C   UNL     1      -4.189 -42.071 -32.537  1.00  0.00     0.111 A 
ATOM      9  C   UNL     1      -5.653 -43.005 -34.260  1.00  0.00     0.094 A 
ATOM     10  C   UNL     1      -5.328 -41.907 -31.691  1.00  0.00     0.134 A 
ATOM     11  C   UNL     1      -6.751 -42.883 -33.409  1.00  0.00     0.123 A 
ATOM     12  C   UNL     1      -6.583 -42.341 -32.136  1.00  0.00     0.093 A 
BRANCH   3  13
ATOM     13  C   UNL     1      -1.048 -42.752 -35.347  1.00  0.00     0.025 A 
ATOM     14  C   UNL     1      -0.748 -44.078 -35.687  1.00  0.00     0.016 A 
ATOM     15  C   UNL     1       0.272 -44.361 -36.597  1.00  0.00     0.051 A 
ATOM     16  C   UNL     1       1.020 -43.323 -37.166  1.00  0.00     0.157 A 
ATOM     17  C   UNL     1      -0.290 -41.710 -35.909  1.00  0.00     0.062 A 
ATOM     18  C   UNL     1       0.737 -41.991 -36.822  1.00  0.00     0.158 A 
BRANCH  16  19
ATOM     19  O   UNL     1       2.033 -43.635 -38.072  1.00  0.00    -0.504 OA
ATOM     20  H   UNL     1       2.563 -42.920 -38.552  1.00  0.00     0.293 HD
ENDBRANCH  16  19
BRANCH  18  21
ATOM     21  O   UNL     1       1.478 -40.952 -37.384  1.00  0.00    -0.504 OA
ATOM     22  H   UNL     1       1.396 -40.714 -38.366  1.00  0.00     0.293 HD
ENDBRANCH  18  21
ENDBRANCH   3  13
BRANCH  10  23
ATOM     23  O   UNL     1      -5.292 -41.311 -30.426  1.00  0.00    -0.507 OA
ATOM     24  H   UNL     1      -5.065 -41.782 -29.564  1.00  0.00     0.293 HD
ENDBRANCH  10  23
BRANCH  11  25
ATOM     25  O   UNL     1      -8.018 -43.287 -33.822  1.00  0.00    -0.508 OA
ATOM     26  H   UNL     1      -8.173 -43.708 -34.732  1.00  0.00     0.293 HD
ENDBRANCH  11  25
ENDBRANCH   1   2
BRANCH   1  27
ATOM     27  C   UNL     1       0.203 -42.092 -31.688  1.00  0.00     0.339 C 
ATOM     28  C   UNL     1       1.498 -42.712 -32.259  1.00  0.00     0.214 C 
ATOM     29  O   UNL     1       0.528 -41.100 -30.734  1.00  0.00    -0.332 OA
ATOM     30  C   UNL     1       2.607 -42.780 -31.179  1.00  0.00     0.180 C 
ATOM     31  C   UNL     1       1.000 -41.679 -29.521  1.00  0.00     0.179 C 
ATOM     32  C   UNL     1       1.997 -42.868 -29.762  1.00  0.00     0.177 C 
BRANCH  28  33
ATOM     33  O   UNL     1       1.216 -43.994 -32.766  1.00  0.00    -0.384 OA
ATOM     34  H   UNL     1       0.955 -43.873 -33.720  1.00  0.00     0.211 HD
ENDBRANCH  28  33
BRANCH  30  35
ATOM     35  O   UNL     1       3.509 -43.836 -31.422  1.00  0.00    -0.387 OA
ATOM     36  H   UNL     1       3.089 -44.455 -32.074  1.00  0.00     0.211 HD
ENDBRANCH  30  35
BRANCH  31  37
ATOM     37  C   UNL     1       1.611 -40.556 -28.670  1.00  0.00     0.191 C 
BRANCH  37  38
ATOM     38  O   UNL     1       2.700 -39.982 -29.346  1.00  0.00    -0.394 OA
ATOM     39  H   UNL     1       2.660 -40.290 -30.289  1.00  0.00     0.210 HD
ENDBRANCH  37  38
ENDBRANCH  31  37
BRANCH  32  40
ATOM     40  O   UNL     1       2.993 -42.958 -28.770  1.00  0.00    -0.387 OA
ATOM     41  H   UNL     1       3.215 -43.917 -28.646  1.00  0.00     0.211 HD
ENDBRANCH  32  40
ENDBRANCH   1  27
TORSDOF 12
ENDMDL
MODEL 5
REMARK VINA RESULT:    -6.247      2.693      4.875
REMARK INTER + INTRA:         -10.505
REMARK INTER:                  -9.230
REMARK INTRA:                  -1.275
REMARK UNBOUND:                -1.335
REMARK SMILES O=c1c(O[C@@H]2O[C@H](CO)[C@H](O)[C@@H](O)[C@H]2O)c(-c2ccc(O)c(O)c2)oc2cc(O)cc(O)c12
REMARK SMILES IDX 4 1 3 2 16 3 25 4 2 5 26 6 1 7 33 8 27 9 31 10 28 11 30 12
REMARK SMILES IDX 17 13 18 14 19 15 20 16 24 17 22 18 21 19 23 21 32 23 29 25
REMARK SMILES IDX 5 27 14 28 6 29 12 30 7 31 10 32 15 33 13 35 8 37 9 38 11 40
REMARK H PARENT 21 20 23 22 32 24 29 26 15 34 13 36 9 39 11 41
REMARK Flexibility Score: inf
ROOT
ATOM      1  O   UNL     1      -5.052 -39.834 -33.582  1.00  0.00    -0.454 OA
ENDROOT
BRANCH   1   2
ATOM      2  C   UNL     1      -4.191 -40.833 -34.049  1.00  0.00     0.214 A 
ATOM      3  C   UNL     1      -4.412 -42.189 -33.750  1.00  0.00     0.180 A 
ATOM      4  O   UNL     1      -3.533 -43.100 -34.149  1.00  0.00    -0.452 OA
ATOM      5  C   UNL     1      -3.076 -40.477 -34.817  1.00  0.00     0.239 A 
ATOM      6  C   UNL     1      -2.441 -42.808 -34.849  1.00  0.00     0.146 A 
ATOM      7  O   UNL     1      -2.943 -39.271 -35.149  1.00  0.00    -0.285 OA
ATOM      8  C   UNL     1      -2.144 -41.468 -35.212  1.00  0.00     0.111 A 
ATOM      9  C   UNL     1      -1.599 -43.852 -35.234  1.00  0.00     0.094 A 
ATOM     10  C   UNL     1      -0.954 -41.212 -35.959  1.00  0.00     0.134 A 
ATOM     11  C   UNL     1      -0.463 -43.597 -36.002  1.00  0.00     0.123 A 
ATOM     12  C   UNL     1      -0.150 -42.287 -36.360  1.00  0.00     0.093 A 
BRANCH   3  13
ATOM     13  C   UNL     1      -5.611 -42.651 -33.018  1.00  0.00     0.025 A 
ATOM     14  C   UNL     1      -5.671 -42.511 -31.625  1.00  0.00     0.016 A 
ATOM     15  C   UNL     1      -6.781 -42.977 -30.916  1.00  0.00     0.051 A 
ATOM     16  C   UNL     1      -7.836 -43.605 -31.587  1.00  0.00     0.157 A 
ATOM     17  C   UNL     1      -6.665 -43.292 -33.692  1.00  0.00     0.062 A 
ATOM     18  C   UNL     1      -7.779 -43.763 -32.982  1.00  0.00     0.158 A 
BRANCH  16  19
ATOM     19  O   UNL     1      -8.930 -44.060 -30.853  1.00  0.00    -0.504 OA
ATOM     20  H   UNL     1      -9.811 -44.297 -31.293  1.00  0.00     0.293 HD
ENDBRANCH  16  19
BRANCH  18  21
ATOM     21  O   UNL     1      -8.826 -44.389 -33.657  1.00  0.00    -0.504 OA
ATOM     22  H   UNL     1      -8.831 -44.468 -34.668  1.00  0.00     0.293 HD
ENDBRANCH  18  21
ENDBRANCH   3  13
BRANCH  10  23
ATOM     23  O   UNL     1      -0.503 -39.936 -36.311  1.00  0.00    -0.507 OA
ATOM     24  H   UNL     1      -0.995 -39.074 -36.139  1.00  0.00     0.293 HD
ENDBRANCH  10  23
BRANCH  11  25
ATOM     25  O   UNL     1       0.370 -44.637 -36.407  1.00  0.00    -0.508 OA
ATOM     26  H   UNL     1       0.420 -45.510 -35.892  1.00  0.00     0.293 HD
ENDBRANCH  11  25
ENDBRANCH   1   2
BRANCH   1  27
ATOM     27  C   UNL     1      -4.770 -39.084 -32.401  1.00  0.00     0.339 C 
ATOM     28  C   UNL     1      -6.065 -38.963 -31.568  1.00  0.00     0.214 C 
ATOM     29  O   UNL     1      -3.779 -39.757 -31.650  1.00  0.00    -0.332 OA
ATOM     30  C   UNL     1      -5.745 -38.778 -30.063  1.00  0.00     0.180 C 
ATOM     31  C   UNL     1      -3.253 -38.926 -30.619  1.00  0.00     0.179 C 
ATOM     32  C   UNL     1      -4.365 -38.112 -29.867  1.00  0.00     0.177 C 
BRANCH  28  33
ATOM     33  O   UNL     1      -6.831 -37.886 -32.052  1.00  0.00    -0.384 OA
ATOM     34  H   UNL     1      -6.186 -37.195 -32.365  1.00  0.00     0.211 HD
ENDBRANCH  28  33
BRANCH  30  35
ATOM     35  O   UNL     1      -6.764 -38.068 -29.396  1.00  0.00    -0.387 OA
ATOM     36  H   UNL     1      -7.608 -38.583 -29.485  1.00  0.00     0.211 HD
ENDBRANCH  30  35
BRANCH  31  37
ATOM     37  C   UNL     1      -2.427 -39.813 -29.676  1.00  0.00     0.191 C 
BRANCH  37  38
ATOM     38  O   UNL     1      -3.202 -40.901 -29.241  1.00  0.00    -0.394 OA
ATOM     39  H   UNL     1      -4.120 -40.772 -29.596  1.00  0.00     0.210 HD
ENDBRANCH  37  38
ENDBRANCH  31  37
BRANCH  32  40
ATOM     40  O   UNL     1      -4.071 -37.912 -28.504  1.00  0.00    -0.387 OA
ATOM     41  H   UNL     1      -4.555 -38.603 -27.982  1.00  0.00     0.211 HD
ENDBRANCH  32  40
ENDBRANCH   1  27
TORSDOF 12
ENDMDL
MODEL 6
REMARK VINA RESULT:    -6.197      3.000      4.589
REMARK INTER + INTRA:         -10.430
REMARK INTER:                  -9.180
REMARK INTRA:                  -1.250
REMARK UNBOUND:                -1.335
REMARK SMILES O=c1c(O[C@@H]2O[C@H](CO)[C@H](O)[C@@H](O)[C@H]2O)c(-c2ccc(O)c(O)c2)oc2cc(O)cc(O)c12
REMARK SMILES IDX 4 1 3 2 16 3 25 4 2 5 26 6 1 7 33 8 27 9 31 10 28 11 30 12
REMARK SMILES IDX 17 13 18 14 19 15 20 16 24 17 22 18 21 19 23 21 32 23 29 25
REMARK SMILES IDX 5 27 14 28 6 29 12 30 7 31 10 32 15 33 13 35 8 37 9 38 11 40
REMARK H PARENT 21 20 23 22 32 24 29 26 15 34 13 36 9 39 11 41
REMARK Flexibility Score: inf
ROOT
ATOM      1  O   UNL     1       0.840 -40.708 -35.251  1.00  0.00    -0.454 OA
ENDROOT
BRANCH   1   2
ATOM      2  C   UNL     1       0.707 -41.696 -36.232  1.00  0.00     0.214 A 
ATOM      3  C   UNL     1      -0.335 -42.638 -36.187  1.00  0.00     0.180 A 
ATOM      4  O   UNL     1      -0.384 -43.606 -37.095  1.00  0.00    -0.452 OA
ATOM      5  C   UNL     1       1.642 -41.762 -37.272  1.00  0.00     0.239 A 
ATOM      6  C   UNL     1       0.499 -43.732 -38.080  1.00  0.00     0.146 A 
ATOM      7  O   UNL     1       2.514 -40.860 -37.346  1.00  0.00    -0.285 OA
ATOM      8  C   UNL     1       1.576 -42.817 -38.215  1.00  0.00     0.111 A 
ATOM      9  C   UNL     1       0.334 -44.776 -38.992  1.00  0.00     0.094 A 
ATOM     10  C   UNL     1       2.498 -43.005 -39.290  1.00  0.00     0.134 A 
ATOM     11  C   UNL     1       1.214 -44.924 -40.063  1.00  0.00     0.123 A 
ATOM     12  C   UNL     1       2.283 -44.041 -40.207  1.00  0.00     0.093 A 
BRANCH   3  13
ATOM     13  C   UNL     1      -1.407 -42.582 -35.169  1.00  0.00     0.025 A 
ATOM     14  C   UNL     1      -2.508 -41.738 -35.367  1.00  0.00     0.016 A 
ATOM     15  C   UNL     1      -3.510 -41.646 -34.397  1.00  0.00     0.051 A 
ATOM     16  C   UNL     1      -3.414 -42.381 -33.210  1.00  0.00     0.157 A 
ATOM     17  C   UNL     1      -1.305 -43.312 -33.973  1.00  0.00     0.062 A 
ATOM     18  C   UNL     1      -2.307 -43.219 -32.997  1.00  0.00     0.158 A 
BRANCH  16  19
ATOM     19  O   UNL     1      -4.429 -42.269 -32.261  1.00  0.00    -0.504 OA
ATOM     20  H   UNL     1      -4.935 -43.076 -31.917  1.00  0.00     0.293 HD
ENDBRANCH  16  19
BRANCH  18  21
ATOM     21  O   UNL     1      -2.205 -43.954 -31.817  1.00  0.00    -0.504 OA
ATOM     22  H   UNL     1      -1.486 -44.658 -31.692  1.00  0.00     0.293 HD
ENDBRANCH  18  21
ENDBRANCH   3  13
BRANCH  10  23
ATOM     23  O   UNL     1       3.644 -42.228 -39.491  1.00  0.00    -0.507 OA
ATOM     24  H   UNL     1       4.538 -42.574 -39.803  1.00  0.00     0.293 HD
ENDBRANCH  10  23
BRANCH  11  25
ATOM     25  O   UNL     1       1.043 -45.952 -40.987  1.00  0.00    -0.508 OA
ATOM     26  H   UNL     1       0.349 -45.895 -41.725  1.00  0.00     0.293 HD
ENDBRANCH  11  25
ENDBRANCH   1   2
BRANCH   1  27
ATOM     27  C   UNL     1       0.141 -39.465 -35.330  1.00  0.00     0.339 C 
ATOM     28  C   UNL     1       0.078 -38.840 -33.919  1.00  0.00     0.214 C 
ATOM     29  O   UNL     1       0.834 -38.599 -36.207  1.00  0.00    -0.332 OA
ATOM     30  C   UNL     1      -0.043 -37.297 -33.998  1.00  0.00     0.180 C 
ATOM     31  C   UNL     1       0.043 -37.464 -36.549  1.00  0.00     0.179 C 
ATOM     32  C   UNL     1      -0.719 -36.859 -35.316  1.00  0.00     0.177 C 
BRANCH  28  33
ATOM     33  O   UNL     1      -1.009 -39.390 -33.215  1.00  0.00    -0.384 OA
ATOM     34  H   UNL     1      -0.630 -39.846 -32.414  1.00  0.00     0.211 HD
ENDBRANCH  28  33
BRANCH  30  35
ATOM     35  O   UNL     1      -0.706 -36.767 -32.873  1.00  0.00    -0.387 OA
ATOM     36  H   UNL     1      -0.098 -36.116 -32.435  1.00  0.00     0.211 HD
ENDBRANCH  30  35
BRANCH  31  37
ATOM     37  C   UNL     1       0.960 -36.442 -37.238  1.00  0.00     0.191 C 
BRANCH  37  38
ATOM     38  O   UNL     1       0.207 -35.627 -38.099  1.00  0.00    -0.394 OA
ATOM     39  H   UNL     1      -0.596 -36.144 -38.370  1.00  0.00     0.210 HD
ENDBRANCH  37  38
ENDBRANCH  31  37
BRANCH  32  40
ATOM     40  O   UNL     1      -0.861 -35.460 -35.391  1.00  0.00    -0.387 OA
ATOM     41  H   UNL     1      -0.169 -35.052 -34.808  1.00  0.00     0.211 HD
ENDBRANCH  32  40
ENDBRANCH   1  27
TORSDOF 12
ENDMDL
MODEL 7
REMARK VINA RESULT:    -6.126      1.467      2.484
REMARK INTER + INTRA:         -10.326
REMARK INTER:                  -9.479
REMARK INTRA:                  -0.847
REMARK UNBOUND:                -1.335
REMARK SMILES O=c1c(O[C@@H]2O[C@H](CO)[C@H](O)[C@@H](O)[C@H]2O)c(-c2ccc(O)c(O)c2)oc2cc(O)cc(O)c12
REMARK SMILES IDX 4 1 3 2 16 3 25 4 2 5 26 6 1 7 33 8 27 9 31 10 28 11 30 12
REMARK SMILES IDX 17 13 18 14 19 15 20 16 24 17 22 18 21 19 23 21 32 23 29 25
REMARK SMILES IDX 5 27 14 28 6 29 12 30 7 31 10 32 15 33 13 35 8 37 9 38 11 40
REMARK H PARENT 21 20 23 22 32 24 29 26 15 34 13 36 9 39 11 41
REMARK Flexibility Score: inf
ROOT
ATOM      1  O   UNL     1      -0.348 -42.788 -32.786  1.00  0.00    -0.454 OA
ENDROOT
BRANCH   1   2
ATOM      2  C   UNL     1      -0.051 -42.820 -34.153  1.00  0.00     0.214 A 
ATOM      3  C   UNL     1      -1.028 -42.530 -35.122  1.00  0.00     0.180 A 
ATOM      4  O   UNL     1      -0.727 -42.642 -36.410  1.00  0.00    -0.452 OA
ATOM      5  C   UNL     1       1.240 -43.164 -34.568  1.00  0.00     0.239 A 
ATOM      6  C   UNL     1       0.474 -43.000 -36.854  1.00  0.00     0.146 A 
ATOM      7  O   UNL     1       2.123 -43.334 -33.688  1.00  0.00    -0.285 OA
ATOM      8  C   UNL     1       1.528 -43.296 -35.949  1.00  0.00     0.111 A 
ATOM      9  C   UNL     1       0.682 -43.062 -38.233  1.00  0.00     0.094 A 
ATOM     10  C   UNL     1       2.795 -43.681 -36.483  1.00  0.00     0.134 A 
ATOM     11  C   UNL     1       1.936 -43.396 -38.743  1.00  0.00     0.123 A 
ATOM     12  C   UNL     1       2.980 -43.698 -37.871  1.00  0.00     0.093 A 
BRANCH   3  13
ATOM     13  C   UNL     1      -2.388 -42.077 -34.761  1.00  0.00     0.025 A 
ATOM     14  C   UNL     1      -2.805 -40.784 -35.107  1.00  0.00     0.016 A 
ATOM     15  C   UNL     1      -4.073 -40.329 -34.740  1.00  0.00     0.051 A 
ATOM     16  C   UNL     1      -4.934 -41.152 -34.006  1.00  0.00     0.157 A 
ATOM     17  C   UNL     1      -3.249 -42.900 -34.014  1.00  0.00     0.062 A 
ATOM     18  C   UNL     1      -4.522 -42.444 -33.642  1.00  0.00     0.158 A 
BRANCH  16  19
ATOM     19  O   UNL     1      -6.195 -40.671 -33.653  1.00  0.00    -0.504 OA
ATOM     20  H   UNL     1      -6.485 -40.580 -32.687  1.00  0.00     0.293 HD
ENDBRANCH  16  19
BRANCH  18  21
ATOM     21  O   UNL     1      -5.374 -43.270 -32.910  1.00  0.00    -0.504 OA
ATOM     22  H   UNL     1      -5.016 -44.025 -32.336  1.00  0.00     0.293 HD
ENDBRANCH  18  21
ENDBRANCH   3  13
BRANCH  10  23
ATOM     23  O   UNL     1       3.890 -44.074 -35.707  1.00  0.00    -0.507 OA
ATOM     24  H   UNL     1       4.686 -43.497 -35.483  1.00  0.00     0.293 HD
ENDBRANCH  10  23
BRANCH  11  25
ATOM     25  O   UNL     1       2.155 -43.441 -40.118  1.00  0.00    -0.508 OA
ATOM     26  H   UNL     1       2.918 -42.931 -40.552  1.00  0.00     0.293 HD
ENDBRANCH  11  25
ENDBRANCH   1   2
BRANCH   1  27
ATOM     27  C   UNL     1       0.227 -41.820 -31.910  1.00  0.00     0.339 C 
ATOM     28  C   UNL     1      -0.898 -40.909 -31.369  1.00  0.00     0.214 C 
ATOM     29  O   UNL     1       0.862 -42.485 -30.835  1.00  0.00    -0.332 OA
ATOM     30  C   UNL     1      -0.517 -40.310 -29.991  1.00  0.00     0.180 C 
ATOM     31  C   UNL     1       1.691 -41.597 -30.091  1.00  0.00     0.179 C 
ATOM     32  C   UNL     1       1.017 -40.202 -29.838  1.00  0.00     0.177 C 
BRANCH  28  33
ATOM     33  O   UNL     1      -1.160 -39.889 -32.302  1.00  0.00    -0.384 OA
ATOM     34  H   UNL     1      -0.625 -39.097 -32.018  1.00  0.00     0.211 HD
ENDBRANCH  28  33
BRANCH  30  35
ATOM     35  O   UNL     1      -1.149 -39.070 -29.768  1.00  0.00    -0.387 OA
ATOM     36  H   UNL     1      -0.768 -38.411 -30.405  1.00  0.00     0.211 HD
ENDBRANCH  30  35
BRANCH  31  37
ATOM     37  C   UNL     1       2.090 -42.307 -28.789  1.00  0.00     0.191 C 
BRANCH  37  38
ATOM     38  O   UNL     1       2.632 -43.570 -29.079  1.00  0.00    -0.394 OA
ATOM     39  H   UNL     1       2.163 -43.916 -29.884  1.00  0.00     0.210 HD
ENDBRANCH  37  38
ENDBRANCH  31  37
BRANCH  32  40
ATOM     40  O   UNL     1       1.379 -39.633 -28.601  1.00  0.00    -0.387 OA
ATOM     41  H   UNL     1       0.573 -39.620 -28.024  1.00  0.00     0.211 HD
ENDBRANCH  32  40
ENDBRANCH   1  27
TORSDOF 12
ENDMDL
MODEL 8
REMARK VINA RESULT:    -6.101      2.314      3.753
REMARK INTER + INTRA:         -10.290
REMARK INTER:                  -9.168
REMARK INTRA:                  -1.122
REMARK UNBOUND:                -1.335
REMARK SMILES O=c1c(O[C@@H]2O[C@H](CO)[C@H](O)[C@@H](O)[C@H]2O)c(-c2ccc(O)c(O)c2)oc2cc(O)cc(O)c12
REMARK SMILES IDX 4 1 3 2 16 3 25 4 2 5 26 6 1 7 33 8 27 9 31 10 28 11 30 12
REMARK SMILES IDX 17 13 18 14 19 15 20 16 24 17 22 18 21 19 23 21 32 23 29 25
REMARK SMILES IDX 5 27 14 28 6 29 12 30 7 31 10 32 15 33 13 35 8 37 9 38 11 40
REMARK H PARENT 21 20 23 22 32 24 29 26 15 34 13 36 9 39 11 41
REMARK Flexibility Score: inf
ROOT
ATOM      1  O   UNL     1       1.242 -41.648 -34.471  1.00  0.00    -0.454 OA
ENDROOT
BRANCH   1   2
ATOM      2  C   UNL     1       1.013 -42.391 -35.635  1.00  0.00     0.214 A 
ATOM      3  C   UNL     1      -0.208 -43.052 -35.853  1.00  0.00     0.180 A 
ATOM      4  O   UNL     1      -0.360 -43.807 -36.935  1.00  0.00    -0.452 OA
ATOM      5  C   UNL     1       2.026 -42.493 -36.595  1.00  0.00     0.239 A 
ATOM      6  C   UNL     1       0.584 -43.965 -37.857  1.00  0.00     0.146 A 
ATOM      7  O   UNL     1       3.077 -41.825 -36.425  1.00  0.00    -0.285 OA
ATOM      8  C   UNL     1       1.843 -43.322 -37.729  1.00  0.00     0.111 A 
ATOM      9  C   UNL     1       0.303 -44.765 -38.966  1.00  0.00     0.094 A 
ATOM     10  C   UNL     1       2.822 -43.533 -38.748  1.00  0.00     0.134 A 
ATOM     11  C   UNL     1       1.249 -44.928 -39.977  1.00  0.00     0.123 A 
ATOM     12  C   UNL     1       2.495 -44.312 -39.864  1.00  0.00     0.093 A 
BRANCH   3  13
ATOM     13  C   UNL     1      -1.353 -42.921 -34.927  1.00  0.00     0.025 A 
ATOM     14  C   UNL     1      -1.448 -43.771 -33.816  1.00  0.00     0.016 A 
ATOM     15  C   UNL     1      -2.544 -43.685 -32.954  1.00  0.00     0.051 A 
ATOM     16  C   UNL     1      -3.567 -42.763 -33.201  1.00  0.00     0.157 A 
ATOM     17  C   UNL     1      -2.386 -42.003 -35.182  1.00  0.00     0.062 A 
ATOM     18  C   UNL     1      -3.489 -41.917 -34.319  1.00  0.00     0.158 A 
BRANCH  16  19
ATOM     19  O   UNL     1      -4.649 -42.700 -32.322  1.00  0.00    -0.504 OA
ATOM     20  H   UNL     1      -5.599 -42.580 -32.649  1.00  0.00     0.293 HD
ENDBRANCH  16  19
BRANCH  18  21
ATOM     21  O   UNL     1      -4.505 -40.997 -34.571  1.00  0.00    -0.504 OA
ATOM     22  H   UNL     1      -4.583 -40.136 -34.041  1.00  0.00     0.293 HD
ENDBRANCH  18  21
ENDBRANCH   3  13
BRANCH  10  23
ATOM     23  O   UNL     1       4.125 -43.027 -38.707  1.00  0.00    -0.507 OA
ATOM     24  H   UNL     1       4.927 -43.506 -38.327  1.00  0.00     0.293 HD
ENDBRANCH  10  23
BRANCH  11  25
ATOM     25  O   UNL     1       0.968 -45.709 -41.095  1.00  0.00    -0.508 OA
ATOM     26  H   UNL     1       0.036 -45.752 -41.494  1.00  0.00     0.293 HD
ENDBRANCH  11  25
ENDBRANCH   1   2
BRANCH   1  27
ATOM     27  C   UNL     1       0.861 -40.277 -34.362  1.00  0.00     0.339 C 
ATOM     28  C   UNL     1       0.513 -39.744 -35.770  1.00  0.00     0.214 C 
ATOM     29  O   UNL     1      -0.269 -40.175 -33.519  1.00  0.00    -0.332 OA
ATOM     30  C   UNL     1      -0.490 -38.565 -35.688  1.00  0.00     0.180 C 
ATOM     31  C   UNL     1      -0.518 -38.823 -33.143  1.00  0.00     0.179 C 
ATOM     32  C   UNL     1      -0.361 -37.820 -34.340  1.00  0.00     0.177 C 
BRANCH  28  33
ATOM     33  O   UNL     1       1.695 -39.349 -36.423  1.00  0.00    -0.384 OA
ATOM     34  H   UNL     1       2.290 -38.956 -35.727  1.00  0.00     0.211 HD
ENDBRANCH  28  33
BRANCH  30  35
ATOM     35  O   UNL     1      -0.354 -37.687 -36.782  1.00  0.00    -0.387 OA
ATOM     36  H   UNL     1      -1.217 -37.211 -36.903  1.00  0.00     0.211 HD
ENDBRANCH  30  35
BRANCH  31  37
ATOM     37  C   UNL     1      -1.911 -38.764 -32.498  1.00  0.00     0.191 C 
BRANCH  37  38
ATOM     38  O   UNL     1      -2.899 -38.731 -33.495  1.00  0.00    -0.394 OA
ATOM     39  H   UNL     1      -3.570 -39.429 -33.272  1.00  0.00     0.210 HD
ENDBRANCH  37  38
ENDBRANCH  31  37
BRANCH  32  40
ATOM     40  O   UNL     1      -1.248 -36.728 -34.262  1.00  0.00    -0.387 OA
ATOM     41  H   UNL     1      -1.279 -36.295 -35.153  1.00  0.00     0.211 HD
ENDBRANCH  32  40
ENDBRANCH   1  27
TORSDOF 12
ENDMDL
MODEL 9
REMARK VINA RESULT:    -6.085      2.905      4.539
REMARK INTER + INTRA:         -10.266
REMARK INTER:                  -8.933
REMARK INTRA:                  -1.333
REMARK UNBOUND:                -1.335
REMARK SMILES O=c1c(O[C@@H]2O[C@H](CO)[C@H](O)[C@@H](O)[C@H]2O)c(-c2ccc(O)c(O)c2)oc2cc(O)cc(O)c12
REMARK SMILES IDX 4 1 3 2 16 3 25 4 2 5 26 6 1 7 33 8 27 9 31 10 28 11 30 12
REMARK SMILES IDX 17 13 18 14 19 15 20 16 24 17 22 18 21 19 23 21 32 23 29 25
REMARK SMILES IDX 5 27 14 28 6 29 12 30 7 31 10 32 15 33 13 35 8 37 9 38 11 40
REMARK H PARENT 21 20 23 22 32 24 29 26 15 34 13 36 9 39 11 41
REMARK Flexibility Score: inf
ROOT
ATOM      1  O   UNL     1       1.720 -40.742 -35.815  1.00  0.00    -0.454 OA
ENDROOT
BRANCH   1   2
ATOM      2  C   UNL     1       1.639 -41.559 -36.948  1.00  0.00     0.214 A 
ATOM      3  C   UNL     1       0.893 -42.751 -36.939  1.00  0.00     0.180 A 
ATOM      4  O   UNL     1       0.901 -43.537 -38.010  1.00  0.00    -0.452 OA
ATOM      5  C   UNL     1       2.327 -41.193 -38.110  1.00  0.00     0.239 A 
ATOM      6  C   UNL     1       1.567 -43.251 -39.124  1.00  0.00     0.146 A 
ATOM      7  O   UNL     1       2.915 -40.082 -38.128  1.00  0.00    -0.285 OA
ATOM      8  C   UNL     1       2.334 -42.060 -39.231  1.00  0.00     0.111 A 
ATOM      9  C   UNL     1       1.483 -44.141 -40.196  1.00  0.00     0.094 A 
ATOM     10  C   UNL     1       3.034 -41.808 -40.449  1.00  0.00     0.134 A 
ATOM     11  C   UNL     1       2.134 -43.863 -41.397  1.00  0.00     0.123 A 
ATOM     12  C   UNL     1       2.899 -42.703 -41.518  1.00  0.00     0.093 A 
BRANCH   3  13
ATOM     13  C   UNL     1       0.073 -43.161 -35.780  1.00  0.00     0.025 A 
ATOM     14  C   UNL     1       0.641 -43.953 -34.772  1.00  0.00     0.016 A 
ATOM     15  C   UNL     1      -0.132 -44.379 -33.690  1.00  0.00     0.051 A 
ATOM     16  C   UNL     1      -1.487 -44.037 -33.610  1.00  0.00     0.157 A 
ATOM     17  C   UNL     1      -1.290 -42.827 -35.706  1.00  0.00     0.062 A 
ATOM     18  C   UNL     1      -2.069 -43.257 -34.622  1.00  0.00     0.158 A 
BRANCH  16  19
ATOM     19  O   UNL     1      -2.234 -44.478 -32.518  1.00  0.00    -0.504 OA
ATOM     20  H   UNL     1      -3.217 -44.259 -32.416  1.00  0.00     0.293 HD
ENDBRANCH  16  19
BRANCH  18  21
ATOM     21  O   UNL     1      -3.418 -42.912 -34.550  1.00  0.00    -0.504 OA
ATOM     22  H   UNL     1      -3.764 -42.273 -33.843  1.00  0.00     0.293 HD
ENDBRANCH  18  21
ENDBRANCH   3  13
BRANCH  10  23
ATOM     23  O   UNL     1       3.885 -40.719 -40.659  1.00  0.00    -0.507 OA
ATOM     24  H   UNL     1       4.333 -40.485 -41.532  1.00  0.00     0.293 HD
ENDBRANCH  10  23
BRANCH  11  25
ATOM     25  O   UNL     1       2.038 -44.737 -42.478  1.00  0.00    -0.508 OA
ATOM     26  H   UNL     1       2.857 -45.184 -42.875  1.00  0.00     0.293 HD
ENDBRANCH  11  25
ENDBRANCH   1   2
BRANCH   1  27
ATOM     27  C   UNL     1       0.606 -39.980 -35.351  1.00  0.00     0.339 C 
ATOM     28  C   UNL     1       0.806 -39.670 -33.851  1.00  0.00     0.214 C 
ATOM     29  O   UNL     1       0.534 -38.772 -36.083  1.00  0.00    -0.332 OA
ATOM     30  C   UNL     1       0.061 -38.373 -33.445  1.00  0.00     0.180 C 
ATOM     31  C   UNL     1      -0.709 -38.108 -35.870  1.00  0.00     0.179 C 
ATOM     32  C   UNL     1      -1.155 -38.120 -34.365  1.00  0.00     0.177 C 
BRANCH  28  33
ATOM     33  O   UNL     1       0.357 -40.763 -33.087  1.00  0.00    -0.384 OA
ATOM     34  H   UNL     1       0.987 -41.515 -33.265  1.00  0.00     0.211 HD
ENDBRANCH  28  33
BRANCH  30  35
ATOM     35  O   UNL     1      -0.311 -38.388 -32.086  1.00  0.00    -0.387 OA
ATOM     36  H   UNL     1      -0.507 -39.327 -31.831  1.00  0.00     0.211 HD
ENDBRANCH  30  35
BRANCH  31  37
ATOM     37  C   UNL     1      -0.586 -36.687 -36.440  1.00  0.00     0.191 C 
BRANCH  37  38
ATOM     38  O   UNL     1      -1.845 -36.231 -36.866  1.00  0.00    -0.394 OA
ATOM     39  H   UNL     1      -2.511 -36.525 -36.190  1.00  0.00     0.210 HD
ENDBRANCH  37  38
ENDBRANCH  31  37
BRANCH  32  40
ATOM     40  O   UNL     1      -1.859 -36.959 -33.991  1.00  0.00    -0.387 OA
ATOM     41  H   UNL     1      -1.733 -36.826 -33.016  1.00  0.00     0.211 HD
ENDBRANCH  32  40
ENDBRANCH   1  27
TORSDOF 12
ENDMDL
