MODEL 1
REMARK VINA RESULT:    -4.507      0.000      0.000
REMARK INTER + INTRA:          -6.226
REMARK INTER:                  -5.824
REMARK INTRA:                  -0.403
REMARK UNBOUND:                -0.403
REMARK SMILES CCO[C@@H]1O[C@@H](CO)[C@@H](O)[C@@H](O)[C@H]1O
REMARK SMILES IDX 4 1 13 2 11 3 9 4 6 5 5 6 3 7 2 8 1 9 14 10 12 12 7 14 8 15
REMARK SMILES IDX 10 17
REMARK H PARENT 14 11 12 13 8 16 10 18
REMARK Flexibility Score: inf
ROOT
ATOM      1  C   UNL     1      40.143 -16.693  14.200  1.00  0.00     0.281 C 
ATOM      2  C   UNL     1      40.033 -18.234  14.116  1.00  0.00     0.202 C 
ATOM      3  C   UNL     1      38.809 -18.660  13.273  1.00  0.00     0.179 C 
ATOM      4  C   UNL     1      38.728 -17.876  11.953  1.00  0.00     0.177 C 
ATOM      5  C   UNL     1      38.881 -16.364  12.244  1.00  0.00     0.178 C 
ATOM      6  O   UNL     1      40.110 -16.102  12.906  1.00  0.00    -0.341 OA
ENDROOT
BRANCH   1   7
ATOM      7  O   UNL     1      39.115 -16.184  15.034  1.00  0.00    -0.350 OA
BRANCH   7   8
ATOM      8  C   UNL     1      39.624 -15.895  16.320  1.00  0.00     0.160 C 
ATOM      9  C   UNL     1      41.044 -15.369  16.186  1.00  0.00     0.035 C 
ENDBRANCH   7   8
ENDBRANCH   1   7
BRANCH   2  10
ATOM     10  O   UNL     1      41.220 -18.812  13.625  1.00  0.00    -0.385 OA
ATOM     11  H   UNL     1      41.973 -18.199  13.824  1.00  0.00     0.211 HD
ENDBRANCH   2  10
BRANCH   3  12
ATOM     12  O   UNL     1      38.848 -20.039  13.006  1.00  0.00    -0.387 OA
ATOM     13  H   UNL     1      39.215 -20.142  12.090  1.00  0.00     0.211 HD
ENDBRANCH   3  12
BRANCH   5  14
ATOM     14  C   UNL     1      38.832 -15.524  10.961  1.00  0.00     0.191 C 
BRANCH  14  15
ATOM     15  O   UNL     1      40.096 -15.488  10.356  1.00  0.00    -0.394 OA
ATOM     16  H   UNL     1      39.955 -15.752   9.410  1.00  0.00     0.210 HD
ENDBRANCH  14  15
ENDBRANCH   5  14
BRANCH   4  17
ATOM     17  O   UNL     1      39.730 -18.317  11.070  1.00  0.00    -0.387 OA
ATOM     18  H   UNL     1      40.595 -18.254  11.552  1.00  0.00     0.211 HD
ENDBRANCH   4  17
TORSDOF 7
ENDMDL
MODEL 2
REMARK VINA RESULT:    -4.472      3.277      5.325
REMARK INTER + INTRA:          -6.182
REMARK INTER:                  -5.974
REMARK INTRA:                  -0.208
REMARK UNBOUND:                -0.403
REMARK SMILES CCO[C@@H]1O[C@@H](CO)[C@@H](O)[C@@H](O)[C@H]1O
REMARK SMILES IDX 4 1 13 2 11 3 9 4 6 5 5 6 3 7 2 8 1 9 14 10 12 12 7 14 8 15
REMARK SMILES IDX 10 17
REMARK H PARENT 14 11 12 13 8 16 10 18
REMARK Flexibility Score: inf
ROOT
ATOM      1  C   UNL     1      38.758 -13.859  11.166  1.00  0.00     0.281 C 
ATOM      2  C   UNL     1      39.450 -13.776  12.546  1.00  0.00     0.202 C 
ATOM      3  C   UNL     1      40.989 -13.811  12.402  1.00  0.00     0.179 C 
ATOM      4  C   UNL     1      41.480 -12.846  11.311  1.00  0.00     0.177 C 
ATOM      5  C   UNL     1      40.653 -13.067  10.021  1.00  0.00     0.178 C 
ATOM      6  O   UNL     1      39.269 -12.875  10.273  1.00  0.00    -0.341 OA
ENDROOT
BRANCH   1   7
ATOM      7  O   UNL     1      38.898 -15.168  10.636  1.00  0.00    -0.350 OA
BRANCH   7   8
ATOM      8  C   UNL     1      38.181 -16.095  11.424  1.00  0.00     0.160 C 
ATOM      9  C   UNL     1      39.061 -17.305  11.694  1.00  0.00     0.035 C 
ENDBRANCH   7   8
ENDBRANCH   1   7
BRANCH   2  10
ATOM     10  O   UNL     1      39.029 -12.643  13.270  1.00  0.00    -0.385 OA
ATOM     11  H   UNL     1      39.742 -11.957  13.222  1.00  0.00     0.211 HD
ENDBRANCH   2  10
BRANCH   3  12
ATOM     12  O   UNL     1      41.608 -13.503  13.624  1.00  0.00    -0.387 OA
ATOM     13  H   UNL     1      42.487 -13.097  13.405  1.00  0.00     0.211 HD
ENDBRANCH   3  12
BRANCH   5  14
ATOM     14  C   UNL     1      41.079 -12.115   8.896  1.00  0.00     0.191 C 
BRANCH  14  15
ATOM     15  O   UNL     1      40.138 -12.140   7.857  1.00  0.00    -0.394 OA
ATOM     16  H   UNL     1      40.280 -11.306   7.338  1.00  0.00     0.210 HD
ENDBRANCH  14  15
ENDBRANCH   5  14
BRANCH   4  17
ATOM     17  O   UNL     1      41.361 -11.517  11.756  1.00  0.00    -0.387 OA
ATOM     18  H   UNL     1      41.745 -11.478  12.671  1.00  0.00     0.211 HD
ENDBRANCH   4  17
TORSDOF 7
ENDMDL
MODEL 3
REMARK VINA RESULT:    -4.459      4.376      5.713
REMARK INTER + INTRA:          -6.165
REMARK INTER:                  -6.015
REMARK INTRA:                  -0.150
REMARK UNBOUND:                -0.403
REMARK SMILES CCO[C@@H]1O[C@@H](CO)[C@@H](O)[C@@H](O)[C@H]1O
REMARK SMILES IDX 4 1 13 2 11 3 9 4 6 5 5 6 3 7 2 8 1 9 14 10 12 12 7 14 8 15
REMARK SMILES IDX 10 17
REMARK H PARENT 14 11 12 13 8 16 10 18
REMARK Flexibility Score: inf
ROOT
ATOM      1  C   UNL     1      41.828 -12.133  10.903  1.00  0.00     0.281 C 
ATOM      2  C   UNL     1      41.622 -13.459  10.135  1.00  0.00     0.202 C 
ATOM      3  C   UNL     1      40.543 -14.335  10.812  1.00  0.00     0.179 C 
ATOM      4  C   UNL     1      39.286 -13.521  11.159  1.00  0.00     0.177 C 
ATOM      5  C   UNL     1      39.701 -12.228  11.901  1.00  0.00     0.178 C 
ATOM      6  O   UNL     1      40.593 -11.458  11.108  1.00  0.00    -0.341 OA
ENDROOT
BRANCH   1   7
ATOM      7  O   UNL     1      42.493 -12.389  12.130  1.00  0.00    -0.350 OA
BRANCH   7   8
ATOM      8  C   UNL     1      43.783 -11.813  12.119  1.00  0.00     0.160 C 
ATOM      9  C   UNL     1      44.817 -12.913  11.946  1.00  0.00     0.035 C 
ENDBRANCH   7   8
ENDBRANCH   1   7
BRANCH   2  10
ATOM     10  O   UNL     1      41.318 -13.230   8.778  1.00  0.00    -0.385 OA
ATOM     11  H   UNL     1      41.084 -14.096   8.358  1.00  0.00     0.211 HD
ENDBRANCH   2  10
BRANCH   3  12
ATOM     12  O   UNL     1      40.196 -15.419   9.989  1.00  0.00    -0.387 OA
ATOM     13  H   UNL     1      40.637 -16.221  10.372  1.00  0.00     0.211 HD
ENDBRANCH   3  12
BRANCH   5  14
ATOM     14  C   UNL     1      38.491 -11.356  12.257  1.00  0.00     0.191 C 
BRANCH  14  15
ATOM     15  O   UNL     1      38.380 -11.222  13.648  1.00  0.00    -0.394 OA
ATOM     16  H   UNL     1      37.713 -11.897  13.937  1.00  0.00     0.210 HD
ENDBRANCH  14  15
ENDBRANCH   5  14
BRANCH   4  17
ATOM     17  O   UNL     1      38.573 -13.215   9.986  1.00  0.00    -0.387 OA
ATOM     18  H   UNL     1      39.100 -12.533   9.492  1.00  0.00     0.211 HD
ENDBRANCH   4  17
TORSDOF 7
ENDMDL
MODEL 4
REMARK VINA RESULT:    -4.409      2.360      4.182
REMARK INTER + INTRA:          -6.101
REMARK INTER:                  -5.739
REMARK INTRA:                  -0.361
REMARK UNBOUND:                -0.403
REMARK SMILES CCO[C@@H]1O[C@@H](CO)[C@@H](O)[C@@H](O)[C@H]1O
REMARK SMILES IDX 4 1 13 2 11 3 9 4 6 5 5 6 3 7 2 8 1 9 14 10 12 12 7 14 8 15
REMARK SMILES IDX 10 17
REMARK H PARENT 14 11 12 13 8 16 10 18
REMARK Flexibility Score: inf
ROOT
ATOM      1  C   UNL     1      39.073 -15.730  13.501  1.00  0.00     0.281 C 
ATOM      2  C   UNL     1      40.280 -14.857  13.917  1.00  0.00     0.202 C 
ATOM      3  C   UNL     1      40.899 -14.141  12.694  1.00  0.00     0.179 C 
ATOM      4  C   UNL     1      39.823 -13.481  11.818  1.00  0.00     0.177 C 
ATOM      5  C   UNL     1      38.696 -14.502  11.531  1.00  0.00     0.178 C 
ATOM      6  O   UNL     1      38.130 -14.980  12.743  1.00  0.00    -0.341 OA
ENDROOT
BRANCH   1   7
ATOM      7  O   UNL     1      39.528 -16.869  12.788  1.00  0.00    -0.350 OA
BRANCH   7   8
ATOM      8  C   UNL     1      40.298 -17.700  13.631  1.00  0.00     0.160 C 
ATOM      9  C   UNL     1      40.739 -18.928  12.851  1.00  0.00     0.035 C 
ENDBRANCH   7   8
ENDBRANCH   1   7
BRANCH   2  10
ATOM     10  O   UNL     1      39.931 -13.938  14.926  1.00  0.00    -0.385 OA
ATOM     11  H   UNL     1      40.752 -13.469  15.222  1.00  0.00     0.211 HD
ENDBRANCH   2  10
BRANCH   3  12
ATOM     12  O   UNL     1      41.835 -13.178  13.106  1.00  0.00    -0.387 OA
ATOM     13  H   UNL     1      41.537 -12.310  12.728  1.00  0.00     0.211 HD
ENDBRANCH   3  12
BRANCH   5  14
ATOM     14  C   UNL     1      37.575 -13.897  10.677  1.00  0.00     0.191 C 
BRANCH  14  15
ATOM     15  O   UNL     1      38.116 -13.084   9.670  1.00  0.00    -0.394 OA
ATOM     16  H   UNL     1      38.918 -12.654  10.066  1.00  0.00     0.210 HD
ENDBRANCH  14  15
ENDBRANCH   5  14
BRANCH   4  17
ATOM     17  O   UNL     1      39.309 -12.342  12.465  1.00  0.00    -0.387 OA
ATOM     18  H   UNL     1      39.763 -11.551  12.073  1.00  0.00     0.211 HD
ENDBRANCH   4  17
TORSDOF 7
ENDMDL
MODEL 5
REMARK VINA RESULT:    -4.368      1.843      4.007
REMARK INTER + INTRA:          -6.047
REMARK INTER:                  -5.885
REMARK INTRA:                  -0.162
REMARK UNBOUND:                -0.403
REMARK SMILES CCO[C@@H]1O[C@@H](CO)[C@@H](O)[C@@H](O)[C@H]1O
REMARK SMILES IDX 4 1 13 2 11 3 9 4 6 5 5 6 3 7 2 8 1 9 14 10 12 12 7 14 8 15
REMARK SMILES IDX 10 17
REMARK H PARENT 14 11 12 13 8 16 10 18
REMARK Flexibility Score: inf
ROOT
ATOM      1  C   UNL     1      38.589 -16.536  13.636  1.00  0.00     0.281 C 
ATOM      2  C   UNL     1      39.012 -15.791  14.924  1.00  0.00     0.202 C 
ATOM      3  C   UNL     1      40.340 -15.027  14.715  1.00  0.00     0.179 C 
ATOM      4  C   UNL     1      40.332 -14.220  13.407  1.00  0.00     0.177 C 
ATOM      5  C   UNL     1      39.861 -15.129  12.246  1.00  0.00     0.178 C 
ATOM      6  O   UNL     1      38.571 -15.660  12.515  1.00  0.00    -0.341 OA
ENDROOT
BRANCH   1   7
ATOM      7  O   UNL     1      39.448 -17.645  13.419  1.00  0.00    -0.350 OA
BRANCH   7   8
ATOM      8  C   UNL     1      38.722 -18.728  12.877  1.00  0.00     0.160 C 
ATOM      9  C   UNL     1      39.508 -19.324  11.720  1.00  0.00     0.035 C 
ENDBRANCH   7   8
ENDBRANCH   1   7
BRANCH   2  10
ATOM     10  O   UNL     1      37.994 -14.933  15.384  1.00  0.00    -0.385 OA
ATOM     11  H   UNL     1      37.451 -14.645  14.607  1.00  0.00     0.211 HD
ENDBRANCH   2  10
BRANCH   3  12
ATOM     12  O   UNL     1      40.595 -14.172  15.800  1.00  0.00    -0.387 OA
ATOM     13  H   UNL     1      41.335 -14.581  16.319  1.00  0.00     0.211 HD
ENDBRANCH   3  12
BRANCH   5  14
ATOM     14  C   UNL     1      39.808 -14.376  10.912  1.00  0.00     0.191 C 
BRANCH  14  15
ATOM     15  O   UNL     1      40.540 -15.066   9.935  1.00  0.00    -0.394 OA
ATOM     16  H   UNL     1      39.911 -15.718   9.529  1.00  0.00     0.210 HD
ENDBRANCH  14  15
ENDBRANCH   5  14
BRANCH   4  17
ATOM     17  O   UNL     1      39.487 -13.103  13.537  1.00  0.00    -0.387 OA
ATOM     18  H   UNL     1      40.032 -12.365  13.917  1.00  0.00     0.211 HD
ENDBRANCH   4  17
TORSDOF 7
ENDMDL
MODEL 6
REMARK VINA RESULT:    -4.361      1.872      4.720
REMARK INTER + INTRA:          -6.038
REMARK INTER:                  -5.649
REMARK INTRA:                  -0.389
REMARK UNBOUND:                -0.403
REMARK SMILES CCO[C@@H]1O[C@@H](CO)[C@@H](O)[C@@H](O)[C@H]1O
REMARK SMILES IDX 4 1 13 2 11 3 9 4 6 5 5 6 3 7 2 8 1 9 14 10 12 12 7 14 8 15
REMARK SMILES IDX 10 17
REMARK H PARENT 14 11 12 13 8 16 10 18
REMARK Flexibility Score: inf
ROOT
ATOM      1  C   UNL     1      39.422 -16.599  11.757  1.00  0.00     0.281 C 
ATOM      2  C   UNL     1      39.312 -15.317  10.900  1.00  0.00     0.202 C 
ATOM      3  C   UNL     1      38.855 -14.112  11.755  1.00  0.00     0.179 C 
ATOM      4  C   UNL     1      39.648 -14.015  13.068  1.00  0.00     0.177 C 
ATOM      5  C   UNL     1      39.662 -15.397  13.763  1.00  0.00     0.178 C 
ATOM      6  O   UNL     1      40.227 -16.382  12.910  1.00  0.00    -0.341 OA
ENDROOT
BRANCH   1   7
ATOM      7  O   UNL     1      38.125 -17.057  12.104  1.00  0.00    -0.350 OA
BRANCH   7   8
ATOM      8  C   UNL     1      37.798 -18.215  11.363  1.00  0.00     0.160 C 
ATOM      9  C   UNL     1      38.875 -19.266  11.582  1.00  0.00     0.035 C 
ENDBRANCH   7   8
ENDBRANCH   1   7
BRANCH   2  10
ATOM     10  O   UNL     1      40.517 -15.039  10.226  1.00  0.00    -0.385 OA
ATOM     11  H   UNL     1      40.629 -15.700   9.496  1.00  0.00     0.211 HD
ENDBRANCH   2  10
BRANCH   3  12
ATOM     12  O   UNL     1      38.982 -12.915  11.032  1.00  0.00    -0.387 OA
ATOM     13  H   UNL     1      38.387 -12.252  11.470  1.00  0.00     0.211 HD
ENDBRANCH   3  12
BRANCH   5  14
ATOM     14  C   UNL     1      40.460 -15.374  15.073  1.00  0.00     0.191 C 
BRANCH  14  15
ATOM     15  O   UNL     1      40.460 -14.083  15.618  1.00  0.00    -0.394 OA
ATOM     16  H   UNL     1      40.976 -13.517  14.986  1.00  0.00     0.210 HD
ENDBRANCH  14  15
ENDBRANCH   5  14
BRANCH   4  17
ATOM     17  O   UNL     1      40.958 -13.576  12.807  1.00  0.00    -0.387 OA
ATOM     18  H   UNL     1      41.537 -13.929  13.532  1.00  0.00     0.211 HD
ENDBRANCH   4  17
TORSDOF 7
ENDMDL
MODEL 7
REMARK VINA RESULT:    -4.353      3.388      5.930
REMARK INTER + INTRA:          -6.027
REMARK INTER:                  -5.679
REMARK INTRA:                  -0.349
REMARK UNBOUND:                -0.403
REMARK SMILES CCO[C@@H]1O[C@@H](CO)[C@@H](O)[C@@H](O)[C@H]1O
REMARK SMILES IDX 4 1 13 2 11 3 9 4 6 5 5 6 3 7 2 8 1 9 14 10 12 12 7 14 8 15
REMARK SMILES IDX 10 17
REMARK H PARENT 14 11 12 13 8 16 10 18
REMARK Flexibility Score: inf
ROOT
ATOM      1  C   UNL     1      40.465 -12.815  11.569  1.00  0.00     0.281 C 
ATOM      2  C   UNL     1      39.143 -12.030  11.738  1.00  0.00     0.202 C 
ATOM      3  C   UNL     1      38.003 -12.953  12.225  1.00  0.00     0.179 C 
ATOM      4  C   UNL     1      38.451 -13.836  13.400  1.00  0.00     0.177 C 
ATOM      5  C   UNL     1      39.796 -14.516  13.049  1.00  0.00     0.178 C 
ATOM      6  O   UNL     1      40.786 -13.543  12.748  1.00  0.00    -0.341 OA
ENDROOT
BRANCH   1   7
ATOM      7  O   UNL     1      40.375 -13.667  10.438  1.00  0.00    -0.350 OA
BRANCH   7   8
ATOM      8  C   UNL     1      41.439 -13.410   9.545  1.00  0.00     0.160 C 
ATOM      9  C   UNL     1      41.132 -12.148   8.755  1.00  0.00     0.035 C 
ENDBRANCH   7   8
ENDBRANCH   1   7
BRANCH   2  10
ATOM     10  O   UNL     1      39.305 -10.921  12.592  1.00  0.00    -0.385 OA
ATOM     11  H   UNL     1      39.356 -10.102  12.037  1.00  0.00     0.211 HD
ENDBRANCH   2  10
BRANCH   3  12
ATOM     12  O   UNL     1      36.879 -12.198  12.597  1.00  0.00    -0.387 OA
ATOM     13  H   UNL     1      36.981 -11.992  13.563  1.00  0.00     0.211 HD
ENDBRANCH   3  12
BRANCH   5  14
ATOM     14  C   UNL     1      40.311 -15.396  14.194  1.00  0.00     0.191 C 
BRANCH  14  15
ATOM     15  O   UNL     1      41.054 -14.627  15.101  1.00  0.00    -0.394 OA
ATOM     16  H   UNL     1      41.996 -14.927  15.009  1.00  0.00     0.210 HD
ENDBRANCH  14  15
ENDBRANCH   5  14
BRANCH   4  17
ATOM     17  O   UNL     1      38.576 -13.058  14.565  1.00  0.00    -0.387 OA
ATOM     18  H   UNL     1      38.802 -13.676  15.309  1.00  0.00     0.211 HD
ENDBRANCH   4  17
TORSDOF 7
ENDMDL
MODEL 8
REMARK VINA RESULT:    -4.322      2.504      4.831
REMARK INTER + INTRA:          -5.988
REMARK INTER:                  -5.629
REMARK INTRA:                  -0.359
REMARK UNBOUND:                -0.403
REMARK SMILES CCO[C@@H]1O[C@@H](CO)[C@@H](O)[C@@H](O)[C@H]1O
REMARK SMILES IDX 4 1 13 2 11 3 9 4 6 5 5 6 3 7 2 8 1 9 14 10 12 12 7 14 8 15
REMARK SMILES IDX 10 17
REMARK H PARENT 14 11 12 13 8 16 10 18
REMARK Flexibility Score: inf
ROOT
ATOM      1  C   UNL     1      39.806 -15.930  13.640  1.00  0.00     0.281 C 
ATOM      2  C   UNL     1      40.419 -14.618  13.098  1.00  0.00     0.202 C 
ATOM      3  C   UNL     1      39.329 -13.699  12.498  1.00  0.00     0.179 C 
ATOM      4  C   UNL     1      38.114 -13.575  13.432  1.00  0.00     0.177 C 
ATOM      5  C   UNL     1      37.666 -14.986  13.882  1.00  0.00     0.178 C 
ATOM      6  O   UNL     1      38.729 -15.667  14.533  1.00  0.00    -0.341 OA
ENDROOT
BRANCH   1   7
ATOM      7  O   UNL     1      39.398 -16.752  12.558  1.00  0.00    -0.350 OA
BRANCH   7   8
ATOM      8  C   UNL     1      40.066 -17.996  12.607  1.00  0.00     0.160 C 
ATOM      9  C   UNL     1      39.346 -18.984  11.704  1.00  0.00     0.035 C 
ENDBRANCH   7   8
ENDBRANCH   1   7
BRANCH   2  10
ATOM     10  O   UNL     1      41.167 -13.948  14.087  1.00  0.00    -0.385 OA
ATOM     11  H   UNL     1      41.447 -14.609  14.770  1.00  0.00     0.211 HD
ENDBRANCH   2  10
BRANCH   3  12
ATOM     12  O   UNL     1      39.852 -12.424  12.225  1.00  0.00    -0.387 OA
ATOM     13  H   UNL     1      39.250 -12.007  11.555  1.00  0.00     0.211 HD
ENDBRANCH   3  12
BRANCH   5  14
ATOM     14  C   UNL     1      36.468 -14.931  14.838  1.00  0.00     0.191 C 
BRANCH  14  15
ATOM     15  O   UNL     1      36.904 -14.703  16.151  1.00  0.00    -0.394 OA
ATOM     16  H   UNL     1      37.835 -15.046  16.195  1.00  0.00     0.210 HD
ENDBRANCH  14  15
ENDBRANCH   5  14
BRANCH   4  17
ATOM     17  O   UNL     1      38.443 -12.779  14.545  1.00  0.00    -0.387 OA
ATOM     18  H   UNL     1      38.233 -13.309  15.357  1.00  0.00     0.211 HD
ENDBRANCH   4  17
TORSDOF 7
ENDMDL
MODEL 9
REMARK VINA RESULT:    -4.252      3.877      5.612
REMARK INTER + INTRA:          -5.898
REMARK INTER:                  -5.500
REMARK INTRA:                  -0.398
REMARK UNBOUND:                -0.403
REMARK SMILES CCO[C@@H]1O[C@@H](CO)[C@@H](O)[C@@H](O)[C@H]1O
REMARK SMILES IDX 4 1 13 2 11 3 9 4 6 5 5 6 3 7 2 8 1 9 14 10 12 12 7 14 8 15
REMARK SMILES IDX 10 17
REMARK H PARENT 14 11 12 13 8 16 10 18
REMARK Flexibility Score: inf
ROOT
ATOM      1  C   UNL     1      38.340 -13.144  11.079  1.00  0.00     0.281 C 
ATOM      2  C   UNL     1      38.577 -13.200  12.606  1.00  0.00     0.202 C 
ATOM      3  C   UNL     1      39.819 -14.056  12.947  1.00  0.00     0.179 C 
ATOM      4  C   UNL     1      41.021 -13.689  12.062  1.00  0.00     0.177 C 
ATOM      5  C   UNL     1      40.578 -13.663  10.579  1.00  0.00     0.178 C 
ATOM      6  O   UNL     1      39.516 -12.739  10.389  1.00  0.00    -0.341 OA
ENDROOT
BRANCH   1   7
ATOM      7  O   UNL     1      37.871 -14.402  10.619  1.00  0.00    -0.350 OA
BRANCH   7   8
ATOM      8  C   UNL     1      36.488 -14.339  10.341  1.00  0.00     0.160 C 
ATOM      9  C   UNL     1      36.245 -13.303   9.255  1.00  0.00     0.035 C 
ENDBRANCH   7   8
ENDBRANCH   1   7
BRANCH   2  10
ATOM     10  O   UNL     1      38.674 -11.910  13.163  1.00  0.00    -0.385 OA
ATOM     11  H   UNL     1      37.886 -11.383  12.876  1.00  0.00     0.211 HD
ENDBRANCH   2  10
BRANCH   3  12
ATOM     12  O   UNL     1      40.163 -13.912  14.301  1.00  0.00    -0.387 OA
ATOM     13  H   UNL     1      40.956 -14.488  14.457  1.00  0.00     0.211 HD
ENDBRANCH   3  12
BRANCH   5  14
ATOM     14  C   UNL     1      41.730 -13.279   9.642  1.00  0.00     0.191 C 
BRANCH  14  15
ATOM     15  O   UNL     1      42.962 -13.584  10.237  1.00  0.00    -0.394 OA
ATOM     16  H   UNL     1      42.979 -13.094  11.100  1.00  0.00     0.210 HD
ENDBRANCH  14  15
ENDBRANCH   5  14
BRANCH   4  17
ATOM     17  O   UNL     1      41.538 -12.440  12.449  1.00  0.00    -0.387 OA
ATOM     18  H   UNL     1      42.526 -12.491  12.363  1.00  0.00     0.211 HD
ENDBRANCH   4  17
TORSDOF 7
ENDMDL
