MODEL 1
REMARK VINA RESULT:    -4.811      0.000      0.000
REMARK INTER + INTRA:          -8.379
REMARK INTER:                  -7.343
REMARK INTRA:                  -1.037
REMARK UNBOUND:                -1.037
REMARK SMILES CC(=O)CCC=C(C)CCC=C(C)CCC=C(C)C
REMARK SMILES IDX 10 1 11 2 12 3 13 4 14 5 15 6 16 7 18 8 17 9 19 10 9 11 7 12
REMARK SMILES IDX 6 13 8 14 5 15 4 16 2 17 3 18 1 19
REMARK H PARENT
REMARK Flexibility Score: inf
ROOT
ATOM      1  C   UNL     1      13.468  16.665  24.926  1.00  0.00     0.032 C 
ENDROOT
BRANCH   1   2
ATOM      2  C   UNL     1      13.205  15.508  25.862  1.00  0.00    -0.028 C 
ATOM      3  C   UNL     1      12.081  14.756  25.864  1.00  0.00    -0.077 C 
ATOM      4  C   UNL     1      10.921  15.049  24.942  1.00  0.00     0.039 C 
BRANCH   3   5
ATOM      5  C   UNL     1      11.992  13.577  26.809  1.00  0.00     0.034 C 
BRANCH   5   6
ATOM      6  C   UNL     1      12.865  13.802  28.049  1.00  0.00     0.032 C 
BRANCH   6   7
ATOM      7  C   UNL     1      13.965  12.773  28.122  1.00  0.00    -0.028 C 
ATOM      8  C   UNL     1      16.248  11.885  27.933  1.00  0.00     0.039 C 
ATOM      9  C   UNL     1      15.266  13.024  27.854  1.00  0.00    -0.080 C 
ATOM     10  C   UNL     1      15.757  14.409  27.500  1.00  0.00     0.039 C 
ENDBRANCH   6   7
ENDBRANCH   5   6
ENDBRANCH   3   5
ENDBRANCH   1   2
BRANCH   1  11
ATOM     11  C   UNL     1      13.584  17.988  25.697  1.00  0.00     0.034 C 
BRANCH  11  12
ATOM     12  C   UNL     1      15.016  18.283  26.105  1.00  0.00    -0.077 C 
ATOM     13  C   UNL     1      15.954  18.724  25.235  1.00  0.00    -0.028 C 
ATOM     14  C   UNL     1      15.428  18.044  27.534  1.00  0.00     0.039 C 
BRANCH  13  15
ATOM     15  C   UNL     1      15.698  19.077  23.790  1.00  0.00     0.035 C 
BRANCH  15  16
ATOM     16  C   UNL     1      16.447  20.351  23.380  1.00  0.00     0.079 C 
BRANCH  16  17
ATOM     17  C   UNL     1      15.508  21.392  22.823  1.00  0.00     0.130 C 
ATOM     18  O   UNL     1      15.547  22.533  23.260  1.00  0.00    -0.300 OA
ATOM     19  C   UNL     1      14.524  21.056  21.742  1.00  0.00     0.087 C 
ENDBRANCH  16  17
ENDBRANCH  15  16
ENDBRANCH  13  15
ENDBRANCH  11  12
ENDBRANCH   1  11
TORSDOF 9
ENDMDL
MODEL 2
REMARK VINA RESULT:    -4.524      1.189      3.212
REMARK INTER + INTRA:          -7.941
REMARK INTER:                  -6.944
REMARK INTRA:                  -0.997
REMARK UNBOUND:                -1.037
REMARK SMILES CC(=O)CCC=C(C)CCC=C(C)CCC=C(C)C
REMARK SMILES IDX 10 1 11 2 12 3 13 4 14 5 15 6 16 7 18 8 17 9 19 10 9 11 7 12
REMARK SMILES IDX 6 13 8 14 5 15 4 16 2 17 3 18 1 19
REMARK H PARENT
REMARK Flexibility Score: inf
ROOT
ATOM      1  C   UNL     1      15.413  15.967  27.925  1.00  0.00     0.032 C 
ENDROOT
BRANCH   1   2
ATOM      2  C   UNL     1      14.238  15.018  27.981  1.00  0.00    -0.028 C 
ATOM      3  C   UNL     1      14.329  13.671  27.921  1.00  0.00    -0.077 C 
ATOM      4  C   UNL     1      15.652  12.966  27.727  1.00  0.00     0.039 C 
BRANCH   3   5
ATOM      5  C   UNL     1      13.070  12.845  28.069  1.00  0.00     0.034 C 
BRANCH   5   6
ATOM      6  C   UNL     1      11.824  13.689  27.775  1.00  0.00     0.032 C 
BRANCH   6   7
ATOM      7  C   UNL     1      11.325  13.434  26.375  1.00  0.00    -0.028 C 
ATOM      8  C   UNL     1      10.875  13.925  24.010  1.00  0.00     0.039 C 
ATOM      9  C   UNL     1      11.459  14.302  25.346  1.00  0.00    -0.080 C 
ATOM     10  C   UNL     1      12.189  15.617  25.498  1.00  0.00     0.039 C 
ENDBRANCH   6   7
ENDBRANCH   5   6
ENDBRANCH   3   5
ENDBRANCH   1   2
BRANCH   1  11
ATOM     11  C   UNL     1      14.946  17.425  27.821  1.00  0.00     0.034 C 
BRANCH  11  12
ATOM     12  C   UNL     1      16.014  18.322  27.221  1.00  0.00    -0.077 C 
ATOM     13  C   UNL     1      15.949  18.801  25.958  1.00  0.00    -0.028 C 
ATOM     14  C   UNL     1      17.221  18.671  28.053  1.00  0.00     0.039 C 
BRANCH  13  15
ATOM     15  C   UNL     1      14.787  18.604  25.015  1.00  0.00     0.035 C 
BRANCH  15  16
ATOM     16  C   UNL     1      15.256  18.482  23.559  1.00  0.00     0.079 C 
BRANCH  16  17
ATOM     17  C   UNL     1      15.447  19.836  22.922  1.00  0.00     0.130 C 
ATOM     18  O   UNL     1      16.223  20.634  23.426  1.00  0.00    -0.300 OA
ATOM     19  C   UNL     1      14.701  20.225  21.681  1.00  0.00     0.087 C 
ENDBRANCH  16  17
ENDBRANCH  15  16
ENDBRANCH  13  15
ENDBRANCH  11  12
ENDBRANCH   1  11
TORSDOF 9
ENDMDL
MODEL 3
REMARK VINA RESULT:    -3.941      2.640      7.244
REMARK INTER + INTRA:          -7.052
REMARK INTER:                  -6.060
REMARK INTRA:                  -0.992
REMARK UNBOUND:                -1.037
REMARK SMILES CC(=O)CCC=C(C)CCC=C(C)CCC=C(C)C
REMARK SMILES IDX 10 1 11 2 12 3 13 4 14 5 15 6 16 7 18 8 17 9 19 10 9 11 7 12
REMARK SMILES IDX 6 13 8 14 5 15 4 16 2 17 3 18 1 19
REMARK H PARENT
REMARK Flexibility Score: inf
ROOT
ATOM      1  C   UNL     1      15.684  17.104  27.692  1.00  0.00     0.032 C 
ENDROOT
BRANCH   1   2
ATOM      2  C   UNL     1      15.379  18.164  26.659  1.00  0.00    -0.028 C 
ATOM      3  C   UNL     1      15.048  17.916  25.372  1.00  0.00    -0.077 C 
ATOM      4  C   UNL     1      15.007  16.513  24.812  1.00  0.00     0.039 C 
BRANCH   3   5
ATOM      5  C   UNL     1      14.690  19.079  24.472  1.00  0.00     0.034 C 
BRANCH   5   6
ATOM      6  C   UNL     1      15.708  19.224  23.334  1.00  0.00     0.032 C 
BRANCH   6   7
ATOM      7  C   UNL     1      15.009  19.422  22.014  1.00  0.00    -0.028 C 
ATOM      8  C   UNL     1      13.927  20.667  20.192  1.00  0.00     0.039 C 
ATOM      9  C   UNL     1      14.656  20.627  21.509  1.00  0.00    -0.080 C 
ATOM     10  C   UNL     1      14.989  21.919  22.218  1.00  0.00     0.039 C 
ENDBRANCH   6   7
ENDBRANCH   5   6
ENDBRANCH   3   5
ENDBRANCH   1   2
BRANCH   1  11
ATOM     11  C   UNL     1      14.410  16.366  28.125  1.00  0.00     0.034 C 
BRANCH  11  12
ATOM     12  C   UNL     1      14.411  14.916  27.672  1.00  0.00    -0.077 C 
ATOM     13  C   UNL     1      13.277  14.204  27.479  1.00  0.00    -0.028 C 
ATOM     14  C   UNL     1      15.732  14.223  27.460  1.00  0.00     0.039 C 
BRANCH  13  15
ATOM     15  C   UNL     1      11.877  14.759  27.583  1.00  0.00     0.035 C 
BRANCH  15  16
ATOM     16  C   UNL     1      10.909  14.021  26.648  1.00  0.00     0.079 C 
BRANCH  16  17
ATOM     17  C   UNL     1      11.164  14.363  25.202  1.00  0.00     0.130 C 
ATOM     18  O   UNL     1      11.033  13.501  24.347  1.00  0.00    -0.300 OA
ATOM     19  C   UNL     1      11.577  15.745  24.790  1.00  0.00     0.087 C 
ENDBRANCH  16  17
ENDBRANCH  15  16
ENDBRANCH  13  15
ENDBRANCH  11  12
ENDBRANCH   1  11
TORSDOF 9
ENDMDL
MODEL 4
REMARK VINA RESULT:    -3.925      2.547      6.722
REMARK INTER + INTRA:          -7.026
REMARK INTER:                  -5.364
REMARK INTRA:                  -1.662
REMARK UNBOUND:                -1.037
REMARK SMILES CC(=O)CCC=C(C)CCC=C(C)CCC=C(C)C
REMARK SMILES IDX 10 1 11 2 12 3 13 4 14 5 15 6 16 7 18 8 17 9 19 10 9 11 7 12
REMARK SMILES IDX 6 13 8 14 5 15 4 16 2 17 3 18 1 19
REMARK H PARENT
REMARK Flexibility Score: inf
ROOT
ATOM      1  C   UNL     1      15.505  15.277  28.123  1.00  0.00     0.032 C 
ENDROOT
BRANCH   1   2
ATOM      2  C   UNL     1      15.863  16.611  27.508  1.00  0.00    -0.028 C 
ATOM      3  C   UNL     1      15.038  17.680  27.450  1.00  0.00    -0.077 C 
ATOM      4  C   UNL     1      13.616  17.624  27.958  1.00  0.00     0.039 C 
BRANCH   3   5
ATOM      5  C   UNL     1      15.563  18.978  26.874  1.00  0.00     0.034 C 
BRANCH   5   6
ATOM      6  C   UNL     1      16.579  18.709  25.758  1.00  0.00     0.032 C 
BRANCH   6   7
ATOM      7  C   UNL     1      16.147  19.366  24.472  1.00  0.00    -0.028 C 
ATOM      8  C   UNL     1      14.995  19.568  22.310  1.00  0.00     0.039 C 
ATOM      9  C   UNL     1      15.308  18.805  23.571  1.00  0.00    -0.080 C 
ATOM     10  C   UNL     1      14.669  17.456  23.805  1.00  0.00     0.039 C 
ENDBRANCH   6   7
ENDBRANCH   5   6
ENDBRANCH   3   5
ENDBRANCH   1   2
BRANCH   1  11
ATOM     11  C   UNL     1      14.800  14.368  27.107  1.00  0.00     0.034 C 
BRANCH  11  12
ATOM     12  C   UNL     1      14.068  13.222  27.783  1.00  0.00    -0.077 C 
ATOM     13  C   UNL     1      12.760  13.282  28.124  1.00  0.00    -0.028 C 
ATOM     14  C   UNL     1      14.835  11.971  28.125  1.00  0.00     0.039 C 
BRANCH  13  15
ATOM     15  C   UNL     1      11.832  14.428  27.798  1.00  0.00     0.035 C 
BRANCH  15  16
ATOM     16  C   UNL     1      10.878  14.071  26.651  1.00  0.00     0.079 C 
BRANCH  16  17
ATOM     17  C   UNL     1      11.385  14.586  25.327  1.00  0.00     0.130 C 
ATOM     18  O   UNL     1      11.269  13.893  24.327  1.00  0.00    -0.300 OA
ATOM     19  C   UNL     1      12.031  15.934  25.211  1.00  0.00     0.087 C 
ENDBRANCH  16  17
ENDBRANCH  15  16
ENDBRANCH  13  15
ENDBRANCH  11  12
ENDBRANCH   1  11
TORSDOF 9
ENDMDL
MODEL 5
REMARK VINA RESULT:    -3.857      2.276      7.381
REMARK INTER + INTRA:          -6.923
REMARK INTER:                  -5.995
REMARK INTRA:                  -0.928
REMARK UNBOUND:                -1.037
REMARK SMILES CC(=O)CCC=C(C)CCC=C(C)CCC=C(C)C
REMARK SMILES IDX 10 1 11 2 12 3 13 4 14 5 15 6 16 7 18 8 17 9 19 10 9 11 7 12
REMARK SMILES IDX 6 13 8 14 5 15 4 16 2 17 3 18 1 19
REMARK H PARENT
REMARK Flexibility Score: inf
ROOT
ATOM      1  C   UNL     1      13.264  16.397  24.510  1.00  0.00     0.032 C 
ENDROOT
BRANCH   1   2
ATOM      2  C   UNL     1      14.451  17.315  24.695  1.00  0.00    -0.028 C 
ATOM      3  C   UNL     1      14.845  17.840  25.877  1.00  0.00    -0.077 C 
ATOM      4  C   UNL     1      14.078  17.597  27.156  1.00  0.00     0.039 C 
BRANCH   3   5
ATOM      5  C   UNL     1      16.102  18.681  25.921  1.00  0.00     0.034 C 
BRANCH   5   6
ATOM      6  C   UNL     1      16.677  18.878  24.513  1.00  0.00     0.032 C 
BRANCH   6   7
ATOM      7  C   UNL     1      16.352  20.255  23.992  1.00  0.00    -0.028 C 
ATOM      8  C   UNL     1      15.408  21.929  22.460  1.00  0.00     0.039 C 
ATOM      9  C   UNL     1      15.619  20.498  22.881  1.00  0.00    -0.080 C 
ATOM     10  C   UNL     1      15.000  19.383  22.071  1.00  0.00     0.039 C 
ENDBRANCH   6   7
ENDBRANCH   5   6
ENDBRANCH   3   5
ENDBRANCH   1   2
BRANCH   1  11
ATOM     11  C   UNL     1      13.430  15.104  25.321  1.00  0.00     0.034 C 
BRANCH  11  12
ATOM     12  C   UNL     1      12.102  14.590  25.849  1.00  0.00    -0.077 C 
ATOM     13  C   UNL     1      11.960  14.048  27.080  1.00  0.00    -0.028 C 
ATOM     14  C   UNL     1      10.892  14.653  24.955  1.00  0.00     0.039 C 
BRANCH  13  15
ATOM     15  C   UNL     1      13.048  13.968  28.123  1.00  0.00     0.035 C 
BRANCH  15  16
ATOM     16  C   UNL     1      13.943  12.739  27.910  1.00  0.00     0.079 C 
BRANCH  16  17
ATOM     17  C   UNL     1      15.392  13.128  27.760  1.00  0.00     0.130 C 
ATOM     18  O   UNL     1      15.681  14.288  27.507  1.00  0.00    -0.300 OA
ATOM     19  C   UNL     1      16.490  12.118  27.914  1.00  0.00     0.087 C 
ENDBRANCH  16  17
ENDBRANCH  15  16
ENDBRANCH  13  15
ENDBRANCH  11  12
ENDBRANCH   1  11
TORSDOF 9
ENDMDL
MODEL 6
REMARK VINA RESULT:    -3.343      1.403      2.843
REMARK INTER + INTRA:          -6.138
REMARK INTER:                  -5.013
REMARK INTRA:                  -1.125
REMARK UNBOUND:                -1.037
REMARK SMILES CC(=O)CCC=C(C)CCC=C(C)CCC=C(C)C
REMARK SMILES IDX 10 1 11 2 12 3 13 4 14 5 15 6 16 7 18 8 17 9 19 10 9 11 7 12
REMARK SMILES IDX 6 13 8 14 5 15 4 16 2 17 3 18 1 19
REMARK H PARENT
REMARK Flexibility Score: inf
ROOT
ATOM      1  C   UNL     1      14.395  16.513  24.881  1.00  0.00     0.032 C 
ENDROOT
BRANCH   1   2
ATOM      2  C   UNL     1      13.447  16.245  26.027  1.00  0.00    -0.028 C 
ATOM      3  C   UNL     1      13.613  15.278  26.957  1.00  0.00    -0.077 C 
ATOM      4  C   UNL     1      14.769  14.306  26.903  1.00  0.00     0.039 C 
BRANCH   3   5
ATOM      5  C   UNL     1      12.620  15.179  28.095  1.00  0.00     0.034 C 
BRANCH   5   6
ATOM      6  C   UNL     1      11.206  14.914  27.565  1.00  0.00     0.032 C 
BRANCH   6   7
ATOM      7  C   UNL     1      11.132  13.566  26.895  1.00  0.00    -0.028 C 
ATOM      8  C   UNL     1      10.875  11.972  25.041  1.00  0.00     0.039 C 
ATOM      9  C   UNL     1      10.970  13.382  25.565  1.00  0.00    -0.080 C 
ATOM     10  C   UNL     1      10.902  14.542  24.599  1.00  0.00     0.039 C 
ENDBRANCH   6   7
ENDBRANCH   5   6
ENDBRANCH   3   5
ENDBRANCH   1   2
BRANCH   1  11
ATOM     11  C   UNL     1      14.546  18.019  24.625  1.00  0.00     0.034 C 
BRANCH  11  12
ATOM     12  C   UNL     1      15.679  18.622  25.436  1.00  0.00    -0.077 C 
ATOM     13  C   UNL     1      16.682  19.341  24.881  1.00  0.00    -0.028 C 
ATOM     14  C   UNL     1      15.714  18.384  26.924  1.00  0.00     0.039 C 
BRANCH  13  15
ATOM     15  C   UNL     1      16.767  19.727  23.424  1.00  0.00     0.035 C 
BRANCH  15  16
ATOM     16  C   UNL     1      15.920  20.971  23.121  1.00  0.00     0.079 C 
BRANCH  16  17
ATOM     17  C   UNL     1      14.935  20.714  22.008  1.00  0.00     0.130 C 
ATOM     18  O   UNL     1      14.281  21.642  21.557  1.00  0.00    -0.300 OA
ATOM     19  C   UNL     1      14.741  19.339  21.442  1.00  0.00     0.087 C 
ENDBRANCH  16  17
ENDBRANCH  15  16
ENDBRANCH  13  15
ENDBRANCH  11  12
ENDBRANCH   1  11
TORSDOF 9
ENDMDL
MODEL 7
REMARK VINA RESULT:    -3.340      2.925      7.283
REMARK INTER + INTRA:          -6.133
REMARK INTER:                  -5.839
REMARK INTRA:                  -0.295
REMARK UNBOUND:                -1.037
REMARK SMILES CC(=O)CCC=C(C)CCC=C(C)CCC=C(C)C
REMARK SMILES IDX 10 1 11 2 12 3 13 4 14 5 15 6 16 7 18 8 17 9 19 10 9 11 7 12
REMARK SMILES IDX 6 13 8 14 5 15 4 16 2 17 3 18 1 19
REMARK H PARENT
REMARK Flexibility Score: inf
ROOT
ATOM      1  C   UNL     1      15.047  15.642  26.172  1.00  0.00     0.032 C 
ENDROOT
BRANCH   1   2
ATOM      2  C   UNL     1      14.935  16.999  25.517  1.00  0.00    -0.028 C 
ATOM      3  C   UNL     1      15.565  18.117  25.943  1.00  0.00    -0.077 C 
ATOM      4  C   UNL     1      16.422  18.129  27.187  1.00  0.00     0.039 C 
BRANCH   3   5
ATOM      5  C   UNL     1      15.420  19.390  25.137  1.00  0.00     0.034 C 
BRANCH   5   6
ATOM      6  C   UNL     1      16.265  19.327  23.859  1.00  0.00     0.032 C 
BRANCH   6   7
ATOM      7  C   UNL     1      15.402  19.520  22.638  1.00  0.00    -0.028 C 
ATOM      8  C   UNL     1      14.140  20.762  20.933  1.00  0.00     0.039 C 
ATOM      9  C   UNL     1      15.040  20.725  22.141  1.00  0.00    -0.080 C 
ATOM     10  C   UNL     1      15.525  22.020  22.750  1.00  0.00     0.039 C 
ENDBRANCH   6   7
ENDBRANCH   5   6
ENDBRANCH   3   5
ENDBRANCH   1   2
BRANCH   1  11
ATOM     11  C   UNL     1      14.554  15.685  27.626  1.00  0.00     0.034 C 
BRANCH  11  12
ATOM     12  C   UNL     1      13.114  16.157  27.724  1.00  0.00    -0.077 C 
ATOM     13  C   UNL     1      12.058  15.363  27.436  1.00  0.00    -0.028 C 
ATOM     14  C   UNL     1      12.844  17.584  28.125  1.00  0.00     0.039 C 
BRANCH  13  15
ATOM     15  C   UNL     1      12.145  13.898  27.083  1.00  0.00     0.035 C 
BRANCH  15  16
ATOM     16  C   UNL     1      10.922  13.438  26.280  1.00  0.00     0.079 C 
BRANCH  16  17
ATOM     17  C   UNL     1      10.977  13.930  24.855  1.00  0.00     0.130 C 
ATOM     18  O   UNL     1      10.875  13.129  23.937  1.00  0.00    -0.300 OA
ATOM     19  C   UNL     1      11.155  15.385  24.539  1.00  0.00     0.087 C 
ENDBRANCH  16  17
ENDBRANCH  15  16
ENDBRANCH  13  15
ENDBRANCH  11  12
ENDBRANCH   1  11
TORSDOF 9
ENDMDL
MODEL 8
REMARK VINA RESULT:    -3.069      1.780      3.638
REMARK INTER + INTRA:          -5.721
REMARK INTER:                  -4.804
REMARK INTRA:                  -0.917
REMARK UNBOUND:                -1.037
REMARK SMILES CC(=O)CCC=C(C)CCC=C(C)CCC=C(C)C
REMARK SMILES IDX 10 1 11 2 12 3 13 4 14 5 15 6 16 7 18 8 17 9 19 10 9 11 7 12
REMARK SMILES IDX 6 13 8 14 5 15 4 16 2 17 3 18 1 19
REMARK H PARENT
REMARK Flexibility Score: inf
ROOT
ATOM      1  C   UNL     1      15.422  18.684  26.129  1.00  0.00     0.032 C 
ENDROOT
BRANCH   1   2
ATOM      2  C   UNL     1      15.256  17.324  26.766  1.00  0.00    -0.028 C 
ATOM      3  C   UNL     1      14.200  16.949  27.523  1.00  0.00    -0.077 C 
ATOM      4  C   UNL     1      13.078  17.903  27.860  1.00  0.00     0.039 C 
BRANCH   3   5
ATOM      5  C   UNL     1      14.133  15.524  28.030  1.00  0.00     0.034 C 
BRANCH   5   6
ATOM      6  C   UNL     1      14.111  14.529  26.864  1.00  0.00     0.032 C 
BRANCH   6   7
ATOM      7  C   UNL     1      13.147  14.979  25.796  1.00  0.00    -0.028 C 
ATOM      8  C   UNL     1      10.977  15.242  24.672  1.00  0.00     0.039 C 
ATOM      9  C   UNL     1      11.812  14.767  25.833  1.00  0.00    -0.080 C 
ATOM     10  C   UNL     1      11.141  14.087  27.004  1.00  0.00     0.039 C 
ENDBRANCH   6   7
ENDBRANCH   5   6
ENDBRANCH   3   5
ENDBRANCH   1   2
BRANCH   1  11
ATOM     11  C   UNL     1      15.443  18.581  24.598  1.00  0.00     0.034 C 
BRANCH  11  12
ATOM     12  C   UNL     1      16.514  19.466  23.984  1.00  0.00    -0.077 C 
ATOM     13  C   UNL     1      16.230  20.530  23.198  1.00  0.00    -0.028 C 
ATOM     14  C   UNL     1      17.962  19.128  24.227  1.00  0.00     0.039 C 
BRANCH  13  15
ATOM     15  C   UNL     1      14.841  21.045  22.907  1.00  0.00     0.035 C 
BRANCH  15  16
ATOM     16  C   UNL     1      14.716  21.537  21.458  1.00  0.00     0.079 C 
BRANCH  16  17
ATOM     17  C   UNL     1      14.092  20.491  20.569  1.00  0.00     0.130 C 
ATOM     18  O   UNL     1      14.518  19.346  20.597  1.00  0.00    -0.300 OA
ATOM     19  C   UNL     1      12.956  20.826  19.649  1.00  0.00     0.087 C 
ENDBRANCH  16  17
ENDBRANCH  15  16
ENDBRANCH  13  15
ENDBRANCH  11  12
ENDBRANCH   1  11
TORSDOF 9
ENDMDL
MODEL 9
REMARK VINA RESULT:    -3.054      1.952      6.665
REMARK INTER + INTRA:          -5.697
REMARK INTER:                  -4.520
REMARK INTRA:                  -1.178
REMARK UNBOUND:                -1.037
REMARK SMILES CC(=O)CCC=C(C)CCC=C(C)CCC=C(C)C
REMARK SMILES IDX 10 1 11 2 12 3 13 4 14 5 15 6 16 7 18 8 17 9 19 10 9 11 7 12
REMARK SMILES IDX 6 13 8 14 5 15 4 16 2 17 3 18 1 19
REMARK H PARENT
REMARK Flexibility Score: inf
ROOT
ATOM      1  C   UNL     1      15.399  16.199  28.125  1.00  0.00     0.032 C 
ENDROOT
BRANCH   1   2
ATOM      2  C   UNL     1      15.841  16.868  26.844  1.00  0.00    -0.028 C 
ATOM      3  C   UNL     1      16.323  18.129  26.757  1.00  0.00    -0.077 C 
ATOM      4  C   UNL     1      16.413  19.036  27.962  1.00  0.00     0.039 C 
BRANCH   3   5
ATOM      5  C   UNL     1      16.802  18.637  25.415  1.00  0.00     0.034 C 
BRANCH   5   6
ATOM      6  C   UNL     1      15.641  18.728  24.418  1.00  0.00     0.032 C 
BRANCH   6   7
ATOM      7  C   UNL     1      15.541  20.116  23.838  1.00  0.00    -0.028 C 
ATOM      8  C   UNL     1      15.147  21.825  22.117  1.00  0.00     0.039 C 
ATOM      9  C   UNL     1      15.163  20.388  22.569  1.00  0.00    -0.080 C 
ATOM     10  C   UNL     1      14.742  19.300  21.608  1.00  0.00     0.039 C 
ENDBRANCH   6   7
ENDBRANCH   5   6
ENDBRANCH   3   5
ENDBRANCH   1   2
BRANCH   1  11
ATOM     11  C   UNL     1      13.925  15.776  28.051  1.00  0.00     0.034 C 
BRANCH  11  12
ATOM     12  C   UNL     1      13.762  14.383  27.469  1.00  0.00    -0.077 C 
ATOM     13  C   UNL     1      12.667  13.999  26.774  1.00  0.00    -0.028 C 
ATOM     14  C   UNL     1      14.850  13.367  27.701  1.00  0.00     0.039 C 
BRANCH  13  15
ATOM     15  C   UNL     1      11.519  14.904  26.395  1.00  0.00     0.035 C 
BRANCH  15  16
ATOM     16  C   UNL     1      11.648  15.402  24.949  1.00  0.00     0.079 C 
BRANCH  16  17
ATOM     17  C   UNL     1      12.773  16.396  24.803  1.00  0.00     0.130 C 
ATOM     18  O   UNL     1      13.759  16.098  24.145  1.00  0.00    -0.300 OA
ATOM     19  C   UNL     1      12.708  17.747  25.450  1.00  0.00     0.087 C 
ENDBRANCH  16  17
ENDBRANCH  15  16
ENDBRANCH  13  15
ENDBRANCH  11  12
ENDBRANCH   1  11
TORSDOF 9
ENDMDL
