MODEL 1
REMARK VINA RESULT:    -4.082      0.000      0.000
REMARK INTER + INTRA:          -5.939
REMARK INTER:                  -5.514
REMARK INTRA:                  -0.425
REMARK UNBOUND:                -0.425
REMARK SMILES CCCCCCCC(=O)[O-]
REMARK SMILES IDX 5 1 6 2 7 3 8 4 9 5 10 6 4 7 3 8 2 9 1 10
REMARK H PARENT
REMARK Flexibility Score: inf
ROOT
ATOM      1  C   UNL     1      -2.536   7.991  22.821  1.00  0.00     0.000 C 
ENDROOT
BRANCH   1   2
ATOM      2  C   UNL     1      -1.798   8.440  24.096  1.00  0.00     0.006 C 
BRANCH   2   3
ATOM      3  C   UNL     1      -0.444   9.119  23.825  1.00  0.00     0.053 C 
BRANCH   3   4
ATOM      4  C   UNL     1       0.164   9.703  25.064  1.00  0.00     0.041 C 
ATOM      5  O   UNL     1      -0.562  10.285  25.912  1.00  0.00    -0.550 OA
ATOM      6  O   UNL     1       1.527   9.574  25.302  1.00  0.00    -0.550 OA
ENDBRANCH   3   4
ENDBRANCH   2   3
ENDBRANCH   1   2
BRANCH   1   7
ATOM      7  C   UNL     1      -1.897   8.530  21.533  1.00  0.00     0.000 C 
BRANCH   7   8
ATOM      8  C   UNL     1      -2.949   9.181  20.628  1.00  0.00    -0.000 C 
BRANCH   8   9
ATOM      9  C   UNL     1      -3.876  10.099  21.435  1.00  0.00    -0.003 C 
ATOM     10  C   UNL     1      -3.239  11.467  21.657  1.00  0.00     0.004 C 
ENDBRANCH   8   9
ENDBRANCH   7   8
ENDBRANCH   1   7
TORSDOF 6
ENDMDL
MODEL 2
REMARK VINA RESULT:    -3.982      1.394      1.897
REMARK INTER + INTRA:          -5.804
REMARK INTER:                  -5.602
REMARK INTRA:                  -0.201
REMARK UNBOUND:                -0.425
REMARK SMILES CCCCCCCC(=O)[O-]
REMARK SMILES IDX 5 1 6 2 7 3 8 4 9 5 10 6 4 7 3 8 2 9 1 10
REMARK H PARENT
REMARK Flexibility Score: inf
ROOT
ATOM      1  C   UNL     1      -1.712   9.300  23.544  1.00  0.00     0.000 C 
ENDROOT
BRANCH   1   2
ATOM      2  C   UNL     1      -0.228   9.175  23.935  1.00  0.00     0.006 C 
BRANCH   2   3
ATOM      3  C   UNL     1       0.115   9.808  25.295  1.00  0.00     0.053 C 
BRANCH   3   4
ATOM      4  C   UNL     1       1.573  10.124  25.431  1.00  0.00     0.041 C 
ATOM      5  O   UNL     1       1.959  11.321  25.487  1.00  0.00    -0.550 OA
ATOM      6  O   UNL     1       2.504   9.097  25.533  1.00  0.00    -0.550 OA
ENDBRANCH   3   4
ENDBRANCH   2   3
ENDBRANCH   1   2
BRANCH   1   7
ATOM      7  C   UNL     1      -2.203   8.143  22.662  1.00  0.00     0.000 C 
BRANCH   7   8
ATOM      8  C   UNL     1      -1.826   8.374  21.193  1.00  0.00    -0.000 C 
BRANCH   8   9
ATOM      9  C   UNL     1      -2.878   9.236  20.485  1.00  0.00    -0.003 C 
ATOM     10  C   UNL     1      -4.286   8.705  20.737  1.00  0.00     0.004 C 
ENDBRANCH   8   9
ENDBRANCH   7   8
ENDBRANCH   1   7
TORSDOF 6
ENDMDL
MODEL 3
REMARK VINA RESULT:    -3.907      1.314      1.716
REMARK INTER + INTRA:          -5.703
REMARK INTER:                  -5.156
REMARK INTRA:                  -0.547
REMARK UNBOUND:                -0.425
REMARK SMILES CCCCCCCC(=O)[O-]
REMARK SMILES IDX 5 1 6 2 7 3 8 4 9 5 10 6 4 7 3 8 2 9 1 10
REMARK H PARENT
REMARK Flexibility Score: inf
ROOT
ATOM      1  C   UNL     1      -1.890   8.498  21.265  1.00  0.00     0.000 C 
ENDROOT
BRANCH   1   2
ATOM      2  C   UNL     1      -2.049   8.214  22.770  1.00  0.00     0.006 C 
BRANCH   2   3
ATOM      3  C   UNL     1      -1.030   8.953  23.655  1.00  0.00     0.053 C 
BRANCH   3   4
ATOM      4  C   UNL     1      -1.635   9.459  24.930  1.00  0.00     0.041 C 
ATOM      5  O   UNL     1      -2.504  10.369  24.901  1.00  0.00    -0.550 OA
ATOM      6  O   UNL     1      -1.266   8.901  26.148  1.00  0.00    -0.550 OA
ENDBRANCH   3   4
ENDBRANCH   2   3
ENDBRANCH   1   2
BRANCH   1   7
ATOM      7  C   UNL     1      -3.084   9.255  20.666  1.00  0.00     0.000 C 
BRANCH   7   8
ATOM      8  C   UNL     1      -4.164   9.506  21.725  1.00  0.00    -0.000 C 
BRANCH   8   9
ATOM      9  C   UNL     1      -4.508  10.997  21.818  1.00  0.00    -0.003 C 
ATOM     10  C   UNL     1      -3.250  11.858  21.756  1.00  0.00     0.004 C 
ENDBRANCH   8   9
ENDBRANCH   7   8
ENDBRANCH   1   7
TORSDOF 6
ENDMDL
MODEL 4
REMARK VINA RESULT:    -3.904      0.764      1.469
REMARK INTER + INTRA:          -5.699
REMARK INTER:                  -5.261
REMARK INTRA:                  -0.438
REMARK UNBOUND:                -0.425
REMARK SMILES CCCCCCCC(=O)[O-]
REMARK SMILES IDX 5 1 6 2 7 3 8 4 9 5 10 6 4 7 3 8 2 9 1 10
REMARK H PARENT
REMARK Flexibility Score: inf
ROOT
ATOM      1  C   UNL     1      -2.113   8.174  22.098  1.00  0.00     0.000 C 
ENDROOT
BRANCH   1   2
ATOM      2  C   UNL     1      -0.962   8.849  22.865  1.00  0.00     0.006 C 
BRANCH   2   3
ATOM      3  C   UNL     1      -1.148   8.853  24.393  1.00  0.00     0.053 C 
BRANCH   3   4
ATOM      4  C   UNL     1      -0.223   9.810  25.082  1.00  0.00     0.041 C 
ATOM      5  O   UNL     1       0.989   9.512  25.246  1.00  0.00    -0.550 OA
ATOM      6  O   UNL     1      -0.690  11.046  25.512  1.00  0.00    -0.550 OA
ENDBRANCH   3   4
ENDBRANCH   2   3
ENDBRANCH   1   2
BRANCH   1   7
ATOM      7  C   UNL     1      -2.615   9.006  20.909  1.00  0.00     0.000 C 
BRANCH   7   8
ATOM      8  C   UNL     1      -3.739   9.956  21.338  1.00  0.00    -0.000 C 
BRANCH   8   9
ATOM      9  C   UNL     1      -3.210  11.384  21.525  1.00  0.00    -0.003 C 
ATOM     10  C   UNL     1      -3.377  11.849  22.968  1.00  0.00     0.004 C 
ENDBRANCH   8   9
ENDBRANCH   7   8
ENDBRANCH   1   7
TORSDOF 6
ENDMDL
MODEL 5
REMARK VINA RESULT:    -3.854      2.400      4.362
REMARK INTER + INTRA:          -5.631
REMARK INTER:                  -5.155
REMARK INTRA:                  -0.475
REMARK UNBOUND:                -0.425
REMARK SMILES CCCCCCCC(=O)[O-]
REMARK SMILES IDX 5 1 6 2 7 3 8 4 9 5 10 6 4 7 3 8 2 9 1 10
REMARK H PARENT
REMARK Flexibility Score: inf
ROOT
ATOM      1  C   UNL     1      -2.941   8.469  22.501  1.00  0.00     0.000 C 
ENDROOT
BRANCH   1   2
ATOM      2  C   UNL     1      -3.821   9.373  21.618  1.00  0.00     0.006 C 
BRANCH   2   3
ATOM      3  C   UNL     1      -3.211  10.759  21.342  1.00  0.00     0.053 C 
BRANCH   3   4
ATOM      4  C   UNL     1      -3.594  11.772  22.378  1.00  0.00     0.041 C 
ATOM      5  O   UNL     1      -2.950  11.848  23.457  1.00  0.00    -0.550 OA
ATOM      6  O   UNL     1      -4.639  12.656  22.139  1.00  0.00    -0.550 OA
ENDBRANCH   3   4
ENDBRANCH   2   3
ENDBRANCH   1   2
BRANCH   1   7
ATOM      7  C   UNL     1      -1.437   8.694  22.283  1.00  0.00     0.000 C 
BRANCH   7   8
ATOM      8  C   UNL     1      -0.719   8.935  23.616  1.00  0.00    -0.000 C 
BRANCH   8   9
ATOM      9  C   UNL     1      -1.661   8.687  24.800  1.00  0.00    -0.003 C 
ATOM     10  C   UNL     1      -0.944   8.905  26.130  1.00  0.00     0.004 C 
ENDBRANCH   8   9
ENDBRANCH   7   8
ENDBRANCH   1   7
TORSDOF 6
ENDMDL
MODEL 6
REMARK VINA RESULT:    -3.829      2.004      2.627
REMARK INTER + INTRA:          -5.597
REMARK INTER:                  -5.247
REMARK INTRA:                  -0.350
REMARK UNBOUND:                -0.425
REMARK SMILES CCCCCCCC(=O)[O-]
REMARK SMILES IDX 5 1 6 2 7 3 8 4 9 5 10 6 4 7 3 8 2 9 1 10
REMARK H PARENT
REMARK Flexibility Score: inf
ROOT
ATOM      1  C   UNL     1      -1.599   9.469  23.118  1.00  0.00     0.000 C 
ENDROOT
BRANCH   1   2
ATOM      2  C   UNL     1      -1.833   8.399  24.200  1.00  0.00     0.006 C 
BRANCH   2   3
ATOM      3  C   UNL     1      -1.302   8.791  25.590  1.00  0.00     0.053 C 
BRANCH   3   4
ATOM      4  C   UNL     1      -2.402   9.071  26.568  1.00  0.00     0.041 C 
ATOM      5  O   UNL     1      -3.590   9.189  26.168  1.00  0.00    -0.550 OA
ATOM      6  O   UNL     1      -2.123   9.165  27.926  1.00  0.00    -0.550 OA
ENDBRANCH   3   4
ENDBRANCH   2   3
ENDBRANCH   1   2
BRANCH   1   7
ATOM      7  C   UNL     1      -2.716  10.522  23.062  1.00  0.00     0.000 C 
BRANCH   7   8
ATOM      8  C   UNL     1      -3.215  10.716  21.625  1.00  0.00    -0.000 C 
BRANCH   8   9
ATOM      9  C   UNL     1      -3.079   9.420  20.816  1.00  0.00    -0.003 C 
ATOM     10  C   UNL     1      -4.430   8.729  20.651  1.00  0.00     0.004 C 
ENDBRANCH   8   9
ENDBRANCH   7   8
ENDBRANCH   1   7
TORSDOF 6
ENDMDL
MODEL 7
REMARK VINA RESULT:    -3.776      1.474      2.590
REMARK INTER + INTRA:          -5.526
REMARK INTER:                  -5.119
REMARK INTRA:                  -0.407
REMARK UNBOUND:                -0.425
REMARK SMILES CCCCCCCC(=O)[O-]
REMARK SMILES IDX 5 1 6 2 7 3 8 4 9 5 10 6 4 7 3 8 2 9 1 10
REMARK H PARENT
REMARK Flexibility Score: inf
ROOT
ATOM      1  C   UNL     1      -3.178  11.850  23.163  1.00  0.00     0.000 C 
ENDROOT
BRANCH   1   2
ATOM      2  C   UNL     1      -2.979  10.641  24.095  1.00  0.00     0.006 C 
BRANCH   2   3
ATOM      3  C   UNL     1      -1.807  10.798  25.079  1.00  0.00     0.053 C 
BRANCH   3   4
ATOM      4  C   UNL     1      -0.924   9.588  25.120  1.00  0.00     0.041 C 
ATOM      5  O   UNL     1      -0.135   9.347  24.169  1.00  0.00    -0.550 OA
ATOM      6  O   UNL     1      -0.945   8.745  26.225  1.00  0.00    -0.550 OA
ENDBRANCH   3   4
ENDBRANCH   2   3
ENDBRANCH   1   2
BRANCH   1   7
ATOM      7  C   UNL     1      -3.257  11.460  21.679  1.00  0.00     0.000 C 
BRANCH   7   8
ATOM      8  C   UNL     1      -3.865  10.062  21.510  1.00  0.00    -0.000 C 
BRANCH   8   9
ATOM      9  C   UNL     1      -3.016   9.205  20.564  1.00  0.00    -0.003 C 
ATOM     10  C   UNL     1      -1.966   8.409  21.333  1.00  0.00     0.004 C 
ENDBRANCH   8   9
ENDBRANCH   7   8
ENDBRANCH   1   7
TORSDOF 6
ENDMDL
MODEL 8
REMARK VINA RESULT:    -3.767      2.569      3.237
REMARK INTER + INTRA:          -5.514
REMARK INTER:                  -4.875
REMARK INTRA:                  -0.639
REMARK UNBOUND:                -0.425
REMARK SMILES CCCCCCCC(=O)[O-]
REMARK SMILES IDX 5 1 6 2 7 3 8 4 9 5 10 6 4 7 3 8 2 9 1 10
REMARK H PARENT
REMARK Flexibility Score: inf
ROOT
ATOM      1  C   UNL     1      -2.005   8.357  24.071  1.00  0.00     0.000 C 
ENDROOT
BRANCH   1   2
ATOM      2  C   UNL     1      -1.353   9.748  23.973  1.00  0.00     0.006 C 
BRANCH   2   3
ATOM      3  C   UNL     1      -2.193  10.875  24.600  1.00  0.00     0.053 C 
BRANCH   3   4
ATOM      4  C   UNL     1      -3.361  11.266  23.746  1.00  0.00     0.041 C 
ATOM      5  O   UNL     1      -3.184  11.952  22.706  1.00  0.00    -0.550 OA
ATOM      6  O   UNL     1      -4.642  10.842  24.078  1.00  0.00    -0.550 OA
ENDBRANCH   3   4
ENDBRANCH   2   3
ENDBRANCH   1   2
BRANCH   1   7
ATOM      7  C   UNL     1      -2.624   7.887  22.746  1.00  0.00     0.000 C 
BRANCH   7   8
ATOM      8  C   UNL     1      -1.878   8.487  21.548  1.00  0.00    -0.000 C 
BRANCH   8   9
ATOM      9  C   UNL     1      -2.852   9.179  20.586  1.00  0.00    -0.003 C 
ATOM     10  C   UNL     1      -4.294   8.776  20.876  1.00  0.00     0.004 C 
ENDBRANCH   8   9
ENDBRANCH   7   8
ENDBRANCH   1   7
TORSDOF 6
ENDMDL
MODEL 9
REMARK VINA RESULT:    -3.716      2.297      3.775
REMARK INTER + INTRA:          -5.445
REMARK INTER:                  -4.811
REMARK INTRA:                  -0.634
REMARK UNBOUND:                -0.425
REMARK SMILES CCCCCCCC(=O)[O-]
REMARK SMILES IDX 5 1 6 2 7 3 8 4 9 5 10 6 4 7 3 8 2 9 1 10
REMARK H PARENT
REMARK Flexibility Score: inf
ROOT
ATOM      1  C   UNL     1      -3.235  11.175  21.483  1.00  0.00     0.000 C 
ENDROOT
BRANCH   1   2
ATOM      2  C   UNL     1      -3.592   9.741  21.052  1.00  0.00     0.006 C 
BRANCH   2   3
ATOM      3  C   UNL     1      -2.386   8.786  21.004  1.00  0.00     0.053 C 
BRANCH   3   4
ATOM      4  C   UNL     1      -1.855   8.461  22.367  1.00  0.00     0.041 C 
ATOM      5  O   UNL     1      -2.558   7.806  23.181  1.00  0.00    -0.550 OA
ATOM      6  O   UNL     1      -0.570   8.849  22.727  1.00  0.00    -0.550 OA
ENDBRANCH   3   4
ENDBRANCH   2   3
ENDBRANCH   1   2
BRANCH   1   7
ATOM      7  C   UNL     1      -4.236  11.770  22.485  1.00  0.00     0.000 C 
BRANCH   7   8
ATOM      8  C   UNL     1      -4.006  11.205  23.892  1.00  0.00    -0.000 C 
BRANCH   8   9
ATOM      9  C   UNL     1      -2.594  11.533  24.392  1.00  0.00    -0.003 C 
ATOM     10  C   UNL     1      -2.185  10.606  25.534  1.00  0.00     0.004 C 
ENDBRANCH   8   9
ENDBRANCH   7   8
ENDBRANCH   1   7
TORSDOF 6
ENDMDL
