MODEL 1
REMARK VINA RESULT:    -4.890      0.000      0.000
REMARK INTER + INTRA:          -5.696
REMARK INTER:                  -5.604
REMARK INTRA:                  -0.092
REMARK UNBOUND:                -0.092
REMARK SMILES COc1cc(C(=O)[O-])ccc1O
REMARK SMILES IDX 5 1 9 2 4 3 10 4 3 5 11 6 6 7 7 8 8 9 2 10 1 11 12 12
REMARK H PARENT 12 13
REMARK Flexibility Score: inf
ROOT
ATOM      1  C   UNL     1      12.576  -2.581  13.833  1.00  0.00     0.001 A 
ATOM      2  C   UNL     1      11.950  -2.783  15.073  1.00  0.00     0.014 A 
ATOM      3  C   UNL     1      12.494  -1.316  13.223  1.00  0.00     0.060 A 
ATOM      4  C   UNL     1      11.255  -1.742  15.692  1.00  0.00     0.051 A 
ATOM      5  C   UNL     1      11.793  -0.261  13.843  1.00  0.00     0.161 A 
ATOM      6  C   UNL     1      11.174  -0.486  15.085  1.00  0.00     0.157 A 
ENDROOT
BRANCH   1   7
ATOM      7  C   UNL     1      13.312  -3.688  13.182  1.00  0.00     0.072 C 
ATOM      8  O   UNL     1      14.244  -3.448  12.369  1.00  0.00    -0.545 OA
ATOM      9  O   UNL     1      12.983  -5.011  13.457  1.00  0.00    -0.545 OA
ENDBRANCH   1   7
BRANCH   5  10
ATOM     10  O   UNL     1      11.695   1.010  13.257  1.00  0.00    -0.493 OA
ATOM     11  C   UNL     1      12.630   2.066  13.453  1.00  0.00     0.278 C 
ENDBRANCH   5  10
BRANCH   6  12
ATOM     12  O   UNL     1      10.471   0.529  15.734  1.00  0.00    -0.504 OA
ATOM     13  H   UNL     1      10.802   0.953  16.593  1.00  0.00     0.293 HD
ENDBRANCH   6  12
TORSDOF 3
ENDMDL
MODEL 2
REMARK VINA RESULT:    -4.795      1.942      4.532
REMARK INTER + INTRA:          -5.588
REMARK INTER:                  -5.496
REMARK INTRA:                  -0.092
REMARK UNBOUND:                -0.092
REMARK SMILES COc1cc(C(=O)[O-])ccc1O
REMARK SMILES IDX 5 1 9 2 4 3 10 4 3 5 11 6 6 7 7 8 8 9 2 10 1 11 12 12
REMARK H PARENT 12 13
REMARK Flexibility Score: inf
ROOT
ATOM      1  C   UNL     1      11.613   1.045  14.434  1.00  0.00     0.001 A 
ATOM      2  C   UNL     1      11.149   0.370  15.574  1.00  0.00     0.014 A 
ATOM      3  C   UNL     1      11.947   0.302  13.287  1.00  0.00     0.060 A 
ATOM      4  C   UNL     1      11.020  -1.019  15.569  1.00  0.00     0.051 A 
ATOM      5  C   UNL     1      11.819  -1.102  13.276  1.00  0.00     0.161 A 
ATOM      6  C   UNL     1      11.352  -1.758  14.429  1.00  0.00     0.157 A 
ENDROOT
BRANCH   1   7
ATOM      7  C   UNL     1      11.747   2.520  14.444  1.00  0.00     0.072 C 
ATOM      8  O   UNL     1      11.153   3.224  13.585  1.00  0.00    -0.545 OA
ATOM      9  O   UNL     1      12.534   3.149  15.403  1.00  0.00    -0.545 OA
ENDBRANCH   1   7
BRANCH   5  10
ATOM     10  O   UNL     1      12.144  -1.869  12.147  1.00  0.00    -0.493 OA
ATOM     11  C   UNL     1      13.449  -1.970  11.585  1.00  0.00     0.278 C 
ENDBRANCH   5  10
BRANCH   6  12
ATOM     12  O   UNL     1      11.210  -3.144  14.463  1.00  0.00    -0.504 OA
ATOM     13  H   UNL     1      12.002  -3.767  14.577  1.00  0.00     0.293 HD
ENDBRANCH   6  12
TORSDOF 3
ENDMDL
MODEL 3
REMARK VINA RESULT:    -4.778      1.328      4.344
REMARK INTER + INTRA:          -5.567
REMARK INTER:                  -5.464
REMARK INTRA:                  -0.103
REMARK UNBOUND:                -0.092
REMARK SMILES COc1cc(C(=O)[O-])ccc1O
REMARK SMILES IDX 5 1 9 2 4 3 10 4 3 5 11 6 6 7 7 8 8 9 2 10 1 11 12 12
REMARK H PARENT 12 13
REMARK Flexibility Score: inf
ROOT
ATOM      1  C   UNL     1      11.421  -0.432  14.830  1.00  0.00     0.001 A 
ATOM      2  C   UNL     1      11.415  -1.485  15.759  1.00  0.00     0.014 A 
ATOM      3  C   UNL     1      11.786  -0.697  13.497  1.00  0.00     0.060 A 
ATOM      4  C   UNL     1      11.766  -2.777  15.364  1.00  0.00     0.051 A 
ATOM      5  C   UNL     1      12.142  -2.000  13.093  1.00  0.00     0.161 A 
ATOM      6  C   UNL     1      12.129  -3.040  14.040  1.00  0.00     0.157 A 
ENDROOT
BRANCH   1   7
ATOM      7  C   UNL     1      11.047   0.936  15.254  1.00  0.00     0.072 C 
ATOM      8  O   UNL     1      11.080   1.263  16.470  1.00  0.00    -0.545 OA
ATOM      9  O   UNL     1      10.652   1.881  14.313  1.00  0.00    -0.545 OA
ENDBRANCH   1   7
BRANCH   5  10
ATOM     10  O   UNL     1      12.510  -2.293  11.771  1.00  0.00    -0.493 OA
ATOM     11  C   UNL     1      13.794  -2.038  11.212  1.00  0.00     0.278 C 
ENDBRANCH   5  10
BRANCH   6  12
ATOM     12  O   UNL     1      12.473  -4.343  13.684  1.00  0.00    -0.504 OA
ATOM     13  H   UNL     1      13.362  -4.569  13.251  1.00  0.00     0.293 HD
ENDBRANCH   6  12
TORSDOF 3
ENDMDL
MODEL 4
REMARK VINA RESULT:    -4.721      1.486      4.375
REMARK INTER + INTRA:          -5.503
REMARK INTER:                  -5.414
REMARK INTRA:                  -0.089
REMARK UNBOUND:                -0.092
REMARK SMILES COc1cc(C(=O)[O-])ccc1O
REMARK SMILES IDX 5 1 9 2 4 3 10 4 3 5 11 6 6 7 7 8 8 9 2 10 1 11 12 12
REMARK H PARENT 12 13
REMARK Flexibility Score: inf
ROOT
ATOM      1  C   UNL     1      11.683   0.105  14.203  1.00  0.00     0.001 A 
ATOM      2  C   UNL     1      11.485  -0.373  15.508  1.00  0.00     0.014 A 
ATOM      3  C   UNL     1      11.774  -0.817  13.143  1.00  0.00     0.060 A 
ATOM      4  C   UNL     1      11.379  -1.744  15.750  1.00  0.00     0.051 A 
ATOM      5  C   UNL     1      11.668  -2.202  13.383  1.00  0.00     0.161 A 
ATOM      6  C   UNL     1      11.469  -2.658  14.698  1.00  0.00     0.157 A 
ENDROOT
BRANCH   1   7
ATOM      7  C   UNL     1      11.794   1.559  13.951  1.00  0.00     0.072 C 
ATOM      8  O   UNL     1      10.851   2.337  14.254  1.00  0.00    -0.545 OA
ATOM      9  O   UNL     1      12.944   2.088  13.373  1.00  0.00    -0.545 OA
ENDBRANCH   1   7
BRANCH   5  10
ATOM     10  O   UNL     1      11.754  -3.144  12.345  1.00  0.00    -0.493 OA
ATOM     11  C   UNL     1      12.968  -3.722  11.876  1.00  0.00     0.278 C 
ENDBRANCH   5  10
BRANCH   6  12
ATOM     12  O   UNL     1      11.358  -4.020  14.980  1.00  0.00    -0.504 OA
ATOM     13  H   UNL     1      11.703  -4.423  15.844  1.00  0.00     0.293 HD
ENDBRANCH   6  12
TORSDOF 3
ENDMDL
MODEL 5
REMARK VINA RESULT:    -4.716      2.138      4.757
REMARK INTER + INTRA:          -5.497
REMARK INTER:                  -5.401
REMARK INTRA:                  -0.096
REMARK UNBOUND:                -0.092
REMARK SMILES COc1cc(C(=O)[O-])ccc1O
REMARK SMILES IDX 5 1 9 2 4 3 10 4 3 5 11 6 6 7 7 8 8 9 2 10 1 11 12 12
REMARK H PARENT 12 13
REMARK Flexibility Score: inf
ROOT
ATOM      1  C   UNL     1      13.053   2.180  14.316  1.00  0.00     0.001 A 
ATOM      2  C   UNL     1      12.378   2.316  15.540  1.00  0.00     0.014 A 
ATOM      3  C   UNL     1      12.762   1.077  13.493  1.00  0.00     0.060 A 
ATOM      4  C   UNL     1      11.432   1.369  15.933  1.00  0.00     0.051 A 
ATOM      5  C   UNL     1      11.807   0.117  13.885  1.00  0.00     0.161 A 
ATOM      6  C   UNL     1      11.143   0.273  15.115  1.00  0.00     0.157 A 
ENDROOT
BRANCH   1   7
ATOM      7  C   UNL     1      14.056   3.188  13.902  1.00  0.00     0.072 C 
ATOM      8  O   UNL     1      15.120   3.340  14.558  1.00  0.00    -0.545 OA
ATOM      9  O   UNL     1      13.834   3.984  12.783  1.00  0.00    -0.545 OA
ENDBRANCH   1   7
BRANCH   5  10
ATOM     10  O   UNL     1      11.497  -0.993  13.084  1.00  0.00    -0.493 OA
ATOM     11  C   UNL     1      12.340  -2.128  12.912  1.00  0.00     0.278 C 
ENDBRANCH   5  10
BRANCH   6  12
ATOM     12  O   UNL     1      10.192  -0.653  15.543  1.00  0.00    -0.504 OA
ATOM     13  H   UNL     1       9.720  -1.280  14.900  1.00  0.00     0.293 HD
ENDBRANCH   6  12
TORSDOF 3
ENDMDL
MODEL 6
REMARK VINA RESULT:    -4.615      1.424      4.969
REMARK INTER + INTRA:          -5.382
REMARK INTER:                  -5.325
REMARK INTRA:                  -0.056
REMARK UNBOUND:                -0.092
REMARK SMILES COc1cc(C(=O)[O-])ccc1O
REMARK SMILES IDX 5 1 9 2 4 3 10 4 3 5 11 6 6 7 7 8 8 9 2 10 1 11 12 12
REMARK H PARENT 12 13
REMARK Flexibility Score: inf
ROOT
ATOM      1  C   UNL     1      11.541  -0.087  14.293  1.00  0.00     0.001 A 
ATOM      2  C   UNL     1      12.331  -0.020  13.134  1.00  0.00     0.014 A 
ATOM      3  C   UNL     1      11.122  -1.345  14.763  1.00  0.00     0.060 A 
ATOM      4  C   UNL     1      12.695  -1.185  12.458  1.00  0.00     0.051 A 
ATOM      5  C   UNL     1      11.487  -2.526  14.084  1.00  0.00     0.161 A 
ATOM      6  C   UNL     1      12.278  -2.435  12.925  1.00  0.00     0.157 A 
ENDROOT
BRANCH   1   7
ATOM      7  C   UNL     1      11.158   1.152  15.007  1.00  0.00     0.072 C 
ATOM      8  O   UNL     1      11.048   1.161  16.261  1.00  0.00    -0.545 OA
ATOM      9  O   UNL     1      10.912   2.324  14.300  1.00  0.00    -0.545 OA
ENDBRANCH   1   7
BRANCH   5  10
ATOM     10  O   UNL     1      11.083  -3.794  14.530  1.00  0.00    -0.493 OA
ATOM     11  C   UNL     1      11.879  -4.663  15.330  1.00  0.00     0.278 C 
ENDBRANCH   5  10
BRANCH   6  12
ATOM     12  O   UNL     1      12.662  -3.577  12.223  1.00  0.00    -0.504 OA
ATOM     13  H   UNL     1      13.634  -3.794  12.033  1.00  0.00     0.293 HD
ENDBRANCH   6  12
TORSDOF 3
ENDMDL
MODEL 7
REMARK VINA RESULT:    -4.604     12.031     14.034
REMARK INTER + INTRA:          -5.369
REMARK INTER:                  -5.270
REMARK INTRA:                  -0.098
REMARK UNBOUND:                -0.092
REMARK SMILES COc1cc(C(=O)[O-])ccc1O
REMARK SMILES IDX 5 1 9 2 4 3 10 4 3 5 11 6 6 7 7 8 8 9 2 10 1 11 12 12
REMARK H PARENT 12 13
REMARK Flexibility Score: inf
ROOT
ATOM      1  C   UNL     1       9.289  11.037  13.875  1.00  0.00     0.001 A 
ATOM      2  C   UNL     1       9.616  10.978  12.511  1.00  0.00     0.014 A 
ATOM      3  C   UNL     1       8.229  11.865  14.289  1.00  0.00     0.060 A 
ATOM      4  C   UNL     1       8.899  11.730  11.579  1.00  0.00     0.051 A 
ATOM      5  C   UNL     1       7.502  12.626  13.352  1.00  0.00     0.161 A 
ATOM      6  C   UNL     1       7.846  12.552  11.991  1.00  0.00     0.157 A 
ENDROOT
BRANCH   1   7
ATOM      7  C   UNL     1      10.053  10.237  14.860  1.00  0.00     0.072 C 
ATOM      8  O   UNL     1      11.261   9.949  14.653  1.00  0.00    -0.545 OA
ATOM      9  O   UNL     1       9.444   9.791  16.028  1.00  0.00    -0.545 OA
ENDBRANCH   1   7
BRANCH   5  10
ATOM     10  O   UNL     1       6.440  13.460  13.736  1.00  0.00    -0.493 OA
ATOM     11  C   UNL     1       5.183  12.999  14.221  1.00  0.00     0.278 C 
ENDBRANCH   5  10
BRANCH   6  12
ATOM     12  O   UNL     1       7.153  13.288  11.030  1.00  0.00    -0.504 OA
ATOM     13  H   UNL     1       6.582  12.846  10.319  1.00  0.00     0.293 HD
ENDBRANCH   6  12
TORSDOF 3
ENDMDL
MODEL 8
REMARK VINA RESULT:    -4.584      1.180      2.477
REMARK INTER + INTRA:          -5.346
REMARK INTER:                  -5.328
REMARK INTRA:                  -0.018
REMARK UNBOUND:                -0.092
REMARK SMILES COc1cc(C(=O)[O-])ccc1O
REMARK SMILES IDX 5 1 9 2 4 3 10 4 3 5 11 6 6 7 7 8 8 9 2 10 1 11 12 12
REMARK H PARENT 12 13
REMARK Flexibility Score: inf
ROOT
ATOM      1  C   UNL     1      12.143  -2.810  14.243  1.00  0.00     0.001 A 
ATOM      2  C   UNL     1      12.580  -2.351  12.990  1.00  0.00     0.014 A 
ATOM      3  C   UNL     1      11.544  -1.901  15.134  1.00  0.00     0.060 A 
ATOM      4  C   UNL     1      12.422  -1.011  12.635  1.00  0.00     0.051 A 
ATOM      5  C   UNL     1      11.382  -0.546  14.780  1.00  0.00     0.161 A 
ATOM      6  C   UNL     1      11.827  -0.108  13.520  1.00  0.00     0.157 A 
ENDROOT
BRANCH   1   7
ATOM      7  C   UNL     1      12.312  -4.233  14.616  1.00  0.00     0.072 C 
ATOM      8  O   UNL     1      11.889  -4.661  15.722  1.00  0.00    -0.545 OA
ATOM      9  O   UNL     1      12.944  -5.118  13.748  1.00  0.00    -0.545 OA
ENDBRANCH   1   7
BRANCH   5  10
ATOM     10  O   UNL     1      10.788   0.383  15.649  1.00  0.00    -0.493 OA
ATOM     11  C   UNL     1      11.504   1.341  16.421  1.00  0.00     0.278 C 
ENDBRANCH   5  10
BRANCH   6  12
ATOM     12  O   UNL     1      11.687   1.223  13.129  1.00  0.00    -0.504 OA
ATOM     13  H   UNL     1      12.022   1.993  13.698  1.00  0.00     0.293 HD
ENDBRANCH   6  12
TORSDOF 3
ENDMDL
MODEL 9
REMARK VINA RESULT:    -4.471      2.289      2.823
REMARK INTER + INTRA:          -5.216
REMARK INTER:                  -5.119
REMARK INTRA:                  -0.097
REMARK UNBOUND:                -0.092
REMARK SMILES COc1cc(C(=O)[O-])ccc1O
REMARK SMILES IDX 5 1 9 2 4 3 10 4 3 5 11 6 6 7 7 8 8 9 2 10 1 11 12 12
REMARK H PARENT 12 13
REMARK Flexibility Score: inf
ROOT
ATOM      1  C   UNL     1      11.836  -0.777  14.800  1.00  0.00     0.001 A 
ATOM      2  C   UNL     1      11.060  -0.069  15.732  1.00  0.00     0.014 A 
ATOM      3  C   UNL     1      12.924  -0.132  14.184  1.00  0.00     0.060 A 
ATOM      4  C   UNL     1      11.365   1.258  16.041  1.00  0.00     0.051 A 
ATOM      5  C   UNL     1      13.236   1.208  14.493  1.00  0.00     0.161 A 
ATOM      6  C   UNL     1      12.445   1.899  15.429  1.00  0.00     0.157 A 
ENDROOT
BRANCH   1   7
ATOM      7  C   UNL     1      11.509  -2.184  14.476  1.00  0.00     0.072 C 
ATOM      8  O   UNL     1      11.007  -2.485  13.361  1.00  0.00    -0.545 OA
ATOM      9  O   UNL     1      11.753  -3.195  15.400  1.00  0.00    -0.545 OA
ENDBRANCH   1   7
BRANCH   5  10
ATOM     10  O   UNL     1      14.314   1.877  13.894  1.00  0.00    -0.493 OA
ATOM     11  C   UNL     1      15.675   1.733  14.287  1.00  0.00     0.278 C 
ENDBRANCH   5  10
BRANCH   6  12
ATOM     12  O   UNL     1      12.718   3.225  15.764  1.00  0.00    -0.504 OA
ATOM     13  H   UNL     1      12.258   4.004  15.306  1.00  0.00     0.293 HD
ENDBRANCH   6  12
TORSDOF 3
ENDMDL
