MODEL 1
REMARK VINA RESULT:    -2.079      0.000      0.000
REMARK INTER + INTRA:          -2.079
REMARK INTER:                  -2.079
REMARK INTRA:                   0.000
REMARK UNBOUND:                 0.000
REMARK SMILES CC(=O)[O-]
REMARK SMILES IDX 1 1 2 2 3 3 4 4
REMARK H PARENT
REMARK Flexibility Score: inf
ROOT
ATOM      1  C   UNL     1      33.459   9.583  39.961  1.00  0.00     0.063 C 
ATOM      2  C   UNL     1      33.165  10.915  40.565  1.00  0.00     0.038 C 
ATOM      3  O   UNL     1      33.407  11.969  39.921  1.00  0.00    -0.550 OA
ATOM      4  O   UNL     1      32.572  10.994  41.819  1.00  0.00    -0.550 OA
ENDROOT
TORSDOF 0
ENDMDL
MODEL 2
REMARK VINA RESULT:    -1.730      1.386      2.067
REMARK INTER + INTRA:          -1.730
REMARK INTER:                  -1.730
REMARK INTRA:                   0.000
REMARK UNBOUND:                 0.000
REMARK SMILES CC(=O)[O-]
REMARK SMILES IDX 1 1 2 2 3 3 4 4
REMARK H PARENT
REMARK Flexibility Score: inf
ROOT
ATOM      1  C   UNL     1      33.944  11.975  40.265  1.00  0.00     0.063 C 
ATOM      2  C   UNL     1      33.117  10.814  40.702  1.00  0.00     0.038 C 
ATOM      3  O   UNL     1      32.390  10.906  41.726  1.00  0.00    -0.550 OA
ATOM      4  O   UNL     1      33.104   9.646  39.951  1.00  0.00    -0.550 OA
ENDROOT
TORSDOF 0
ENDMDL
MODEL 3
REMARK VINA RESULT:    -1.688     17.327     17.396
REMARK INTER + INTRA:          -1.688
REMARK INTER:                  -1.688
REMARK INTRA:                   0.000
REMARK UNBOUND:                 0.000
REMARK SMILES CC(=O)[O-]
REMARK SMILES IDX 1 1 2 2 3 3 4 4
REMARK H PARENT
REMARK Flexibility Score: inf
ROOT
ATOM      1  C   UNL     1      31.661  21.451  27.172  1.00  0.00     0.063 C 
ATOM      2  C   UNL     1      30.209  21.736  27.363  1.00  0.00     0.038 C 
ATOM      3  O   UNL     1      29.344  20.961  26.876  1.00  0.00    -0.550 OA
ATOM      4  O   UNL     1      29.807  22.826  28.124  1.00  0.00    -0.550 OA
ENDROOT
TORSDOF 0
ENDMDL
MODEL 4
REMARK VINA RESULT:    -1.675     18.295     18.711
REMARK INTER + INTRA:          -1.675
REMARK INTER:                  -1.675
REMARK INTRA:                   0.000
REMARK UNBOUND:                 0.000
REMARK SMILES CC(=O)[O-]
REMARK SMILES IDX 1 1 2 2 3 3 4 4
REMARK H PARENT
REMARK Flexibility Score: inf
ROOT
ATOM      1  C   UNL     1      20.659  21.583  47.125  1.00  0.00     0.063 C 
ATOM      2  C   UNL     1      19.905  22.676  46.445  1.00  0.00     0.038 C 
ATOM      3  O   UNL     1      20.189  22.999  45.262  1.00  0.00    -0.550 OA
ATOM      4  O   UNL     1      18.852  23.304  47.097  1.00  0.00    -0.550 OA
ENDROOT
TORSDOF 0
ENDMDL
MODEL 5
REMARK VINA RESULT:    -1.656      1.412      1.770
REMARK INTER + INTRA:          -1.656
REMARK INTER:                  -1.656
REMARK INTRA:                   0.000
REMARK UNBOUND:                 0.000
REMARK SMILES CC(=O)[O-]
REMARK SMILES IDX 1 1 2 2 3 3 4 4
REMARK H PARENT
REMARK Flexibility Score: inf
ROOT
ATOM      1  C   UNL     1      32.656  11.033  41.816  1.00  0.00     0.063 C 
ATOM      2  C   UNL     1      33.213  10.892  40.440  1.00  0.00     0.038 C 
ATOM      3  O   UNL     1      33.451  11.915  39.746  1.00  0.00    -0.550 OA
ATOM      4  O   UNL     1      33.522   9.633  39.940  1.00  0.00    -0.550 OA
ENDROOT
TORSDOF 0
ENDMDL
MODEL 6
REMARK VINA RESULT:    -1.607     17.121     17.338
REMARK INTER + INTRA:          -1.607
REMARK INTER:                  -1.607
REMARK INTRA:                   0.000
REMARK UNBOUND:                 0.000
REMARK SMILES CC(=O)[O-]
REMARK SMILES IDX 1 1 2 2 3 3 4 4
REMARK H PARENT
REMARK Flexibility Score: inf
ROOT
ATOM      1  C   UNL     1      30.226  22.922  28.183  1.00  0.00     0.063 C 
ATOM      2  C   UNL     1      30.465  21.662  27.422  1.00  0.00     0.038 C 
ATOM      3  O   UNL     1      31.635  21.217  27.285  1.00  0.00    -0.550 OA
ATOM      4  O   UNL     1      29.391  20.945  26.908  1.00  0.00    -0.550 OA
ENDROOT
TORSDOF 0
ENDMDL
MODEL 7
REMARK VINA RESULT:    -1.357     16.817     17.075
REMARK INTER + INTRA:          -1.357
REMARK INTER:                  -1.357
REMARK INTRA:                   0.000
REMARK UNBOUND:                 0.000
REMARK SMILES CC(=O)[O-]
REMARK SMILES IDX 1 1 2 2 3 3 4 4
REMARK H PARENT
REMARK Flexibility Score: inf
ROOT
ATOM      1  C   UNL     1      31.520  21.427  27.287  1.00  0.00     0.063 C 
ATOM      2  C   UNL     1      31.314  22.504  28.297  1.00  0.00     0.038 C 
ATOM      3  O   UNL     1      32.243  22.815  29.088  1.00  0.00    -0.550 OA
ATOM      4  O   UNL     1      30.115  23.204  28.334  1.00  0.00    -0.550 OA
ENDROOT
TORSDOF 0
ENDMDL
