MODEL 1
REMARK VINA RESULT:    -1.466      0.000      0.000
REMARK INTER + INTRA:          -7.022
REMARK INTER:                  -3.695
REMARK INTRA:                  -3.327
REMARK UNBOUND:                -3.327
REMARK SMILES CCCCCCCCCCCCCCCCCCCCCCCCCCCC(=O)[O-]
REMARK SMILES IDX 15 1 16 2 17 3 18 4 19 5 20 6 21 7 22 8 23 9 24 10 25 11
REMARK SMILES IDX 26 12 27 13 28 14 29 15 30 16 14 17 13 18 12 19 11 20 10 21
REMARK SMILES IDX 9 22 8 23 7 24 6 25 5 26 4 27 3 28 2 29 1 30
REMARK H PARENT
REMARK Flexibility Score: inf
ROOT
ATOM      1  C   UNL     1      41.313  57.924  44.833  1.00  0.00     0.000 C 
ENDROOT
BRANCH   1   2
ATOM      2  C   UNL     1      39.978  57.279  45.235  1.00  0.00     0.000 C 
BRANCH   2   3
ATOM      3  C   UNL     1      40.156  56.117  46.228  1.00  0.00     0.000 C 
BRANCH   3   4
ATOM      4  C   UNL     1      40.630  56.581  47.618  1.00  0.00     0.000 C 
BRANCH   4   5
ATOM      5  C   UNL     1      39.673  57.547  48.340  1.00  0.00     0.000 C 
BRANCH   5   6
ATOM      6  C   UNL     1      40.334  58.290  49.511  1.00  0.00     0.000 C 
BRANCH   6   7
ATOM      7  C   UNL     1      41.755  58.738  49.141  1.00  0.00     0.000 C 
BRANCH   7   8
ATOM      8  C   UNL     1      41.777  60.033  48.312  1.00  0.00     0.000 C 
BRANCH   8   9
ATOM      9  C   UNL     1      41.880  61.335  49.134  1.00  0.00     0.000 C 
BRANCH   9  10
ATOM     10  C   UNL     1      43.188  61.505  49.929  1.00  0.00     0.000 C 
BRANCH  10  11
ATOM     11  C   UNL     1      44.439  61.411  49.040  1.00  0.00     0.000 C 
BRANCH  11  12
ATOM     12  C   UNL     1      45.468  60.400  49.568  1.00  0.00     0.006 C 
BRANCH  12  13
ATOM     13  C   UNL     1      44.827  59.282  50.402  1.00  0.00     0.053 C 
BRANCH  13  14
ATOM     14  C   UNL     1      45.874  58.403  51.013  1.00  0.00     0.041 C 
ATOM     15  O   UNL     1      46.713  57.807  50.284  1.00  0.00    -0.550 OA
ATOM     16  O   UNL     1      45.924  58.242  52.393  1.00  0.00    -0.550 OA
ENDBRANCH  13  14
ENDBRANCH  12  13
ENDBRANCH  11  12
ENDBRANCH  10  11
ENDBRANCH   9  10
ENDBRANCH   8   9
ENDBRANCH   7   8
ENDBRANCH   6   7
ENDBRANCH   5   6
ENDBRANCH   4   5
ENDBRANCH   3   4
ENDBRANCH   2   3
ENDBRANCH   1   2
BRANCH   1  17
ATOM     17  C   UNL     1      42.402  56.884  44.510  1.00  0.00     0.000 C 
BRANCH  17  18
ATOM     18  C   UNL     1      43.829  57.405  44.780  1.00  0.00     0.000 C 
BRANCH  18  19
ATOM     19  C   UNL     1      43.903  58.547  45.812  1.00  0.00     0.000 C 
BRANCH  19  20
ATOM     20  C   UNL     1      44.635  58.209  47.127  1.00  0.00     0.000 C 
BRANCH  20  21
ATOM     21  C   UNL     1      44.419  56.776  47.651  1.00  0.00     0.000 C 
BRANCH  21  22
ATOM     22  C   UNL     1      45.737  56.020  47.892  1.00  0.00    -0.000 C 
BRANCH  22  23
ATOM     23  C   UNL     1      46.747  56.194  46.743  1.00  0.00    -0.000 C 
BRANCH  23  24
ATOM     24  C   UNL     1      47.139  54.895  46.007  1.00  0.00    -0.000 C 
BRANCH  24  25
ATOM     25  C   UNL     1      48.375  55.001  45.095  1.00  0.00    -0.000 C 
BRANCH  25  26
ATOM     26  C   UNL     1      48.967  53.633  44.719  1.00  0.00    -0.000 C 
BRANCH  26  27
ATOM     27  C   UNL     1      48.930  53.374  43.203  1.00  0.00    -0.000 C 
BRANCH  27  28
ATOM     28  C   UNL     1      47.902  54.264  42.481  1.00  0.00    -0.000 C 
BRANCH  28  29
ATOM     29  C   UNL     1      48.560  55.417  41.706  1.00  0.00    -0.003 C 
ATOM     30  C   UNL     1      50.040  55.592  42.044  1.00  0.00     0.004 C 
ENDBRANCH  28  29
ENDBRANCH  27  28
ENDBRANCH  26  27
ENDBRANCH  25  26
ENDBRANCH  24  25
ENDBRANCH  23  24
ENDBRANCH  22  23
ENDBRANCH  21  22
ENDBRANCH  20  21
ENDBRANCH  19  20
ENDBRANCH  18  19
ENDBRANCH  17  18
ENDBRANCH   1  17
TORSDOF 26
ENDMDL
MODEL 2
REMARK VINA RESULT:    -1.095      2.530      7.949
REMARK INTER + INTRA:          -6.087
REMARK INTER:                  -3.352
REMARK INTRA:                  -2.734
REMARK UNBOUND:                -3.327
REMARK SMILES CCCCCCCCCCCCCCCCCCCCCCCCCCCC(=O)[O-]
REMARK SMILES IDX 15 1 16 2 17 3 18 4 19 5 20 6 21 7 22 8 23 9 24 10 25 11
REMARK SMILES IDX 26 12 27 13 28 14 29 15 30 16 14 17 13 18 12 19 11 20 10 21
REMARK SMILES IDX 9 22 8 23 7 24 6 25 5 26 4 27 3 28 2 29 1 30
REMARK H PARENT
REMARK Flexibility Score: inf
ROOT
ATOM      1  C   UNL     1      42.415  57.237  44.384  1.00  0.00     0.000 C 
ENDROOT
BRANCH   1   2
ATOM      2  C   UNL     1      43.860  57.620  44.738  1.00  0.00     0.000 C 
BRANCH   2   3
ATOM      3  C   UNL     1      44.008  58.088  46.196  1.00  0.00     0.000 C 
BRANCH   3   4
ATOM      4  C   UNL     1      43.879  56.939  47.213  1.00  0.00     0.000 C 
BRANCH   4   5
ATOM      5  C   UNL     1      45.010  56.864  48.255  1.00  0.00     0.000 C 
BRANCH   5   6
ATOM      6  C   UNL     1      46.396  56.652  47.626  1.00  0.00     0.000 C 
BRANCH   6   7
ATOM      7  C   UNL     1      46.435  55.350  46.814  1.00  0.00     0.000 C 
BRANCH   7   8
ATOM      8  C   UNL     1      47.553  55.336  45.758  1.00  0.00     0.000 C 
BRANCH   8   9
ATOM      9  C   UNL     1      48.130  53.942  45.435  1.00  0.00     0.000 C 
BRANCH   9  10
ATOM     10  C   UNL     1      49.451  53.948  44.644  1.00  0.00     0.000 C 
BRANCH  10  11
ATOM     11  C   UNL     1      50.113  55.335  44.605  1.00  0.00     0.000 C 
BRANCH  11  12
ATOM     12  C   UNL     1      50.503  55.768  43.183  1.00  0.00     0.006 C 
BRANCH  12  13
ATOM     13  C   UNL     1      49.795  54.944  42.098  1.00  0.00     0.053 C 
BRANCH  13  14
ATOM     14  C   UNL     1      48.322  55.215  42.096  1.00  0.00     0.041 C 
ATOM     15  O   UNL     1      47.889  56.389  42.250  1.00  0.00    -0.550 OA
ATOM     16  O   UNL     1      47.424  54.167  41.922  1.00  0.00    -0.550 OA
ENDBRANCH  13  14
ENDBRANCH  12  13
ENDBRANCH  11  12
ENDBRANCH  10  11
ENDBRANCH   9  10
ENDBRANCH   8   9
ENDBRANCH   7   8
ENDBRANCH   6   7
ENDBRANCH   5   6
ENDBRANCH   4   5
ENDBRANCH   3   4
ENDBRANCH   2   3
ENDBRANCH   1   2
BRANCH   1  17
ATOM     17  C   UNL     1      41.374  58.071  45.153  1.00  0.00     0.000 C 
BRANCH  17  18
ATOM     18  C   UNL     1      40.142  57.247  45.581  1.00  0.00     0.000 C 
BRANCH  18  19
ATOM     19  C   UNL     1      40.425  56.209  46.684  1.00  0.00     0.000 C 
BRANCH  19  20
ATOM     20  C   UNL     1      39.593  56.364  47.973  1.00  0.00     0.000 C 
BRANCH  20  21
ATOM     21  C   UNL     1      39.410  57.811  48.468  1.00  0.00     0.000 C 
BRANCH  21  22
ATOM     22  C   UNL     1      40.379  58.186  49.602  1.00  0.00    -0.000 C 
BRANCH  22  23
ATOM     23  C   UNL     1      41.742  58.682  49.087  1.00  0.00    -0.000 C 
BRANCH  23  24
ATOM     24  C   UNL     1      41.703  59.994  48.275  1.00  0.00    -0.000 C 
BRANCH  24  25
ATOM     25  C   UNL     1      41.817  61.286  49.104  1.00  0.00    -0.000 C 
BRANCH  25  26
ATOM     26  C   UNL     1      43.250  61.572  49.582  1.00  0.00    -0.000 C 
BRANCH  26  27
ATOM     27  C   UNL     1      44.294  60.697  48.867  1.00  0.00    -0.000 C 
BRANCH  27  28
ATOM     28  C   UNL     1      45.404  60.213  49.818  1.00  0.00    -0.000 C 
BRANCH  28  29
ATOM     29  C   UNL     1      45.044  58.894  50.521  1.00  0.00    -0.003 C 
ATOM     30  C   UNL     1      46.062  58.490  51.586  1.00  0.00     0.004 C 
ENDBRANCH  28  29
ENDBRANCH  27  28
ENDBRANCH  26  27
ENDBRANCH  25  26
ENDBRANCH  24  25
ENDBRANCH  23  24
ENDBRANCH  22  23
ENDBRANCH  21  22
ENDBRANCH  20  21
ENDBRANCH  19  20
ENDBRANCH  18  19
ENDBRANCH  17  18
ENDBRANCH   1  17
TORSDOF 26
ENDMDL
MODEL 3
REMARK VINA RESULT:    -1.067      2.585      7.820
REMARK INTER + INTRA:          -6.017
REMARK INTER:                  -2.437
REMARK INTRA:                  -3.580
REMARK UNBOUND:                -3.327
REMARK SMILES CCCCCCCCCCCCCCCCCCCCCCCCCCCC(=O)[O-]
REMARK SMILES IDX 15 1 16 2 17 3 18 4 19 5 20 6 21 7 22 8 23 9 24 10 25 11
REMARK SMILES IDX 26 12 27 13 28 14 29 15 30 16 14 17 13 18 12 19 11 20 10 21
REMARK SMILES IDX 9 22 8 23 7 24 6 25 5 26 4 27 3 28 2 29 1 30
REMARK H PARENT
REMARK Flexibility Score: inf
ROOT
ATOM      1  C   UNL     1      42.266  57.106  44.406  1.00  0.00     0.000 C 
ENDROOT
BRANCH   1   2
ATOM      2  C   UNL     1      43.726  57.397  44.786  1.00  0.00     0.000 C 
BRANCH   2   3
ATOM      3  C   UNL     1      43.880  58.692  45.601  1.00  0.00     0.000 C 
BRANCH   3   4
ATOM      4  C   UNL     1      44.315  58.438  47.057  1.00  0.00     0.000 C 
BRANCH   4   5
ATOM      5  C   UNL     1      44.216  56.972  47.516  1.00  0.00     0.000 C 
BRANCH   5   6
ATOM      6  C   UNL     1      45.417  56.521  48.362  1.00  0.00     0.000 C 
BRANCH   6   7
ATOM      7  C   UNL     1      46.699  56.491  47.518  1.00  0.00     0.000 C 
BRANCH   7   8
ATOM      8  C   UNL     1      46.577  55.589  46.278  1.00  0.00     0.000 C 
BRANCH   8   9
ATOM      9  C   UNL     1      47.893  55.357  45.506  1.00  0.00     0.000 C 
BRANCH   9  10
ATOM     10  C   UNL     1      48.286  53.881  45.313  1.00  0.00     0.000 C 
BRANCH  10  11
ATOM     11  C   UNL     1      49.630  53.716  44.583  1.00  0.00     0.000 C 
BRANCH  11  12
ATOM     12  C   UNL     1      50.143  55.031  43.978  1.00  0.00     0.006 C 
BRANCH  12  13
ATOM     13  C   UNL     1      49.993  55.078  42.451  1.00  0.00     0.053 C 
BRANCH  13  14
ATOM     14  C   UNL     1      48.573  55.346  42.059  1.00  0.00     0.041 C 
ATOM     15  O   UNL     1      48.152  56.530  41.955  1.00  0.00    -0.550 OA
ATOM     16  O   UNL     1      47.711  54.284  41.807  1.00  0.00    -0.550 OA
ENDBRANCH  13  14
ENDBRANCH  12  13
ENDBRANCH  11  12
ENDBRANCH  10  11
ENDBRANCH   9  10
ENDBRANCH   8   9
ENDBRANCH   7   8
ENDBRANCH   6   7
ENDBRANCH   5   6
ENDBRANCH   4   5
ENDBRANCH   3   4
ENDBRANCH   2   3
ENDBRANCH   1   2
BRANCH   1  17
ATOM     17  C   UNL     1      41.266  57.988  45.176  1.00  0.00     0.000 C 
BRANCH  17  18
ATOM     18  C   UNL     1      40.133  57.174  45.837  1.00  0.00     0.000 C 
BRANCH  18  19
ATOM     19  C   UNL     1      40.402  56.787  47.304  1.00  0.00     0.000 C 
BRANCH  19  20
ATOM     20  C   UNL     1      39.614  57.589  48.359  1.00  0.00     0.000 C 
BRANCH  20  21
ATOM     21  C   UNL     1      40.443  58.095  49.556  1.00  0.00     0.000 C 
BRANCH  21  22
ATOM     22  C   UNL     1      41.752  58.782  49.133  1.00  0.00    -0.000 C 
BRANCH  22  23
ATOM     23  C   UNL     1      41.520  60.066  48.317  1.00  0.00    -0.000 C 
BRANCH  23  24
ATOM     24  C   UNL     1      41.821  61.385  49.061  1.00  0.00    -0.000 C 
BRANCH  24  25
ATOM     25  C   UNL     1      43.128  61.399  49.874  1.00  0.00    -0.000 C 
BRANCH  25  26
ATOM     26  C   UNL     1      44.387  61.370  48.992  1.00  0.00    -0.000 C 
BRANCH  26  27
ATOM     27  C   UNL     1      45.505  60.499  49.591  1.00  0.00    -0.000 C 
BRANCH  27  28
ATOM     28  C   UNL     1      44.964  59.457  50.588  1.00  0.00    -0.000 C 
BRANCH  28  29
ATOM     29  C   UNL     1      46.037  58.446  51.023  1.00  0.00    -0.003 C 
ATOM     30  C   UNL     1      45.871  57.988  52.472  1.00  0.00     0.004 C 
ENDBRANCH  28  29
ENDBRANCH  27  28
ENDBRANCH  26  27
ENDBRANCH  25  26
ENDBRANCH  24  25
ENDBRANCH  23  24
ENDBRANCH  22  23
ENDBRANCH  21  22
ENDBRANCH  20  21
ENDBRANCH  19  20
ENDBRANCH  18  19
ENDBRANCH  17  18
ENDBRANCH   1  17
TORSDOF 26
ENDMDL
MODEL 4
REMARK VINA RESULT:    -1.065      2.294      8.109
REMARK INTER + INTRA:          -6.009
REMARK INTER:                  -3.533
REMARK INTRA:                  -2.476
REMARK UNBOUND:                -3.327
REMARK SMILES CCCCCCCCCCCCCCCCCCCCCCCCCCCC(=O)[O-]
REMARK SMILES IDX 15 1 16 2 17 3 18 4 19 5 20 6 21 7 22 8 23 9 24 10 25 11
REMARK SMILES IDX 26 12 27 13 28 14 29 15 30 16 14 17 13 18 12 19 11 20 10 21
REMARK SMILES IDX 9 22 8 23 7 24 6 25 5 26 4 27 3 28 2 29 1 30
REMARK H PARENT
REMARK Flexibility Score: inf
ROOT
ATOM      1  C   UNL     1      46.386  57.603  48.758  1.00  0.00     0.000 C 
ENDROOT
BRANCH   1   2
ATOM      2  C   UNL     1      45.612  56.520  47.989  1.00  0.00     0.000 C 
BRANCH   2   3
ATOM      3  C   UNL     1      44.182  56.958  47.628  1.00  0.00     0.000 C 
BRANCH   3   4
ATOM      4  C   UNL     1      44.146  58.120  46.618  1.00  0.00     0.000 C 
BRANCH   4   5
ATOM      5  C   UNL     1      43.177  57.922  45.437  1.00  0.00     0.000 C 
BRANCH   5   6
ATOM      6  C   UNL     1      43.739  57.003  44.342  1.00  0.00     0.000 C 
BRANCH   6   7
ATOM      7  C   UNL     1      45.214  57.323  44.064  1.00  0.00     0.000 C 
BRANCH   7   8
ATOM      8  C   UNL     1      46.012  56.099  43.583  1.00  0.00     0.000 C 
BRANCH   8   9
ATOM      9  C   UNL     1      47.443  56.402  43.095  1.00  0.00     0.000 C 
BRANCH   9  10
ATOM     10  C   UNL     1      48.063  55.330  42.180  1.00  0.00     0.000 C 
BRANCH  10  11
ATOM     11  C   UNL     1      47.320  53.986  42.251  1.00  0.00     0.000 C 
BRANCH  11  12
ATOM     12  C   UNL     1      48.225  52.829  42.700  1.00  0.00     0.006 C 
BRANCH  12  13
ATOM     13  C   UNL     1      49.568  53.312  43.264  1.00  0.00     0.053 C 
BRANCH  13  14
ATOM     14  C   UNL     1      49.381  53.992  44.585  1.00  0.00     0.041 C 
ATOM     15  O   UNL     1      48.562  53.534  45.428  1.00  0.00    -0.550 OA
ATOM     16  O   UNL     1      50.116  55.133  44.888  1.00  0.00    -0.550 OA
ENDBRANCH  13  14
ENDBRANCH  12  13
ENDBRANCH  11  12
ENDBRANCH  10  11
ENDBRANCH   9  10
ENDBRANCH   8   9
ENDBRANCH   7   8
ENDBRANCH   6   7
ENDBRANCH   5   6
ENDBRANCH   4   5
ENDBRANCH   3   4
ENDBRANCH   2   3
ENDBRANCH   1   2
BRANCH   1  17
ATOM     17  C   UNL     1      45.801  57.869  50.157  1.00  0.00     0.000 C 
BRANCH  17  18
ATOM     18  C   UNL     1      45.541  59.367  50.424  1.00  0.00     0.000 C 
BRANCH  18  19
ATOM     19  C   UNL     1      45.209  60.187  49.163  1.00  0.00     0.000 C 
BRANCH  19  20
ATOM     20  C   UNL     1      45.239  61.719  49.339  1.00  0.00     0.000 C 
BRANCH  20  21
ATOM     21  C   UNL     1      43.863  62.387  49.532  1.00  0.00     0.000 C 
BRANCH  21  22
ATOM     22  C   UNL     1      42.778  61.403  50.001  1.00  0.00    -0.000 C 
BRANCH  22  23
ATOM     23  C   UNL     1      41.669  61.189  48.955  1.00  0.00    -0.000 C 
BRANCH  23  24
ATOM     24  C   UNL     1      41.695  59.824  48.235  1.00  0.00    -0.000 C 
BRANCH  24  25
ATOM     25  C   UNL     1      41.613  58.592  49.156  1.00  0.00    -0.000 C 
BRANCH  25  26
ATOM     26  C   UNL     1      40.169  58.165  49.465  1.00  0.00    -0.000 C 
BRANCH  26  27
ATOM     27  C   UNL     1      39.492  57.472  48.270  1.00  0.00    -0.000 C 
BRANCH  27  28
ATOM     28  C   UNL     1      40.501  56.728  47.376  1.00  0.00    -0.000 C 
BRANCH  28  29
ATOM     29  C   UNL     1      39.850  55.589  46.575  1.00  0.00    -0.003 C 
ATOM     30  C   UNL     1      39.803  54.270  47.345  1.00  0.00     0.004 C 
ENDBRANCH  28  29
ENDBRANCH  27  28
ENDBRANCH  26  27
ENDBRANCH  25  26
ENDBRANCH  24  25
ENDBRANCH  23  24
ENDBRANCH  22  23
ENDBRANCH  21  22
ENDBRANCH  20  21
ENDBRANCH  19  20
ENDBRANCH  18  19
ENDBRANCH  17  18
ENDBRANCH   1  17
TORSDOF 26
ENDMDL
MODEL 5
REMARK VINA RESULT:    -1.055      1.422      2.634
REMARK INTER + INTRA:          -5.985
REMARK INTER:                  -3.229
REMARK INTRA:                  -2.756
REMARK UNBOUND:                -3.327
REMARK SMILES CCCCCCCCCCCCCCCCCCCCCCCCCCCC(=O)[O-]
REMARK SMILES IDX 15 1 16 2 17 3 18 4 19 5 20 6 21 7 22 8 23 9 24 10 25 11
REMARK SMILES IDX 26 12 27 13 28 14 29 15 30 16 14 17 13 18 12 19 11 20 10 21
REMARK SMILES IDX 9 22 8 23 7 24 6 25 5 26 4 27 3 28 2 29 1 30
REMARK H PARENT
REMARK Flexibility Score: inf
ROOT
ATOM      1  C   UNL     1      43.168  56.839  44.613  1.00  0.00     0.000 C 
ENDROOT
BRANCH   1   2
ATOM      2  C   UNL     1      42.182  57.250  43.509  1.00  0.00     0.000 C 
BRANCH   2   3
ATOM      3  C   UNL     1      40.926  57.943  44.065  1.00  0.00     0.000 C 
BRANCH   3   4
ATOM      4  C   UNL     1      40.806  57.833  45.596  1.00  0.00     0.000 C 
BRANCH   4   5
ATOM      5  C   UNL     1      40.028  56.603  46.099  1.00  0.00     0.000 C 
BRANCH   5   6
ATOM      6  C   UNL     1      40.100  56.423  47.623  1.00  0.00     0.000 C 
BRANCH   6   7
ATOM      7  C   UNL     1      39.639  57.696  48.345  1.00  0.00     0.000 C 
BRANCH   7   8
ATOM      8  C   UNL     1      40.443  57.983  49.625  1.00  0.00     0.000 C 
BRANCH   8   9
ATOM      9  C   UNL     1      41.711  58.838  49.423  1.00  0.00     0.000 C 
BRANCH   9  10
ATOM     10  C   UNL     1      41.618  59.891  48.303  1.00  0.00     0.000 C 
BRANCH  10  11
ATOM     11  C   UNL     1      41.762  61.329  48.827  1.00  0.00     0.000 C 
BRANCH  11  12
ATOM     12  C   UNL     1      42.721  61.432  50.023  1.00  0.00     0.006 C 
BRANCH  12  13
ATOM     13  C   UNL     1      43.878  62.409  49.772  1.00  0.00     0.053 C 
BRANCH  13  14
ATOM     14  C   UNL     1      45.044  61.708  49.147  1.00  0.00     0.041 C 
ATOM     15  O   UNL     1      45.145  60.452  49.214  1.00  0.00    -0.550 OA
ATOM     16  O   UNL     1      46.024  62.443  48.488  1.00  0.00    -0.550 OA
ENDBRANCH  13  14
ENDBRANCH  12  13
ENDBRANCH  11  12
ENDBRANCH  10  11
ENDBRANCH   9  10
ENDBRANCH   8   9
ENDBRANCH   7   8
ENDBRANCH   6   7
ENDBRANCH   5   6
ENDBRANCH   4   5
ENDBRANCH   3   4
ENDBRANCH   2   3
ENDBRANCH   1   2
BRANCH   1  17
ATOM     17  C   UNL     1      44.147  57.968  44.985  1.00  0.00     0.000 C 
BRANCH  17  18
ATOM     18  C   UNL     1      44.013  58.417  46.455  1.00  0.00     0.000 C 
BRANCH  18  19
ATOM     19  C   UNL     1      43.838  57.261  47.459  1.00  0.00     0.000 C 
BRANCH  19  20
ATOM     20  C   UNL     1      45.018  57.034  48.425  1.00  0.00     0.000 C 
BRANCH  20  21
ATOM     21  C   UNL     1      46.383  56.792  47.752  1.00  0.00     0.000 C 
BRANCH  21  22
ATOM     22  C   UNL     1      46.371  55.600  46.780  1.00  0.00    -0.000 C 
BRANCH  22  23
ATOM     23  C   UNL     1      47.593  55.577  45.844  1.00  0.00    -0.000 C 
BRANCH  23  24
ATOM     24  C   UNL     1      48.095  54.172  45.449  1.00  0.00    -0.000 C 
BRANCH  24  25
ATOM     25  C   UNL     1      49.518  54.121  44.863  1.00  0.00    -0.000 C 
BRANCH  25  26
ATOM     26  C   UNL     1      50.124  55.514  44.628  1.00  0.00    -0.000 C 
BRANCH  26  27
ATOM     27  C   UNL     1      50.404  55.790  43.141  1.00  0.00    -0.000 C 
BRANCH  27  28
ATOM     28  C   UNL     1      49.667  54.806  42.214  1.00  0.00    -0.000 C 
BRANCH  28  29
ATOM     29  C   UNL     1      48.177  55.150  42.053  1.00  0.00    -0.003 C 
ATOM     30  C   UNL     1      47.275  53.918  42.094  1.00  0.00     0.004 C 
ENDBRANCH  28  29
ENDBRANCH  27  28
ENDBRANCH  26  27
ENDBRANCH  25  26
ENDBRANCH  24  25
ENDBRANCH  23  24
ENDBRANCH  22  23
ENDBRANCH  21  22
ENDBRANCH  20  21
ENDBRANCH  19  20
ENDBRANCH  18  19
ENDBRANCH  17  18
ENDBRANCH   1  17
TORSDOF 26
ENDMDL
MODEL 6
REMARK VINA RESULT:    -0.928      2.238      8.003
REMARK INTER + INTRA:          -5.665
REMARK INTER:                  -3.352
REMARK INTRA:                  -2.312
REMARK UNBOUND:                -3.327
REMARK SMILES CCCCCCCCCCCCCCCCCCCCCCCCCCCC(=O)[O-]
REMARK SMILES IDX 15 1 16 2 17 3 18 4 19 5 20 6 21 7 22 8 23 9 24 10 25 11
REMARK SMILES IDX 26 12 27 13 28 14 29 15 30 16 14 17 13 18 12 19 11 20 10 21
REMARK SMILES IDX 9 22 8 23 7 24 6 25 5 26 4 27 3 28 2 29 1 30
REMARK H PARENT
REMARK Flexibility Score: inf
ROOT
ATOM      1  C   UNL     1      46.062  57.574  48.761  1.00  0.00     0.000 C 
ENDROOT
BRANCH   1   2
ATOM      2  C   UNL     1      45.404  56.511  47.866  1.00  0.00     0.000 C 
BRANCH   2   3
ATOM      3  C   UNL     1      44.047  56.969  47.303  1.00  0.00     0.000 C 
BRANCH   3   4
ATOM      4  C   UNL     1      44.185  57.974  46.145  1.00  0.00     0.000 C 
BRANCH   4   5
ATOM      5  C   UNL     1      44.007  57.372  44.738  1.00  0.00     0.000 C 
BRANCH   5   6
ATOM      6  C   UNL     1      45.282  57.445  43.884  1.00  0.00     0.000 C 
BRANCH   6   7
ATOM      7  C   UNL     1      45.953  56.068  43.785  1.00  0.00     0.000 C 
BRANCH   7   8
ATOM      8  C   UNL     1      47.274  56.101  42.997  1.00  0.00     0.000 C 
BRANCH   8   9
ATOM      9  C   UNL     1      47.531  54.873  42.100  1.00  0.00     0.000 C 
BRANCH   9  10
ATOM     10  C   UNL     1      47.531  53.517  42.830  1.00  0.00     0.000 C 
BRANCH  10  11
ATOM     11  C   UNL     1      48.946  52.948  43.025  1.00  0.00     0.000 C 
BRANCH  11  12
ATOM     12  C   UNL     1      49.499  53.201  44.436  1.00  0.00     0.006 C 
BRANCH  12  13
ATOM     13  C   UNL     1      49.171  54.607  44.958  1.00  0.00     0.053 C 
BRANCH  13  14
ATOM     14  C   UNL     1      50.168  55.608  44.464  1.00  0.00     0.041 C 
ATOM     15  O   UNL     1      50.615  56.500  45.238  1.00  0.00    -0.550 OA
ATOM     16  O   UNL     1      50.609  55.558  43.147  1.00  0.00    -0.550 OA
ENDBRANCH  13  14
ENDBRANCH  12  13
ENDBRANCH  11  12
ENDBRANCH  10  11
ENDBRANCH   9  10
ENDBRANCH   8   9
ENDBRANCH   7   8
ENDBRANCH   6   7
ENDBRANCH   5   6
ENDBRANCH   4   5
ENDBRANCH   3   4
ENDBRANCH   2   3
ENDBRANCH   1   2
BRANCH   1  17
ATOM     17  C   UNL     1      45.040  58.341  49.620  1.00  0.00     0.000 C 
BRANCH  17  18
ATOM     18  C   UNL     1      45.364  59.845  49.738  1.00  0.00     0.000 C 
BRANCH  18  19
ATOM     19  C   UNL     1      44.449  60.759  48.900  1.00  0.00     0.000 C 
BRANCH  19  20
ATOM     20  C   UNL     1      43.292  61.429  49.669  1.00  0.00     0.000 C 
BRANCH  20  21
ATOM     21  C   UNL     1      41.877  61.026  49.212  1.00  0.00     0.000 C 
BRANCH  21  22
ATOM     22  C   UNL     1      41.864  59.758  48.342  1.00  0.00    -0.000 C 
BRANCH  22  23
ATOM     23  C   UNL     1      41.559  58.481  49.146  1.00  0.00    -0.000 C 
BRANCH  23  24
ATOM     24  C   UNL     1      40.060  58.178  49.359  1.00  0.00    -0.000 C 
BRANCH  24  25
ATOM     25  C   UNL     1      39.339  57.543  48.156  1.00  0.00    -0.000 C 
BRANCH  25  26
ATOM     26  C   UNL     1      40.046  56.286  47.624  1.00  0.00    -0.000 C 
BRANCH  26  27
ATOM     27  C   UNL     1      40.760  56.535  46.284  1.00  0.00    -0.000 C 
BRANCH  27  28
ATOM     28  C   UNL     1      40.387  57.894  45.665  1.00  0.00    -0.000 C 
BRANCH  28  29
ATOM     29  C   UNL     1      40.593  57.925  44.142  1.00  0.00    -0.003 C 
ATOM     30  C   UNL     1      39.751  58.996  43.449  1.00  0.00     0.004 C 
ENDBRANCH  28  29
ENDBRANCH  27  28
ENDBRANCH  26  27
ENDBRANCH  25  26
ENDBRANCH  24  25
ENDBRANCH  23  24
ENDBRANCH  22  23
ENDBRANCH  21  22
ENDBRANCH  20  21
ENDBRANCH  19  20
ENDBRANCH  18  19
ENDBRANCH  17  18
ENDBRANCH   1  17
TORSDOF 26
ENDMDL
MODEL 7
REMARK VINA RESULT:    -0.810      2.798      8.249
REMARK INTER + INTRA:          -5.368
REMARK INTER:                  -2.726
REMARK INTRA:                  -2.641
REMARK UNBOUND:                -3.327
REMARK SMILES CCCCCCCCCCCCCCCCCCCCCCCCCCCC(=O)[O-]
REMARK SMILES IDX 15 1 16 2 17 3 18 4 19 5 20 6 21 7 22 8 23 9 24 10 25 11
REMARK SMILES IDX 26 12 27 13 28 14 29 15 30 16 14 17 13 18 12 19 11 20 10 21
REMARK SMILES IDX 9 22 8 23 7 24 6 25 5 26 4 27 3 28 2 29 1 30
REMARK H PARENT
REMARK Flexibility Score: inf
ROOT
ATOM      1  C   UNL     1      43.826  57.630  44.714  1.00  0.00     0.000 C 
ENDROOT
BRANCH   1   2
ATOM      2  C   UNL     1      44.154  58.096  46.140  1.00  0.00     0.000 C 
BRANCH   2   3
ATOM      3  C   UNL     1      43.824  57.033  47.203  1.00  0.00     0.000 C 
BRANCH   3   4
ATOM      4  C   UNL     1      44.917  56.900  48.279  1.00  0.00     0.000 C 
BRANCH   4   5
ATOM      5  C   UNL     1      46.350  56.751  47.734  1.00  0.00     0.000 C 
BRANCH   5   6
ATOM      6  C   UNL     1      46.580  55.423  46.996  1.00  0.00     0.000 C 
BRANCH   6   7
ATOM      7  C   UNL     1      47.465  55.631  45.760  1.00  0.00     0.000 C 
BRANCH   7   8
ATOM      8  C   UNL     1      48.305  54.391  45.409  1.00  0.00     0.000 C 
BRANCH   8   9
ATOM      9  C   UNL     1      49.765  54.684  45.004  1.00  0.00     0.000 C 
BRANCH   9  10
ATOM     10  C   UNL     1      49.938  55.758  43.914  1.00  0.00     0.000 C 
BRANCH  10  11
ATOM     11  C   UNL     1      50.102  55.157  42.508  1.00  0.00     0.000 C 
BRANCH  11  12
ATOM     12  C   UNL     1      48.847  55.327  41.639  1.00  0.00     0.006 C 
BRANCH  12  13
ATOM     13  C   UNL     1      47.555  54.972  42.388  1.00  0.00     0.053 C 
BRANCH  13  14
ATOM     14  C   UNL     1      47.332  53.491  42.398  1.00  0.00     0.041 C 
ATOM     15  O   UNL     1      48.283  52.704  42.657  1.00  0.00    -0.550 OA
ATOM     16  O   UNL     1      46.069  52.978  42.123  1.00  0.00    -0.550 OA
ENDBRANCH  13  14
ENDBRANCH  12  13
ENDBRANCH  11  12
ENDBRANCH  10  11
ENDBRANCH   9  10
ENDBRANCH   8   9
ENDBRANCH   7   8
ENDBRANCH   6   7
ENDBRANCH   5   6
ENDBRANCH   4   5
ENDBRANCH   3   4
ENDBRANCH   2   3
ENDBRANCH   1   2
BRANCH   1  17
ATOM     17  C   UNL     1      42.393  57.081  44.584  1.00  0.00     0.000 C 
BRANCH  17  18
ATOM     18  C   UNL     1      41.315  58.160  44.820  1.00  0.00     0.000 C 
BRANCH  18  19
ATOM     19  C   UNL     1      39.999  57.622  45.417  1.00  0.00     0.000 C 
BRANCH  19  20
ATOM     20  C   UNL     1      40.107  56.274  46.158  1.00  0.00     0.000 C 
BRANCH  20  21
ATOM     21  C   UNL     1      40.431  56.374  47.661  1.00  0.00     0.000 C 
BRANCH  21  22
ATOM     22  C   UNL     1      39.626  57.470  48.379  1.00  0.00    -0.000 C 
BRANCH  22  23
ATOM     23  C   UNL     1      40.375  58.077  49.579  1.00  0.00    -0.000 C 
BRANCH  23  24
ATOM     24  C   UNL     1      41.711  58.772  49.239  1.00  0.00    -0.000 C 
BRANCH  24  25
ATOM     25  C   UNL     1      41.625  59.882  48.176  1.00  0.00    -0.000 C 
BRANCH  25  26
ATOM     26  C   UNL     1      41.839  61.290  48.756  1.00  0.00    -0.000 C 
BRANCH  26  27
ATOM     27  C   UNL     1      42.893  61.311  49.877  1.00  0.00    -0.000 C 
BRANCH  27  28
ATOM     28  C   UNL     1      44.170  62.065  49.465  1.00  0.00    -0.000 C 
BRANCH  28  29
ATOM     29  C   UNL     1      45.341  61.117  49.156  1.00  0.00    -0.003 C 
ATOM     30  C   UNL     1      45.225  59.774  49.874  1.00  0.00     0.004 C 
ENDBRANCH  28  29
ENDBRANCH  27  28
ENDBRANCH  26  27
ENDBRANCH  25  26
ENDBRANCH  24  25
ENDBRANCH  23  24
ENDBRANCH  22  23
ENDBRANCH  21  22
ENDBRANCH  20  21
ENDBRANCH  19  20
ENDBRANCH  18  19
ENDBRANCH  17  18
ENDBRANCH   1  17
TORSDOF 26
ENDMDL
MODEL 8
REMARK VINA RESULT:    -0.809      2.697      7.990
REMARK INTER + INTRA:          -5.367
REMARK INTER:                  -2.624
REMARK INTRA:                  -2.743
REMARK UNBOUND:                -3.327
REMARK SMILES CCCCCCCCCCCCCCCCCCCCCCCCCCCC(=O)[O-]
REMARK SMILES IDX 15 1 16 2 17 3 18 4 19 5 20 6 21 7 22 8 23 9 24 10 25 11
REMARK SMILES IDX 26 12 27 13 28 14 29 15 30 16 14 17 13 18 12 19 11 20 10 21
REMARK SMILES IDX 9 22 8 23 7 24 6 25 5 26 4 27 3 28 2 29 1 30
REMARK H PARENT
REMARK Flexibility Score: inf
ROOT
ATOM      1  C   UNL     1      42.542  56.947  44.264  1.00  0.00     0.000 C 
ENDROOT
BRANCH   1   2
ATOM      2  C   UNL     1      43.969  57.403  44.607  1.00  0.00     0.000 C 
BRANCH   2   3
ATOM      3  C   UNL     1      44.031  58.228  45.905  1.00  0.00     0.000 C 
BRANCH   3   4
ATOM      4  C   UNL     1      43.866  57.369  47.172  1.00  0.00     0.000 C 
BRANCH   4   5
ATOM      5  C   UNL     1      44.689  57.840  48.386  1.00  0.00     0.000 C 
BRANCH   5   6
ATOM      6  C   UNL     1      46.116  57.270  48.406  1.00  0.00     0.000 C 
BRANCH   6   7
ATOM      7  C   UNL     1      46.167  55.901  47.714  1.00  0.00     0.000 C 
BRANCH   7   8
ATOM      8  C   UNL     1      47.019  55.910  46.433  1.00  0.00     0.000 C 
BRANCH   8   9
ATOM      9  C   UNL     1      47.536  54.527  45.983  1.00  0.00     0.000 C 
BRANCH   9  10
ATOM     10  C   UNL     1      48.718  54.561  44.997  1.00  0.00     0.000 C 
BRANCH  10  11
ATOM     11  C   UNL     1      49.125  53.160  44.510  1.00  0.00     0.000 C 
BRANCH  11  12
ATOM     12  C   UNL     1      48.960  52.987  42.993  1.00  0.00     0.006 C 
BRANCH  12  13
ATOM     13  C   UNL     1      48.108  54.095  42.359  1.00  0.00     0.053 C 
BRANCH  13  14
ATOM     14  C   UNL     1      48.941  55.300  42.048  1.00  0.00     0.041 C 
ATOM     15  O   UNL     1      50.195  55.201  41.947  1.00  0.00    -0.550 OA
ATOM     16  O   UNL     1      48.332  56.537  41.866  1.00  0.00    -0.550 OA
ENDBRANCH  13  14
ENDBRANCH  12  13
ENDBRANCH  11  12
ENDBRANCH  10  11
ENDBRANCH   9  10
ENDBRANCH   8   9
ENDBRANCH   7   8
ENDBRANCH   6   7
ENDBRANCH   5   6
ENDBRANCH   4   5
ENDBRANCH   3   4
ENDBRANCH   2   3
ENDBRANCH   1   2
BRANCH   1  17
ATOM     17  C   UNL     1      41.499  58.063  44.464  1.00  0.00     0.000 C 
BRANCH  17  18
ATOM     18  C   UNL     1      40.379  57.666  45.449  1.00  0.00     0.000 C 
BRANCH  18  19
ATOM     19  C   UNL     1      40.595  56.308  46.143  1.00  0.00     0.000 C 
BRANCH  19  20
ATOM     20  C   UNL     1      40.100  56.219  47.601  1.00  0.00     0.000 C 
BRANCH  20  21
ATOM     21  C   UNL     1      39.337  57.456  48.113  1.00  0.00     0.000 C 
BRANCH  21  22
ATOM     22  C   UNL     1      39.934  58.037  49.407  1.00  0.00    -0.000 C 
BRANCH  22  23
ATOM     23  C   UNL     1      41.358  58.590  49.215  1.00  0.00    -0.000 C 
BRANCH  23  24
ATOM     24  C   UNL     1      41.500  59.686  48.137  1.00  0.00    -0.000 C 
BRANCH  24  25
ATOM     25  C   UNL     1      41.557  61.129  48.669  1.00  0.00    -0.000 C 
BRANCH  25  26
ATOM     26  C   UNL     1      42.374  61.264  49.964  1.00  0.00    -0.000 C 
BRANCH  26  27
ATOM     27  C   UNL     1      43.651  62.100  49.769  1.00  0.00    -0.000 C 
BRANCH  27  28
ATOM     28  C   UNL     1      44.819  61.265  49.213  1.00  0.00    -0.000 C 
BRANCH  28  29
ATOM     29  C   UNL     1      46.117  62.078  49.086  1.00  0.00    -0.003 C 
ATOM     30  C   UNL     1      46.196  62.875  47.785  1.00  0.00     0.004 C 
ENDBRANCH  28  29
ENDBRANCH  27  28
ENDBRANCH  26  27
ENDBRANCH  25  26
ENDBRANCH  24  25
ENDBRANCH  23  24
ENDBRANCH  22  23
ENDBRANCH  21  22
ENDBRANCH  20  21
ENDBRANCH  19  20
ENDBRANCH  18  19
ENDBRANCH  17  18
ENDBRANCH   1  17
TORSDOF 26
ENDMDL
MODEL 9
REMARK VINA RESULT:    -0.625      2.134      4.759
REMARK INTER + INTRA:          -4.903
REMARK INTER:                  -2.485
REMARK INTRA:                  -2.418
REMARK UNBOUND:                -3.327
REMARK SMILES CCCCCCCCCCCCCCCCCCCCCCCCCCCC(=O)[O-]
REMARK SMILES IDX 15 1 16 2 17 3 18 4 19 5 20 6 21 7 22 8 23 9 24 10 25 11
REMARK SMILES IDX 26 12 27 13 28 14 29 15 30 16 14 17 13 18 12 19 11 20 10 21
REMARK SMILES IDX 9 22 8 23 7 24 6 25 5 26 4 27 3 28 2 29 1 30
REMARK H PARENT
REMARK Flexibility Score: inf
ROOT
ATOM      1  C   UNL     1      45.871  56.603  48.266  1.00  0.00     0.000 C 
ENDROOT
BRANCH   1   2
ATOM      2  C   UNL     1      46.396  57.787  49.093  1.00  0.00     0.000 C 
BRANCH   2   3
ATOM      3  C   UNL     1      45.587  58.015  50.381  1.00  0.00     0.000 C 
BRANCH   3   4
ATOM      4  C   UNL     1      45.271  59.501  50.638  1.00  0.00     0.000 C 
BRANCH   4   5
ATOM      5  C   UNL     1      45.664  60.454  49.494  1.00  0.00     0.000 C 
BRANCH   5   6
ATOM      6  C   UNL     1      44.453  61.010  48.729  1.00  0.00     0.000 C 
BRANCH   6   7
ATOM      7  C   UNL     1      43.415  61.593  49.698  1.00  0.00     0.000 C 
BRANCH   7   8
ATOM      8  C   UNL     1      41.969  61.237  49.311  1.00  0.00     0.000 C 
BRANCH   8   9
ATOM      9  C   UNL     1      41.806  59.909  48.543  1.00  0.00     0.000 C 
BRANCH   9  10
ATOM     10  C   UNL     1      42.015  58.636  49.385  1.00  0.00     0.000 C 
BRANCH  10  11
ATOM     11  C   UNL     1      40.690  58.008  49.850  1.00  0.00     0.000 C 
BRANCH  11  12
ATOM     12  C   UNL     1      39.539  58.250  48.861  1.00  0.00     0.006 C 
BRANCH  12  13
ATOM     13  C   UNL     1      39.202  57.006  48.029  1.00  0.00     0.053 C 
BRANCH  13  14
ATOM     14  C   UNL     1      40.246  56.760  46.984  1.00  0.00     0.041 C 
ATOM     15  O   UNL     1      40.166  57.322  45.857  1.00  0.00    -0.550 OA
ATOM     16  O   UNL     1      41.312  55.911  47.255  1.00  0.00    -0.550 OA
ENDBRANCH  13  14
ENDBRANCH  12  13
ENDBRANCH  11  12
ENDBRANCH  10  11
ENDBRANCH   9  10
ENDBRANCH   8   9
ENDBRANCH   7   8
ENDBRANCH   6   7
ENDBRANCH   5   6
ENDBRANCH   4   5
ENDBRANCH   3   4
ENDBRANCH   2   3
ENDBRANCH   1   2
BRANCH   1  17
ATOM     17  C   UNL     1      44.490  56.879  47.645  1.00  0.00     0.000 C 
BRANCH  17  18
ATOM     18  C   UNL     1      44.467  58.155  46.777  1.00  0.00     0.000 C 
BRANCH  18  19
ATOM     19  C   UNL     1      43.462  58.111  45.610  1.00  0.00     0.000 C 
BRANCH  19  20
ATOM     20  C   UNL     1      43.843  57.184  44.438  1.00  0.00     0.000 C 
BRANCH  20  21
ATOM     21  C   UNL     1      45.278  57.354  43.904  1.00  0.00     0.000 C 
BRANCH  21  22
ATOM     22  C   UNL     1      46.021  56.018  43.739  1.00  0.00    -0.000 C 
BRANCH  22  23
ATOM     23  C   UNL     1      47.284  56.137  42.866  1.00  0.00    -0.000 C 
BRANCH  23  24
ATOM     24  C   UNL     1      47.621  54.891  42.020  1.00  0.00    -0.000 C 
BRANCH  24  25
ATOM     25  C   UNL     1      47.455  53.541  42.740  1.00  0.00    -0.000 C 
BRANCH  25  26
ATOM     26  C   UNL     1      48.786  52.799  42.946  1.00  0.00    -0.000 C 
BRANCH  26  27
ATOM     27  C   UNL     1      49.376  53.029  44.348  1.00  0.00    -0.000 C 
BRANCH  27  28
ATOM     28  C   UNL     1      49.010  54.411  44.919  1.00  0.00    -0.000 C 
BRANCH  28  29
ATOM     29  C   UNL     1      50.146  55.434  44.761  1.00  0.00    -0.003 C 
ATOM     30  C   UNL     1      50.476  55.737  43.300  1.00  0.00     0.004 C 
ENDBRANCH  28  29
ENDBRANCH  27  28
ENDBRANCH  26  27
ENDBRANCH  25  26
ENDBRANCH  24  25
ENDBRANCH  23  24
ENDBRANCH  22  23
ENDBRANCH  21  22
ENDBRANCH  20  21
ENDBRANCH  19  20
ENDBRANCH  18  19
ENDBRANCH  17  18
ENDBRANCH   1  17
TORSDOF 26
ENDMDL
