MODEL 1
REMARK VINA RESULT:    -0.051      0.000      0.000
REMARK INTER + INTRA:          -1.752
REMARK INTER:                  -0.134
REMARK INTRA:                  -1.618
REMARK UNBOUND:                -1.618
REMARK SMILES CCCCCCCCCCCCCCCCCCCCCCCCCCCCCC(=O)[O-]
REMARK SMILES IDX 16 1 17 2 18 3 19 4 20 5 21 6 22 7 23 8 24 9 25 10 26 11
REMARK SMILES IDX 27 12 28 13 29 14 30 15 31 16 32 17 15 18 14 19 13 20 12 21
REMARK SMILES IDX 11 22 10 23 9 24 8 25 7 26 6 27 5 28 4 29 3 30 2 31 1 32
REMARK H PARENT
REMARK Flexibility Score: inf
ROOT
ATOM      1  C   UNL     1      45.221  22.417  17.177  1.00  0.00     0.000 C 
ENDROOT
BRANCH   1   2
ATOM      2  C   UNL     1      46.529  23.122  16.786  1.00  0.00     0.000 C 
BRANCH   2   3
ATOM      3  C   UNL     1      47.747  22.185  16.822  1.00  0.00     0.000 C 
BRANCH   3   4
ATOM      4  C   UNL     1      47.535  20.903  15.997  1.00  0.00     0.000 C 
BRANCH   4   5
ATOM      5  C   UNL     1      48.858  20.251  15.555  1.00  0.00     0.000 C 
BRANCH   5   6
ATOM      6  C   UNL     1      49.797  21.162  14.736  1.00  0.00     0.000 C 
BRANCH   6   7
ATOM      7  C   UNL     1      51.196  20.578  14.458  1.00  0.00     0.000 C 
BRANCH   7   8
ATOM      8  C   UNL     1      52.270  20.929  15.508  1.00  0.00     0.000 C 
BRANCH   8   9
ATOM      9  C   UNL     1      52.882  22.334  15.362  1.00  0.00     0.000 C 
BRANCH   9  10
ATOM     10  C   UNL     1      52.881  23.121  16.681  1.00  0.00     0.000 C 
BRANCH  10  11
ATOM     11  C   UNL     1      51.626  22.804  17.510  1.00  0.00     0.000 C 
BRANCH  11  12
ATOM     12  C   UNL     1      51.847  23.004  19.018  1.00  0.00     0.000 C 
BRANCH  12  13
ATOM     13  C   UNL     1      50.814  22.245  19.869  1.00  0.00     0.006 C 
BRANCH  13  14
ATOM     14  C   UNL     1      50.768  22.754  21.316  1.00  0.00     0.053 C 
BRANCH  14  15
ATOM     15  C   UNL     1      49.742  22.029  22.131  1.00  0.00     0.041 C 
ATOM     16  O   UNL     1      49.033  22.655  22.963  1.00  0.00    -0.550 OA
ATOM     17  O   UNL     1      49.560  20.662  21.966  1.00  0.00    -0.550 OA
ENDBRANCH  14  15
ENDBRANCH  13  14
ENDBRANCH  12  13
ENDBRANCH  11  12
ENDBRANCH  10  11
ENDBRANCH   9  10
ENDBRANCH   8   9
ENDBRANCH   7   8
ENDBRANCH   6   7
ENDBRANCH   5   6
ENDBRANCH   4   5
ENDBRANCH   3   4
ENDBRANCH   2   3
ENDBRANCH   1   2
BRANCH   1  18
ATOM     18  C   UNL     1      44.403  22.049  15.930  1.00  0.00     0.000 C 
BRANCH  18  19
ATOM     19  C   UNL     1      43.367  23.124  15.564  1.00  0.00     0.000 C 
BRANCH  19  20
ATOM     20  C   UNL     1      41.941  22.745  15.993  1.00  0.00     0.000 C 
BRANCH  20  21
ATOM     21  C   UNL     1      40.896  23.013  14.896  1.00  0.00     0.000 C 
BRANCH  21  22
ATOM     22  C   UNL     1      39.538  22.327  15.157  1.00  0.00     0.000 C 
BRANCH  22  23
ATOM     23  C   UNL     1      38.359  23.123  14.575  1.00  0.00     0.000 C 
BRANCH  23  24
ATOM     24  C   UNL     1      37.529  22.258  13.616  1.00  0.00    -0.000 C 
BRANCH  24  25
ATOM     25  C   UNL     1      36.518  23.078  12.795  1.00  0.00    -0.000 C 
BRANCH  25  26
ATOM     26  C   UNL     1      35.447  22.248  12.057  1.00  0.00    -0.000 C 
BRANCH  26  27
ATOM     27  C   UNL     1      34.010  22.428  12.578  1.00  0.00    -0.000 C 
BRANCH  27  28
ATOM     28  C   UNL     1      33.278  21.093  12.784  1.00  0.00    -0.000 C 
BRANCH  28  29
ATOM     29  C   UNL     1      33.397  20.623  14.241  1.00  0.00    -0.000 C 
BRANCH  29  30
ATOM     30  C   UNL     1      34.745  19.948  14.538  1.00  0.00    -0.000 C 
BRANCH  30  31
ATOM     31  C   UNL     1      34.724  19.129  15.838  1.00  0.00    -0.003 C 
ATOM     32  C   UNL     1      33.436  18.319  15.955  1.00  0.00     0.004 C 
ENDBRANCH  30  31
ENDBRANCH  29  30
ENDBRANCH  28  29
ENDBRANCH  27  28
ENDBRANCH  26  27
ENDBRANCH  25  26
ENDBRANCH  24  25
ENDBRANCH  23  24
ENDBRANCH  22  23
ENDBRANCH  21  22
ENDBRANCH  20  21
ENDBRANCH  19  20
ENDBRANCH  18  19
ENDBRANCH   1  18
TORSDOF 28
ENDMDL
MODEL 2
REMARK VINA RESULT:     1.944      4.672     14.654
REMARK INTER + INTRA:           3.509
REMARK INTER:                   5.506
REMARK INTRA:                  -1.997
REMARK UNBOUND:                -1.618
REMARK SMILES CCCCCCCCCCCCCCCCCCCCCCCCCCCCCC(=O)[O-]
REMARK SMILES IDX 16 1 17 2 18 3 19 4 20 5 21 6 22 7 23 8 24 9 25 10 26 11
REMARK SMILES IDX 27 12 28 13 29 14 30 15 31 16 32 17 15 18 14 19 13 20 12 21
REMARK SMILES IDX 11 22 10 23 9 24 8 25 7 26 6 27 5 28 4 29 3 30 2 31 1 32
REMARK H PARENT
REMARK Flexibility Score: inf
ROOT
ATOM      1  C   UNL     1      45.478  22.345  16.077  1.00  0.00     0.000 C 
ENDROOT
BRANCH   1   2
ATOM      2  C   UNL     1      43.979  22.136  16.342  1.00  0.00     0.000 C 
BRANCH   2   3
ATOM      3  C   UNL     1      43.090  23.090  15.527  1.00  0.00     0.000 C 
BRANCH   3   4
ATOM      4  C   UNL     1      41.624  22.627  15.465  1.00  0.00     0.000 C 
BRANCH   4   5
ATOM      5  C   UNL     1      40.893  23.124  14.205  1.00  0.00     0.000 C 
BRANCH   5   6
ATOM      6  C   UNL     1      39.486  22.530  13.986  1.00  0.00     0.000 C 
BRANCH   6   7
ATOM      7  C   UNL     1      38.946  21.678  15.152  1.00  0.00     0.000 C 
BRANCH   7   8
ATOM      8  C   UNL     1      37.434  21.817  15.417  1.00  0.00     0.000 C 
BRANCH   8   9
ATOM      9  C   UNL     1      36.530  21.354  14.260  1.00  0.00     0.000 C 
BRANCH   9  10
ATOM     10  C   UNL     1      35.037  21.406  14.616  1.00  0.00     0.000 C 
BRANCH  10  11
ATOM     11  C   UNL     1      34.178  20.873  13.458  1.00  0.00     0.000 C 
BRANCH  11  12
ATOM     12  C   UNL     1      35.005  20.565  12.200  1.00  0.00     0.000 C 
BRANCH  12  13
ATOM     13  C   UNL     1      34.282  20.972  10.905  1.00  0.00     0.006 C 
BRANCH  13  14
ATOM     14  C   UNL     1      34.754  22.335  10.380  1.00  0.00     0.053 C 
BRANCH  14  15
ATOM     15  C   UNL     1      36.099  22.247   9.728  1.00  0.00     0.041 C 
ATOM     16  O   UNL     1      36.195  21.949   8.507  1.00  0.00    -0.550 OA
ATOM     17  O   UNL     1      37.249  22.503  10.464  1.00  0.00    -0.550 OA
ENDBRANCH  14  15
ENDBRANCH  13  14
ENDBRANCH  12  13
ENDBRANCH  11  12
ENDBRANCH  10  11
ENDBRANCH   9  10
ENDBRANCH   8   9
ENDBRANCH   7   8
ENDBRANCH   6   7
ENDBRANCH   5   6
ENDBRANCH   4   5
ENDBRANCH   3   4
ENDBRANCH   2   3
ENDBRANCH   1   2
BRANCH   1  18
ATOM     18  C   UNL     1      46.267  21.056  16.349  1.00  0.00     0.000 C 
BRANCH  18  19
ATOM     19  C   UNL     1      47.452  20.874  15.388  1.00  0.00     0.000 C 
BRANCH  19  20
ATOM     20  C   UNL     1      48.437  19.792  15.857  1.00  0.00     0.000 C 
BRANCH  20  21
ATOM     21  C   UNL     1      49.828  19.930  15.215  1.00  0.00     0.000 C 
BRANCH  21  22
ATOM     22  C   UNL     1      50.345  21.383  15.167  1.00  0.00     0.000 C 
BRANCH  22  23
ATOM     23  C   UNL     1      51.367  21.604  14.040  1.00  0.00     0.000 C 
BRANCH  23  24
ATOM     24  C   UNL     1      52.793  21.696  14.601  1.00  0.00    -0.000 C 
BRANCH  24  25
ATOM     25  C   UNL     1      53.103  23.070  15.223  1.00  0.00    -0.000 C 
BRANCH  25  26
ATOM     26  C   UNL     1      53.122  23.101  16.765  1.00  0.00    -0.000 C 
BRANCH  26  27
ATOM     27  C   UNL     1      52.902  21.740  17.448  1.00  0.00    -0.000 C 
BRANCH  27  28
ATOM     28  C   UNL     1      52.841  21.844  18.980  1.00  0.00    -0.000 C 
BRANCH  28  29
ATOM     29  C   UNL     1      51.767  22.850  19.418  1.00  0.00    -0.000 C 
BRANCH  29  30
ATOM     30  C   UNL     1      50.479  22.167  19.908  1.00  0.00    -0.000 C 
BRANCH  30  31
ATOM     31  C   UNL     1      49.251  23.083  19.812  1.00  0.00    -0.003 C 
ATOM     32  C   UNL     1      48.500  22.861  18.502  1.00  0.00     0.004 C 
ENDBRANCH  30  31
ENDBRANCH  29  30
ENDBRANCH  28  29
ENDBRANCH  27  28
ENDBRANCH  26  27
ENDBRANCH  25  26
ENDBRANCH  24  25
ENDBRANCH  23  24
ENDBRANCH  22  23
ENDBRANCH  21  22
ENDBRANCH  20  21
ENDBRANCH  19  20
ENDBRANCH  18  19
ENDBRANCH   1  18
TORSDOF 28
ENDMDL
