MODEL 1
REMARK VINA RESULT:    24.990      0.000      0.000
REMARK INTER + INTRA:          25.720
REMARK INTER:                  25.720
REMARK INTRA:                   0.000
REMARK UNBOUND:                 0.000
REMARK SMILES CC1(C)CC[C@]2(C)CC[C@@]3(C)C(=CC[C@H]4[C@@]5(C)CC[C@H](O)C(C)(C)[C@H]5CC[C@@]43C)[C@H]2C1
REMARK SMILES IDX 1 1 2 2 4 3 5 4 6 5 8 6 9 7 10 8 12 9 13 10 14 11 15 12
REMARK SMILES IDX 28 13 27 14 26 15 25 16 16 17 18 18 19 19 20 20 22 21 23 22
REMARK SMILES IDX 24 23 17 24 29 25 30 26 31 27 11 28 7 29 3 30 21 31
REMARK H PARENT 21 32
REMARK Flexibility Score: inf
ROOT
ATOM      1  C   UNL     1     136.110 129.495 146.868  1.00  0.00     0.011 C 
ATOM      2  C   UNL     1     136.857 128.220 146.422  1.00  0.00    -0.035 C 
ATOM      3  C   UNL     1     137.124 127.343 147.671  1.00  0.00     0.007 C 
ATOM      4  C   UNL     1     137.606 125.923 147.327  1.00  0.00     0.008 C 
ATOM      5  C   UNL     1     136.679 125.167 146.331  1.00  0.00    -0.026 C 
ATOM      6  C   UNL     1     137.361 123.801 145.957  1.00  0.00     0.008 C 
ATOM      7  C   UNL     1     137.447 123.491 144.441  1.00  0.00     0.012 C 
ATOM      8  C   UNL     1     136.142 123.835 143.628  1.00  0.00    -0.006 C 
ATOM      9  C   UNL     1     135.695 125.267 143.979  1.00  0.00    -0.064 C 
ATOM     10  C   UNL     1     134.760 125.886 143.213  1.00  0.00    -0.027 C 
ATOM     11  C   UNL     1     134.362 125.442 141.823  1.00  0.00     0.032 C 
ATOM     12  C   UNL     1     134.918 124.063 141.372  1.00  0.00     0.006 C 
ATOM     13  C   UNL     1     136.331 123.755 142.027  1.00  0.00    -0.020 C 
ATOM     14  C   UNL     1     136.857 122.351 141.561  1.00  0.00     0.008 C 
ATOM     15  C   UNL     1     135.888 121.532 140.699  1.00  0.00     0.005 C 
ATOM     16  C   UNL     1     135.282 122.277 139.477  1.00  0.00     0.003 C 
ATOM     17  C   UNL     1     134.697 123.719 139.827  1.00  0.00    -0.025 C 
ATOM     18  C   UNL     1     135.248 124.831 138.880  1.00  0.00     0.010 C 
ATOM     19  C   UNL     1     135.258 124.489 137.377  1.00  0.00     0.033 C 
ATOM     20  C   UNL     1     135.419 122.995 137.017  1.00  0.00     0.120 C 
ATOM     21  C   UNL     1     136.104 122.145 138.128  1.00  0.00    -0.006 C 
ATOM     22  C   UNL     1     137.589 122.563 138.253  1.00  0.00     0.014 C 
ATOM     23  C   UNL     1     136.111 120.665 137.641  1.00  0.00     0.014 C 
ATOM     24  C   UNL     1     133.149 123.688 139.586  1.00  0.00     0.012 C 
ATOM     25  C   UNL     1     137.391 124.819 141.577  1.00  0.00     0.012 C 
ATOM     26  C   UNL     1     136.485 126.038 145.055  1.00  0.00     0.022 C 
ATOM     27  C   UNL     1     135.969 127.465 145.392  1.00  0.00     0.015 C 
ATOM     28  C   UNL     1     135.037 122.837 144.119  1.00  0.00     0.017 C 
ATOM     29  C   UNL     1     135.313 124.883 147.023  1.00  0.00     0.012 C 
ATOM     30  C   UNL     1     138.195 128.660 145.778  1.00  0.00     0.011 C 
ENDROOT
BRANCH  20  31
ATOM     31  O   UNL     1     134.160 122.447 136.702  1.00  0.00    -0.393 OA
ATOM     32  H   UNL     1     134.067 122.474 135.713  1.00  0.00     0.210 HD
ENDBRANCH  20  31
TORSDOF 1
ENDMDL
MODEL 2
REMARK VINA RESULT:    25.429      2.633      8.070
REMARK INTER + INTRA:          26.172
REMARK INTER:                  26.172
REMARK INTRA:                   0.000
REMARK UNBOUND:                 0.000
REMARK SMILES CC1(C)CC[C@]2(C)CC[C@@]3(C)C(=CC[C@H]4[C@@]5(C)CC[C@H](O)C(C)(C)[C@H]5CC[C@@]43C)[C@H]2C1
REMARK SMILES IDX 1 1 2 2 4 3 5 4 6 5 8 6 9 7 10 8 12 9 13 10 14 11 15 12
REMARK SMILES IDX 28 13 27 14 26 15 25 16 16 17 18 18 19 19 20 20 22 21 23 22
REMARK SMILES IDX 24 23 17 24 29 25 30 26 31 27 11 28 7 29 3 30 21 31
REMARK H PARENT 21 32
REMARK Flexibility Score: inf
ROOT
ATOM      1  C   UNL     1     137.706 121.403 136.878  1.00  0.00     0.011 C 
ATOM      2  C   UNL     1     136.832 122.500 137.524  1.00  0.00    -0.035 C 
ATOM      3  C   UNL     1     135.361 122.278 137.089  1.00  0.00     0.007 C 
ATOM      4  C   UNL     1     134.356 123.128 137.885  1.00  0.00     0.008 C 
ATOM      5  C   UNL     1     134.486 122.975 139.429  1.00  0.00    -0.026 C 
ATOM      6  C   UNL     1     133.508 124.000 140.113  1.00  0.00     0.008 C 
ATOM      7  C   UNL     1     134.135 124.878 141.225  1.00  0.00     0.012 C 
ATOM      8  C   UNL     1     135.093 124.105 142.208  1.00  0.00    -0.006 C 
ATOM      9  C   UNL     1     136.098 123.279 141.383  1.00  0.00    -0.064 C 
ATOM     10  C   UNL     1     137.189 122.745 141.991  1.00  0.00    -0.027 C 
ATOM     11  C   UNL     1     137.712 123.176 143.343  1.00  0.00     0.032 C 
ATOM     12  C   UNL     1     136.789 124.133 144.148  1.00  0.00     0.006 C 
ATOM     13  C   UNL     1     135.935 125.069 143.191  1.00  0.00    -0.020 C 
ATOM     14  C   UNL     1     135.006 126.013 144.035  1.00  0.00     0.008 C 
ATOM     15  C   UNL     1     135.014 125.771 145.549  1.00  0.00     0.005 C 
ATOM     16  C   UNL     1     136.419 125.717 146.214  1.00  0.00     0.003 C 
ATOM     17  C   UNL     1     137.455 124.773 145.453  1.00  0.00    -0.025 C 
ATOM     18  C   UNL     1     138.804 125.495 145.146  1.00  0.00     0.010 C 
ATOM     19  C   UNL     1     139.409 126.309 146.307  1.00  0.00     0.033 C 
ATOM     20  C   UNL     1     138.406 126.907 147.319  1.00  0.00     0.120 C 
ATOM     21  C   UNL     1     136.971 127.104 146.746  1.00  0.00    -0.006 C 
ATOM     22  C   UNL     1     136.992 128.223 145.678  1.00  0.00     0.014 C 
ATOM     23  C   UNL     1     136.077 127.631 147.908  1.00  0.00     0.014 C 
ATOM     24  C   UNL     1     137.819 123.583 146.405  1.00  0.00     0.012 C 
ATOM     25  C   UNL     1     136.874 125.988 142.336  1.00  0.00     0.012 C 
ATOM     26  C   UNL     1     135.956 123.273 139.848  1.00  0.00     0.022 C 
ATOM     27  C   UNL     1     136.976 122.397 139.069  1.00  0.00     0.015 C 
ATOM     28  C   UNL     1     134.190 123.115 143.022  1.00  0.00     0.017 C 
ATOM     29  C   UNL     1     134.075 121.529 139.833  1.00  0.00     0.012 C 
ATOM     30  C   UNL     1     137.344 123.870 137.013  1.00  0.00     0.011 C 
ENDROOT
BRANCH  20  31
ATOM     31  O   UNL     1     138.356 126.098 148.470  1.00  0.00    -0.393 OA
ATOM     32  H   UNL     1     137.753 125.335 148.268  1.00  0.00     0.210 HD
ENDBRANCH  20  31
TORSDOF 1
ENDMDL
