MODEL 1
REMARK VINA RESULT:    -3.377      0.000      0.000
REMARK INTER + INTRA:          -5.240
REMARK INTER:                  -4.562
REMARK INTRA:                  -0.678
REMARK UNBOUND:                -0.678
REMARK SMILES C[C@H](O)[C@H](O)[C@@H](O)[C@H](O)C=O
REMARK SMILES IDX 4 1 2 2 1 3 3 4 6 6 8 7 10 8 11 9 9 10 7 12 5 14
REMARK H PARENT 3 5 9 11 7 13 5 15
REMARK Flexibility Score: inf
ROOT
ATOM      1  C   UNL     1      -5.339   8.114  -9.092  1.00  0.00     0.174 C 
ENDROOT
BRANCH   1   2
ATOM      2  C   UNL     1      -6.492   8.805  -8.298  1.00  0.00     0.142 C 
ATOM      3  C   UNL     1      -6.979  10.121  -8.930  1.00  0.00     0.041 C 
BRANCH   2   4
ATOM      4  O   UNL     1      -6.182   8.957  -6.934  1.00  0.00    -0.391 OA
ATOM      5  H   UNL     1      -5.337   9.470  -6.862  1.00  0.00     0.211 HD
ENDBRANCH   2   4
ENDBRANCH   1   2
BRANCH   1   6
ATOM      6  C   UNL     1      -3.998   8.909  -9.205  1.00  0.00     0.181 C 
BRANCH   6   7
ATOM      7  C   UNL     1      -2.828   8.103  -9.823  1.00  0.00     0.209 C 
BRANCH   7   8
ATOM      8  C   UNL     1      -1.648   8.993 -10.120  1.00  0.00     0.258 C 
ATOM      9  O   UNL     1      -0.956   9.439  -9.218  1.00  0.00    -0.300 OA
ENDBRANCH   7   8
BRANCH   7  10
ATOM     10  O   UNL     1      -2.437   7.065  -8.961  1.00  0.00    -0.383 OA
ATOM     11  H   UNL     1      -3.193   6.908  -8.338  1.00  0.00     0.211 HD
ENDBRANCH   7  10
ENDBRANCH   6   7
BRANCH   6  12
ATOM     12  O   UNL     1      -3.636   9.403  -7.937  1.00  0.00    -0.387 OA
ATOM     13  H   UNL     1      -4.000   8.777  -7.256  1.00  0.00     0.211 HD
ENDBRANCH   6  12
ENDBRANCH   1   6
BRANCH   1  14
ATOM     14  O   UNL     1      -5.080   6.856  -8.516  1.00  0.00    -0.388 OA
ATOM     15  H   UNL     1      -4.303   6.465  -8.994  1.00  0.00     0.211 HD
ENDBRANCH   1  14
TORSDOF 8
ENDMDL
MODEL 2
REMARK VINA RESULT:    -3.276      2.091      3.229
REMARK INTER + INTRA:          -5.103
REMARK INTER:                  -4.379
REMARK INTRA:                  -0.724
REMARK UNBOUND:                -0.678
REMARK SMILES C[C@H](O)[C@H](O)[C@@H](O)[C@H](O)C=O
REMARK SMILES IDX 4 1 2 2 1 3 3 4 6 6 8 7 10 8 11 9 9 10 7 12 5 14
REMARK H PARENT 3 5 9 11 7 13 5 15
REMARK Flexibility Score: inf
ROOT
ATOM      1  C   UNL     1      -8.346   8.236  -7.995  1.00  0.00     0.174 C 
ENDROOT
BRANCH   1   2
ATOM      2  C   UNL     1      -9.386   8.640  -6.904  1.00  0.00     0.142 C 
ATOM      3  C   UNL     1      -9.790  10.125  -6.950  1.00  0.00     0.041 C 
BRANCH   2   4
ATOM      4  O   UNL     1      -8.988   8.241  -5.615  1.00  0.00    -0.391 OA
ATOM      5  H   UNL     1      -9.688   7.644  -5.245  1.00  0.00     0.211 HD
ENDBRANCH   2   4
ENDBRANCH   1   2
BRANCH   1   6
ATOM      6  C   UNL     1      -6.992   9.015  -7.988  1.00  0.00     0.181 C 
BRANCH   6   7
ATOM      7  C   UNL     1      -5.952   8.498  -9.014  1.00  0.00     0.209 C 
BRANCH   7   8
ATOM      8  C   UNL     1      -4.821   9.480  -9.189  1.00  0.00     0.258 C 
ATOM      9  O   UNL     1      -4.198   9.896  -8.224  1.00  0.00    -0.300 OA
ENDBRANCH   7   8
BRANCH   7  10
ATOM     10  O   UNL     1      -5.444   7.251  -8.616  1.00  0.00    -0.383 OA
ATOM     11  H   UNL     1      -5.105   7.361  -7.689  1.00  0.00     0.211 HD
ENDBRANCH   7  10
ENDBRANCH   6   7
BRANCH   6  12
ATOM     12  O   UNL     1      -6.447   8.996  -6.689  1.00  0.00    -0.387 OA
ATOM     13  H   UNL     1      -6.958   9.647  -6.139  1.00  0.00     0.211 HD
ENDBRANCH   6  12
ENDBRANCH   1   6
BRANCH   1  14
ATOM     14  O   UNL     1      -8.085   6.857  -7.887  1.00  0.00    -0.388 OA
ATOM     15  H   UNL     1      -8.456   6.420  -8.698  1.00  0.00     0.211 HD
ENDBRANCH   1  14
TORSDOF 8
ENDMDL
MODEL 3
REMARK VINA RESULT:    -3.119     22.580     23.065
REMARK INTER + INTRA:          -4.891
REMARK INTER:                  -4.389
REMARK INTRA:                  -0.503
REMARK UNBOUND:                -0.678
REMARK SMILES C[C@H](O)[C@H](O)[C@@H](O)[C@H](O)C=O
REMARK SMILES IDX 4 1 2 2 1 3 3 4 6 6 8 7 10 8 11 9 9 10 7 12 5 14
REMARK H PARENT 3 5 9 11 7 13 5 15
REMARK Flexibility Score: inf
ROOT
ATOM      1  C   UNL     1       5.340  -0.627   9.175  1.00  0.00     0.174 C 
ENDROOT
BRANCH   1   2
ATOM      2  C   UNL     1       4.083  -1.139   9.945  1.00  0.00     0.142 C 
ATOM      3  C   UNL     1       3.564  -2.501   9.451  1.00  0.00     0.041 C 
BRANCH   2   4
ATOM      4  O   UNL     1       3.062  -0.172   9.999  1.00  0.00    -0.391 OA
ATOM      5  H   UNL     1       3.478   0.709  10.182  1.00  0.00     0.211 HD
ENDBRANCH   2   4
ENDBRANCH   1   2
BRANCH   1   6
ATOM      6  C   UNL     1       6.716  -1.227   9.612  1.00  0.00     0.181 C 
BRANCH   6   7
ATOM      7  C   UNL     1       7.909  -0.247   9.487  1.00  0.00     0.209 C 
BRANCH   7   8
ATOM      8  C   UNL     1       9.217  -0.936   9.783  1.00  0.00     0.258 C 
ATOM      9  O   UNL     1       9.817  -1.543   8.910  1.00  0.00    -0.300 OA
ENDBRANCH   7   8
BRANCH   7  10
ATOM     10  O   UNL     1       7.949   0.320   8.203  1.00  0.00    -0.383 OA
ATOM     11  H   UNL     1       7.077   0.773   8.061  1.00  0.00     0.211 HD
ENDBRANCH   7  10
ENDBRANCH   6   7
BRANCH   6  12
ATOM     12  O   UNL     1       6.970  -2.402   8.876  1.00  0.00    -0.387 OA
ATOM     13  H   UNL     1       7.110  -2.139   7.929  1.00  0.00     0.211 HD
ENDBRANCH   6  12
ENDBRANCH   1   6
BRANCH   1  14
ATOM     14  O   UNL     1       5.155  -0.853   7.798  1.00  0.00    -0.388 OA
ATOM     15  H   UNL     1       4.572  -0.127   7.454  1.00  0.00     0.211 HD
ENDBRANCH   1  14
TORSDOF 8
ENDMDL
MODEL 4
REMARK VINA RESULT:    -3.101     23.518     24.207
REMARK INTER + INTRA:          -4.867
REMARK INTER:                  -4.110
REMARK INTRA:                  -0.757
REMARK UNBOUND:                -0.678
REMARK SMILES C[C@H](O)[C@H](O)[C@@H](O)[C@H](O)C=O
REMARK SMILES IDX 4 1 2 2 1 3 3 4 6 6 8 7 10 8 11 9 9 10 7 12 5 14
REMARK H PARENT 3 5 9 11 7 13 5 15
REMARK Flexibility Score: inf
ROOT
ATOM      1  C   UNL     1       6.898  -2.585   9.376  1.00  0.00     0.174 C 
ENDROOT
BRANCH   1   2
ATOM      2  C   UNL     1       5.532  -2.196   8.728  1.00  0.00     0.142 C 
ATOM      3  C   UNL     1       5.305  -0.677   8.624  1.00  0.00     0.041 C 
BRANCH   2   4
ATOM      4  O   UNL     1       4.448  -2.852   9.339  1.00  0.00    -0.391 OA
ATOM      5  H   UNL     1       4.808  -3.555   9.938  1.00  0.00     0.211 HD
ENDBRANCH   2   4
ENDBRANCH   1   2
BRANCH   1   6
ATOM      6  C   UNL     1       7.413  -4.034   9.095  1.00  0.00     0.181 C 
BRANCH   6   7
ATOM      7  C   UNL     1       8.826  -4.099   8.463  1.00  0.00     0.209 C 
BRANCH   7   8
ATOM      8  C   UNL     1       9.414  -5.482   8.578  1.00  0.00     0.258 C 
ATOM      9  O   UNL     1       8.856  -6.444   8.073  1.00  0.00    -0.300 OA
ENDBRANCH   7   8
BRANCH   7  10
ATOM     10  O   UNL     1       8.781  -3.710   7.114  1.00  0.00    -0.383 OA
ATOM     11  H   UNL     1       9.301  -2.867   7.040  1.00  0.00     0.211 HD
ENDBRANCH   7  10
ENDBRANCH   6   7
BRANCH   6  12
ATOM     12  O   UNL     1       6.484  -4.713   8.283  1.00  0.00    -0.387 OA
ATOM     13  H   UNL     1       5.724  -4.096   8.115  1.00  0.00     0.211 HD
ENDBRANCH   6  12
ENDBRANCH   1   6
BRANCH   1  14
ATOM     14  O   UNL     1       7.877  -1.661   8.965  1.00  0.00    -0.388 OA
ATOM     15  H   UNL     1       8.720  -2.166   8.820  1.00  0.00     0.211 HD
ENDBRANCH   1  14
TORSDOF 8
ENDMDL
MODEL 5
REMARK VINA RESULT:    -2.959     21.426     22.597
REMARK INTER + INTRA:          -4.675
REMARK INTER:                  -4.082
REMARK INTRA:                  -0.593
REMARK UNBOUND:                -0.678
REMARK SMILES C[C@H](O)[C@H](O)[C@@H](O)[C@H](O)C=O
REMARK SMILES IDX 4 1 2 2 1 3 3 4 6 6 8 7 10 8 11 9 9 10 7 12 5 14
REMARK H PARENT 3 5 9 11 7 13 5 15
REMARK Flexibility Score: inf
ROOT
ATOM      1  C   UNL     1      -5.860  -8.928   4.647  1.00  0.00     0.174 C 
ENDROOT
BRANCH   1   2
ATOM      2  C   UNL     1      -4.818  -9.721   5.496  1.00  0.00     0.142 C 
ATOM      3  C   UNL     1      -5.103  -9.701   7.008  1.00  0.00     0.041 C 
BRANCH   2   4
ATOM      4  O   UNL     1      -3.494  -9.343   5.203  1.00  0.00    -0.391 OA
ATOM      5  H   UNL     1      -3.005  -9.237   6.058  1.00  0.00     0.211 HD
ENDBRANCH   2   4
ENDBRANCH   1   2
BRANCH   1   6
ATOM      6  C   UNL     1      -6.984  -9.770   3.961  1.00  0.00     0.181 C 
BRANCH   6   7
ATOM      7  C   UNL     1      -7.626  -9.092   2.725  1.00  0.00     0.209 C 
BRANCH   7   8
ATOM      8  C   UNL     1      -9.128  -9.044   2.845  1.00  0.00     0.258 C 
ATOM      9  O   UNL     1      -9.675  -8.191   3.526  1.00  0.00    -0.300 OA
ENDBRANCH   7   8
BRANCH   7  10
ATOM     10  O   UNL     1      -7.120  -7.793   2.557  1.00  0.00    -0.383 OA
ATOM     11  H   UNL     1      -6.634  -7.563   3.392  1.00  0.00     0.211 HD
ENDBRANCH   7  10
ENDBRANCH   6   7
BRANCH   6  12
ATOM     12  O   UNL     1      -7.973 -10.093   4.910  1.00  0.00    -0.387 OA
ATOM     13  H   UNL     1      -7.533 -10.598   5.644  1.00  0.00     0.211 HD
ENDBRANCH   6  12
ENDBRANCH   1   6
BRANCH   1  14
ATOM     14  O   UNL     1      -6.452  -7.942   5.457  1.00  0.00    -0.388 OA
ATOM     15  H   UNL     1      -6.778  -8.391   6.281  1.00  0.00     0.211 HD
ENDBRANCH   1  14
TORSDOF 8
ENDMDL
MODEL 6
REMARK VINA RESULT:    -2.955     22.440     23.002
REMARK INTER + INTRA:          -4.669
REMARK INTER:                  -3.946
REMARK INTRA:                  -0.724
REMARK UNBOUND:                -0.678
REMARK SMILES C[C@H](O)[C@H](O)[C@@H](O)[C@H](O)C=O
REMARK SMILES IDX 4 1 2 2 1 3 3 4 6 6 8 7 10 8 11 9 9 10 7 12 5 14
REMARK H PARENT 3 5 9 11 7 13 5 15
REMARK Flexibility Score: inf
ROOT
ATOM      1  C   UNL     1      -3.206  -6.440   8.691  1.00  0.00     0.174 C 
ENDROOT
BRANCH   1   2
ATOM      2  C   UNL     1      -3.938  -7.399   7.702  1.00  0.00     0.142 C 
ATOM      3  C   UNL     1      -5.418  -7.042   7.470  1.00  0.00     0.041 C 
BRANCH   2   4
ATOM      4  O   UNL     1      -3.769  -8.753   8.049  1.00  0.00    -0.391 OA
ATOM      5  H   UNL     1      -3.385  -9.228   7.269  1.00  0.00     0.211 HD
ENDBRANCH   2   4
ENDBRANCH   1   2
BRANCH   1   6
ATOM      6  C   UNL     1      -1.647  -6.547   8.738  1.00  0.00     0.181 C 
BRANCH   6   7
ATOM      7  C   UNL     1      -0.919  -5.192   8.925  1.00  0.00     0.209 C 
BRANCH   7   8
ATOM      8  C   UNL     1       0.482  -5.391   9.444  1.00  0.00     0.258 C 
ATOM      9  O   UNL     1       1.119  -6.394   9.162  1.00  0.00    -0.300 OA
ENDBRANCH   7   8
BRANCH   7  10
ATOM     10  O   UNL     1      -0.883  -4.482   7.714  1.00  0.00    -0.383 OA
ATOM     11  H   UNL     1      -0.529  -3.577   7.921  1.00  0.00     0.211 HD
ENDBRANCH   7  10
ENDBRANCH   6   7
BRANCH   6  12
ATOM     12  O   UNL     1      -1.186  -7.194   7.575  1.00  0.00    -0.387 OA
ATOM     13  H   UNL     1      -1.975  -7.585   7.116  1.00  0.00     0.211 HD
ENDBRANCH   6  12
ENDBRANCH   1   6
BRANCH   1  14
ATOM     14  O   UNL     1      -3.567  -5.113   8.391  1.00  0.00    -0.388 OA
ATOM     15  H   UNL     1      -4.134  -4.784   9.137  1.00  0.00     0.211 HD
ENDBRANCH   1  14
TORSDOF 8
ENDMDL
MODEL 7
REMARK VINA RESULT:    -2.950     22.464     22.929
REMARK INTER + INTRA:          -4.663
REMARK INTER:                  -4.166
REMARK INTRA:                  -0.497
REMARK UNBOUND:                -0.678
REMARK SMILES C[C@H](O)[C@H](O)[C@@H](O)[C@H](O)C=O
REMARK SMILES IDX 4 1 2 2 1 3 3 4 6 6 8 7 10 8 11 9 9 10 7 12 5 14
REMARK H PARENT 3 5 9 11 7 13 5 15
REMARK Flexibility Score: inf
ROOT
ATOM      1  C   UNL     1      -1.957  -6.292   8.417  1.00  0.00     0.174 C 
ENDROOT
BRANCH   1   2
ATOM      2  C   UNL     1      -3.321  -5.736   8.933  1.00  0.00     0.142 C 
ATOM      3  C   UNL     1      -4.544  -6.523   8.429  1.00  0.00     0.041 C 
BRANCH   2   4
ATOM      4  O   UNL     1      -3.452  -4.353   8.705  1.00  0.00    -0.391 OA
ATOM      5  H   UNL     1      -3.576  -3.905   9.581  1.00  0.00     0.211 HD
ENDBRANCH   2   4
ENDBRANCH   1   2
BRANCH   1   6
ATOM      6  C   UNL     1      -0.750  -5.300   8.434  1.00  0.00     0.181 C 
BRANCH   6   7
ATOM      7  C   UNL     1      -0.384  -4.762   9.841  1.00  0.00     0.209 C 
BRANCH   7   8
ATOM      8  C   UNL     1       1.094  -4.894  10.109  1.00  0.00     0.258 C 
ATOM      9  O   UNL     1       1.710  -5.886   9.751  1.00  0.00    -0.300 OA
ENDBRANCH   7   8
BRANCH   7  10
ATOM     10  O   UNL     1      -0.775  -3.420   9.972  1.00  0.00    -0.383 OA
ATOM     11  H   UNL     1      -1.350  -3.365  10.779  1.00  0.00     0.211 HD
ENDBRANCH   7  10
ENDBRANCH   6   7
BRANCH   6  12
ATOM     12  O   UNL     1      -1.009  -4.230   7.555  1.00  0.00    -0.387 OA
ATOM     13  H   UNL     1      -1.378  -3.481   8.093  1.00  0.00     0.211 HD
ENDBRANCH   6  12
ENDBRANCH   1   6
BRANCH   1  14
ATOM     14  O   UNL     1      -1.621  -7.438   9.162  1.00  0.00    -0.388 OA
ATOM     15  H   UNL     1      -2.201  -8.179   8.843  1.00  0.00     0.211 HD
ENDBRANCH   1  14
TORSDOF 8
ENDMDL
MODEL 8
REMARK VINA RESULT:    -2.907     22.930     23.408
REMARK INTER + INTRA:          -4.606
REMARK INTER:                  -4.238
REMARK INTRA:                  -0.368
REMARK UNBOUND:                -0.678
REMARK SMILES C[C@H](O)[C@H](O)[C@@H](O)[C@H](O)C=O
REMARK SMILES IDX 4 1 2 2 1 3 3 4 6 6 8 7 10 8 11 9 9 10 7 12 5 14
REMARK H PARENT 3 5 9 11 7 13 5 15
REMARK Flexibility Score: inf
ROOT
ATOM      1  C   UNL     1      -0.588  -5.032   8.943  1.00  0.00     0.174 C 
ENDROOT
BRANCH   1   2
ATOM      2  C   UNL     1      -1.428  -4.212   9.972  1.00  0.00     0.142 C 
ATOM      3  C   UNL     1      -2.944  -4.247   9.705  1.00  0.00     0.041 C 
BRANCH   2   4
ATOM      4  O   UNL     1      -0.948  -2.898  10.124  1.00  0.00    -0.391 OA
ATOM      5  H   UNL     1      -1.706  -2.273   9.988  1.00  0.00     0.211 HD
ENDBRANCH   2   4
ENDBRANCH   1   2
BRANCH   1   6
ATOM      6  C   UNL     1      -0.734  -6.586   9.007  1.00  0.00     0.181 C 
BRANCH   6   7
ATOM      7  C   UNL     1       0.509  -7.323   9.566  1.00  0.00     0.209 C 
BRANCH   7   8
ATOM      8  C   UNL     1       1.026  -8.346   8.587  1.00  0.00     0.258 C 
ATOM      9  O   UNL     1       1.788  -8.025   7.689  1.00  0.00    -0.300 OA
ENDBRANCH   7   8
BRANCH   7  10
ATOM     10  O   UNL     1       1.526  -6.405   9.878  1.00  0.00    -0.383 OA
ATOM     11  H   UNL     1       2.366  -6.764   9.491  1.00  0.00     0.211 HD
ENDBRANCH   7  10
ENDBRANCH   6   7
BRANCH   6  12
ATOM     12  O   UNL     1      -1.060  -7.080   7.728  1.00  0.00    -0.387 OA
ATOM     13  H   UNL     1      -0.302  -7.644   7.421  1.00  0.00     0.211 HD
ENDBRANCH   6  12
ENDBRANCH   1   6
BRANCH   1  14
ATOM     14  O   UNL     1      -0.903  -4.592   7.644  1.00  0.00    -0.388 OA
ATOM     15  H   UNL     1      -0.212  -3.930   7.378  1.00  0.00     0.211 HD
ENDBRANCH   1  14
TORSDOF 8
ENDMDL
