MODEL 1
REMARK VINA RESULT:    -7.765      0.000      0.000
REMARK INTER + INTRA:          -9.442
REMARK INTER:                  -9.127
REMARK INTRA:                  -0.315
REMARK UNBOUND:                -0.315
REMARK SMILES O=c1cc(-c2ccc(O)c(O)c2)oc2cc(O)cc(O)c12
REMARK SMILES IDX 4 1 3 2 2 3 1 4 21 5 19 6 18 7 16 8 15 9 14 10 13 11 5 12
REMARK SMILES IDX 6 13 7 14 8 15 12 16 10 17 9 18 11 20 20 22 17 24
REMARK H PARENT 9 19 11 21 20 23 17 25
REMARK Flexibility Score: inf
ROOT
ATOM      1  C   UNL     1     -23.276  61.096  32.362  1.00  0.00     0.138 A 
ATOM      2  C   UNL     1     -22.034  61.217  33.001  1.00  0.00     0.100 A 
ATOM      3  C   UNL     1     -20.882  61.419  32.238  1.00  0.00     0.197 A 
ATOM      4  O   UNL     1     -19.792  61.586  32.842  1.00  0.00    -0.289 OA
ATOM      5  C   UNL     1     -20.973  61.468  30.826  1.00  0.00     0.107 A 
ATOM      6  C   UNL     1     -19.862  61.628  29.945  1.00  0.00     0.134 A 
ATOM      7  C   UNL     1     -20.087  61.779  28.571  1.00  0.00     0.093 A 
ATOM      8  C   UNL     1     -21.378  61.715  28.041  1.00  0.00     0.123 A 
ATOM      9  C   UNL     1     -22.464  61.505  28.887  1.00  0.00     0.094 A 
ATOM     10  C   UNL     1     -22.277  61.386  30.266  1.00  0.00     0.146 A 
ATOM     11  O   UNL     1     -23.341  61.200  31.039  1.00  0.00    -0.456 OA
ENDROOT
BRANCH   1  12
ATOM     12  C   UNL     1     -24.532  60.879  33.125  1.00  0.00     0.021 A 
ATOM     13  C   UNL     1     -24.590  61.058  34.521  1.00  0.00     0.016 A 
ATOM     14  C   UNL     1     -25.783  60.836  35.214  1.00  0.00     0.051 A 
ATOM     15  C   UNL     1     -26.933  60.427  34.528  1.00  0.00     0.157 A 
ATOM     16  C   UNL     1     -25.689  60.454  32.447  1.00  0.00     0.062 A 
ATOM     17  C   UNL     1     -26.885  60.233  33.143  1.00  0.00     0.158 A 
BRANCH  15  18
ATOM     18  O   UNL     1     -28.124  60.207  35.218  1.00  0.00    -0.504 OA
ATOM     19  H   UNL     1     -28.130  59.893  36.182  1.00  0.00     0.293 HD
ENDBRANCH  15  18
BRANCH  17  20
ATOM     20  O   UNL     1     -28.032  59.821  32.465  1.00  0.00    -0.504 OA
ATOM     21  H   UNL     1     -28.859  59.512  32.961  1.00  0.00     0.293 HD
ENDBRANCH  17  20
ENDBRANCH   1  12
BRANCH   6  22
ATOM     22  O   UNL     1     -18.528  61.621  30.362  1.00  0.00    -0.507 OA
ATOM     23  H   UNL     1     -17.910  62.417  30.334  1.00  0.00     0.293 HD
ENDBRANCH   6  22
BRANCH   8  24
ATOM     24  O   UNL     1     -21.591  61.852  26.670  1.00  0.00    -0.508 OA
ATOM     25  H   UNL     1     -22.271  62.506  26.303  1.00  0.00     0.293 HD
ENDBRANCH   8  24
TORSDOF 5
ENDMDL
MODEL 2
REMARK VINA RESULT:    -7.089      1.213      3.099
REMARK INTER + INTRA:          -8.648
REMARK INTER:                  -8.330
REMARK INTRA:                  -0.318
REMARK UNBOUND:                -0.315
REMARK SMILES O=c1cc(-c2ccc(O)c(O)c2)oc2cc(O)cc(O)c12
REMARK SMILES IDX 4 1 3 2 2 3 1 4 21 5 19 6 18 7 16 8 15 9 14 10 13 11 5 12
REMARK SMILES IDX 6 13 7 14 8 15 12 16 10 17 9 18 11 20 20 22 17 24
REMARK H PARENT 9 19 11 21 20 23 17 25
REMARK Flexibility Score: inf
ROOT
ATOM      1  C   UNL     1     -24.297  61.167  31.227  1.00  0.00     0.138 A 
ATOM      2  C   UNL     1     -24.669  61.256  29.878  1.00  0.00     0.100 A 
ATOM      3  C   UNL     1     -23.685  61.403  28.898  1.00  0.00     0.197 A 
ATOM      4  O   UNL     1     -24.044  61.417  27.693  1.00  0.00    -0.289 OA
ATOM      5  C   UNL     1     -22.324  61.494  29.277  1.00  0.00     0.107 A 
ATOM      6  C   UNL     1     -21.239  61.686  28.370  1.00  0.00     0.134 A 
ATOM      7  C   UNL     1     -19.924  61.643  28.848  1.00  0.00     0.093 A 
ATOM      8  C   UNL     1     -19.657  61.477  30.210  1.00  0.00     0.123 A 
ATOM      9  C   UNL     1     -20.710  61.342  31.110  1.00  0.00     0.094 A 
ATOM     10  C   UNL     1     -22.033  61.345  30.660  1.00  0.00     0.146 A 
ATOM     11  O   UNL     1     -23.009  61.201  31.550  1.00  0.00    -0.456 OA
ENDROOT
BRANCH   1  12
ATOM     12  C   UNL     1     -25.302  61.011  32.308  1.00  0.00     0.021 A 
ATOM     13  C   UNL     1     -26.672  60.843  32.027  1.00  0.00     0.016 A 
ATOM     14  C   UNL     1     -27.597  60.709  33.065  1.00  0.00     0.051 A 
ATOM     15  C   UNL     1     -27.173  60.748  34.399  1.00  0.00     0.157 A 
ATOM     16  C   UNL     1     -24.887  61.062  33.651  1.00  0.00     0.062 A 
ATOM     17  C   UNL     1     -25.816  60.927  34.693  1.00  0.00     0.158 A 
BRANCH  15  18
ATOM     18  O   UNL     1     -28.094  60.613  35.437  1.00  0.00    -0.504 OA
ATOM     19  H   UNL     1     -29.088  60.534  35.257  1.00  0.00     0.293 HD
ENDBRANCH  15  18
BRANCH  17  20
ATOM     20  O   UNL     1     -25.397  60.969  36.022  1.00  0.00    -0.504 OA
ATOM     21  H   UNL     1     -25.251  61.848  36.504  1.00  0.00     0.293 HD
ENDBRANCH  17  20
ENDBRANCH   1  12
BRANCH   6  22
ATOM     22  O   UNL     1     -21.399  61.944  27.005  1.00  0.00    -0.507 OA
ATOM     23  H   UNL     1     -20.726  61.711  26.291  1.00  0.00     0.293 HD
ENDBRANCH   6  22
BRANCH   8  24
ATOM     24  O   UNL     1     -18.345  61.450  30.678  1.00  0.00    -0.508 OA
ATOM     25  H   UNL     1     -17.580  61.831  30.133  1.00  0.00     0.293 HD
ENDBRANCH   8  24
TORSDOF 5
ENDMDL
MODEL 3
REMARK VINA RESULT:    -6.950      3.256      7.246
REMARK INTER + INTRA:          -8.484
REMARK INTER:                  -8.221
REMARK INTRA:                  -0.263
REMARK UNBOUND:                -0.315
REMARK SMILES O=c1cc(-c2ccc(O)c(O)c2)oc2cc(O)cc(O)c12
REMARK SMILES IDX 4 1 3 2 2 3 1 4 21 5 19 6 18 7 16 8 15 9 14 10 13 11 5 12
REMARK SMILES IDX 6 13 7 14 8 15 12 16 10 17 9 18 11 20 20 22 17 24
REMARK H PARENT 9 19 11 21 20 23 17 25
REMARK Flexibility Score: inf
ROOT
ATOM      1  C   UNL     1     -23.048  60.092  34.145  1.00  0.00     0.138 A 
ATOM      2  C   UNL     1     -23.516  59.496  32.966  1.00  0.00     0.100 A 
ATOM      3  C   UNL     1     -24.869  59.591  32.635  1.00  0.00     0.197 A 
ATOM      4  O   UNL     1     -25.248  59.100  31.540  1.00  0.00    -0.289 OA
ATOM      5  C   UNL     1     -25.762  60.259  33.507  1.00  0.00     0.107 A 
ATOM      6  C   UNL     1     -27.167  60.382  33.292  1.00  0.00     0.134 A 
ATOM      7  C   UNL     1     -27.932  61.167  34.165  1.00  0.00     0.093 A 
ATOM      8  C   UNL     1     -27.352  61.782  35.277  1.00  0.00     0.123 A 
ATOM      9  C   UNL     1     -25.991  61.623  35.525  1.00  0.00     0.094 A 
ATOM     10  C   UNL     1     -25.194  60.876  34.654  1.00  0.00     0.146 A 
ATOM     11  O   UNL     1     -23.897  60.760  34.919  1.00  0.00    -0.456 OA
ENDROOT
BRANCH   1  12
ATOM     12  C   UNL     1     -21.620  60.021  34.546  1.00  0.00     0.021 A 
ATOM     13  C   UNL     1     -21.129  58.973  35.351  1.00  0.00     0.016 A 
ATOM     14  C   UNL     1     -19.782  58.938  35.721  1.00  0.00     0.051 A 
ATOM     15  C   UNL     1     -18.906  59.947  35.302  1.00  0.00     0.157 A 
ATOM     16  C   UNL     1     -20.736  61.037  34.142  1.00  0.00     0.062 A 
ATOM     17  C   UNL     1     -19.384  60.999  34.514  1.00  0.00     0.158 A 
BRANCH  15  18
ATOM     18  O   UNL     1     -17.562  59.911  35.669  1.00  0.00    -0.504 OA
ATOM     19  H   UNL     1     -16.827  59.803  34.980  1.00  0.00     0.293 HD
ENDBRANCH  15  18
BRANCH  17  20
ATOM     20  O   UNL     1     -18.510  62.004  34.101  1.00  0.00    -0.504 OA
ATOM     21  H   UNL     1     -18.785  62.695  33.412  1.00  0.00     0.293 HD
ENDBRANCH  17  20
ENDBRANCH   1  12
BRANCH   6  22
ATOM     22  O   UNL     1     -27.859  59.741  32.261  1.00  0.00    -0.507 OA
ATOM     23  H   UNL     1     -28.380  60.210  31.536  1.00  0.00     0.293 HD
ENDBRANCH   6  22
BRANCH   8  24
ATOM     24  O   UNL     1     -28.124  62.549  36.148  1.00  0.00    -0.508 OA
ATOM     25  H   UNL     1     -28.121  62.380  37.147  1.00  0.00     0.293 HD
ENDBRANCH   8  24
TORSDOF 5
ENDMDL
MODEL 4
REMARK VINA RESULT:    -6.863     16.978     19.344
REMARK INTER + INTRA:          -8.382
REMARK INTER:                  -8.076
REMARK INTRA:                  -0.305
REMARK UNBOUND:                -0.315
REMARK SMILES O=c1cc(-c2ccc(O)c(O)c2)oc2cc(O)cc(O)c12
REMARK SMILES IDX 4 1 3 2 2 3 1 4 21 5 19 6 18 7 16 8 15 9 14 10 13 11 5 12
REMARK SMILES IDX 6 13 7 14 8 15 12 16 10 17 9 18 11 20 20 22 17 24
REMARK H PARENT 9 19 11 21 20 23 17 25
REMARK Flexibility Score: inf
ROOT
ATOM      1  C   UNL     1     -14.651  45.826  25.057  1.00  0.00     0.138 A 
ATOM      2  C   UNL     1     -15.442  45.099  25.957  1.00  0.00     0.100 A 
ATOM      3  C   UNL     1     -16.014  45.748  27.053  1.00  0.00     0.197 A 
ATOM      4  O   UNL     1     -16.769  45.084  27.809  1.00  0.00    -0.289 OA
ATOM      5  C   UNL     1     -15.764  47.125  27.264  1.00  0.00     0.107 A 
ATOM      6  C   UNL     1     -16.259  47.881  28.368  1.00  0.00     0.134 A 
ATOM      7  C   UNL     1     -16.044  49.264  28.411  1.00  0.00     0.093 A 
ATOM      8  C   UNL     1     -15.298  49.908  27.419  1.00  0.00     0.123 A 
ATOM      9  C   UNL     1     -14.765  49.170  26.366  1.00  0.00     0.094 A 
ATOM     10  C   UNL     1     -14.992  47.794  26.277  1.00  0.00     0.146 A 
ATOM     11  O   UNL     1     -14.476  47.129  25.248  1.00  0.00    -0.456 OA
ENDROOT
BRANCH   1  12
ATOM     12  C   UNL     1     -14.018  45.186  23.876  1.00  0.00     0.021 A 
ATOM     13  C   UNL     1     -14.598  44.071  23.239  1.00  0.00     0.016 A 
ATOM     14  C   UNL     1     -13.974  43.483  22.136  1.00  0.00     0.051 A 
ATOM     15  C   UNL     1     -12.761  43.991  21.654  1.00  0.00     0.157 A 
ATOM     16  C   UNL     1     -12.793  45.681  23.393  1.00  0.00     0.062 A 
ATOM     17  C   UNL     1     -12.168  45.090  22.286  1.00  0.00     0.158 A 
BRANCH  15  18
ATOM     18  O   UNL     1     -12.139  43.407  20.552  1.00  0.00    -0.504 OA
ATOM     19  H   UNL     1     -11.191  43.649  20.288  1.00  0.00     0.293 HD
ENDBRANCH  15  18
BRANCH  17  20
ATOM     20  O   UNL     1     -10.959  45.592  21.806  1.00  0.00    -0.504 OA
ATOM     21  H   UNL     1     -10.881  46.538  21.452  1.00  0.00     0.293 HD
ENDBRANCH  17  20
ENDBRANCH   1  12
BRANCH   6  22
ATOM     22  O   UNL     1     -16.943  47.323  29.453  1.00  0.00    -0.507 OA
ATOM     23  H   UNL     1     -16.773  46.403  29.830  1.00  0.00     0.293 HD
ENDBRANCH   6  22
BRANCH   8  24
ATOM     24  O   UNL     1     -15.077  51.282  27.477  1.00  0.00    -0.508 OA
ATOM     25  H   UNL     1     -14.147  51.664  27.604  1.00  0.00     0.293 HD
ENDBRANCH   8  24
TORSDOF 5
ENDMDL
MODEL 5
REMARK VINA RESULT:    -6.795     17.778     19.977
REMARK INTER + INTRA:          -8.301
REMARK INTER:                  -8.019
REMARK INTRA:                  -0.282
REMARK UNBOUND:                -0.315
REMARK SMILES O=c1cc(-c2ccc(O)c(O)c2)oc2cc(O)cc(O)c12
REMARK SMILES IDX 4 1 3 2 2 3 1 4 21 5 19 6 18 7 16 8 15 9 14 10 13 11 5 12
REMARK SMILES IDX 6 13 7 14 8 15 12 16 10 17 9 18 11 20 20 22 17 24
REMARK H PARENT 9 19 11 21 20 23 17 25
REMARK Flexibility Score: inf
ROOT
ATOM      1  C   UNL     1     -15.022  45.411  25.359  1.00  0.00     0.138 A 
ATOM      2  C   UNL     1     -14.995  46.732  25.829  1.00  0.00     0.100 A 
ATOM      3  C   UNL     1     -15.703  47.067  26.985  1.00  0.00     0.197 A 
ATOM      4  O   UNL     1     -15.610  48.245  27.417  1.00  0.00    -0.289 OA
ATOM      5  C   UNL     1     -16.467  46.080  27.653  1.00  0.00     0.107 A 
ATOM      6  C   UNL     1     -17.259  46.316  28.816  1.00  0.00     0.134 A 
ATOM      7  C   UNL     1     -17.879  45.237  29.459  1.00  0.00     0.093 A 
ATOM      8  C   UNL     1     -17.783  43.941  28.946  1.00  0.00     0.123 A 
ATOM      9  C   UNL     1     -17.055  43.709  27.782  1.00  0.00     0.094 A 
ATOM     10  C   UNL     1     -16.397  44.759  27.136  1.00  0.00     0.146 A 
ATOM     11  O   UNL     1     -15.702  44.493  26.035  1.00  0.00    -0.456 OA
ENDROOT
BRANCH   1  12
ATOM     12  C   UNL     1     -14.289  45.001  24.134  1.00  0.00     0.021 A 
ATOM     13  C   UNL     1     -14.779  43.991  23.282  1.00  0.00     0.016 A 
ATOM     14  C   UNL     1     -14.062  43.618  22.142  1.00  0.00     0.051 A 
ATOM     15  C   UNL     1     -12.845  44.240  21.837  1.00  0.00     0.157 A 
ATOM     16  C   UNL     1     -13.059  45.610  23.827  1.00  0.00     0.062 A 
ATOM     17  C   UNL     1     -12.341  45.235  22.682  1.00  0.00     0.158 A 
BRANCH  15  18
ATOM     18  O   UNL     1     -12.130  43.870  20.699  1.00  0.00    -0.504 OA
ATOM     19  H   UNL     1     -12.376  43.046  20.162  1.00  0.00     0.293 HD
ENDBRANCH  15  18
BRANCH  17  20
ATOM     20  O   UNL     1     -11.127  45.849  22.377  1.00  0.00    -0.504 OA
ATOM     21  H   UNL     1     -10.391  45.354  21.888  1.00  0.00     0.293 HD
ENDBRANCH  17  20
ENDBRANCH   1  12
BRANCH   6  22
ATOM     22  O   UNL     1     -17.489  47.583  29.361  1.00  0.00    -0.507 OA
ATOM     23  H   UNL     1     -18.369  48.074  29.327  1.00  0.00     0.293 HD
ENDBRANCH   6  22
BRANCH   8  24
ATOM     24  O   UNL     1     -18.415  42.876  29.585  1.00  0.00    -0.508 OA
ATOM     25  H   UNL     1     -18.244  42.667  30.562  1.00  0.00     0.293 HD
ENDBRANCH   8  24
TORSDOF 5
ENDMDL
MODEL 6
REMARK VINA RESULT:    -6.592      2.330      6.604
REMARK INTER + INTRA:          -8.064
REMARK INTER:                  -7.794
REMARK INTRA:                  -0.269
REMARK UNBOUND:                -0.315
REMARK SMILES O=c1cc(-c2ccc(O)c(O)c2)oc2cc(O)cc(O)c12
REMARK SMILES IDX 4 1 3 2 2 3 1 4 21 5 19 6 18 7 16 8 15 9 14 10 13 11 5 12
REMARK SMILES IDX 6 13 7 14 8 15 12 16 10 17 9 18 11 20 20 22 17 24
REMARK H PARENT 9 19 11 21 20 23 17 25
REMARK Flexibility Score: inf
ROOT
ATOM      1  C   UNL     1     -22.246  60.806  33.241  1.00  0.00     0.138 A 
ATOM      2  C   UNL     1     -22.303  61.230  31.906  1.00  0.00     0.100 A 
ATOM      3  C   UNL     1     -23.540  61.335  31.268  1.00  0.00     0.197 A 
ATOM      4  O   UNL     1     -23.566  61.777  30.090  1.00  0.00    -0.289 OA
ATOM      5  C   UNL     1     -24.723  60.982  31.963  1.00  0.00     0.107 A 
ATOM      6  C   UNL     1     -26.034  61.010  31.401  1.00  0.00     0.134 A 
ATOM      7  C   UNL     1     -27.141  60.752  32.219  1.00  0.00     0.093 A 
ATOM      8  C   UNL     1     -26.978  60.408  33.564  1.00  0.00     0.123 A 
ATOM      9  C   UNL     1     -25.699  60.325  34.107  1.00  0.00     0.094 A 
ATOM     10  C   UNL     1     -24.577  60.611  33.326  1.00  0.00     0.146 A 
ATOM     11  O   UNL     1     -23.374  60.534  33.887  1.00  0.00    -0.456 OA
ENDROOT
BRANCH   1  12
ATOM     12  C   UNL     1     -20.957  60.676  33.967  1.00  0.00     0.021 A 
ATOM     13  C   UNL     1     -20.727  61.335  35.192  1.00  0.00     0.016 A 
ATOM     14  C   UNL     1     -19.501  61.202  35.847  1.00  0.00     0.051 A 
ATOM     15  C   UNL     1     -18.483  60.417  35.291  1.00  0.00     0.157 A 
ATOM     16  C   UNL     1     -19.924  59.901  33.410  1.00  0.00     0.062 A 
ATOM     17  C   UNL     1     -18.694  59.768  34.070  1.00  0.00     0.158 A 
BRANCH  15  18
ATOM     18  O   UNL     1     -17.259  60.282  35.945  1.00  0.00    -0.504 OA
ATOM     19  H   UNL     1     -17.003  60.882  36.721  1.00  0.00     0.293 HD
ENDBRANCH  15  18
BRANCH  17  20
ATOM     20  O   UNL     1     -17.677  58.990  33.517  1.00  0.00    -0.504 OA
ATOM     21  H   UNL     1     -17.274  59.210  32.614  1.00  0.00     0.293 HD
ENDBRANCH  17  20
ENDBRANCH   1  12
BRANCH   6  22
ATOM     22  O   UNL     1     -26.300  61.260  30.052  1.00  0.00    -0.507 OA
ATOM     23  H   UNL     1     -26.300  60.561  29.325  1.00  0.00     0.293 HD
ENDBRANCH   6  22
BRANCH   8  24
ATOM     24  O   UNL     1     -28.085  60.138  34.366  1.00  0.00    -0.508 OA
ATOM     25  H   UNL     1     -28.725  59.384  34.149  1.00  0.00     0.293 HD
ENDBRANCH   8  24
TORSDOF 5
ENDMDL
MODEL 7
REMARK VINA RESULT:    -6.578     17.138     19.184
REMARK INTER + INTRA:          -8.047
REMARK INTER:                  -7.736
REMARK INTRA:                  -0.311
REMARK UNBOUND:                -0.315
REMARK SMILES O=c1cc(-c2ccc(O)c(O)c2)oc2cc(O)cc(O)c12
REMARK SMILES IDX 4 1 3 2 2 3 1 4 21 5 19 6 18 7 16 8 15 9 14 10 13 11 5 12
REMARK SMILES IDX 6 13 7 14 8 15 12 16 10 17 9 18 11 20 20 22 17 24
REMARK H PARENT 9 19 11 21 20 23 17 25
REMARK Flexibility Score: inf
ROOT
ATOM      1  C   UNL     1     -15.835  45.065  26.609  1.00  0.00     0.138 A 
ATOM      2  C   UNL     1     -16.685  44.025  27.013  1.00  0.00     0.100 A 
ATOM      3  C   UNL     1     -17.387  44.136  28.214  1.00  0.00     0.197 A 
ATOM      4  O   UNL     1     -18.189  43.216  28.519  1.00  0.00    -0.289 OA
ATOM      5  C   UNL     1     -17.211  45.280  29.030  1.00  0.00     0.107 A 
ATOM      6  C   UNL     1     -17.843  45.482  30.293  1.00  0.00     0.134 A 
ATOM      7  C   UNL     1     -17.685  46.705  30.956  1.00  0.00     0.093 A 
ATOM      8  C   UNL     1     -16.868  47.710  30.429  1.00  0.00     0.123 A 
ATOM      9  C   UNL     1     -16.205  47.501  29.223  1.00  0.00     0.094 A 
ATOM     10  C   UNL     1     -16.370  46.305  28.520  1.00  0.00     0.146 A 
ATOM     11  O   UNL     1     -15.729  46.151  27.366  1.00  0.00    -0.456 OA
ENDROOT
BRANCH   1  12
ATOM     12  C   UNL     1     -15.063  44.999  25.342  1.00  0.00     0.021 A 
ATOM     13  C   UNL     1     -15.455  44.161  24.279  1.00  0.00     0.016 A 
ATOM     14  C   UNL     1     -14.704  44.112  23.103  1.00  0.00     0.051 A 
ATOM     15  C   UNL     1     -13.548  44.890  22.969  1.00  0.00     0.157 A 
ATOM     16  C   UNL     1     -13.893  45.767  25.203  1.00  0.00     0.062 A 
ATOM     17  C   UNL     1     -13.140  45.717  24.021  1.00  0.00     0.158 A 
BRANCH  15  18
ATOM     18  O   UNL     1     -12.798  44.843  21.794  1.00  0.00    -0.504 OA
ATOM     19  H   UNL     1     -12.909  45.539  21.066  1.00  0.00     0.293 HD
ENDBRANCH  15  18
BRANCH  17  20
ATOM     20  O   UNL     1     -11.987  46.488  23.886  1.00  0.00    -0.504 OA
ATOM     21  H   UNL     1     -11.081  46.063  23.727  1.00  0.00     0.293 HD
ENDBRANCH  17  20
ENDBRANCH   1  12
BRANCH   6  22
ATOM     22  O   UNL     1     -18.610  44.513  30.946  1.00  0.00    -0.507 OA
ATOM     23  H   UNL     1     -18.851  44.531  31.925  1.00  0.00     0.293 HD
ENDBRANCH   6  22
BRANCH   8  24
ATOM     24  O   UNL     1     -16.705  48.918  31.104  1.00  0.00    -0.508 OA
ATOM     25  H   UNL     1     -16.500  49.777  30.608  1.00  0.00     0.293 HD
ENDBRANCH   8  24
TORSDOF 5
ENDMDL
MODEL 8
REMARK VINA RESULT:    -6.455      2.643      3.315
REMARK INTER + INTRA:          -7.902
REMARK INTER:                  -7.639
REMARK INTRA:                  -0.263
REMARK UNBOUND:                -0.315
REMARK SMILES O=c1cc(-c2ccc(O)c(O)c2)oc2cc(O)cc(O)c12
REMARK SMILES IDX 4 1 3 2 2 3 1 4 21 5 19 6 18 7 16 8 15 9 14 10 13 11 5 12
REMARK SMILES IDX 6 13 7 14 8 15 12 16 10 17 9 18 11 20 20 22 17 24
REMARK H PARENT 9 19 11 21 20 23 17 25
REMARK Flexibility Score: inf
ROOT
ATOM      1  C   UNL     1     -24.947  60.188  31.188  1.00  0.00     0.138 A 
ATOM      2  C   UNL     1     -24.693  58.816  31.052  1.00  0.00     0.100 A 
ATOM      3  C   UNL     1     -23.889  58.363  30.004  1.00  0.00     0.197 A 
ATOM      4  O   UNL     1     -23.627  57.135  29.943  1.00  0.00    -0.289 OA
ATOM      5  C   UNL     1     -23.365  59.289  29.069  1.00  0.00     0.107 A 
ATOM      6  C   UNL     1     -22.568  58.939  27.939  1.00  0.00     0.134 A 
ATOM      7  C   UNL     1     -22.007  59.951  27.149  1.00  0.00     0.093 A 
ATOM      8  C   UNL     1     -22.266  61.299  27.415  1.00  0.00     0.123 A 
ATOM      9  C   UNL     1     -23.086  61.648  28.484  1.00  0.00     0.094 A 
ATOM     10  C   UNL     1     -23.632  60.663  29.311  1.00  0.00     0.146 A 
ATOM     11  O   UNL     1     -24.399  61.040  30.329  1.00  0.00    -0.456 OA
ENDROOT
BRANCH   1  12
ATOM     12  C   UNL     1     -25.796  60.722  32.282  1.00  0.00     0.021 A 
ATOM     13  C   UNL     1     -27.077  61.252  32.034  1.00  0.00     0.016 A 
ATOM     14  C   UNL     1     -27.850  61.758  33.083  1.00  0.00     0.051 A 
ATOM     15  C   UNL     1     -27.355  61.750  34.393  1.00  0.00     0.157 A 
ATOM     16  C   UNL     1     -25.302  60.731  33.600  1.00  0.00     0.062 A 
ATOM     17  C   UNL     1     -26.079  61.238  34.651  1.00  0.00     0.158 A 
BRANCH  15  18
ATOM     18  O   UNL     1     -28.125  62.253  35.441  1.00  0.00    -0.504 OA
ATOM     19  H   UNL     1     -28.899  61.727  35.831  1.00  0.00     0.293 HD
ENDBRANCH  15  18
BRANCH  17  20
ATOM     20  O   UNL     1     -25.588  61.235  35.957  1.00  0.00    -0.504 OA
ATOM     21  H   UNL     1     -24.614  61.037  36.156  1.00  0.00     0.293 HD
ENDBRANCH  17  20
ENDBRANCH   1  12
BRANCH   6  22
ATOM     22  O   UNL     1     -22.318  57.624  27.536  1.00  0.00    -0.507 OA
ATOM     23  H   UNL     1     -21.656  57.002  27.974  1.00  0.00     0.293 HD
ENDBRANCH   6  22
BRANCH   8  24
ATOM     24  O   UNL     1     -21.716  62.298  26.615  1.00  0.00    -0.508 OA
ATOM     25  H   UNL     1     -22.124  63.224  26.568  1.00  0.00     0.293 HD
ENDBRANCH   8  24
TORSDOF 5
ENDMDL
