MODEL 1
REMARK VINA RESULT:    -4.780      0.000      0.000
REMARK INTER + INTRA:         -11.536
REMARK INTER:                  -8.692
REMARK INTRA:                  -2.844
REMARK UNBOUND:                -2.844
REMARK SMILES CCCCCCCCCCCCCC[C@H](C)C(=O)[O-]
REMARK SMILES IDX 9 1 10 2 11 3 12 4 13 5 14 6 15 7 16 8 17 9 18 10 19 11 8 12
REMARK SMILES IDX 7 13 6 14 5 15 4 16 3 17 2 18 1 19
REMARK H PARENT
REMARK Flexibility Score: inf
ROOT
ATOM      1  C   UNL     1      24.294  40.686 148.140  1.00  0.00     0.000 C 
ENDROOT
BRANCH   1   2
ATOM      2  C   UNL     1      23.710  39.334 147.693  1.00  0.00     0.000 C 
BRANCH   2   3
ATOM      3  C   UNL     1      23.061  38.558 148.850  1.00  0.00     0.000 C 
BRANCH   3   4
ATOM      4  C   UNL     1      23.455  37.070 148.857  1.00  0.00     0.000 C 
BRANCH   4   5
ATOM      5  C   UNL     1      23.801  36.544 147.453  1.00  0.00     0.001 C 
BRANCH   5   6
ATOM      6  C   UNL     1      24.924  35.492 147.474  1.00  0.00     0.009 C 
BRANCH   6   7
ATOM      7  C   UNL     1      25.115  34.875 148.876  1.00  0.00     0.032 C 
ATOM      8  C   UNL     1      26.605  34.683 149.185  1.00  0.00     0.014 C 
BRANCH   7   9
ATOM      9  C   UNL     1      24.393  33.561 149.005  1.00  0.00     0.044 C 
ATOM     10  O   UNL     1      24.244  33.019 150.133  1.00  0.00    -0.550 OA
ATOM     11  O   UNL     1      23.884  32.935 147.874  1.00  0.00    -0.550 OA
ENDBRANCH   7   9
ENDBRANCH   6   7
ENDBRANCH   5   6
ENDBRANCH   4   5
ENDBRANCH   3   4
ENDBRANCH   2   3
ENDBRANCH   1   2
BRANCH   1  12
ATOM     12  C   UNL     1      24.582  40.736 149.650  1.00  0.00     0.000 C 
BRANCH  12  13
ATOM     13  C   UNL     1      26.074  40.956 149.959  1.00  0.00    -0.000 C 
BRANCH  13  14
ATOM     14  C   UNL     1      26.683  39.803 150.773  1.00  0.00    -0.000 C 
BRANCH  14  15
ATOM     15  C   UNL     1      26.632  38.458 150.027  1.00  0.00    -0.000 C 
BRANCH  15  16
ATOM     16  C   UNL     1      27.748  38.324 148.978  1.00  0.00    -0.000 C 
BRANCH  16  17
ATOM     17  C   UNL     1      27.200  38.230 147.543  1.00  0.00    -0.000 C 
BRANCH  17  18
ATOM     18  C   UNL     1      27.981  39.110 146.556  1.00  0.00    -0.003 C 
ATOM     19  C   UNL     1      27.526  40.569 146.578  1.00  0.00     0.004 C 
ENDBRANCH  17  18
ENDBRANCH  16  17
ENDBRANCH  15  16
ENDBRANCH  14  15
ENDBRANCH  13  14
ENDBRANCH  12  13
ENDBRANCH   1  12
TORSDOF 14
ENDMDL
MODEL 2
REMARK VINA RESULT:    -4.754      3.260      5.542
REMARK INTER + INTRA:         -11.489
REMARK INTER:                  -9.233
REMARK INTRA:                  -2.256
REMARK UNBOUND:                -2.844
REMARK SMILES CCCCCCCCCCCCCC[C@H](C)C(=O)[O-]
REMARK SMILES IDX 9 1 10 2 11 3 12 4 13 5 14 6 15 7 16 8 17 9 18 10 19 11 8 12
REMARK SMILES IDX 7 13 6 14 5 15 4 16 3 17 2 18 1 19
REMARK H PARENT
REMARK Flexibility Score: inf
ROOT
ATOM      1  C   UNL     1      24.398  34.361 147.214  1.00  0.00     0.000 C 
ENDROOT
BRANCH   1   2
ATOM      2  C   UNL     1      23.340  35.462 147.015  1.00  0.00     0.000 C 
BRANCH   2   3
ATOM      3  C   UNL     1      23.832  36.844 147.475  1.00  0.00     0.000 C 
BRANCH   3   4
ATOM      4  C   UNL     1      23.552  37.104 148.965  1.00  0.00     0.000 C 
BRANCH   4   5
ATOM      5  C   UNL     1      23.624  38.596 149.329  1.00  0.00     0.001 C 
BRANCH   5   6
ATOM      6  C   UNL     1      24.899  39.276 148.800  1.00  0.00     0.009 C 
BRANCH   6   7
ATOM      7  C   UNL     1      24.583  40.561 148.005  1.00  0.00     0.032 C 
ATOM      8  C   UNL     1      25.709  40.875 147.013  1.00  0.00     0.014 C 
BRANCH   7   9
ATOM      9  C   UNL     1      24.366  41.738 148.919  1.00  0.00     0.044 C 
ATOM     10  O   UNL     1      24.718  41.685 150.128  1.00  0.00    -0.550 OA
ATOM     11  O   UNL     1      23.772  42.895 148.430  1.00  0.00    -0.550 OA
ENDBRANCH   7   9
ENDBRANCH   6   7
ENDBRANCH   5   6
ENDBRANCH   4   5
ENDBRANCH   3   4
ENDBRANCH   2   3
ENDBRANCH   1   2
BRANCH   1  12
ATOM     12  C   UNL     1      24.068  33.430 148.392  1.00  0.00     0.000 C 
BRANCH  12  13
ATOM     13  C   UNL     1      24.951  33.700 149.623  1.00  0.00    -0.000 C 
BRANCH  13  14
ATOM     14  C   UNL     1      26.402  34.039 149.244  1.00  0.00    -0.000 C 
BRANCH  14  15
ATOM     15  C   UNL     1      27.009  35.134 150.139  1.00  0.00    -0.000 C 
BRANCH  15  16
ATOM     16  C   UNL     1      27.311  36.427 149.365  1.00  0.00    -0.000 C 
BRANCH  16  17
ATOM     17  C   UNL     1      27.740  36.157 147.911  1.00  0.00    -0.000 C 
BRANCH  17  18
ATOM     18  C   UNL     1      27.555  37.384 147.006  1.00  0.00    -0.003 C 
ATOM     19  C   UNL     1      28.708  37.570 146.020  1.00  0.00     0.004 C 
ENDBRANCH  17  18
ENDBRANCH  16  17
ENDBRANCH  15  16
ENDBRANCH  14  15
ENDBRANCH  13  14
ENDBRANCH  12  13
ENDBRANCH   1  12
TORSDOF 14
ENDMDL
MODEL 3
REMARK VINA RESULT:    -4.750      1.865      4.241
REMARK INTER + INTRA:         -11.481
REMARK INTER:                  -9.280
REMARK INTRA:                  -2.201
REMARK UNBOUND:                -2.844
REMARK SMILES CCCCCCCCCCCCCC[C@H](C)C(=O)[O-]
REMARK SMILES IDX 9 1 10 2 11 3 12 4 13 5 14 6 15 7 16 8 17 9 18 10 19 11 8 12
REMARK SMILES IDX 7 13 6 14 5 15 4 16 3 17 2 18 1 19
REMARK H PARENT
REMARK Flexibility Score: inf
ROOT
ATOM      1  C   UNL     1      25.023  41.006 147.793  1.00  0.00     0.000 C 
ENDROOT
BRANCH   1   2
ATOM      2  C   UNL     1      25.244  41.533 149.223  1.00  0.00     0.000 C 
BRANCH   2   3
ATOM      3  C   UNL     1      25.954  40.511 150.127  1.00  0.00     0.000 C 
BRANCH   3   4
ATOM      4  C   UNL     1      26.781  39.490 149.327  1.00  0.00     0.000 C 
BRANCH   4   5
ATOM      5  C   UNL     1      26.995  38.173 150.092  1.00  0.00     0.001 C 
BRANCH   5   6
ATOM      6  C   UNL     1      27.815  37.147 149.291  1.00  0.00     0.009 C 
BRANCH   6   7
ATOM      7  C   UNL     1      27.144  35.757 149.270  1.00  0.00     0.032 C 
ATOM      8  C   UNL     1      27.636  34.900 150.443  1.00  0.00     0.014 C 
BRANCH   7   9
ATOM      9  C   UNL     1      27.398  35.038 147.972  1.00  0.00     0.044 C 
ATOM     10  O   UNL     1      27.597  33.795 147.955  1.00  0.00    -0.550 OA
ATOM     11  O   UNL     1      27.412  35.749 146.778  1.00  0.00    -0.550 OA
ENDBRANCH   7   9
ENDBRANCH   6   7
ENDBRANCH   5   6
ENDBRANCH   4   5
ENDBRANCH   3   4
ENDBRANCH   2   3
ENDBRANCH   1   2
BRANCH   1  12
ATOM     12  C   UNL     1      23.550  40.673 147.506  1.00  0.00     0.000 C 
BRANCH  12  13
ATOM     13  C   UNL     1      23.294  39.158 147.417  1.00  0.00    -0.000 C 
BRANCH  13  14
ATOM     14  C   UNL     1      23.140  38.504 148.800  1.00  0.00    -0.000 C 
BRANCH  14  15
ATOM     15  C   UNL     1      23.726  37.082 148.852  1.00  0.00    -0.000 C 
BRANCH  15  16
ATOM     16  C   UNL     1      24.032  36.520 147.455  1.00  0.00    -0.000 C 
BRANCH  16  17
ATOM     17  C   UNL     1      23.242  35.233 147.151  1.00  0.00    -0.000 C 
BRANCH  17  18
ATOM     18  C   UNL     1      24.114  33.972 147.246  1.00  0.00    -0.003 C 
ATOM     19  C   UNL     1      24.036  33.302 148.617  1.00  0.00     0.004 C 
ENDBRANCH  17  18
ENDBRANCH  16  17
ENDBRANCH  15  16
ENDBRANCH  14  15
ENDBRANCH  13  14
ENDBRANCH  12  13
ENDBRANCH   1  12
TORSDOF 14
ENDMDL
MODEL 4
REMARK VINA RESULT:    -4.723      3.031      6.307
REMARK INTER + INTRA:         -11.432
REMARK INTER:                  -9.175
REMARK INTRA:                  -2.256
REMARK UNBOUND:                -2.844
REMARK SMILES CCCCCCCCCCCCCC[C@H](C)C(=O)[O-]
REMARK SMILES IDX 9 1 10 2 11 3 12 4 13 5 14 6 15 7 16 8 17 9 18 10 19 11 8 12
REMARK SMILES IDX 7 13 6 14 5 15 4 16 3 17 2 18 1 19
REMARK H PARENT
REMARK Flexibility Score: inf
ROOT
ATOM      1  C   UNL     1      27.667  34.590 148.811  1.00  0.00     0.000 C 
ENDROOT
BRANCH   1   2
ATOM      2  C   UNL     1      27.351  35.580 149.947  1.00  0.00     0.000 C 
BRANCH   2   3
ATOM      3  C   UNL     1      27.217  37.028 149.449  1.00  0.00     0.000 C 
BRANCH   3   4
ATOM      4  C   UNL     1      27.830  37.231 148.053  1.00  0.00     0.000 C 
BRANCH   4   5
ATOM      5  C   UNL     1      27.457  38.589 147.435  1.00  0.00     0.001 C 
BRANCH   5   6
ATOM      6  C   UNL     1      26.445  39.373 148.290  1.00  0.00     0.009 C 
BRANCH   6   7
ATOM      7  C   UNL     1      25.613  40.360 147.444  1.00  0.00     0.032 C 
ATOM      8  C   UNL     1      26.525  41.225 146.567  1.00  0.00     0.014 C 
BRANCH   7   9
ATOM      9  C   UNL     1      24.752  41.242 148.310  1.00  0.00     0.044 C 
ATOM     10  O   UNL     1      24.166  42.245 147.821  1.00  0.00    -0.550 OA
ATOM     11  O   UNL     1      24.599  40.951 149.660  1.00  0.00    -0.550 OA
ENDBRANCH   7   9
ENDBRANCH   6   7
ENDBRANCH   5   6
ENDBRANCH   4   5
ENDBRANCH   3   4
ENDBRANCH   2   3
ENDBRANCH   1   2
BRANCH   1  12
ATOM     12  C   UNL     1      26.564  33.535 148.621  1.00  0.00     0.000 C 
BRANCH  12  13
ATOM     13  C   UNL     1      25.380  33.741 149.583  1.00  0.00    -0.000 C 
BRANCH  13  14
ATOM     14  C   UNL     1      24.021  33.513 148.901  1.00  0.00    -0.000 C 
BRANCH  14  15
ATOM     15  C   UNL     1      24.031  33.901 147.412  1.00  0.00    -0.000 C 
BRANCH  15  16
ATOM     16  C   UNL     1      23.288  35.219 147.142  1.00  0.00    -0.000 C 
BRANCH  16  17
ATOM     17  C   UNL     1      24.178  36.455 147.368  1.00  0.00    -0.000 C 
BRANCH  17  18
ATOM     18  C   UNL     1      23.370  37.693 147.784  1.00  0.00    -0.003 C 
ATOM     19  C   UNL     1      23.091  37.738 149.285  1.00  0.00     0.004 C 
ENDBRANCH  17  18
ENDBRANCH  16  17
ENDBRANCH  15  16
ENDBRANCH  14  15
ENDBRANCH  13  14
ENDBRANCH  12  13
ENDBRANCH   1  12
TORSDOF 14
ENDMDL
MODEL 5
REMARK VINA RESULT:    -4.712      1.698      2.326
REMARK INTER + INTRA:         -11.412
REMARK INTER:                  -8.904
REMARK INTRA:                  -2.508
REMARK UNBOUND:                -2.844
REMARK SMILES CCCCCCCCCCCCCC[C@H](C)C(=O)[O-]
REMARK SMILES IDX 9 1 10 2 11 3 12 4 13 5 14 6 15 7 16 8 17 9 18 10 19 11 8 12
REMARK SMILES IDX 7 13 6 14 5 15 4 16 3 17 2 18 1 19
REMARK H PARENT
REMARK Flexibility Score: inf
ROOT
ATOM      1  C   UNL     1      22.853  38.250 148.939  1.00  0.00     0.000 C 
ENDROOT
BRANCH   1   2
ATOM      2  C   UNL     1      23.572  38.295 147.578  1.00  0.00     0.000 C 
BRANCH   2   3
ATOM      3  C   UNL     1      24.570  37.139 147.398  1.00  0.00     0.000 C 
BRANCH   3   4
ATOM      4  C   UNL     1      23.887  35.761 147.426  1.00  0.00     0.000 C 
BRANCH   4   5
ATOM      5  C   UNL     1      24.339  34.902 148.620  1.00  0.00     0.001 C 
BRANCH   5   6
ATOM      6  C   UNL     1      25.532  35.515 149.375  1.00  0.00     0.009 C 
BRANCH   6   7
ATOM      7  C   UNL     1      26.707  34.522 149.505  1.00  0.00     0.032 C 
ATOM      8  C   UNL     1      27.674  34.968 150.608  1.00  0.00     0.014 C 
BRANCH   7   9
ATOM      9  C   UNL     1      27.451  34.370 148.205  1.00  0.00     0.044 C 
ATOM     10  O   UNL     1      27.716  35.378 147.496  1.00  0.00    -0.550 OA
ATOM     11  O   UNL     1      27.851  33.110 147.778  1.00  0.00    -0.550 OA
ENDBRANCH   7   9
ENDBRANCH   6   7
ENDBRANCH   5   6
ENDBRANCH   4   5
ENDBRANCH   3   4
ENDBRANCH   2   3
ENDBRANCH   1   2
BRANCH   1  12
ATOM     12  C   UNL     1      23.728  38.779 150.088  1.00  0.00     0.000 C 
BRANCH  12  13
ATOM     13  C   UNL     1      24.334  40.159 149.780  1.00  0.00    -0.000 C 
BRANCH  13  14
ATOM     14  C   UNL     1      25.734  40.337 150.389  1.00  0.00    -0.000 C 
BRANCH  14  15
ATOM     15  C   UNL     1      26.496  39.006 150.525  1.00  0.00    -0.000 C 
BRANCH  15  16
ATOM     16  C   UNL     1      27.358  38.694 149.292  1.00  0.00    -0.000 C 
BRANCH  16  17
ATOM     17  C   UNL     1      27.627  39.940 148.429  1.00  0.00    -0.000 C 
BRANCH  17  18
ATOM     18  C   UNL     1      26.972  39.848 147.043  1.00  0.00    -0.003 C 
ATOM     19  C   UNL     1      27.052  41.160 146.264  1.00  0.00     0.004 C 
ENDBRANCH  17  18
ENDBRANCH  16  17
ENDBRANCH  15  16
ENDBRANCH  14  15
ENDBRANCH  13  14
ENDBRANCH  12  13
ENDBRANCH   1  12
TORSDOF 14
ENDMDL
MODEL 6
REMARK VINA RESULT:    -4.692      3.516      5.885
REMARK INTER + INTRA:         -11.375
REMARK INTER:                  -8.980
REMARK INTRA:                  -2.395
REMARK UNBOUND:                -2.844
REMARK SMILES CCCCCCCCCCCCCC[C@H](C)C(=O)[O-]
REMARK SMILES IDX 9 1 10 2 11 3 12 4 13 5 14 6 15 7 16 8 17 9 18 10 19 11 8 12
REMARK SMILES IDX 7 13 6 14 5 15 4 16 3 17 2 18 1 19
REMARK H PARENT
REMARK Flexibility Score: inf
ROOT
ATOM      1  C   UNL     1      23.668  36.224 147.405  1.00  0.00     0.000 C 
ENDROOT
BRANCH   1   2
ATOM      2  C   UNL     1      23.752  36.854 148.808  1.00  0.00     0.000 C 
BRANCH   2   3
ATOM      3  C   UNL     1      23.100  38.245 148.872  1.00  0.00     0.000 C 
BRANCH   3   4
ATOM      4  C   UNL     1      23.291  39.046 147.572  1.00  0.00     0.000 C 
BRANCH   4   5
ATOM      5  C   UNL     1      24.154  40.303 147.773  1.00  0.00     0.001 C 
BRANCH   5   6
ATOM      6  C   UNL     1      25.646  40.051 147.490  1.00  0.00     0.009 C 
BRANCH   6   7
ATOM      7  C   UNL     1      26.546  40.546 148.642  1.00  0.00     0.032 C 
ATOM      8  C   UNL     1      25.921  40.211 150.001  1.00  0.00     0.014 C 
BRANCH   7   9
ATOM      9  C   UNL     1      26.800  42.027 148.548  1.00  0.00     0.044 C 
ATOM     10  O   UNL     1      26.776  42.613 147.433  1.00  0.00    -0.550 OA
ATOM     11  O   UNL     1      27.063  42.759 149.699  1.00  0.00    -0.550 OA
ENDBRANCH   7   9
ENDBRANCH   6   7
ENDBRANCH   5   6
ENDBRANCH   4   5
ENDBRANCH   3   4
ENDBRANCH   2   3
ENDBRANCH   1   2
BRANCH   1  12
ATOM     12  C   UNL     1      24.451  34.905 147.301  1.00  0.00     0.000 C 
BRANCH  12  13
ATOM     13  C   UNL     1      24.068  33.904 148.405  1.00  0.00    -0.000 C 
BRANCH  13  14
ATOM     14  C   UNL     1      25.267  33.510 149.284  1.00  0.00    -0.000 C 
BRANCH  14  15
ATOM     15  C   UNL     1      26.592  33.484 148.503  1.00  0.00    -0.000 C 
BRANCH  15  16
ATOM     16  C   UNL     1      27.692  34.314 149.183  1.00  0.00    -0.000 C 
BRANCH  16  17
ATOM     17  C   UNL     1      27.124  35.359 150.160  1.00  0.00    -0.000 C 
BRANCH  17  18
ATOM     18  C   UNL     1      27.396  36.800 149.703  1.00  0.00    -0.003 C 
ATOM     19  C   UNL     1      27.472  36.933 148.183  1.00  0.00     0.004 C 
ENDBRANCH  17  18
ENDBRANCH  16  17
ENDBRANCH  15  16
ENDBRANCH  14  15
ENDBRANCH  13  14
ENDBRANCH  12  13
ENDBRANCH   1  12
TORSDOF 14
ENDMDL
MODEL 7
REMARK VINA RESULT:    -4.676      3.919      6.337
REMARK INTER + INTRA:         -11.346
REMARK INTER:                  -9.571
REMARK INTRA:                  -1.775
REMARK UNBOUND:                -2.844
REMARK SMILES CCCCCCCCCCCCCC[C@H](C)C(=O)[O-]
REMARK SMILES IDX 9 1 10 2 11 3 12 4 13 5 14 6 15 7 16 8 17 9 18 10 19 11 8 12
REMARK SMILES IDX 7 13 6 14 5 15 4 16 3 17 2 18 1 19
REMARK H PARENT
REMARK Flexibility Score: inf
ROOT
ATOM      1  C   UNL     1      23.916  37.509 147.364  1.00  0.00     0.000 C 
ENDROOT
BRANCH   1   2
ATOM      2  C   UNL     1      23.049  38.453 148.219  1.00  0.00     0.000 C 
BRANCH   2   3
ATOM      3  C   UNL     1      23.160  38.157 149.723  1.00  0.00     0.000 C 
BRANCH   3   4
ATOM      4  C   UNL     1      23.785  39.322 150.509  1.00  0.00     0.000 C 
BRANCH   4   5
ATOM      5  C   UNL     1      25.278  39.517 150.191  1.00  0.00     0.001 C 
BRANCH   5   6
ATOM      6  C   UNL     1      25.581  40.900 149.588  1.00  0.00     0.009 C 
BRANCH   6   7
ATOM      7  C   UNL     1      24.300  41.736 149.381  1.00  0.00     0.032 C 
ATOM      8  C   UNL     1      24.044  41.974 147.889  1.00  0.00     0.014 C 
BRANCH   7   9
ATOM      9  C   UNL     1      24.377  43.055 150.103  1.00  0.00     0.044 C 
ATOM     10  O   UNL     1      23.382  43.501 150.733  1.00  0.00    -0.550 OA
ATOM     11  O   UNL     1      25.556  43.791 150.077  1.00  0.00    -0.550 OA
ENDBRANCH   7   9
ENDBRANCH   6   7
ENDBRANCH   5   6
ENDBRANCH   4   5
ENDBRANCH   3   4
ENDBRANCH   2   3
ENDBRANCH   1   2
BRANCH   1  12
ATOM     12  C   UNL     1      24.230  36.185 148.079  1.00  0.00     0.000 C 
BRANCH  12  13
ATOM     13  C   UNL     1      23.660  34.964 147.336  1.00  0.00    -0.000 C 
BRANCH  13  14
ATOM     14  C   UNL     1      24.110  33.632 147.958  1.00  0.00    -0.000 C 
BRANCH  14  15
ATOM     15  C   UNL     1      25.233  33.811 148.994  1.00  0.00    -0.000 C 
BRANCH  15  16
ATOM     16  C   UNL     1      26.604  33.367 148.460  1.00  0.00    -0.000 C 
BRANCH  16  17
ATOM     17  C   UNL     1      27.769  34.127 149.119  1.00  0.00    -0.000 C 
BRANCH  17  18
ATOM     18  C   UNL     1      27.297  35.079 150.228  1.00  0.00    -0.003 C 
ATOM     19  C   UNL     1      27.438  36.551 149.842  1.00  0.00     0.004 C 
ENDBRANCH  17  18
ENDBRANCH  16  17
ENDBRANCH  15  16
ENDBRANCH  14  15
ENDBRANCH  13  14
ENDBRANCH  12  13
ENDBRANCH   1  12
TORSDOF 14
ENDMDL
MODEL 8
REMARK VINA RESULT:    -4.666      3.616      6.102
REMARK INTER + INTRA:         -11.328
REMARK INTER:                  -9.055
REMARK INTRA:                  -2.273
REMARK UNBOUND:                -2.844
REMARK SMILES CCCCCCCCCCCCCC[C@H](C)C(=O)[O-]
REMARK SMILES IDX 9 1 10 2 11 3 12 4 13 5 14 6 15 7 16 8 17 9 18 10 19 11 8 12
REMARK SMILES IDX 7 13 6 14 5 15 4 16 3 17 2 18 1 19
REMARK H PARENT
REMARK Flexibility Score: inf
ROOT
ATOM      1  C   UNL     1      24.845  36.969 147.384  1.00  0.00     0.000 C 
ENDROOT
BRANCH   1   2
ATOM      2  C   UNL     1      23.653  37.857 147.788  1.00  0.00     0.000 C 
BRANCH   2   3
ATOM      3  C   UNL     1      23.308  37.740 149.281  1.00  0.00     0.000 C 
BRANCH   3   4
ATOM      4  C   UNL     1      23.365  39.095 150.008  1.00  0.00     0.000 C 
BRANCH   4   5
ATOM      5  C   UNL     1      24.781  39.446 150.494  1.00  0.00     0.001 C 
BRANCH   5   6
ATOM      6  C   UNL     1      25.403  40.618 149.714  1.00  0.00     0.009 C 
BRANCH   6   7
ATOM      7  C   UNL     1      24.361  41.353 148.844  1.00  0.00     0.032 C 
ATOM      8  C   UNL     1      24.752  41.291 147.362  1.00  0.00     0.014 C 
BRANCH   7   9
ATOM      9  C   UNL     1      24.197  42.787 149.269  1.00  0.00     0.044 C 
ATOM     10  O   UNL     1      23.729  43.071 150.404  1.00  0.00    -0.550 OA
ATOM     11  O   UNL     1      24.565  43.812 148.406  1.00  0.00    -0.550 OA
ENDBRANCH   7   9
ENDBRANCH   6   7
ENDBRANCH   5   6
ENDBRANCH   4   5
ENDBRANCH   3   4
ENDBRANCH   2   3
ENDBRANCH   1   2
BRANCH   1  12
ATOM     12  C   UNL     1      26.191  37.708 147.477  1.00  0.00     0.000 C 
BRANCH  12  13
ATOM     13  C   UNL     1      27.017  37.276 148.701  1.00  0.00    -0.000 C 
BRANCH  13  14
ATOM     14  C   UNL     1      27.945  36.088 148.396  1.00  0.00    -0.000 C 
BRANCH  14  15
ATOM     15  C   UNL     1      27.739  34.910 149.364  1.00  0.00    -0.000 C 
BRANCH  15  16
ATOM     16  C   UNL     1      26.653  33.936 148.882  1.00  0.00    -0.000 C 
BRANCH  16  17
ATOM     17  C   UNL     1      25.322  34.117 149.633  1.00  0.00    -0.000 C 
BRANCH  17  18
ATOM     18  C   UNL     1      24.236  33.144 149.150  1.00  0.00    -0.003 C 
ATOM     19  C   UNL     1      23.715  33.486 147.755  1.00  0.00     0.004 C 
ENDBRANCH  17  18
ENDBRANCH  16  17
ENDBRANCH  15  16
ENDBRANCH  14  15
ENDBRANCH  13  14
ENDBRANCH  12  13
ENDBRANCH   1  12
TORSDOF 14
ENDMDL
MODEL 9
REMARK VINA RESULT:    -4.662      1.197      3.420
REMARK INTER + INTRA:         -11.321
REMARK INTER:                  -9.000
REMARK INTRA:                  -2.320
REMARK UNBOUND:                -2.844
REMARK SMILES CCCCCCCCCCCCCC[C@H](C)C(=O)[O-]
REMARK SMILES IDX 9 1 10 2 11 3 12 4 13 5 14 6 15 7 16 8 17 9 18 10 19 11 8 12
REMARK SMILES IDX 7 13 6 14 5 15 4 16 3 17 2 18 1 19
REMARK H PARENT
REMARK Flexibility Score: inf
ROOT
ATOM      1  C   UNL     1      27.359  39.569 150.015  1.00  0.00     0.000 C 
ENDROOT
BRANCH   1   2
ATOM      2  C   UNL     1      27.264  38.055 149.752  1.00  0.00     0.000 C 
BRANCH   2   3
ATOM      3  C   UNL     1      28.169  37.597 148.597  1.00  0.00     0.000 C 
BRANCH   3   4
ATOM      4  C   UNL     1      27.385  37.353 147.295  1.00  0.00     0.000 C 
BRANCH   4   5
ATOM      5  C   UNL     1      27.216  35.857 146.979  1.00  0.00     0.001 C 
BRANCH   5   6
ATOM      6  C   UNL     1      25.801  35.340 147.295  1.00  0.00     0.009 C 
BRANCH   6   7
ATOM      7  C   UNL     1      25.713  34.718 148.705  1.00  0.00     0.032 C 
ATOM      8  C   UNL     1      27.058  34.107 149.113  1.00  0.00     0.014 C 
BRANCH   7   9
ATOM      9  C   UNL     1      24.633  33.673 148.783  1.00  0.00     0.044 C 
ATOM     10  O   UNL     1      24.106  33.215 147.733  1.00  0.00    -0.550 OA
ATOM     11  O   UNL     1      24.209  33.204 150.020  1.00  0.00    -0.550 OA
ENDBRANCH   7   9
ENDBRANCH   6   7
ENDBRANCH   5   6
ENDBRANCH   4   5
ENDBRANCH   3   4
ENDBRANCH   2   3
ENDBRANCH   1   2
BRANCH   1  12
ATOM     12  C   UNL     1      26.230  40.084 150.923  1.00  0.00     0.000 C 
BRANCH  12  13
ATOM     13  C   UNL     1      25.772  41.505 150.547  1.00  0.00    -0.000 C 
BRANCH  13  14
ATOM     14  C   UNL     1      24.338  41.535 149.995  1.00  0.00    -0.000 C 
BRANCH  14  15
ATOM     15  C   UNL     1      24.279  41.958 148.516  1.00  0.00    -0.000 C 
BRANCH  15  16
ATOM     16  C   UNL     1      23.664  40.874 147.618  1.00  0.00    -0.000 C 
BRANCH  16  17
ATOM     17  C   UNL     1      24.541  39.612 147.529  1.00  0.00    -0.000 C 
BRANCH  17  18
ATOM     18  C   UNL     1      23.728  38.318 147.682  1.00  0.00    -0.003 C 
ATOM     19  C   UNL     1      23.216  38.107 149.106  1.00  0.00     0.004 C 
ENDBRANCH  17  18
ENDBRANCH  16  17
ENDBRANCH  15  16
ENDBRANCH  14  15
ENDBRANCH  13  14
ENDBRANCH  12  13
ENDBRANCH   1  12
TORSDOF 14
ENDMDL
