MODEL 1
REMARK VINA RESULT:    -3.332      0.000      0.000
REMARK INTER + INTRA:          -4.679
REMARK INTER:                  -4.500
REMARK INTRA:                  -0.178
REMARK UNBOUND:                -0.178
REMARK SMILES CCCCCCC=CC(=O)[O-]
REMARK SMILES IDX 5 1 6 2 7 3 8 4 9 5 10 6 11 7 4 8 3 9 2 10 1 11
REMARK H PARENT
REMARK Flexibility Score: inf
ROOT
ATOM      1  C   UNL     1      45.276 -23.891  -1.602  1.00  0.00     0.004 C 
ENDROOT
BRANCH   1   2
ATOM      2  C   UNL     1      46.022 -24.759  -2.623  1.00  0.00     0.027 C 
BRANCH   2   3
ATOM      3  C   UNL     1      46.125 -24.069  -3.952  1.00  0.00    -0.025 C 
ATOM      4  C   UNL     1      45.760 -24.677  -5.086  1.00  0.00     0.020 C 
BRANCH   4   5
ATOM      5  C   UNL     1      45.866 -24.024  -6.401  1.00  0.00     0.064 C 
ATOM      6  O   UNL     1      45.727 -22.778  -6.523  1.00  0.00    -0.545 OA
ATOM      7  O   UNL     1      46.123 -24.794  -7.527  1.00  0.00    -0.545 OA
ENDBRANCH   4   5
ENDBRANCH   2   3
ENDBRANCH   1   2
BRANCH   1   8
ATOM      8  C   UNL     1      45.943 -23.968  -0.223  1.00  0.00     0.000 C 
BRANCH   8   9
ATOM      9  C   UNL     1      46.005 -25.418   0.279  1.00  0.00    -0.000 C 
BRANCH   9  10
ATOM     10  C   UNL     1      45.459 -25.573   1.706  1.00  0.00    -0.003 C 
ATOM     11  C   UNL     1      45.391 -27.030   2.159  1.00  0.00     0.004 C 
ENDBRANCH   9  10
ENDBRANCH   8   9
ENDBRANCH   1   8
TORSDOF 6
ENDMDL
MODEL 2
REMARK VINA RESULT:    -3.234      4.512      7.061
REMARK INTER + INTRA:          -4.547
REMARK INTER:                  -4.377
REMARK INTRA:                  -0.170
REMARK UNBOUND:                -0.178
REMARK SMILES CCCCCCC=CC(=O)[O-]
REMARK SMILES IDX 5 1 6 2 7 3 8 4 9 5 10 6 11 7 4 8 3 9 2 10 1 11
REMARK H PARENT
REMARK Flexibility Score: inf
ROOT
ATOM      1  C   UNL     1      45.088 -24.442  -1.557  1.00  0.00     0.004 C 
ENDROOT
BRANCH   1   2
ATOM      2  C   UNL     1      45.719 -24.192  -0.181  1.00  0.00     0.027 C 
BRANCH   2   3
ATOM      3  C   UNL     1      45.998 -25.482   0.532  1.00  0.00    -0.025 C 
ATOM      4  C   UNL     1      45.437 -25.765   1.713  1.00  0.00     0.020 C 
BRANCH   4   5
ATOM      5  C   UNL     1      45.707 -27.017   2.436  1.00  0.00     0.064 C 
ATOM      6  O   UNL     1      45.658 -28.132   1.851  1.00  0.00    -0.545 OA
ATOM      7  O   UNL     1      46.023 -26.971   3.787  1.00  0.00    -0.545 OA
ENDBRANCH   4   5
ENDBRANCH   2   3
ENDBRANCH   1   2
BRANCH   1   8
ATOM      8  C   UNL     1      46.125 -24.987  -2.547  1.00  0.00     0.000 C 
BRANCH   8   9
ATOM      9  C   UNL     1      46.124 -24.172  -3.849  1.00  0.00    -0.000 C 
BRANCH   9  10
ATOM     10  C   UNL     1      46.105 -25.060  -5.102  1.00  0.00    -0.003 C 
ATOM     11  C   UNL     1      45.992 -24.256  -6.396  1.00  0.00     0.004 C 
ENDBRANCH   9  10
ENDBRANCH   8   9
ENDBRANCH   1   8
TORSDOF 6
ENDMDL
MODEL 3
REMARK VINA RESULT:    -2.651      3.700      6.688
REMARK INTER + INTRA:          -3.760
REMARK INTER:                  -3.503
REMARK INTRA:                  -0.257
REMARK UNBOUND:                -0.178
REMARK SMILES CCCCCCC=CC(=O)[O-]
REMARK SMILES IDX 5 1 6 2 7 3 8 4 9 5 10 6 11 7 4 8 3 9 2 10 1 11
REMARK H PARENT
REMARK Flexibility Score: inf
ROOT
ATOM      1  C   UNL     1      46.098 -25.955  -4.249  1.00  0.00     0.004 C 
ENDROOT
BRANCH   1   2
ATOM      2  C   UNL     1      45.815 -24.651  -3.492  1.00  0.00     0.027 C 
BRANCH   2   3
ATOM      3  C   UNL     1      45.987 -24.834  -2.012  1.00  0.00    -0.025 C 
ATOM      4  C   UNL     1      45.416 -24.003  -1.133  1.00  0.00     0.020 C 
BRANCH   4   5
ATOM      5  C   UNL     1      45.583 -24.155   0.321  1.00  0.00     0.064 C 
ATOM      6  O   UNL     1      46.000 -23.202   1.032  1.00  0.00    -0.545 OA
ATOM      7  O   UNL     1      45.275 -25.368   0.920  1.00  0.00    -0.545 OA
ENDBRANCH   4   5
ENDBRANCH   2   3
ENDBRANCH   1   2
BRANCH   1   8
ATOM      8  C   UNL     1      46.125 -25.717  -5.764  1.00  0.00     0.000 C 
BRANCH   8   9
ATOM      9  C   UNL     1      45.423 -24.400  -6.127  1.00  0.00    -0.000 C 
BRANCH   9  10
ATOM     10  C   UNL     1      46.108 -23.667  -7.290  1.00  0.00    -0.003 C 
ATOM     11  C   UNL     1      46.108 -24.480  -8.584  1.00  0.00     0.004 C 
ENDBRANCH   9  10
ENDBRANCH   8   9
ENDBRANCH   1   8
TORSDOF 6
ENDMDL
MODEL 4
REMARK VINA RESULT:    -2.093      1.337      2.290
REMARK INTER + INTRA:          -3.005
REMARK INTER:                  -2.814
REMARK INTRA:                  -0.191
REMARK UNBOUND:                -0.178
REMARK SMILES CCCCCCC=CC(=O)[O-]
REMARK SMILES IDX 5 1 6 2 7 3 8 4 9 5 10 6 11 7 4 8 3 9 2 10 1 11
REMARK H PARENT
REMARK Flexibility Score: inf
ROOT
ATOM      1  C   UNL     1      45.555 -24.772   0.237  1.00  0.00     0.004 C 
ENDROOT
BRANCH   1   2
ATOM      2  C   UNL     1      44.686 -24.971  -1.011  1.00  0.00     0.027 C 
BRANCH   2   3
ATOM      3  C   UNL     1      45.509 -24.901  -2.264  1.00  0.00    -0.025 C 
ATOM      4  C   UNL     1      44.948 -24.982  -3.475  1.00  0.00     0.020 C 
BRANCH   4   5
ATOM      5  C   UNL     1      45.737 -24.931  -4.716  1.00  0.00     0.064 C 
ATOM      6  O   UNL     1      46.125 -25.985  -5.286  1.00  0.00    -0.545 OA
ATOM      7  O   UNL     1      46.060 -23.699  -5.269  1.00  0.00    -0.545 OA
ENDBRANCH   4   5
ENDBRANCH   2   3
ENDBRANCH   1   2
BRANCH   1   8
ATOM      8  C   UNL     1      45.970 -26.119   0.841  1.00  0.00     0.000 C 
BRANCH   8   9
ATOM      9  C   UNL     1      45.402 -26.286   2.258  1.00  0.00    -0.000 C 
BRANCH   9  10
ATOM     10  C   UNL     1      44.906 -27.715   2.530  1.00  0.00    -0.003 C 
ATOM     11  C   UNL     1      46.015 -28.759   2.408  1.00  0.00     0.004 C 
ENDBRANCH   9  10
ENDBRANCH   8   9
ENDBRANCH   1   8
TORSDOF 6
ENDMDL
