MODEL 1
REMARK VINA RESULT:    -5.403      0.000      0.000
REMARK INTER + INTRA:          -6.992
REMARK INTER:                  -6.667
REMARK INTRA:                  -0.326
REMARK UNBOUND:                -0.326
REMARK SMILES CCOC(=O)c1ccc(O)c(O)c1
REMARK SMILES IDX 4 1 5 2 3 3 2 4 1 5 6 6 13 7 7 8 11 9 8 10 9 11 12 12 10 14
REMARK H PARENT 12 13 10 15
REMARK Flexibility Score: inf
ROOT
ATOM      1  C   UNL     1     -32.756   9.804 -38.952  1.00  0.00     0.338 C 
ATOM      2  O   UNL     1     -31.895   8.881 -38.947  1.00  0.00    -0.246 OA
ENDROOT
BRANCH   1   3
ATOM      3  O   UNL     1     -33.304  10.249 -40.163  1.00  0.00    -0.462 OA
BRANCH   3   4
ATOM      4  C   UNL     1     -34.704  10.415 -40.379  1.00  0.00     0.230 C 
ATOM      5  C   UNL     1     -35.069  11.895 -40.425  1.00  0.00     0.049 C 
ENDBRANCH   3   4
ENDBRANCH   1   3
BRANCH   1   6
ATOM      6  C   UNL     1     -33.194  10.416 -37.678  1.00  0.00     0.064 A 
ATOM      7  C   UNL     1     -33.973   9.686 -36.762  1.00  0.00     0.065 A 
ATOM      8  C   UNL     1     -32.836  11.738 -37.367  1.00  0.00     0.020 A 
ATOM      9  C   UNL     1     -34.386  10.265 -35.556  1.00  0.00     0.158 A 
ATOM     10  C   UNL     1     -33.248  12.319 -36.164  1.00  0.00     0.051 A 
ATOM     11  C   UNL     1     -34.023  11.587 -35.255  1.00  0.00     0.157 A 
BRANCH   9  12
ATOM     12  O   UNL     1     -35.158   9.510 -34.672  1.00  0.00    -0.504 OA
ATOM     13  H   UNL     1     -36.147   9.355 -34.819  1.00  0.00     0.293 HD
ENDBRANCH   9  12
BRANCH  11  14
ATOM     14  O   UNL     1     -34.431  12.170 -34.056  1.00  0.00    -0.504 OA
ATOM     15  H   UNL     1     -35.108  12.923 -34.035  1.00  0.00     0.293 HD
ENDBRANCH  11  14
ENDBRANCH   1   6
TORSDOF 5
ENDMDL
MODEL 2
REMARK VINA RESULT:    -5.357      2.048      5.531
REMARK INTER + INTRA:          -6.935
REMARK INTER:                  -6.821
REMARK INTRA:                  -0.114
REMARK UNBOUND:                -0.326
REMARK SMILES CCOC(=O)c1ccc(O)c(O)c1
REMARK SMILES IDX 4 1 5 2 3 3 2 4 1 5 6 6 13 7 7 8 11 9 8 10 9 11 12 12 10 14
REMARK H PARENT 12 13 10 15
REMARK Flexibility Score: inf
ROOT
ATOM      1  C   UNL     1     -33.240  12.163 -34.625  1.00  0.00     0.338 C 
ATOM      2  O   UNL     1     -34.339  12.669 -34.265  1.00  0.00    -0.246 OA
ENDROOT
BRANCH   1   3
ATOM      3  O   UNL     1     -32.193  12.027 -33.703  1.00  0.00    -0.462 OA
BRANCH   3   4
ATOM      4  C   UNL     1     -31.762  13.078 -32.841  1.00  0.00     0.230 C 
ATOM      5  C   UNL     1     -32.447  12.975 -31.483  1.00  0.00     0.049 C 
ENDBRANCH   3   4
ENDBRANCH   1   3
BRANCH   1   6
ATOM      6  C   UNL     1     -33.055  11.706 -36.020  1.00  0.00     0.064 A 
ATOM      7  C   UNL     1     -33.675  12.383 -37.086  1.00  0.00     0.065 A 
ATOM      8  C   UNL     1     -32.254  10.586 -36.298  1.00  0.00     0.020 A 
ATOM      9  C   UNL     1     -33.499  11.951 -38.406  1.00  0.00     0.158 A 
ATOM     10  C   UNL     1     -32.076  10.151 -37.615  1.00  0.00     0.051 A 
ATOM     11  C   UNL     1     -32.696  10.829 -38.673  1.00  0.00     0.157 A 
BRANCH   9  12
ATOM     12  O   UNL     1     -34.129  12.647 -39.437  1.00  0.00    -0.504 OA
ATOM     13  H   UNL     1     -34.294  12.230 -40.345  1.00  0.00     0.293 HD
ENDBRANCH   9  12
BRANCH  11  14
ATOM     14  O   UNL     1     -32.517  10.393 -39.984  1.00  0.00    -0.504 OA
ATOM     15  H   UNL     1     -33.251  10.479 -40.677  1.00  0.00     0.293 HD
ENDBRANCH  11  14
ENDBRANCH   1   6
TORSDOF 5
ENDMDL
MODEL 3
REMARK VINA RESULT:    -5.274      1.808      2.173
REMARK INTER + INTRA:          -6.833
REMARK INTER:                  -6.665
REMARK INTRA:                  -0.168
REMARK UNBOUND:                -0.326
REMARK SMILES CCOC(=O)c1ccc(O)c(O)c1
REMARK SMILES IDX 4 1 5 2 3 3 2 4 1 5 6 6 13 7 7 8 11 9 8 10 9 11 12 12 10 14
REMARK H PARENT 12 13 10 15
REMARK Flexibility Score: inf
ROOT
ATOM      1  C   UNL     1     -33.751  11.537 -38.858  1.00  0.00     0.338 C 
ATOM      2  O   UNL     1     -34.356  12.577 -39.239  1.00  0.00    -0.246 OA
ENDROOT
BRANCH   1   3
ATOM      3  O   UNL     1     -33.435  10.530 -39.780  1.00  0.00    -0.462 OA
BRANCH   3   4
ATOM      4  C   UNL     1     -34.337   9.488 -40.148  1.00  0.00     0.230 C 
ATOM      5  C   UNL     1     -35.105   9.861 -41.410  1.00  0.00     0.049 C 
ENDBRANCH   3   4
ENDBRANCH   1   3
BRANCH   1   6
ATOM      6  C   UNL     1     -33.365  11.381 -37.439  1.00  0.00     0.064 A 
ATOM      7  C   UNL     1     -32.733  10.206 -36.991  1.00  0.00     0.065 A 
ATOM      8  C   UNL     1     -33.626  12.409 -36.517  1.00  0.00     0.020 A 
ATOM      9  C   UNL     1     -32.367  10.060 -35.647  1.00  0.00     0.158 A 
ATOM     10  C   UNL     1     -33.262  12.265 -35.175  1.00  0.00     0.051 A 
ATOM     11  C   UNL     1     -32.633  11.094 -34.734  1.00  0.00     0.157 A 
BRANCH   9  12
ATOM     12  O   UNL     1     -31.742   8.882 -35.240  1.00  0.00    -0.504 OA
ATOM     13  H   UNL     1     -30.897   8.887 -34.682  1.00  0.00     0.293 HD
ENDBRANCH   9  12
BRANCH  11  14
ATOM     14  O   UNL     1     -32.271  10.955 -33.395  1.00  0.00    -0.504 OA
ATOM     15  H   UNL     1     -31.301  10.898 -33.110  1.00  0.00     0.293 HD
ENDBRANCH  11  14
ENDBRANCH   1   6
TORSDOF 5
ENDMDL
MODEL 4
REMARK VINA RESULT:    -5.257      1.972      5.149
REMARK INTER + INTRA:          -6.812
REMARK INTER:                  -6.641
REMARK INTRA:                  -0.171
REMARK UNBOUND:                -0.326
REMARK SMILES CCOC(=O)c1ccc(O)c(O)c1
REMARK SMILES IDX 4 1 5 2 3 3 2 4 1 5 6 6 13 7 7 8 11 9 8 10 9 11 12 12 10 14
REMARK H PARENT 12 13 10 15
REMARK Flexibility Score: inf
ROOT
ATOM      1  C   UNL     1     -32.881  11.349 -35.260  1.00  0.00     0.338 C 
ATOM      2  O   UNL     1     -32.533  10.378 -34.533  1.00  0.00    -0.246 OA
ENDROOT
BRANCH   1   3
ATOM      3  O   UNL     1     -32.895  12.649 -34.739  1.00  0.00    -0.462 OA
BRANCH   3   4
ATOM      4  C   UNL     1     -33.333  12.962 -33.418  1.00  0.00     0.230 C 
ATOM      5  C   UNL     1     -32.145  13.274 -32.516  1.00  0.00     0.049 C 
ENDBRANCH   3   4
ENDBRANCH   1   3
BRANCH   1   6
ATOM      6  C   UNL     1     -33.266  11.118 -36.670  1.00  0.00     0.064 A 
ATOM      7  C   UNL     1     -33.654  12.190 -37.493  1.00  0.00     0.065 A 
ATOM      8  C   UNL     1     -33.249   9.818 -37.205  1.00  0.00     0.020 A 
ATOM      9  C   UNL     1     -34.018  11.971 -38.828  1.00  0.00     0.158 A 
ATOM     10  C   UNL     1     -33.612   9.597 -38.537  1.00  0.00     0.051 A 
ATOM     11  C   UNL     1     -33.998  10.669 -39.353  1.00  0.00     0.157 A 
BRANCH   9  12
ATOM     12  O   UNL     1     -34.397  13.059 -39.614  1.00  0.00    -0.504 OA
ATOM     13  H   UNL     1     -34.881  12.943 -40.495  1.00  0.00     0.293 HD
ENDBRANCH   9  12
BRANCH  11  14
ATOM     14  O   UNL     1     -34.359  10.443 -40.680  1.00  0.00    -0.504 OA
ATOM     15  H   UNL     1     -35.105   9.803 -40.926  1.00  0.00     0.293 HD
ENDBRANCH  11  14
ENDBRANCH   1   6
TORSDOF 5
ENDMDL
MODEL 5
REMARK VINA RESULT:    -5.173      1.555      2.401
REMARK INTER + INTRA:          -6.709
REMARK INTER:                  -6.543
REMARK INTRA:                  -0.166
REMARK UNBOUND:                -0.326
REMARK SMILES CCOC(=O)c1ccc(O)c(O)c1
REMARK SMILES IDX 4 1 5 2 3 3 2 4 1 5 6 6 13 7 7 8 11 9 8 10 9 11 12 12 10 14
REMARK H PARENT 12 13 10 15
REMARK Flexibility Score: inf
ROOT
ATOM      1  C   UNL     1     -33.801  11.705 -38.872  1.00  0.00     0.338 C 
ATOM      2  O   UNL     1     -34.214  12.878 -39.092  1.00  0.00    -0.246 OA
ENDROOT
BRANCH   1   3
ATOM      3  O   UNL     1     -33.662  10.798 -39.930  1.00  0.00    -0.462 OA
BRANCH   3   4
ATOM      4  C   UNL     1     -34.729   9.984 -40.415  1.00  0.00     0.230 C 
ATOM      5  C   UNL     1     -35.551  10.737 -41.454  1.00  0.00     0.049 C 
ENDBRANCH   3   4
ENDBRANCH   1   3
BRANCH   1   6
ATOM      6  C   UNL     1     -33.454  11.288 -37.496  1.00  0.00     0.064 A 
ATOM      7  C   UNL     1     -33.664  12.154 -36.407  1.00  0.00     0.065 A 
ATOM      8  C   UNL     1     -32.907  10.015 -37.258  1.00  0.00     0.020 A 
ATOM      9  C   UNL     1     -33.337  11.758 -35.105  1.00  0.00     0.158 A 
ATOM     10  C   UNL     1     -32.579   9.617 -35.959  1.00  0.00     0.051 A 
ATOM     11  C   UNL     1     -32.791  10.484 -34.879  1.00  0.00     0.157 A 
BRANCH   9  12
ATOM     12  O   UNL     1     -33.560  12.643 -34.051  1.00  0.00    -0.504 OA
ATOM     13  H   UNL     1     -33.202  12.472 -33.120  1.00  0.00     0.293 HD
ENDBRANCH   9  12
BRANCH  11  14
ATOM     14  O   UNL     1     -32.463  10.083 -33.585  1.00  0.00    -0.504 OA
ATOM     15  H   UNL     1     -32.034  10.720 -32.924  1.00  0.00     0.293 HD
ENDBRANCH  11  14
ENDBRANCH   1   6
TORSDOF 5
ENDMDL
MODEL 6
REMARK VINA RESULT:    -5.016      1.431      1.931
REMARK INTER + INTRA:          -6.515
REMARK INTER:                  -6.245
REMARK INTRA:                  -0.270
REMARK UNBOUND:                -0.326
REMARK SMILES CCOC(=O)c1ccc(O)c(O)c1
REMARK SMILES IDX 4 1 5 2 3 3 2 4 1 5 6 6 13 7 7 8 11 9 8 10 9 11 12 12 10 14
REMARK H PARENT 12 13 10 15
REMARK Flexibility Score: inf
ROOT
ATOM      1  C   UNL     1     -33.127   9.750 -38.411  1.00  0.00     0.338 C 
ATOM      2  O   UNL     1     -32.198   9.139 -39.009  1.00  0.00    -0.246 OA
ENDROOT
BRANCH   1   3
ATOM      3  O   UNL     1     -34.351   9.973 -39.055  1.00  0.00    -0.462 OA
BRANCH   3   4
ATOM      4  C   UNL     1     -34.477  10.698 -40.277  1.00  0.00     0.230 C 
ATOM      5  C   UNL     1     -34.782  12.166 -40.003  1.00  0.00     0.049 C 
ENDBRANCH   3   4
ENDBRANCH   1   3
BRANCH   1   6
ATOM      6  C   UNL     1     -32.928  10.226 -37.024  1.00  0.00     0.064 A 
ATOM      7  C   UNL     1     -33.593  11.374 -36.557  1.00  0.00     0.065 A 
ATOM      8  C   UNL     1     -32.070   9.534 -36.153  1.00  0.00     0.020 A 
ATOM      9  C   UNL     1     -33.406  11.823 -35.244  1.00  0.00     0.158 A 
ATOM     10  C   UNL     1     -31.881   9.980 -34.842  1.00  0.00     0.051 A 
ATOM     11  C   UNL     1     -32.546  11.124 -34.382  1.00  0.00     0.157 A 
BRANCH   9  12
ATOM     12  O   UNL     1     -34.082  12.966 -34.816  1.00  0.00    -0.504 OA
ATOM     13  H   UNL     1     -34.535  13.597 -35.465  1.00  0.00     0.293 HD
ENDBRANCH   9  12
BRANCH  11  14
ATOM     14  O   UNL     1     -32.355  11.566 -33.074  1.00  0.00    -0.504 OA
ATOM     15  H   UNL     1     -33.112  11.579 -32.402  1.00  0.00     0.293 HD
ENDBRANCH  11  14
ENDBRANCH   1   6
TORSDOF 5
ENDMDL
MODEL 7
REMARK VINA RESULT:    -4.420      1.789      2.428
REMARK INTER + INTRA:          -5.779
REMARK INTER:                  -5.475
REMARK INTRA:                  -0.304
REMARK UNBOUND:                -0.326
REMARK SMILES CCOC(=O)c1ccc(O)c(O)c1
REMARK SMILES IDX 4 1 5 2 3 3 2 4 1 5 6 6 13 7 7 8 11 9 8 10 9 11 12 12 10 14
REMARK H PARENT 12 13 10 15
REMARK Flexibility Score: inf
ROOT
ATOM      1  C   UNL     1     -33.483   9.500 -39.662  1.00  0.00     0.338 C 
ATOM      2  O   UNL     1     -32.497   9.451 -40.448  1.00  0.00    -0.246 OA
ENDROOT
BRANCH   1   3
ATOM      3  O   UNL     1     -34.788   9.496 -40.170  1.00  0.00    -0.462 OA
BRANCH   3   4
ATOM      4  C   UNL     1     -35.294  10.500 -41.049  1.00  0.00     0.230 C 
ATOM      5  C   UNL     1     -35.122  11.886 -40.438  1.00  0.00     0.049 C 
ENDBRANCH   3   4
ENDBRANCH   1   3
BRANCH   1   6
ATOM      6  C   UNL     1     -33.264   9.553 -38.200  1.00  0.00     0.064 A 
ATOM      7  C   UNL     1     -32.010   9.913 -37.674  1.00  0.00     0.065 A 
ATOM      8  C   UNL     1     -34.311   9.243 -37.315  1.00  0.00     0.020 A 
ATOM      9  C   UNL     1     -31.804   9.965 -36.290  1.00  0.00     0.158 A 
ATOM     10  C   UNL     1     -34.107   9.293 -35.933  1.00  0.00     0.051 A 
ATOM     11  C   UNL     1     -32.857   9.653 -35.414  1.00  0.00     0.157 A 
BRANCH   9  12
ATOM     12  O   UNL     1     -30.547  10.327 -35.805  1.00  0.00    -0.504 OA
ATOM     13  H   UNL     1     -30.061  11.152 -36.133  1.00  0.00     0.293 HD
ENDBRANCH   9  12
BRANCH  11  14
ATOM     14  O   UNL     1     -32.658   9.702 -34.036  1.00  0.00    -0.504 OA
ATOM     15  H   UNL     1     -31.855  10.169 -33.631  1.00  0.00     0.293 HD
ENDBRANCH  11  14
ENDBRANCH   1   6
TORSDOF 5
ENDMDL
MODEL 8
REMARK VINA RESULT:    -4.037      2.583      4.101
REMARK INTER + INTRA:          -5.306
REMARK INTER:                  -5.042
REMARK INTRA:                  -0.265
REMARK UNBOUND:                -0.326
REMARK SMILES CCOC(=O)c1ccc(O)c(O)c1
REMARK SMILES IDX 4 1 5 2 3 3 2 4 1 5 6 6 13 7 7 8 11 9 8 10 9 11 12 12 10 14
REMARK H PARENT 12 13 10 15
REMARK Flexibility Score: inf
ROOT
ATOM      1  C   UNL     1     -35.999  10.598 -41.956  1.00  0.00     0.338 C 
ATOM      2  O   UNL     1     -35.923  11.281 -43.015  1.00  0.00    -0.246 OA
ENDROOT
BRANCH   1   3
ATOM      3  O   UNL     1     -36.900   9.528 -41.873  1.00  0.00    -0.462 OA
BRANCH   3   4
ATOM      4  C   UNL     1     -38.306   9.664 -42.078  1.00  0.00     0.230 C 
ATOM      5  C   UNL     1     -38.861  10.817 -41.250  1.00  0.00     0.049 C 
ENDBRANCH   3   4
ENDBRANCH   1   3
BRANCH   1   6
ATOM      6  C   UNL     1     -35.131  10.919 -40.803  1.00  0.00     0.064 A 
ATOM      7  C   UNL     1     -34.344   9.923 -40.197  1.00  0.00     0.065 A 
ATOM      8  C   UNL     1     -35.081  12.229 -40.297  1.00  0.00     0.020 A 
ATOM      9  C   UNL     1     -33.520  10.229 -39.106  1.00  0.00     0.158 A 
ATOM     10  C   UNL     1     -34.261  12.537 -39.208  1.00  0.00     0.051 A 
ATOM     11  C   UNL     1     -33.479  11.542 -38.608  1.00  0.00     0.157 A 
BRANCH   9  12
ATOM     12  O   UNL     1     -32.754   9.216 -38.531  1.00  0.00    -0.504 OA
ATOM     13  H   UNL     1     -33.171   8.371 -38.158  1.00  0.00     0.293 HD
ENDBRANCH   9  12
BRANCH  11  14
ATOM     14  O   UNL     1     -32.662  11.852 -37.522  1.00  0.00    -0.504 OA
ATOM     15  H   UNL     1     -33.031  11.915 -36.581  1.00  0.00     0.293 HD
ENDBRANCH  11  14
ENDBRANCH   1   6
TORSDOF 5
ENDMDL
