MODEL 1
REMARK VINA RESULT:    -4.347      0.000      0.000
REMARK INTER + INTRA:          -5.502
REMARK INTER:                  -5.363
REMARK INTRA:                  -0.139
REMARK UNBOUND:                -0.139
REMARK SMILES CCCCCC(=O)[O-]
REMARK SMILES IDX 4 1 5 2 6 3 7 4 8 5 3 6 2 7 1 8
REMARK H PARENT
REMARK Flexibility Score: inf
ROOT
ATOM      1  C   UNL     1      86.546 320.905 194.392  1.00  0.00     0.006 C 
ENDROOT
BRANCH   1   2
ATOM      2  C   UNL     1      86.378 319.679 193.486  1.00  0.00     0.053 C 
BRANCH   2   3
ATOM      3  C   UNL     1      84.933 319.312 193.363  1.00  0.00     0.041 C 
ATOM      4  O   UNL     1      84.090 319.778 194.174  1.00  0.00    -0.550 OA
ATOM      5  O   UNL     1      84.523 318.415 192.383  1.00  0.00    -0.550 OA
ENDBRANCH   2   3
ENDBRANCH   1   2
BRANCH   1   6
ATOM      6  C   UNL     1      87.379 320.591 195.652  1.00  0.00     0.000 C 
BRANCH   6   7
ATOM      7  C   UNL     1      86.530 320.177 196.865  1.00  0.00    -0.003 C 
ATOM      8  C   UNL     1      87.028 320.780 198.177  1.00  0.00     0.004 C 
ENDBRANCH   6   7
ENDBRANCH   1   6
TORSDOF 4
ENDMDL
MODEL 2
REMARK VINA RESULT:    -4.220     20.902     21.523
REMARK INTER + INTRA:          -5.345
REMARK INTER:                  -5.217
REMARK INTRA:                  -0.128
REMARK UNBOUND:                -0.139
REMARK SMILES CCCCCC(=O)[O-]
REMARK SMILES IDX 4 1 5 2 6 3 7 4 8 5 3 6 2 7 1 8
REMARK H PARENT
REMARK Flexibility Score: inf
ROOT
ATOM      1  C   UNL     1     103.979 306.741 192.949  1.00  0.00     0.006 C 
ENDROOT
BRANCH   1   2
ATOM      2  C   UNL     1     102.693 305.960 193.251  1.00  0.00     0.053 C 
BRANCH   2   3
ATOM      3  C   UNL     1     102.235 306.226 194.651  1.00  0.00     0.041 C 
ATOM      4  O   UNL     1     101.097 305.843 195.029  1.00  0.00    -0.550 OA
ATOM      5  O   UNL     1     103.046 306.942 195.524  1.00  0.00    -0.550 OA
ENDBRANCH   2   3
ENDBRANCH   1   2
BRANCH   1   6
ATOM      6  C   UNL     1     103.750 307.863 191.915  1.00  0.00     0.000 C 
BRANCH   6   7
ATOM      7  C   UNL     1     102.301 307.950 191.410  1.00  0.00    -0.003 C 
ATOM      8  C   UNL     1     102.132 308.917 190.240  1.00  0.00     0.004 C 
ENDBRANCH   6   7
ENDBRANCH   1   6
TORSDOF 4
ENDMDL
MODEL 3
REMARK VINA RESULT:    -4.216     20.714     21.227
REMARK INTER + INTRA:          -5.340
REMARK INTER:                  -5.223
REMARK INTRA:                  -0.118
REMARK UNBOUND:                -0.139
REMARK SMILES CCCCCC(=O)[O-]
REMARK SMILES IDX 4 1 5 2 6 3 7 4 8 5 3 6 2 7 1 8
REMARK H PARENT
REMARK Flexibility Score: inf
ROOT
ATOM      1  C   UNL     1     103.718 307.319 192.378  1.00  0.00     0.006 C 
ENDROOT
BRANCH   1   2
ATOM      2  C   UNL     1     102.466 307.853 191.670  1.00  0.00     0.053 C 
BRANCH   2   3
ATOM      3  C   UNL     1     102.848 308.783 190.562  1.00  0.00     0.041 C 
ATOM      4  O   UNL     1     104.039 309.173 190.444  1.00  0.00    -0.550 OA
ATOM      5  O   UNL     1     101.878 309.260 189.689  1.00  0.00    -0.550 OA
ENDBRANCH   2   3
ENDBRANCH   1   2
BRANCH   1   6
ATOM      6  C   UNL     1     103.419 306.065 193.226  1.00  0.00     0.000 C 
BRANCH   6   7
ATOM      7  C   UNL     1     101.919 305.814 193.447  1.00  0.00    -0.003 C 
ATOM      8  C   UNL     1     101.463 306.127 194.871  1.00  0.00     0.004 C 
ENDBRANCH   6   7
ENDBRANCH   1   6
TORSDOF 4
ENDMDL
MODEL 4
REMARK VINA RESULT:    -4.193     20.881     21.497
REMARK INTER + INTRA:          -5.312
REMARK INTER:                  -5.227
REMARK INTRA:                  -0.085
REMARK UNBOUND:                -0.139
REMARK SMILES CCCCCC(=O)[O-]
REMARK SMILES IDX 4 1 5 2 6 3 7 4 8 5 3 6 2 7 1 8
REMARK H PARENT
REMARK Flexibility Score: inf
ROOT
ATOM      1  C   UNL     1     101.524 306.188 194.622  1.00  0.00     0.006 C 
ENDROOT
BRANCH   1   2
ATOM      2  C   UNL     1     102.607 306.421 195.684  1.00  0.00     0.053 C 
BRANCH   2   3
ATOM      3  C   UNL     1     102.032 306.279 197.058  1.00  0.00     0.041 C 
ATOM      4  O   UNL     1     101.665 305.150 197.478  1.00  0.00    -0.550 OA
ATOM      5  O   UNL     1     101.855 307.402 197.858  1.00  0.00    -0.550 OA
ENDBRANCH   2   3
ENDBRANCH   1   2
BRANCH   1   6
ATOM      6  C   UNL     1     102.122 305.796 193.255  1.00  0.00     0.000 C 
BRANCH   6   7
ATOM      7  C   UNL     1     103.006 306.889 192.633  1.00  0.00    -0.003 C 
ATOM      8  C   UNL     1     102.247 307.789 191.659  1.00  0.00     0.004 C 
ENDBRANCH   6   7
ENDBRANCH   1   6
TORSDOF 4
ENDMDL
MODEL 5
REMARK VINA RESULT:    -4.142      1.520      2.416
REMARK INTER + INTRA:          -5.249
REMARK INTER:                  -5.134
REMARK INTRA:                  -0.115
REMARK UNBOUND:                -0.139
REMARK SMILES CCCCCC(=O)[O-]
REMARK SMILES IDX 4 1 5 2 6 3 7 4 8 5 3 6 2 7 1 8
REMARK H PARENT
REMARK Flexibility Score: inf
ROOT
ATOM      1  C   UNL     1      84.934 319.617 193.598  1.00  0.00     0.006 C 
ENDROOT
BRANCH   1   2
ATOM      2  C   UNL     1      86.127 319.037 192.827  1.00  0.00     0.053 C 
BRANCH   2   3
ATOM      3  C   UNL     1      85.653 318.151 191.718  1.00  0.00     0.041 C 
ATOM      4  O   UNL     1      86.434 317.834 190.782  1.00  0.00    -0.550 OA
ATOM      5  O   UNL     1      84.334 317.715 191.692  1.00  0.00    -0.550 OA
ENDBRANCH   2   3
ENDBRANCH   1   2
BRANCH   1   6
ATOM      6  C   UNL     1      85.353 320.754 194.553  1.00  0.00     0.000 C 
BRANCH   6   7
ATOM      7  C   UNL     1      86.872 320.846 194.771  1.00  0.00    -0.003 C 
ATOM      8  C   UNL     1      87.304 320.402 196.168  1.00  0.00     0.004 C 
ENDBRANCH   6   7
ENDBRANCH   1   6
TORSDOF 4
ENDMDL
MODEL 6
REMARK VINA RESULT:    -4.141     21.027     21.302
REMARK INTER + INTRA:          -5.248
REMARK INTER:                  -5.113
REMARK INTRA:                  -0.135
REMARK UNBOUND:                -0.139
REMARK SMILES CCCCCC(=O)[O-]
REMARK SMILES IDX 4 1 5 2 6 3 7 4 8 5 3 6 2 7 1 8
REMARK H PARENT
REMARK Flexibility Score: inf
ROOT
ATOM      1  C   UNL     1     102.516 306.097 193.125  1.00  0.00     0.006 C 
ENDROOT
BRANCH   1   2
ATOM      2  C   UNL     1     102.200 307.296 192.221  1.00  0.00     0.053 C 
BRANCH   2   3
ATOM      3  C   UNL     1     103.357 308.244 192.184  1.00  0.00     0.041 C 
ATOM      4  O   UNL     1     103.734 308.824 193.236  1.00  0.00    -0.550 OA
ATOM      5  O   UNL     1     103.988 308.526 190.978  1.00  0.00    -0.550 OA
ENDBRANCH   2   3
ENDBRANCH   1   2
BRANCH   1   6
ATOM      6  C   UNL     1     101.646 306.082 194.399  1.00  0.00     0.000 C 
BRANCH   6   7
ATOM      7  C   UNL     1     102.378 306.594 195.650  1.00  0.00    -0.003 C 
ATOM      8  C   UNL     1     101.970 305.858 196.925  1.00  0.00     0.004 C 
ENDBRANCH   6   7
ENDBRANCH   1   6
TORSDOF 4
ENDMDL
MODEL 7
REMARK VINA RESULT:    -4.081      2.437      4.154
REMARK INTER + INTRA:          -5.174
REMARK INTER:                  -5.010
REMARK INTRA:                  -0.164
REMARK UNBOUND:                -0.139
REMARK SMILES CCCCCC(=O)[O-]
REMARK SMILES IDX 4 1 5 2 6 3 7 4 8 5 3 6 2 7 1 8
REMARK H PARENT
REMARK Flexibility Score: inf
ROOT
ATOM      1  C   UNL     1      85.453 320.838 194.449  1.00  0.00     0.006 C 
ENDROOT
BRANCH   1   2
ATOM      2  C   UNL     1      86.886 320.764 194.992  1.00  0.00     0.053 C 
BRANCH   2   3
ATOM      3  C   UNL     1      86.924 319.977 196.264  1.00  0.00     0.041 C 
ATOM      4  O   UNL     1      86.471 320.472 197.330  1.00  0.00    -0.550 OA
ATOM      5  O   UNL     1      87.504 318.714 196.284  1.00  0.00    -0.550 OA
ENDBRANCH   2   3
ENDBRANCH   1   2
BRANCH   1   6
ATOM      6  C   UNL     1      85.078 319.591 193.623  1.00  0.00     0.000 C 
BRANCH   6   7
ATOM      7  C   UNL     1      86.214 319.085 192.719  1.00  0.00    -0.003 C 
ATOM      8  C   UNL     1      85.747 318.058 191.689  1.00  0.00     0.004 C 
ENDBRANCH   6   7
ENDBRANCH   1   6
TORSDOF 4
ENDMDL
MODEL 8
REMARK VINA RESULT:    -4.061      2.971      4.380
REMARK INTER + INTRA:          -5.149
REMARK INTER:                  -5.013
REMARK INTRA:                  -0.136
REMARK UNBOUND:                -0.139
REMARK SMILES CCCCCC(=O)[O-]
REMARK SMILES IDX 4 1 5 2 6 3 7 4 8 5 3 6 2 7 1 8
REMARK H PARENT
REMARK Flexibility Score: inf
ROOT
ATOM      1  C   UNL     1      87.282 320.729 195.428  1.00  0.00     0.006 C 
ENDROOT
BRANCH   1   2
ATOM      2  C   UNL     1      87.117 319.359 196.100  1.00  0.00     0.053 C 
BRANCH   2   3
ATOM      3  C   UNL     1      87.005 319.515 197.584  1.00  0.00     0.041 C 
ATOM      4  O   UNL     1      86.946 318.498 198.324  1.00  0.00    -0.550 OA
ATOM      5  O   UNL     1      86.916 320.783 198.146  1.00  0.00    -0.550 OA
ENDBRANCH   2   3
ENDBRANCH   1   2
BRANCH   1   6
ATOM      6  C   UNL     1      86.460 320.843 194.127  1.00  0.00     0.000 C 
BRANCH   6   7
ATOM      7  C   UNL     1      85.702 319.556 193.761  1.00  0.00    -0.003 C 
ATOM      8  C   UNL     1      86.204 318.913 192.470  1.00  0.00     0.004 C 
ENDBRANCH   6   7
ENDBRANCH   1   6
TORSDOF 4
ENDMDL
MODEL 9
REMARK VINA RESULT:    -3.961      2.583      4.986
REMARK INTER + INTRA:          -5.026
REMARK INTER:                  -4.980
REMARK INTRA:                  -0.047
REMARK UNBOUND:                -0.139
REMARK SMILES CCCCCC(=O)[O-]
REMARK SMILES IDX 4 1 5 2 6 3 7 4 8 5 3 6 2 7 1 8
REMARK H PARENT
REMARK Flexibility Score: inf
ROOT
ATOM      1  C   UNL     1      86.125 319.056 192.780  1.00  0.00     0.006 C 
ENDROOT
BRANCH   1   2
ATOM      2  C   UNL     1      84.972 319.490 193.693  1.00  0.00     0.053 C 
BRANCH   2   3
ATOM      3  C   UNL     1      85.406 320.604 194.593  1.00  0.00     0.041 C 
ATOM      4  O   UNL     1      86.447 321.262 194.329  1.00  0.00    -0.550 OA
ATOM      5  O   UNL     1      84.690 320.884 195.750  1.00  0.00    -0.550 OA
ENDBRANCH   2   3
ENDBRANCH   1   2
BRANCH   1   6
ATOM      6  C   UNL     1      85.680 318.016 191.731  1.00  0.00     0.000 C 
BRANCH   6   7
ATOM      7  C   UNL     1      86.651 317.880 190.547  1.00  0.00    -0.003 C 
ATOM      8  C   UNL     1      86.086 317.040 189.403  1.00  0.00     0.004 C 
ENDBRANCH   6   7
ENDBRANCH   1   6
TORSDOF 4
ENDMDL
