MODEL 1
REMARK VINA RESULT:    -3.086      0.000      0.000
REMARK INTER + INTRA:          -3.988
REMARK INTER:                  -4.349
REMARK INTRA:                   0.360
REMARK UNBOUND:                 0.360
REMARK SMILES CC1=CCC(=C(C)C)C(=O)CC(C)=CCC1
REMARK SMILES IDX 12 1 14 2 13 3 15 4 16 5 2 6 1 7 3 8 11 10 9 11 10 12 5 13
REMARK SMILES IDX 6 14 7 15 8 16 4 17
REMARK H PARENT
REMARK Flexibility Score: 60.00
ROOT
ATOM      1  C   UNL     1      82.869  -4.801  27.995  1.00  0.00    -0.070 C 
ATOM      2  C   UNL     1      83.707  -4.517  29.017  1.00  0.00    -0.027 C 
ATOM      3  C   UNL     1      83.334  -4.486  26.594  1.00  0.00     0.039 C 
ENDROOT
BRANCH   2   4
ATOM      4  C   UNL     1      83.387  -4.669  30.489  1.00  0.00     0.032 C 
BRANCH   4   5
ATOM      5  C   UNL     1      83.141  -6.120  30.951  1.00  0.00     0.034 C 
BRANCH   5   6
ATOM      6  C   UNL     1      84.186  -7.095  30.440  1.00  0.00    -0.077 C 
ATOM      7  C   UNL     1      85.605  -6.919  30.920  1.00  0.00     0.039 C 
ATOM      8  C   UNL     1      83.941  -8.068  29.529  1.00  0.00    -0.023 CG0
ATOM      9  G   UNL     1      82.601  -8.440  28.924  1.00  0.00     0.000 G0
ENDBRANCH   5   6
ENDBRANCH   4   5
ENDBRANCH   2   4
BRANCH   1  10
ATOM     10  C   UNL     1      81.464  -5.331  28.193  1.00  0.00     0.111 C 
BRANCH  10  11
ATOM     11  C   UNL     1      81.287  -6.686  27.563  1.00  0.00     0.163 C 
ATOM     12  O   UNL     1      80.174  -6.956  27.036  1.00  0.00    -0.294 OA
BRANCH  11  13
ATOM     13  C   UNL     1      82.352  -7.732  27.599  1.00  0.00    -0.002 C 
ATOM     14  C   UNL     1      83.012  -8.097  26.458  1.00  0.00    -0.069 C 
ATOM     15  C   UNL     1      82.801  -7.353  25.157  1.00  0.00     0.039 C 
ATOM     16  C   UNL     1      83.982  -9.259  26.431  1.00  0.00     0.039 C 
BRANCH  13  17
ATOM     17  C   UNL     1      82.599  -8.430  28.927  1.00  0.00     0.066 CG0
ATOM     18  G   UNL     1      83.942  -8.065  29.529  1.00  0.00     0.000 G0
ENDBRANCH  13  17
ENDBRANCH  11  13
ENDBRANCH  10  11
ENDBRANCH   1  10
TORSDOF 0
ENDMDL
MODEL 2
REMARK VINA RESULT:    -3.035      1.878      4.118
REMARK INTER + INTRA:          -3.917
REMARK INTER:                  -4.219
REMARK INTRA:                   0.302
REMARK UNBOUND:                 0.360
REMARK SMILES CC1=CCC(=C(C)C)C(=O)CC(C)=CCC1
REMARK SMILES IDX 12 1 14 2 13 3 15 4 16 5 2 6 1 7 3 8 11 10 9 11 10 12 5 13
REMARK SMILES IDX 6 14 7 15 8 16 4 17
REMARK H PARENT
REMARK Flexibility Score: 60.00
ROOT
ATOM      1  C   UNL     1      81.038  -5.885  28.356  1.00  0.00    -0.070 C 
ATOM      2  C   UNL     1      81.065  -7.045  27.662  1.00  0.00    -0.027 C 
ATOM      3  C   UNL     1      80.169  -4.770  27.833  1.00  0.00     0.039 C 
ENDROOT
BRANCH   2   4
ATOM      4  C   UNL     1      81.943  -8.239  27.971  1.00  0.00     0.032 C 
BRANCH   4   5
ATOM      5  C   UNL     1      83.427  -8.068  27.585  1.00  0.00     0.034 C 
BRANCH   5   6
ATOM      6  C   UNL     1      84.383  -8.564  28.654  1.00  0.00    -0.077 C 
ATOM      7  C   UNL     1      84.325 -10.025  29.025  1.00  0.00     0.039 C 
ATOM      8  C   UNL     1      85.237  -7.768  29.344  1.00  0.00    -0.023 CG0
ATOM      9  G   UNL     1      85.480  -6.286  29.133  1.00  0.00     0.000 G0
ENDBRANCH   5   6
ENDBRANCH   4   5
ENDBRANCH   2   4
BRANCH   1  10
ATOM     10  C   UNL     1      81.903  -5.625  29.573  1.00  0.00     0.111 C 
BRANCH  10  11
ATOM     11  C   UNL     1      83.237  -5.041  29.191  1.00  0.00     0.163 C 
ATOM     12  O   UNL     1      83.282  -4.254  28.206  1.00  0.00    -0.294 OA
BRANCH  11  13
ATOM     13  C   UNL     1      84.503  -5.410  29.891  1.00  0.00    -0.002 C 
ATOM     14  C   UNL     1      84.790  -4.903  31.129  1.00  0.00    -0.069 C 
ATOM     15  C   UNL     1      83.776  -4.083  31.896  1.00  0.00     0.039 C 
ATOM     16  C   UNL     1      86.130  -5.131  31.795  1.00  0.00     0.039 C 
BRANCH  13  17
ATOM     17  C   UNL     1      85.488  -6.286  29.134  1.00  0.00     0.066 CG0
ATOM     18  G   UNL     1      85.235  -7.764  29.359  1.00  0.00     0.000 G0
ENDBRANCH  13  17
ENDBRANCH  11  13
ENDBRANCH  10  11
ENDBRANCH   1  10
TORSDOF 0
ENDMDL
MODEL 3
REMARK VINA RESULT:    -3.009      2.034      3.965
REMARK INTER + INTRA:          -3.880
REMARK INTER:                  -4.287
REMARK INTRA:                   0.407
REMARK UNBOUND:                 0.360
REMARK SMILES CC1=CCC(=C(C)C)C(=O)CC(C)=CCC1
REMARK SMILES IDX 12 1 14 2 13 3 15 4 16 5 2 6 1 7 3 8 11 10 9 11 10 12 5 13
REMARK SMILES IDX 6 14 7 15 8 16 4 17
REMARK H PARENT
REMARK Flexibility Score: 60.00
ROOT
ATOM      1  C   UNL     1      83.469  -8.330  27.204  1.00  0.00    -0.070 C 
ATOM      2  C   UNL     1      84.279  -7.392  27.744  1.00  0.00    -0.027 C 
ATOM      3  C   UNL     1      83.842  -8.894  25.855  1.00  0.00     0.039 C 
ENDROOT
BRANCH   2   4
ATOM      4  C   UNL     1      84.025  -6.642  29.033  1.00  0.00     0.032 C 
BRANCH   4   5
ATOM      5  C   UNL     1      83.934  -5.109  28.883  1.00  0.00     0.034 C 
BRANCH   5   6
ATOM      6  C   UNL     1      82.868  -4.668  27.896  1.00  0.00    -0.077 C 
ATOM      7  C   UNL     1      83.286  -3.747  26.777  1.00  0.00     0.039 C 
ATOM      8  C   UNL     1      81.556  -4.992  27.995  1.00  0.00    -0.023 CG0
ATOM      9  G   UNL     1      80.913  -5.910  29.016  1.00  0.00     0.000 G0
ENDBRANCH   5   6
ENDBRANCH   4   5
ENDBRANCH   2   4
BRANCH   1  10
ATOM     10  C   UNL     1      82.167  -8.771  27.842  1.00  0.00     0.111 C 
BRANCH  10  11
ATOM     11  C   UNL     1      81.015  -7.905  27.407  1.00  0.00     0.163 C 
ATOM     12  O   UNL     1      80.770  -7.817  26.173  1.00  0.00    -0.294 OA
BRANCH  11  13
ATOM     13  C   UNL     1      80.203  -7.107  28.373  1.00  0.00    -0.002 C 
ATOM     14  C   UNL     1      78.886  -7.403  28.592  1.00  0.00    -0.069 C 
ATOM     15  C   UNL     1      78.249  -8.636  27.989  1.00  0.00     0.039 C 
ATOM     16  C   UNL     1      77.998  -6.520  29.442  1.00  0.00     0.039 C 
BRANCH  13  17
ATOM     17  C   UNL     1      80.874  -5.906  29.021  1.00  0.00     0.066 CG0
ATOM     18  G   UNL     1      81.533  -4.995  28.003  1.00  0.00     0.000 G0
ENDBRANCH  13  17
ENDBRANCH  11  13
ENDBRANCH  10  11
ENDBRANCH   1  10
TORSDOF 0
ENDMDL
MODEL 4
REMARK VINA RESULT:    -2.985      1.844      3.934
REMARK INTER + INTRA:          -3.846
REMARK INTER:                  -4.224
REMARK INTRA:                   0.379
REMARK UNBOUND:                 0.360
REMARK SMILES CC1=CCC(=C(C)C)C(=O)CC(C)=CCC1
REMARK SMILES IDX 12 1 14 2 13 3 15 4 16 5 2 6 1 7 3 8 11 10 9 11 10 12 5 13
REMARK SMILES IDX 6 14 7 15 8 16 4 17
REMARK H PARENT
REMARK Flexibility Score: 60.00
ROOT
ATOM      1  C   UNL     1      82.768  -5.103  28.061  1.00  0.00    -0.070 C 
ATOM      2  C   UNL     1      81.697  -5.737  27.534  1.00  0.00    -0.027 C 
ATOM      3  C   UNL     1      83.288  -3.881  27.344  1.00  0.00     0.039 C 
ENDROOT
BRANCH   2   4
ATOM      4  C   UNL     1      81.092  -7.025  28.049  1.00  0.00     0.032 C 
BRANCH   4   5
ATOM      5  C   UNL     1      81.174  -8.215  27.069  1.00  0.00     0.034 C 
BRANCH   5   6
ATOM      6  C   UNL     1      82.552  -8.392  26.459  1.00  0.00    -0.077 C 
ATOM      7  C   UNL     1      82.679  -8.260  24.962  1.00  0.00     0.039 C 
ATOM      8  C   UNL     1      83.661  -8.729  27.162  1.00  0.00    -0.023 CG0
ATOM      9  G   UNL     1      83.777  -8.896  28.665  1.00  0.00     0.000 G0
ENDBRANCH   5   6
ENDBRANCH   4   5
ENDBRANCH   2   4
BRANCH   1  10
ATOM     10  C   UNL     1      83.520  -5.609  29.274  1.00  0.00     0.111 C 
BRANCH  10  11
ATOM     11  C   UNL     1      84.669  -6.500  28.883  1.00  0.00     0.163 C 
ATOM     12  O   UNL     1      85.556  -6.027  28.122  1.00  0.00    -0.294 OA
BRANCH  11  13
ATOM     13  C   UNL     1      84.758  -7.928  29.311  1.00  0.00    -0.002 C 
ATOM     14  C   UNL     1      85.723  -8.336  30.189  1.00  0.00    -0.069 C 
ATOM     15  C   UNL     1      86.631  -7.340  30.876  1.00  0.00     0.039 C 
ATOM     16  C   UNL     1      85.938  -9.798  30.519  1.00  0.00     0.039 C 
BRANCH  13  17
ATOM     17  C   UNL     1      83.797  -8.910  28.659  1.00  0.00     0.066 CG0
ATOM     18  G   UNL     1      83.689  -8.703  27.161  1.00  0.00     0.000 G0
ENDBRANCH  13  17
ENDBRANCH  11  13
ENDBRANCH  10  11
ENDBRANCH   1  10
TORSDOF 0
ENDMDL
MODEL 5
REMARK VINA RESULT:    -2.948      2.295      4.037
REMARK INTER + INTRA:          -3.794
REMARK INTER:                  -4.384
REMARK INTRA:                   0.590
REMARK UNBOUND:                 0.360
REMARK SMILES CC1=CCC(=C(C)C)C(=O)CC(C)=CCC1
REMARK SMILES IDX 12 1 14 2 13 3 15 4 16 5 2 6 1 7 3 8 11 10 9 11 10 12 5 13
REMARK SMILES IDX 6 14 7 15 8 16 4 17
REMARK H PARENT
REMARK Flexibility Score: 60.00
ROOT
ATOM      1  C   UNL     1      82.180  -4.901  27.372  1.00  0.00    -0.070 C 
ATOM      2  C   UNL     1      80.924  -4.492  27.661  1.00  0.00    -0.027 C 
ATOM      3  C   UNL     1      83.172  -3.862  26.909  1.00  0.00     0.039 C 
ENDROOT
BRANCH   2   4
ATOM      4  C   UNL     1      79.769  -5.391  28.045  1.00  0.00     0.032 C 
BRANCH   4   5
ATOM      5  C   UNL     1      79.252  -5.200  29.486  1.00  0.00     0.034 C 
BRANCH   5   6
ATOM      6  C   UNL     1      79.770  -6.253  30.450  1.00  0.00    -0.077 C 
ATOM      7  C   UNL     1      78.818  -7.343  30.876  1.00  0.00     0.039 C 
ATOM      8  C   UNL     1      81.006  -6.238  31.005  1.00  0.00    -0.023 CG0
ATOM      9  G   UNL     1      82.128  -5.260  30.715  1.00  0.00     0.000 G0
ENDBRANCH   5   6
ENDBRANCH   4   5
ENDBRANCH   2   4
BRANCH   1  10
ATOM     10  C   UNL     1      82.609  -6.353  27.404  1.00  0.00     0.111 C 
BRANCH  10  11
ATOM     11  C   UNL     1      82.863  -6.827  28.810  1.00  0.00     0.163 C 
ATOM     12  O   UNL     1      82.685  -8.049  29.067  1.00  0.00    -0.294 OA
BRANCH  11  13
ATOM     13  C   UNL     1      83.251  -5.897  29.912  1.00  0.00    -0.002 C 
ATOM     14  C   UNL     1      84.567  -5.697  30.227  1.00  0.00    -0.069 C 
ATOM     15  C   UNL     1      85.675  -6.283  29.378  1.00  0.00     0.039 C 
ATOM     16  C   UNL     1      84.987  -4.886  31.434  1.00  0.00     0.039 C 
BRANCH  13  17
ATOM     17  C   UNL     1      82.128  -5.264  30.717  1.00  0.00     0.066 CG0
ATOM     18  G   UNL     1      81.014  -6.246  31.024  1.00  0.00     0.000 G0
ENDBRANCH  13  17
ENDBRANCH  11  13
ENDBRANCH  10  11
ENDBRANCH   1  10
TORSDOF 0
ENDMDL
MODEL 6
REMARK VINA RESULT:    -2.846      2.241      3.337
REMARK INTER + INTRA:          -3.650
REMARK INTER:                  -4.057
REMARK INTRA:                   0.406
REMARK UNBOUND:                 0.360
REMARK SMILES CC1=CCC(=C(C)C)C(=O)CC(C)=CCC1
REMARK SMILES IDX 12 1 14 2 13 3 15 4 16 5 2 6 1 7 3 8 11 10 9 11 10 12 5 13
REMARK SMILES IDX 6 14 7 15 8 16 4 17
REMARK H PARENT
REMARK Flexibility Score: 60.00
ROOT
ATOM      1  C   UNL     1      82.967  -5.095  27.625  1.00  0.00    -0.070 C 
ATOM      2  C   UNL     1      83.889  -5.339  28.583  1.00  0.00    -0.027 C 
ATOM      3  C   UNL     1      83.036  -3.774  26.900  1.00  0.00     0.039 C 
ENDROOT
BRANCH   2   4
ATOM      4  C   UNL     1      83.927  -6.557  29.482  1.00  0.00     0.032 C 
BRANCH   4   5
ATOM      5  C   UNL     1      83.638  -6.271  30.970  1.00  0.00     0.034 C 
BRANCH   5   6
ATOM      6  C   UNL     1      82.511  -5.277  31.180  1.00  0.00    -0.077 C 
ATOM      7  C   UNL     1      82.864  -3.925  31.749  1.00  0.00     0.039 C 
ATOM      8  C   UNL     1      81.202  -5.548  30.955  1.00  0.00    -0.023 CG0
ATOM      9  G   UNL     1      80.618  -6.820  30.372  1.00  0.00     0.000 G0
ENDBRANCH   5   6
ENDBRANCH   4   5
ENDBRANCH   2   4
BRANCH   1  10
ATOM     10  C   UNL     1      81.824  -6.038  27.311  1.00  0.00     0.111 C 
BRANCH  10  11
ATOM     11  C   UNL     1      80.575  -5.668  28.066  1.00  0.00     0.163 C 
ATOM     12  O   UNL     1      80.113  -4.505  27.916  1.00  0.00    -0.294 OA
BRANCH  11  13
ATOM     13  C   UNL     1      79.912  -6.602  29.025  1.00  0.00    -0.002 C 
ATOM     14  C   UNL     1      78.697  -7.157  28.732  1.00  0.00    -0.069 C 
ATOM     15  C   UNL     1      78.057  -6.974  27.373  1.00  0.00     0.039 C 
ATOM     16  C   UNL     1      77.929  -7.979  29.744  1.00  0.00     0.039 C 
BRANCH  13  17
ATOM     17  C   UNL     1      80.597  -6.828  30.363  1.00  0.00     0.066 CG0
ATOM     18  G   UNL     1      81.198  -5.554  30.925  1.00  0.00     0.000 G0
ENDBRANCH  13  17
ENDBRANCH  11  13
ENDBRANCH  10  11
ENDBRANCH   1  10
TORSDOF 0
ENDMDL
MODEL 7
REMARK VINA RESULT:    -2.836      2.335      4.035
REMARK INTER + INTRA:          -3.637
REMARK INTER:                  -3.829
REMARK INTRA:                   0.192
REMARK UNBOUND:                 0.360
REMARK SMILES CC1=CCC(=C(C)C)C(=O)CC(C)=CCC1
REMARK SMILES IDX 12 1 14 2 13 3 15 4 16 5 2 6 1 7 3 8 11 10 9 11 10 12 5 13
REMARK SMILES IDX 6 14 7 15 8 16 4 17
REMARK H PARENT
REMARK Flexibility Score: 60.00
ROOT
ATOM      1  C   UNL     1      81.995  -5.043  31.406  1.00  0.00    -0.070 C 
ATOM      2  C   UNL     1      80.666  -4.829  31.539  1.00  0.00    -0.027 C 
ATOM      3  C   UNL     1      82.936  -4.053  32.047  1.00  0.00     0.039 C 
ENDROOT
BRANCH   2   4
ATOM      4  C   UNL     1      79.571  -5.648  30.891  1.00  0.00     0.032 C 
BRANCH   4   5
ATOM      5  C   UNL     1      79.322  -5.335  29.401  1.00  0.00     0.034 C 
BRANCH   5   6
ATOM      6  C   UNL     1      79.245  -6.578  28.534  1.00  0.00    -0.077 C 
ATOM      7  C   UNL     1      78.096  -7.526  28.767  1.00  0.00     0.039 C 
ATOM      8  C   UNL     1      80.177  -6.925  27.613  1.00  0.00    -0.023 CG0
ATOM      9  G   UNL     1      81.397  -6.126  27.198  1.00  0.00     0.000 G0
ENDBRANCH   5   6
ENDBRANCH   4   5
ENDBRANCH   2   4
BRANCH   1  10
ATOM     10  C   UNL     1      82.577  -6.168  30.576  1.00  0.00     0.111 C 
BRANCH  10  11
ATOM     11  C   UNL     1      82.941  -5.704  29.190  1.00  0.00     0.163 C 
ATOM     12  O   UNL     1      83.479  -4.571  29.065  1.00  0.00    -0.294 OA
BRANCH  11  13
ATOM     13  C   UNL     1      82.630  -6.506  27.969  1.00  0.00    -0.002 C 
ATOM     14  C   UNL     1      83.484  -7.482  27.538  1.00  0.00    -0.069 C 
ATOM     15  C   UNL     1      84.687  -7.892  28.360  1.00  0.00     0.039 C 
ATOM     16  C   UNL     1      83.278  -8.202  26.222  1.00  0.00     0.039 C 
BRANCH  13  17
ATOM     17  C   UNL     1      81.383  -6.126  27.186  1.00  0.00     0.066 CG0
ATOM     18  G   UNL     1      80.164  -6.912  27.626  1.00  0.00     0.000 G0
ENDBRANCH  13  17
ENDBRANCH  11  13
ENDBRANCH  10  11
ENDBRANCH   1  10
TORSDOF 0
ENDMDL
MODEL 8
REMARK VINA RESULT:    -2.818      1.971      3.710
REMARK INTER + INTRA:          -3.611
REMARK INTER:                  -3.903
REMARK INTRA:                   0.292
REMARK UNBOUND:                 0.360
REMARK SMILES CC1=CCC(=C(C)C)C(=O)CC(C)=CCC1
REMARK SMILES IDX 12 1 14 2 13 3 15 4 16 5 2 6 1 7 3 8 11 10 9 11 10 12 5 13
REMARK SMILES IDX 6 14 7 15 8 16 4 17
REMARK H PARENT
REMARK Flexibility Score: 60.00
ROOT
ATOM      1  C   UNL     1      84.223  -5.293  29.832  1.00  0.00    -0.070 C 
ATOM      2  C   UNL     1      85.248  -6.091  29.459  1.00  0.00    -0.027 C 
ATOM      3  C   UNL     1      84.428  -4.391  31.024  1.00  0.00     0.039 C 
ENDROOT
BRANCH   2   4
ATOM      4  C   UNL     1      85.205  -7.127  28.357  1.00  0.00     0.032 C 
BRANCH   4   5
ATOM      5  C   UNL     1      84.350  -8.372  28.673  1.00  0.00     0.034 C 
BRANCH   5   6
ATOM      6  C   UNL     1      83.306  -8.665  27.610  1.00  0.00    -0.077 C 
ATOM      7  C   UNL     1      83.788  -8.915  26.203  1.00  0.00     0.039 C 
ATOM      8  C   UNL     1      81.968  -8.649  27.829  1.00  0.00    -0.023 CG0
ATOM      9  G   UNL     1      81.260  -8.441  29.153  1.00  0.00     0.000 G0
ENDBRANCH   5   6
ENDBRANCH   4   5
ENDBRANCH   2   4
BRANCH   1  10
ATOM     10  C   UNL     1      82.860  -5.328  29.172  1.00  0.00     0.111 C 
BRANCH  10  11
ATOM     11  C   UNL     1      81.863  -6.098  29.998  1.00  0.00     0.163 C 
ATOM     12  O   UNL     1      81.934  -6.006  31.253  1.00  0.00    -0.294 OA
BRANCH  11  13
ATOM     13  C   UNL     1      80.846  -7.005  29.386  1.00  0.00    -0.002 C 
ATOM     14  C   UNL     1      79.578  -6.562  29.130  1.00  0.00    -0.069 C 
ATOM     15  C   UNL     1      79.205  -5.106  29.307  1.00  0.00     0.039 C 
ATOM     16  C   UNL     1      78.484  -7.496  28.659  1.00  0.00     0.039 C 
BRANCH  13  17
ATOM     17  C   UNL     1      81.254  -8.451  29.154  1.00  0.00     0.066 CG0
ATOM     18  G   UNL     1      81.964  -8.644  27.828  1.00  0.00     0.000 G0
ENDBRANCH  13  17
ENDBRANCH  11  13
ENDBRANCH  10  11
ENDBRANCH   1  10
TORSDOF 0
ENDMDL
MODEL 9
REMARK VINA RESULT:    -2.703      2.366      4.052
REMARK INTER + INTRA:          -3.448
REMARK INTER:                  -4.204
REMARK INTRA:                   0.755
REMARK UNBOUND:                 0.360
REMARK SMILES CC1=CCC(=C(C)C)C(=O)CC(C)=CCC1
REMARK SMILES IDX 12 1 14 2 13 3 15 4 16 5 2 6 1 7 3 8 11 10 9 11 10 12 5 13
REMARK SMILES IDX 6 14 7 15 8 16 4 17
REMARK H PARENT
REMARK Flexibility Score: 60.00
ROOT
ATOM      1  C   UNL     1      83.007  -5.035  27.759  1.00  0.00    -0.070 C 
ATOM      2  C   UNL     1      81.792  -5.606  27.917  1.00  0.00    -0.027 C 
ATOM      3  C   UNL     1      83.096  -3.788  26.914  1.00  0.00     0.039 C 
ENDROOT
BRANCH   2   4
ATOM      4  C   UNL     1      81.515  -6.905  28.642  1.00  0.00     0.032 C 
BRANCH   4   5
ATOM      5  C   UNL     1      80.442  -6.814  29.747  1.00  0.00     0.034 C 
BRANCH   5   6
ATOM      6  C   UNL     1      80.920  -6.073  30.983  1.00  0.00    -0.077 C 
ATOM      7  C   UNL     1      80.024  -4.999  31.548  1.00  0.00     0.039 C 
ATOM      8  C   UNL     1      82.126  -6.266  31.570  1.00  0.00    -0.023 CG0
ATOM      9  G   UNL     1      83.175  -7.293  31.191  1.00  0.00     0.000 G0
ENDBRANCH   5   6
ENDBRANCH   4   5
ENDBRANCH   2   4
BRANCH   1  10
ATOM     10  C   UNL     1      84.285  -5.633  28.310  1.00  0.00     0.111 C 
BRANCH  10  11
ATOM     11  C   UNL     1      84.367  -5.485  29.806  1.00  0.00     0.163 C 
ATOM     12  O   UNL     1      84.399  -4.321  30.287  1.00  0.00    -0.294 OA
BRANCH  11  13
ATOM     13  C   UNL     1      84.477  -6.660  30.722  1.00  0.00    -0.002 C 
ATOM     14  C   UNL     1      85.699  -7.180  31.049  1.00  0.00    -0.069 C 
ATOM     15  C   UNL     1      86.981  -6.497  30.625  1.00  0.00     0.039 C 
ATOM     16  C   UNL     1      85.836  -8.460  31.844  1.00  0.00     0.039 C 
BRANCH  13  17
ATOM     17  C   UNL     1      83.180  -7.299  31.192  1.00  0.00     0.066 CG0
ATOM     18  G   UNL     1      82.141  -6.270  31.592  1.00  0.00     0.000 G0
ENDBRANCH  13  17
ENDBRANCH  11  13
ENDBRANCH  10  11
ENDBRANCH   1  10
TORSDOF 0
ENDMDL
