MODEL 1
REMARK VINA RESULT:    -5.021      0.000      0.000
REMARK INTER + INTRA:          -5.167
REMARK INTER:                  -5.167
REMARK INTRA:                   0.000
REMARK UNBOUND:                 0.000
REMARK SMILES O=c1ccc2cc(O)ccc2o1
REMARK SMILES IDX 9 1 10 2 11 3 5 4 4 5 3 6 2 7 1 8 12 9 6 10 7 11 8 12
REMARK H PARENT 8 13
REMARK Flexibility Score: inf
ROOT
ATOM      1  C   UNL     1     -96.177  78.976 206.150  1.00  0.00     0.050 A 
ATOM      2  C   UNL     1     -95.516  79.845 207.024  1.00  0.00     0.052 A 
ATOM      3  C   UNL     1     -96.047  81.113 207.288  1.00  0.00     0.138 A 
ATOM      4  C   UNL     1     -97.252  81.510 206.668  1.00  0.00     0.021 A 
ATOM      5  C   UNL     1     -97.758  82.783 206.950  1.00  0.00     0.019 A 
ATOM      6  C   UNL     1     -97.064  83.616 207.828  1.00  0.00     0.094 A 
ATOM      7  C   UNL     1     -95.877  83.154 208.406  1.00  0.00     0.336 A 
ATOM      8  O   UNL     1     -95.236  83.891 209.201  1.00  0.00    -0.246 OA
ATOM      9  O   UNL     1     -95.417  81.938 208.120  1.00  0.00    -0.423 OA
ATOM     10  C   UNL     1     -97.911  80.636 205.792  1.00  0.00     0.058 A 
ATOM     11  C   UNL     1     -97.372  79.366 205.533  1.00  0.00     0.116 A 
ENDROOT
BRANCH  11  12
ATOM     12  O   UNL     1     -98.014  78.487 204.665  1.00  0.00    -0.508 OA
ATOM     13  H   UNL     1     -97.686  77.537 204.534  1.00  0.00     0.293 HD
ENDBRANCH  11  12
TORSDOF 1
ENDMDL
MODEL 2
REMARK VINA RESULT:    -4.918      2.718      5.582
REMARK INTER + INTRA:          -5.062
REMARK INTER:                  -5.062
REMARK INTRA:                   0.000
REMARK UNBOUND:                 0.000
REMARK SMILES O=c1ccc2cc(O)ccc2o1
REMARK SMILES IDX 9 1 10 2 11 3 5 4 4 5 3 6 2 7 1 8 12 9 6 10 7 11 8 12
REMARK H PARENT 8 13
REMARK Flexibility Score: inf
ROOT
ATOM      1  C   UNL     1     -96.248  85.646 209.094  1.00  0.00     0.050 A 
ATOM      2  C   UNL     1     -96.349  84.361 208.553  1.00  0.00     0.052 A 
ATOM      3  C   UNL     1     -97.367  84.061 207.641  1.00  0.00     0.138 A 
ATOM      4  C   UNL     1     -98.291  85.063 207.269  1.00  0.00     0.021 A 
ATOM      5  C   UNL     1     -99.298  84.734 206.355  1.00  0.00     0.019 A 
ATOM      6  C   UNL     1     -99.359  83.438 205.842  1.00  0.00     0.094 A 
ATOM      7  C   UNL     1     -98.408  82.498 206.256  1.00  0.00     0.336 A 
ATOM      8  O   UNL     1     -98.448  81.324 205.804  1.00  0.00    -0.246 OA
ATOM      9  O   UNL     1     -97.461  82.837 207.127  1.00  0.00    -0.423 OA
ATOM     10  C   UNL     1     -98.185  86.350 207.814  1.00  0.00     0.058 A 
ATOM     11  C   UNL     1     -97.162  86.642 208.728  1.00  0.00     0.116 A 
ENDROOT
BRANCH  11  12
ATOM     12  O   UNL     1     -97.045  87.916 209.278  1.00  0.00    -0.508 OA
ATOM     13  H   UNL     1     -97.276  88.097 210.248  1.00  0.00     0.293 HD
ENDBRANCH  11  12
TORSDOF 1
ENDMDL
MODEL 3
REMARK VINA RESULT:    -4.906      1.292      1.514
REMARK INTER + INTRA:          -5.049
REMARK INTER:                  -5.049
REMARK INTRA:                   0.000
REMARK UNBOUND:                 0.000
REMARK SMILES O=c1ccc2cc(O)ccc2o1
REMARK SMILES IDX 9 1 10 2 11 3 5 4 4 5 3 6 2 7 1 8 12 9 6 10 7 11 8 12
REMARK H PARENT 8 13
REMARK Flexibility Score: inf
ROOT
ATOM      1  C   UNL     1     -96.177  80.289 206.482  1.00  0.00     0.050 A 
ATOM      2  C   UNL     1     -95.464  81.391 206.965  1.00  0.00     0.052 A 
ATOM      3  C   UNL     1     -96.112  82.614 207.166  1.00  0.00     0.138 A 
ATOM      4  C   UNL     1     -97.491  82.731 206.878  1.00  0.00     0.021 A 
ATOM      5  C   UNL     1     -98.112  83.967 207.088  1.00  0.00     0.019 A 
ATOM      6  C   UNL     1     -97.359  85.038 207.571  1.00  0.00     0.094 A 
ATOM      7  C   UNL     1     -95.998  84.846 207.834  1.00  0.00     0.336 A 
ATOM      8  O   UNL     1     -95.303  85.801 208.271  1.00  0.00    -0.246 OA
ATOM      9  O   UNL     1     -95.432  83.660 207.626  1.00  0.00    -0.423 OA
ATOM     10  C   UNL     1     -98.202  81.625 206.394  1.00  0.00     0.058 A 
ATOM     11  C   UNL     1     -97.543  80.401 206.196  1.00  0.00     0.116 A 
ENDROOT
BRANCH  11  12
ATOM     12  O   UNL     1     -98.237  79.293 205.715  1.00  0.00    -0.508 OA
ATOM     13  H   UNL     1     -98.317  78.441 206.258  1.00  0.00     0.293 HD
ENDBRANCH  11  12
TORSDOF 1
ENDMDL
MODEL 4
REMARK VINA RESULT:    -4.903      2.110      5.157
REMARK INTER + INTRA:          -5.046
REMARK INTER:                  -5.046
REMARK INTRA:                   0.000
REMARK UNBOUND:                 0.000
REMARK SMILES O=c1ccc2cc(O)ccc2o1
REMARK SMILES IDX 9 1 10 2 11 3 5 4 4 5 3 6 2 7 1 8 12 9 6 10 7 11 8 12
REMARK H PARENT 8 13
REMARK Flexibility Score: inf
ROOT
ATOM      1  C   UNL     1     -94.875  84.694 210.383  1.00  0.00     0.050 A 
ATOM      2  C   UNL     1     -95.175  83.338 210.215  1.00  0.00     0.052 A 
ATOM      3  C   UNL     1     -96.010  82.928 209.170  1.00  0.00     0.138 A 
ATOM      4  C   UNL     1     -96.548  83.889 208.285  1.00  0.00     0.021 A 
ATOM      5  C   UNL     1     -97.379  83.449 207.249  1.00  0.00     0.019 A 
ATOM      6  C   UNL     1     -97.650  82.087 207.122  1.00  0.00     0.094 A 
ATOM      7  C   UNL     1     -97.081  81.193 208.036  1.00  0.00     0.336 A 
ATOM      8  O   UNL     1     -97.315  79.960 207.937  1.00  0.00    -0.246 OA
ATOM      9  O   UNL     1     -96.294  81.638 209.012  1.00  0.00    -0.423 OA
ATOM     10  C   UNL     1     -96.244  85.247 208.457  1.00  0.00     0.058 A 
ATOM     11  C   UNL     1     -95.406  85.649 209.508  1.00  0.00     0.116 A 
ENDROOT
BRANCH  11  12
ATOM     12  O   UNL     1     -95.096  86.994 209.692  1.00  0.00    -0.508 OA
ATOM     13  H   UNL     1     -95.501  87.533 210.449  1.00  0.00     0.293 HD
ENDBRANCH  11  12
TORSDOF 1
ENDMDL
MODEL 5
REMARK VINA RESULT:    -4.888      2.135      5.483
REMARK INTER + INTRA:          -5.031
REMARK INTER:                  -5.031
REMARK INTRA:                   0.000
REMARK UNBOUND:                 0.000
REMARK SMILES O=c1ccc2cc(O)ccc2o1
REMARK SMILES IDX 9 1 10 2 11 3 5 4 4 5 3 6 2 7 1 8 12 9 6 10 7 11 8 12
REMARK H PARENT 8 13
REMARK Flexibility Score: inf
ROOT
ATOM      1  C   UNL     1     -97.880  86.225 208.025  1.00  0.00     0.050 A 
ATOM      2  C   UNL     1     -98.413  85.209 207.225  1.00  0.00     0.052 A 
ATOM      3  C   UNL     1     -97.839  83.934 207.235  1.00  0.00     0.138 A 
ATOM      4  C   UNL     1     -96.719  83.676 208.056  1.00  0.00     0.021 A 
ATOM      5  C   UNL     1     -96.166  82.391 208.045  1.00  0.00     0.019 A 
ATOM      6  C   UNL     1     -96.731  81.410 207.230  1.00  0.00     0.094 A 
ATOM      7  C   UNL     1     -97.841  81.739 206.443  1.00  0.00     0.336 A 
ATOM      8  O   UNL     1     -98.364  80.866 205.701  1.00  0.00    -0.246 OA
ATOM      9  O   UNL     1     -98.347  82.969 206.473  1.00  0.00    -0.423 OA
ATOM     10  C   UNL     1     -96.188  84.697 208.857  1.00  0.00     0.058 A 
ATOM     11  C   UNL     1     -96.771  85.973 208.841  1.00  0.00     0.116 A 
ENDROOT
BRANCH  11  12
ATOM     12  O   UNL     1     -96.254  86.998 209.631  1.00  0.00    -0.508 OA
ATOM     13  H   UNL     1     -95.276  87.021 209.896  1.00  0.00     0.293 HD
ENDBRANCH  11  12
TORSDOF 1
ENDMDL
MODEL 6
REMARK VINA RESULT:    -4.774      1.787      1.987
REMARK INTER + INTRA:          -4.914
REMARK INTER:                  -4.914
REMARK INTRA:                   0.000
REMARK UNBOUND:                 0.000
REMARK SMILES O=c1ccc2cc(O)ccc2o1
REMARK SMILES IDX 9 1 10 2 11 3 5 4 4 5 3 6 2 7 1 8 12 9 6 10 7 11 8 12
REMARK H PARENT 8 13
REMARK Flexibility Score: inf
ROOT
ATOM      1  C   UNL     1     -97.823  79.835 208.287  1.00  0.00     0.050 A 
ATOM      2  C   UNL     1     -97.066  80.529 209.237  1.00  0.00     0.052 A 
ATOM      3  C   UNL     1     -96.701  81.860 209.007  1.00  0.00     0.138 A 
ATOM      4  C   UNL     1     -97.102  82.500 207.814  1.00  0.00     0.021 A 
ATOM      5  C   UNL     1     -96.722  83.831 207.612  1.00  0.00     0.019 A 
ATOM      6  C   UNL     1     -95.966  84.482 208.587  1.00  0.00     0.094 A 
ATOM      7  C   UNL     1     -95.606  83.784 209.745  1.00  0.00     0.336 A 
ATOM      8  O   UNL     1     -94.924  84.355 210.636  1.00  0.00    -0.246 OA
ATOM      9  O   UNL     1     -95.981  82.518 209.912  1.00  0.00    -0.423 OA
ATOM     10  C   UNL     1     -97.861  81.801 206.865  1.00  0.00     0.058 A 
ATOM     11  C   UNL     1     -98.222  80.466 207.103  1.00  0.00     0.116 A 
ENDROOT
BRANCH  11  12
ATOM     12  O   UNL     1     -98.976  79.759 206.170  1.00  0.00    -0.508 OA
ATOM     13  H   UNL     1     -99.059  80.072 205.209  1.00  0.00     0.293 HD
ENDBRANCH  11  12
TORSDOF 1
ENDMDL
MODEL 7
REMARK VINA RESULT:    -4.772      3.290      4.232
REMARK INTER + INTRA:          -4.912
REMARK INTER:                  -4.912
REMARK INTRA:                   0.000
REMARK UNBOUND:                 0.000
REMARK SMILES O=c1ccc2cc(O)ccc2o1
REMARK SMILES IDX 9 1 10 2 11 3 5 4 4 5 3 6 2 7 1 8 12 9 6 10 7 11 8 12
REMARK H PARENT 8 13
REMARK Flexibility Score: inf
ROOT
ATOM      1  C   UNL     1     -98.892  83.248 206.088  1.00  0.00     0.050 A 
ATOM      2  C   UNL     1     -97.798  83.197 206.957  1.00  0.00     0.052 A 
ATOM      3  C   UNL     1     -97.431  84.329 207.692  1.00  0.00     0.138 A 
ATOM      4  C   UNL     1     -98.171  85.524 207.554  1.00  0.00     0.021 A 
ATOM      5  C   UNL     1     -97.780  86.640 208.302  1.00  0.00     0.019 A 
ATOM      6  C   UNL     1     -96.681  86.541 209.155  1.00  0.00     0.094 A 
ATOM      7  C   UNL     1     -95.997  85.323 209.241  1.00  0.00     0.336 A 
ATOM      8  O   UNL     1     -95.002  85.215 210.006  1.00  0.00    -0.246 OA
ATOM      9  O   UNL     1     -96.389  84.277 208.519  1.00  0.00    -0.423 OA
ATOM     10  C   UNL     1     -99.268  85.571 206.682  1.00  0.00     0.058 A 
ATOM     11  C   UNL     1     -99.628  84.431 205.948  1.00  0.00     0.116 A 
ENDROOT
BRANCH  11  12
ATOM     12  O   UNL     1    -100.715  84.463 205.078  1.00  0.00    -0.508 OA
ATOM     13  H   UNL     1    -101.240  83.625 204.853  1.00  0.00     0.293 HD
ENDBRANCH  11  12
TORSDOF 1
ENDMDL
MODEL 8
REMARK VINA RESULT:    -4.751      2.040      2.535
REMARK INTER + INTRA:          -4.889
REMARK INTER:                  -4.889
REMARK INTRA:                   0.000
REMARK UNBOUND:                 0.000
REMARK SMILES O=c1ccc2cc(O)ccc2o1
REMARK SMILES IDX 9 1 10 2 11 3 5 4 4 5 3 6 2 7 1 8 12 9 6 10 7 11 8 12
REMARK H PARENT 8 13
REMARK Flexibility Score: inf
ROOT
ATOM      1  C   UNL     1     -98.921  80.649 206.472  1.00  0.00     0.050 A 
ATOM      2  C   UNL     1     -98.246  81.864 206.321  1.00  0.00     0.052 A 
ATOM      3  C   UNL     1     -97.376  82.313 207.321  1.00  0.00     0.138 A 
ATOM      4  C   UNL     1     -97.183  81.533 208.483  1.00  0.00     0.021 A 
ATOM      5  C   UNL     1     -96.308  82.008 209.465  1.00  0.00     0.019 A 
ATOM      6  C   UNL     1     -95.657  83.226 209.271  1.00  0.00     0.094 A 
ATOM      7  C   UNL     1     -95.897  83.943 208.094  1.00  0.00     0.336 A 
ATOM      8  O   UNL     1     -95.319  85.045 207.901  1.00  0.00    -0.246 OA
ATOM      9  O   UNL     1     -96.735  83.469 207.175  1.00  0.00    -0.423 OA
ATOM     10  C   UNL     1     -97.862  80.315 208.630  1.00  0.00     0.058 A 
ATOM     11  C   UNL     1     -98.732  79.873 207.622  1.00  0.00     0.116 A 
ENDROOT
BRANCH  11  12
ATOM     12  O   UNL     1     -99.414  78.666 207.755  1.00  0.00    -0.508 OA
ATOM     13  H   UNL     1    -100.356  78.627 208.129  1.00  0.00     0.293 HD
ENDBRANCH  11  12
TORSDOF 1
ENDMDL
MODEL 9
REMARK VINA RESULT:    -4.707      2.975      4.362
REMARK INTER + INTRA:          -4.844
REMARK INTER:                  -4.844
REMARK INTRA:                   0.000
REMARK UNBOUND:                 0.000
REMARK SMILES O=c1ccc2cc(O)ccc2o1
REMARK SMILES IDX 9 1 10 2 11 3 5 4 4 5 3 6 2 7 1 8 12 9 6 10 7 11 8 12
REMARK H PARENT 8 13
REMARK Flexibility Score: inf
ROOT
ATOM      1  C   UNL     1     -96.831  81.972 208.295  1.00  0.00     0.050 A 
ATOM      2  C   UNL     1     -96.758  83.181 207.594  1.00  0.00     0.052 A 
ATOM      3  C   UNL     1     -96.122  84.287 208.166  1.00  0.00     0.138 A 
ATOM      4  C   UNL     1     -95.552  84.179 209.455  1.00  0.00     0.021 A 
ATOM      5  C   UNL     1     -94.923  85.302 210.001  1.00  0.00     0.019 A 
ATOM      6  C   UNL     1     -94.876  86.486 209.265  1.00  0.00     0.094 A 
ATOM      7  C   UNL     1     -95.461  86.518 207.995  1.00  0.00     0.336 A 
ATOM      8  O   UNL     1     -95.428  87.578 207.315  1.00  0.00    -0.246 OA
ATOM      9  O   UNL     1     -96.054  85.435 207.498  1.00  0.00    -0.423 OA
ATOM     10  C   UNL     1     -95.627  82.966 210.154  1.00  0.00     0.058 A 
ATOM     11  C   UNL     1     -96.268  81.861 209.572  1.00  0.00     0.116 A 
ENDROOT
BRANCH  11  12
ATOM     12  O   UNL     1     -96.350  80.649 210.254  1.00  0.00    -0.508 OA
ATOM     13  H   UNL     1     -95.912  80.520 211.159  1.00  0.00     0.293 HD
ENDBRANCH  11  12
TORSDOF 1
ENDMDL
