MODEL 1
REMARK VINA RESULT:    -2.305      0.000      0.000
REMARK INTER + INTRA:          -4.075
REMARK INTER:                  -3.518
REMARK INTRA:                  -0.557
REMARK UNBOUND:                -0.557
REMARK SMILES O=C([O-])CCCCCCCCC(=O)[O-]
REMARK SMILES IDX 7 1 6 2 5 3 4 4 2 5 1 6 3 7 8 8 9 9 10 10 11 11 12 12 13 13
REMARK SMILES IDX 14 14
REMARK H PARENT
REMARK Flexibility Score: inf
ROOT
ATOM      1  C   UNL     1      31.397  24.159  33.250  1.00  0.00     0.000 C 
ENDROOT
BRANCH   1   2
ATOM      2  C   UNL     1      32.362  25.035  34.070  1.00  0.00     0.000 C 
BRANCH   2   3
ATOM      3  C   UNL     1      33.856  24.678  33.926  1.00  0.00     0.006 C 
BRANCH   3   4
ATOM      4  C   UNL     1      34.495  25.124  32.602  1.00  0.00     0.053 C 
BRANCH   4   5
ATOM      5  C   UNL     1      35.987  25.007  32.635  1.00  0.00     0.041 C 
ATOM      6  O   UNL     1      36.609  25.122  33.724  1.00  0.00    -0.550 OA
ATOM      7  O   UNL     1      36.691  24.739  31.467  1.00  0.00    -0.550 OA
ENDBRANCH   4   5
ENDBRANCH   3   4
ENDBRANCH   2   3
ENDBRANCH   1   2
BRANCH   1   8
ATOM      8  C   UNL     1      30.150  24.925  32.776  1.00  0.00     0.000 C 
BRANCH   8   9
ATOM      9  C   UNL     1      30.080  25.048  31.245  1.00  0.00     0.000 C 
BRANCH   9  10
ATOM     10  C   UNL     1      30.815  23.904  30.525  1.00  0.00     0.006 C 
BRANCH  10  11
ATOM     11  C   UNL     1      31.573  24.395  29.283  1.00  0.00     0.053 C 
BRANCH  11  12
ATOM     12  C   UNL     1      31.199  23.618  28.058  1.00  0.00     0.041 C 
ATOM     13  O   UNL     1      32.093  23.123  27.324  1.00  0.00    -0.550 OA
ATOM     14  O   UNL     1      29.861  23.467  27.710  1.00  0.00    -0.550 OA
ENDBRANCH  11  12
ENDBRANCH  10  11
ENDBRANCH   9  10
ENDBRANCH   8   9
ENDBRANCH   1   8
TORSDOF 9
ENDMDL
MODEL 2
REMARK VINA RESULT:    -2.012      1.257      1.581
REMARK INTER + INTRA:          -3.628
REMARK INTER:                  -2.945
REMARK INTRA:                  -0.683
REMARK UNBOUND:                -0.557
REMARK SMILES O=C([O-])CCCCCCCCC(=O)[O-]
REMARK SMILES IDX 7 1 6 2 5 3 4 4 2 5 1 6 3 7 8 8 9 9 10 10 11 11 12 12 13 13
REMARK SMILES IDX 14 14
REMARK H PARENT
REMARK Flexibility Score: inf
ROOT
ATOM      1  C   UNL     1      30.255  24.349  33.099  1.00  0.00     0.000 C 
ENDROOT
BRANCH   1   2
ATOM      2  C   UNL     1      31.479  25.125  33.620  1.00  0.00     0.000 C 
BRANCH   2   3
ATOM      3  C   UNL     1      32.812  24.349  33.584  1.00  0.00     0.006 C 
BRANCH   3   4
ATOM      4  C   UNL     1      33.968  25.095  32.900  1.00  0.00     0.053 C 
BRANCH   4   5
ATOM      5  C   UNL     1      35.288  24.438  33.159  1.00  0.00     0.041 C 
ATOM      6  O   UNL     1      35.415  23.622  34.110  1.00  0.00    -0.550 OA
ATOM      7  O   UNL     1      36.372  24.703  32.331  1.00  0.00    -0.550 OA
ENDBRANCH   4   5
ENDBRANCH   3   4
ENDBRANCH   2   3
ENDBRANCH   1   2
BRANCH   1   8
ATOM      8  C   UNL     1      29.884  24.720  31.653  1.00  0.00     0.000 C 
BRANCH   8   9
ATOM      9  C   UNL     1      30.834  24.091  30.621  1.00  0.00     0.000 C 
BRANCH   9  10
ATOM     10  C   UNL     1      31.789  25.119  29.992  1.00  0.00     0.006 C 
BRANCH  10  11
ATOM     11  C   UNL     1      33.065  24.464  29.442  1.00  0.00     0.053 C 
BRANCH  11  12
ATOM     12  C   UNL     1      32.930  24.110  27.993  1.00  0.00     0.041 C 
ATOM     13  O   UNL     1      32.757  22.912  27.647  1.00  0.00    -0.550 OA
ATOM     14  O   UNL     1      33.027  25.099  27.022  1.00  0.00    -0.550 OA
ENDBRANCH  11  12
ENDBRANCH  10  11
ENDBRANCH   9  10
ENDBRANCH   8   9
ENDBRANCH   1   8
TORSDOF 9
ENDMDL
MODEL 3
REMARK VINA RESULT:    -1.798      3.044      5.531
REMARK INTER + INTRA:          -3.301
REMARK INTER:                  -2.840
REMARK INTRA:                  -0.461
REMARK UNBOUND:                -0.557
REMARK SMILES O=C([O-])CCCCCCCCC(=O)[O-]
REMARK SMILES IDX 7 1 6 2 5 3 4 4 2 5 1 6 3 7 8 8 9 9 10 10 11 11 12 12 13 13
REMARK SMILES IDX 14 14
REMARK H PARENT
REMARK Flexibility Score: inf
ROOT
ATOM      1  C   UNL     1      31.956  22.964  28.974  1.00  0.00     0.000 C 
ENDROOT
BRANCH   1   2
ATOM      2  C   UNL     1      30.491  23.359  28.713  1.00  0.00     0.000 C 
BRANCH   2   3
ATOM      3  C   UNL     1      30.154  24.841  28.976  1.00  0.00     0.006 C 
BRANCH   3   4
ATOM      4  C   UNL     1      29.549  25.124  30.360  1.00  0.00     0.053 C 
BRANCH   4   5
ATOM      5  C   UNL     1      30.408  24.592  31.465  1.00  0.00     0.041 C 
ATOM      6  O   UNL     1      30.000  23.643  32.184  1.00  0.00    -0.550 OA
ATOM      7  O   UNL     1      31.673  25.125  31.681  1.00  0.00    -0.550 OA
ENDBRANCH   4   5
ENDBRANCH   3   4
ENDBRANCH   2   3
ENDBRANCH   1   2
BRANCH   1   8
ATOM      8  C   UNL     1      32.624  22.306  27.754  1.00  0.00     0.000 C 
BRANCH   8   9
ATOM      9  C   UNL     1      33.400  23.315  26.891  1.00  0.00     0.000 C 
BRANCH   9  10
ATOM     10  C   UNL     1      33.623  24.658  27.608  1.00  0.00     0.006 C 
BRANCH  10  11
ATOM     11  C   UNL     1      35.106  25.053  27.648  1.00  0.00     0.053 C 
BRANCH  11  12
ATOM     12  C   UNL     1      35.736  24.720  28.966  1.00  0.00     0.041 C 
ATOM     13  O   UNL     1      35.207  25.111  30.038  1.00  0.00    -0.550 OA
ATOM     14  O   UNL     1      36.928  24.006  29.007  1.00  0.00    -0.550 OA
ENDBRANCH  11  12
ENDBRANCH  10  11
ENDBRANCH   9  10
ENDBRANCH   8   9
ENDBRANCH   1   8
TORSDOF 9
ENDMDL
MODEL 4
REMARK VINA RESULT:    -1.688      2.456      6.358
REMARK INTER + INTRA:          -3.133
REMARK INTER:                  -2.413
REMARK INTRA:                  -0.720
REMARK UNBOUND:                -0.557
REMARK SMILES O=C([O-])CCCCCCCCC(=O)[O-]
REMARK SMILES IDX 7 1 6 2 5 3 4 4 2 5 1 6 3 7 8 8 9 9 10 10 11 11 12 12 13 13
REMARK SMILES IDX 14 14
REMARK H PARENT
REMARK Flexibility Score: inf
ROOT
ATOM      1  C   UNL     1      33.839  23.230  28.536  1.00  0.00     0.000 C 
ENDROOT
BRANCH   1   2
ATOM      2  C   UNL     1      32.646  23.785  27.735  1.00  0.00     0.000 C 
BRANCH   2   3
ATOM      3  C   UNL     1      32.079  25.125  28.246  1.00  0.00     0.006 C 
BRANCH   3   4
ATOM      4  C   UNL     1      31.677  25.125  29.730  1.00  0.00     0.053 C 
BRANCH   4   5
ATOM      5  C   UNL     1      30.401  24.377  29.963  1.00  0.00     0.041 C 
ATOM      6  O   UNL     1      30.328  23.517  30.880  1.00  0.00    -0.550 OA
ATOM      7  O   UNL     1      29.281  24.652  29.187  1.00  0.00    -0.550 OA
ENDBRANCH   4   5
ENDBRANCH   3   4
ENDBRANCH   2   3
ENDBRANCH   1   2
BRANCH   1   8
ATOM      8  C   UNL     1      35.137  23.171  27.712  1.00  0.00     0.000 C 
BRANCH   8   9
ATOM      9  C   UNL     1      36.159  24.234  28.146  1.00  0.00     0.000 C 
BRANCH   9  10
ATOM     10  C   UNL     1      35.721  24.995  29.410  1.00  0.00     0.006 C 
BRANCH  10  11
ATOM     11  C   UNL     1      36.694  24.784  30.579  1.00  0.00     0.053 C 
BRANCH  11  12
ATOM     12  C   UNL     1      36.010  24.916  31.904  1.00  0.00     0.041 C 
ATOM     13  O   UNL     1      36.669  24.811  32.971  1.00  0.00    -0.550 OA
ATOM     14  O   UNL     1      34.637  25.125  31.962  1.00  0.00    -0.550 OA
ENDBRANCH  11  12
ENDBRANCH  10  11
ENDBRANCH   9  10
ENDBRANCH   8   9
ENDBRANCH   1   8
TORSDOF 9
ENDMDL
MODEL 5
REMARK VINA RESULT:    -1.529      2.828      6.354
REMARK INTER + INTRA:          -2.891
REMARK INTER:                  -2.334
REMARK INTRA:                  -0.556
REMARK UNBOUND:                -0.557
REMARK SMILES O=C([O-])CCCCCCCCC(=O)[O-]
REMARK SMILES IDX 7 1 6 2 5 3 4 4 2 5 1 6 3 7 8 8 9 9 10 10 11 11 12 12 13 13
REMARK SMILES IDX 14 14
REMARK H PARENT
REMARK Flexibility Score: inf
ROOT
ATOM      1  C   UNL     1      36.050  23.267  28.860  1.00  0.00     0.000 C 
ENDROOT
BRANCH   1   2
ATOM      2  C   UNL     1      35.728  23.169  27.357  1.00  0.00     0.000 C 
BRANCH   2   3
ATOM      3  C   UNL     1      34.410  23.841  26.923  1.00  0.00     0.006 C 
BRANCH   3   4
ATOM      4  C   UNL     1      33.596  24.456  28.072  1.00  0.00     0.053 C 
BRANCH   4   5
ATOM      5  C   UNL     1      32.201  23.915  28.122  1.00  0.00     0.041 C 
ATOM      6  O   UNL     1      31.851  23.147  29.056  1.00  0.00    -0.550 OA
ATOM      7  O   UNL     1      31.276  24.284  27.152  1.00  0.00    -0.550 OA
ENDBRANCH   4   5
ENDBRANCH   3   4
ENDBRANCH   2   3
ENDBRANCH   1   2
BRANCH   1   8
ATOM      8  C   UNL     1      37.070  24.372  29.182  1.00  0.00     0.000 C 
BRANCH   8   9
ATOM      9  C   UNL     1      36.841  25.001  30.566  1.00  0.00     0.000 C 
BRANCH   9  10
ATOM     10  C   UNL     1      35.350  25.107  30.929  1.00  0.00     0.006 C 
BRANCH  10  11
ATOM     11  C   UNL     1      35.124  25.125  32.447  1.00  0.00     0.053 C 
BRANCH  11  12
ATOM     12  C   UNL     1      33.671  25.020  32.796  1.00  0.00     0.041 C 
ATOM     13  O   UNL     1      33.317  24.830  33.989  1.00  0.00    -0.550 OA
ATOM     14  O   UNL     1      32.707  25.100  31.798  1.00  0.00    -0.550 OA
ENDBRANCH  11  12
ENDBRANCH  10  11
ENDBRANCH   9  10
ENDBRANCH   8   9
ENDBRANCH   1   8
TORSDOF 9
ENDMDL
MODEL 6
REMARK VINA RESULT:     0.694     17.084     19.289
REMARK INTER + INTRA:           0.502
REMARK INTER:                   0.272
REMARK INTRA:                   0.230
REMARK UNBOUND:                -0.557
REMARK SMILES O=C([O-])CCCCCCCCC(=O)[O-]
REMARK SMILES IDX 7 1 6 2 5 3 4 4 2 5 1 6 3 7 8 8 9 9 10 10 11 11 12 12 13 13
REMARK SMILES IDX 14 14
REMARK H PARENT
REMARK Flexibility Score: inf
ROOT
ATOM      1  C   UNL     1      19.159  22.895  47.125  1.00  0.00     0.000 C 
ENDROOT
BRANCH   1   2
ATOM      2  C   UNL     1      18.662  24.293  46.713  1.00  0.00     0.000 C 
BRANCH   2   3
ATOM      3  C   UNL     1      17.228  24.340  46.146  1.00  0.00     0.006 C 
BRANCH   3   4
ATOM      4  C   UNL     1      17.088  25.108  44.823  1.00  0.00     0.053 C 
BRANCH   4   5
ATOM      5  C   UNL     1      18.101  24.669  43.812  1.00  0.00     0.041 C 
ATOM      6  O   UNL     1      17.745  24.391  42.637  1.00  0.00    -0.550 OA
ATOM      7  O   UNL     1      19.445  24.597  44.159  1.00  0.00    -0.550 OA
ENDBRANCH   4   5
ENDBRANCH   3   4
ENDBRANCH   2   3
ENDBRANCH   1   2
BRANCH   1   8
ATOM      8  C   UNL     1      20.692  22.772  47.093  1.00  0.00     0.000 C 
BRANCH   8   9
ATOM      9  C   UNL     1      21.176  21.678  46.128  1.00  0.00     0.000 C 
BRANCH   9  10
ATOM     10  C   UNL     1      22.252  22.184  45.152  1.00  0.00     0.006 C 
BRANCH  10  11
ATOM     11  C   UNL     1      23.213  23.180  45.817  1.00  0.00     0.053 C 
BRANCH  11  12
ATOM     12  C   UNL     1      24.644  22.879  45.491  1.00  0.00     0.041 C 
ATOM     13  O   UNL     1      25.484  23.811  45.401  1.00  0.00    -0.550 OA
ATOM     14  O   UNL     1      25.043  21.568  45.255  1.00  0.00    -0.550 OA
ENDBRANCH  11  12
ENDBRANCH  10  11
ENDBRANCH   9  10
ENDBRANCH   8   9
ENDBRANCH   1   8
TORSDOF 9
ENDMDL
