MODEL 1
REMARK VINA RESULT:    -5.249      0.000      0.000
REMARK INTER + INTRA:          -6.312
REMARK INTER:                  -6.017
REMARK INTRA:                  -0.295
REMARK UNBOUND:                -0.295
REMARK SMILES O=C1C[C@@H](c2ccc(O)cc2)Oc2cc(O)cc(O)c21
REMARK SMILES IDX 3 1 4 2 12 3 13 4 14 5 15 6 17 7 18 8 20 9 2 10 1 11 5 12
REMARK SMILES IDX 6 13 11 14 7 15 10 16 8 17 9 18 19 20 16 22
REMARK H PARENT 9 19 19 21 16 23
REMARK Flexibility Score: inf
ROOT
ATOM      1  C   UNL     1      15.226 -17.632  21.617  1.00  0.00     0.131 C 
ATOM      2  C   UNL     1      14.945 -17.550  20.110  1.00  0.00     0.211 C 
ATOM      3  O   UNL     1      15.356 -16.282  19.590  1.00  0.00    -0.484 OA
ATOM      4  C   UNL     1      16.529 -15.639  20.008  1.00  0.00     0.138 A 
ATOM      5  C   UNL     1      17.008 -14.556  19.266  1.00  0.00     0.093 A 
ATOM      6  C   UNL     1      18.179 -13.903  19.647  1.00  0.00     0.123 A 
ATOM      7  C   UNL     1      18.864 -14.317  20.795  1.00  0.00     0.093 A 
ATOM      8  C   UNL     1      18.381 -15.375  21.576  1.00  0.00     0.133 A 
ATOM      9  C   UNL     1      17.215 -16.072  21.163  1.00  0.00     0.102 A 
ATOM     10  C   UNL     1      16.653 -17.248  21.872  1.00  0.00     0.174 C 
ATOM     11  O   UNL     1      17.357 -17.960  22.636  1.00  0.00    -0.294 OA
ENDROOT
BRANCH   2  12
ATOM     12  C   UNL     1      13.480 -17.775  19.828  1.00  0.00    -0.007 A 
ATOM     13  C   UNL     1      13.003 -17.753  18.506  1.00  0.00     0.011 A 
ATOM     14  C   UNL     1      12.585 -18.062  20.874  1.00  0.00     0.011 A 
ATOM     15  C   UNL     1      11.651 -17.992  18.239  1.00  0.00     0.046 A 
ATOM     16  C   UNL     1      11.234 -18.299  20.604  1.00  0.00     0.046 A 
ATOM     17  C   UNL     1      10.762 -18.263  19.288  1.00  0.00     0.115 A 
BRANCH  17  18
ATOM     18  O   UNL     1       9.414 -18.501  19.034  1.00  0.00    -0.508 OA
ATOM     19  H   UNL     1       9.048 -19.443  18.958  1.00  0.00     0.293 HD
ENDBRANCH  17  18
ENDBRANCH   2  12
BRANCH   8  20
ATOM     20  O   UNL     1      19.067 -15.667  22.757  1.00  0.00    -0.507 OA
ATOM     21  H   UNL     1      19.465 -14.967  23.366  1.00  0.00     0.293 HD
ENDBRANCH   8  20
BRANCH   6  22
ATOM     22  O   UNL     1      18.653 -12.839  18.883  1.00  0.00    -0.508 OA
ATOM     23  H   UNL     1      18.144 -11.966  18.815  1.00  0.00     0.293 HD
ENDBRANCH   6  22
TORSDOF 4
ENDMDL
MODEL 2
REMARK VINA RESULT:    -5.234     13.683     16.256
REMARK INTER + INTRA:          -6.294
REMARK INTER:                  -6.007
REMARK INTRA:                  -0.287
REMARK UNBOUND:                -0.295
REMARK SMILES O=C1C[C@@H](c2ccc(O)cc2)Oc2cc(O)cc(O)c21
REMARK SMILES IDX 3 1 4 2 12 3 13 4 14 5 15 6 17 7 18 8 20 9 2 10 1 11 5 12
REMARK SMILES IDX 6 13 11 14 7 15 10 16 8 17 9 18 19 20 16 22
REMARK H PARENT 9 19 19 21 16 23
REMARK Flexibility Score: inf
ROOT
ATOM      1  C   UNL     1      14.163  -7.191   8.216  1.00  0.00     0.131 C 
ATOM      2  C   UNL     1      15.147  -6.440   9.124  1.00  0.00     0.211 C 
ATOM      3  O   UNL     1      16.441  -6.376   8.517  1.00  0.00    -0.484 OA
ATOM      4  C   UNL     1      16.623  -6.161   7.144  1.00  0.00     0.138 A 
ATOM      5  C   UNL     1      17.896  -5.834   6.672  1.00  0.00     0.093 A 
ATOM      6  C   UNL     1      18.107  -5.600   5.315  1.00  0.00     0.123 A 
ATOM      7  C   UNL     1      17.042  -5.722   4.414  1.00  0.00     0.093 A 
ATOM      8  C   UNL     1      15.765  -6.088   4.860  1.00  0.00     0.133 A 
ATOM      9  C   UNL     1      15.538  -6.280   6.248  1.00  0.00     0.102 A 
ATOM     10  C   UNL     1      14.215  -6.600   6.839  1.00  0.00     0.174 C 
ATOM     11  O   UNL     1      13.140  -6.338   6.238  1.00  0.00    -0.294 OA
ENDROOT
BRANCH   2  12
ATOM     12  C   UNL     1      15.241  -7.106  10.474  1.00  0.00    -0.007 A 
ATOM     13  C   UNL     1      15.009  -8.486  10.601  1.00  0.00     0.011 A 
ATOM     14  C   UNL     1      15.616  -6.368  11.611  1.00  0.00     0.011 A 
ATOM     15  C   UNL     1      15.126  -9.112  11.846  1.00  0.00     0.046 A 
ATOM     16  C   UNL     1      15.732  -6.995  12.855  1.00  0.00     0.046 A 
ATOM     17  C   UNL     1      15.486  -8.367  12.977  1.00  0.00     0.115 A 
BRANCH  17  18
ATOM     18  O   UNL     1      15.605  -8.979  14.222  1.00  0.00    -0.508 OA
ATOM     19  H   UNL     1      14.847  -9.521  14.620  1.00  0.00     0.293 HD
ENDBRANCH  17  18
ENDBRANCH   2  12
BRANCH   8  20
ATOM     20  O   UNL     1      14.779  -6.282   3.891  1.00  0.00    -0.507 OA
ATOM     21  H   UNL     1      13.928  -5.741   3.835  1.00  0.00     0.293 HD
ENDBRANCH   8  20
BRANCH   6  22
ATOM     22  O   UNL     1      19.379  -5.253   4.865  1.00  0.00    -0.508 OA
ATOM     23  H   UNL     1      19.995  -5.935   4.438  1.00  0.00     0.293 HD
ENDBRANCH   6  22
TORSDOF 4
ENDMDL
MODEL 3
REMARK VINA RESULT:    -5.104      2.666      4.701
REMARK INTER + INTRA:          -6.145
REMARK INTER:                  -5.858
REMARK INTRA:                  -0.286
REMARK UNBOUND:                -0.295
REMARK SMILES O=C1C[C@@H](c2ccc(O)cc2)Oc2cc(O)cc(O)c21
REMARK SMILES IDX 3 1 4 2 12 3 13 4 14 5 15 6 17 7 18 8 20 9 2 10 1 11 5 12
REMARK SMILES IDX 6 13 11 14 7 15 10 16 8 17 9 18 19 20 16 22
REMARK H PARENT 9 19 19 21 16 23
REMARK Flexibility Score: inf
ROOT
ATOM      1  C   UNL     1      18.633 -14.271  20.281  1.00  0.00     0.131 C 
ATOM      2  C   UNL     1      17.517 -14.556  19.267  1.00  0.00     0.211 C 
ATOM      3  O   UNL     1      16.756 -13.372  19.009  1.00  0.00    -0.484 OA
ATOM      4  C   UNL     1      17.346 -12.105  18.899  1.00  0.00     0.138 A 
ATOM      5  C   UNL     1      16.592 -11.051  18.376  1.00  0.00     0.093 A 
ATOM      6  C   UNL     1      17.153  -9.782  18.239  1.00  0.00     0.123 A 
ATOM      7  C   UNL     1      18.470  -9.556  18.655  1.00  0.00     0.093 A 
ATOM      8  C   UNL     1      19.231 -10.588  19.219  1.00  0.00     0.133 A 
ATOM      9  C   UNL     1      18.678 -11.892  19.315  1.00  0.00     0.102 A 
ATOM     10  C   UNL     1      19.414 -13.073  19.829  1.00  0.00     0.174 C 
ATOM     11  O   UNL     1      20.673 -13.115  19.843  1.00  0.00    -0.294 OA
ENDROOT
BRANCH   2  12
ATOM     12  C   UNL     1      16.610 -15.654  19.766  1.00  0.00    -0.007 A 
ATOM     13  C   UNL     1      16.025 -16.555  18.859  1.00  0.00     0.011 A 
ATOM     14  C   UNL     1      16.384 -15.826  21.143  1.00  0.00     0.011 A 
ATOM     15  C   UNL     1      15.210 -17.593  19.321  1.00  0.00     0.046 A 
ATOM     16  C   UNL     1      15.568 -16.863  21.602  1.00  0.00     0.046 A 
ATOM     17  C   UNL     1      14.977 -17.748  20.694  1.00  0.00     0.115 A 
BRANCH  17  18
ATOM     18  O   UNL     1      14.167 -18.777  21.166  1.00  0.00    -0.508 OA
ATOM     19  H   UNL     1      14.175 -19.696  20.738  1.00  0.00     0.293 HD
ENDBRANCH  17  18
ENDBRANCH   2  12
BRANCH   8  20
ATOM     20  O   UNL     1      20.502 -10.261  19.696  1.00  0.00    -0.507 OA
ATOM     21  H   UNL     1      21.280 -10.904  19.716  1.00  0.00     0.293 HD
ENDBRANCH   8  20
BRANCH   6  22
ATOM     22  O   UNL     1      16.394  -8.749  17.695  1.00  0.00    -0.508 OA
ATOM     23  H   UNL     1      15.494  -8.491  18.083  1.00  0.00     0.293 HD
ENDBRANCH   6  22
TORSDOF 4
ENDMDL
MODEL 4
REMARK VINA RESULT:    -5.087     10.653     13.882
REMARK INTER + INTRA:          -6.126
REMARK INTER:                  -5.817
REMARK INTRA:                  -0.309
REMARK UNBOUND:                -0.295
REMARK SMILES O=C1C[C@@H](c2ccc(O)cc2)Oc2cc(O)cc(O)c21
REMARK SMILES IDX 3 1 4 2 12 3 13 4 14 5 15 6 17 7 18 8 20 9 2 10 1 11 5 12
REMARK SMILES IDX 6 13 11 14 7 15 10 16 8 17 9 18 19 20 16 22
REMARK H PARENT 9 19 19 21 16 23
REMARK Flexibility Score: inf
ROOT
ATOM      1  C   UNL     1      14.913  -5.616  11.586  1.00  0.00     0.131 C 
ATOM      2  C   UNL     1      15.755  -6.081  12.782  1.00  0.00     0.211 C 
ATOM      3  O   UNL     1      15.400  -7.414  13.160  1.00  0.00    -0.484 OA
ATOM      4  C   UNL     1      15.106  -8.413  12.221  1.00  0.00     0.138 A 
ATOM      5  C   UNL     1      15.044  -9.743  12.644  1.00  0.00     0.093 A 
ATOM      6  C   UNL     1      14.768 -10.761  11.732  1.00  0.00     0.123 A 
ATOM      7  C   UNL     1      14.525 -10.445  10.390  1.00  0.00     0.093 A 
ATOM      8  C   UNL     1      14.544  -9.115   9.951  1.00  0.00     0.133 A 
ATOM      9  C   UNL     1      14.871  -8.082  10.868  1.00  0.00     0.102 A 
ATOM     10  C   UNL     1      14.989  -6.649  10.501  1.00  0.00     0.174 C 
ATOM     11  O   UNL     1      15.204  -6.284   9.315  1.00  0.00    -0.294 OA
ENDROOT
BRANCH   2  12
ATOM     12  C   UNL     1      15.578  -5.147  13.954  1.00  0.00    -0.007 A 
ATOM     13  C   UNL     1      16.267  -3.923  13.994  1.00  0.00     0.011 A 
ATOM     14  C   UNL     1      14.682  -5.463  14.991  1.00  0.00     0.011 A 
ATOM     15  C   UNL     1      16.081  -3.042  15.064  1.00  0.00     0.046 A 
ATOM     16  C   UNL     1      14.499  -4.581  16.060  1.00  0.00     0.046 A 
ATOM     17  C   UNL     1      15.198  -3.369  16.101  1.00  0.00     0.115 A 
BRANCH  17  18
ATOM     18  O   UNL     1      15.005  -2.500  17.171  1.00  0.00    -0.508 OA
ATOM     19  H   UNL     1      14.684  -2.833  18.073  1.00  0.00     0.293 HD
ENDBRANCH  17  18
ENDBRANCH   2  12
BRANCH   8  20
ATOM     20  O   UNL     1      14.198  -8.873   8.620  1.00  0.00    -0.507 OA
ATOM     21  H   UNL     1      14.867  -8.674   7.890  1.00  0.00     0.293 HD
ENDBRANCH   8  20
BRANCH   6  22
ATOM     22  O   UNL     1      14.732 -12.083  12.168  1.00  0.00    -0.508 OA
ATOM     23  H   UNL     1      14.538 -12.846  11.530  1.00  0.00     0.293 HD
ENDBRANCH   6  22
TORSDOF 4
ENDMDL
MODEL 5
REMARK VINA RESULT:    -4.977      3.053      7.342
REMARK INTER + INTRA:          -5.999
REMARK INTER:                  -5.679
REMARK INTRA:                  -0.320
REMARK UNBOUND:                -0.295
REMARK SMILES O=C1C[C@@H](c2ccc(O)cc2)Oc2cc(O)cc(O)c21
REMARK SMILES IDX 3 1 4 2 12 3 13 4 14 5 15 6 17 7 18 8 20 9 2 10 1 11 5 12
REMARK SMILES IDX 6 13 11 14 7 15 10 16 8 17 9 18 19 20 16 22
REMARK H PARENT 9 19 19 21 16 23
REMARK Flexibility Score: inf
ROOT
ATOM      1  C   UNL     1      16.790 -13.833  19.171  1.00  0.00     0.131 C 
ATOM      2  C   UNL     1      18.278 -13.728  19.535  1.00  0.00     0.211 C 
ATOM      3  O   UNL     1      18.514 -14.257  20.844  1.00  0.00    -0.484 OA
ATOM      4  C   UNL     1      17.867 -15.405  21.322  1.00  0.00     0.138 A 
ATOM      5  C   UNL     1      18.346 -16.017  22.483  1.00  0.00     0.093 A 
ATOM      6  C   UNL     1      17.735 -17.168  22.977  1.00  0.00     0.123 A 
ATOM      7  C   UNL     1      16.617 -17.698  22.322  1.00  0.00     0.093 A 
ATOM      8  C   UNL     1      16.096 -17.078  21.179  1.00  0.00     0.133 A 
ATOM      9  C   UNL     1      16.746 -15.934  20.647  1.00  0.00     0.102 A 
ATOM     10  C   UNL     1      16.324 -15.239  19.406  1.00  0.00     0.174 C 
ATOM     11  O   UNL     1      15.635 -15.816  18.524  1.00  0.00    -0.294 OA
ENDROOT
BRANCH   2  12
ATOM     12  C   UNL     1      18.745 -12.295  19.465  1.00  0.00    -0.007 A 
ATOM     13  C   UNL     1      18.229 -11.430  18.485  1.00  0.00     0.011 A 
ATOM     14  C   UNL     1      19.657 -11.792  20.411  1.00  0.00     0.011 A 
ATOM     15  C   UNL     1      18.637 -10.093  18.437  1.00  0.00     0.046 A 
ATOM     16  C   UNL     1      20.063 -10.456  20.360  1.00  0.00     0.046 A 
ATOM     17  C   UNL     1      19.557  -9.603  19.373  1.00  0.00     0.115 A 
BRANCH  17  18
ATOM     18  O   UNL     1      19.970  -8.274  19.335  1.00  0.00    -0.508 OA
ATOM     19  H   UNL     1      20.922  -8.009  19.560  1.00  0.00     0.293 HD
ENDBRANCH  17  18
ENDBRANCH   2  12
BRANCH   8  20
ATOM     20  O   UNL     1      14.924 -17.611  20.638  1.00  0.00    -0.507 OA
ATOM     21  H   UNL     1      14.021 -17.560  21.086  1.00  0.00     0.293 HD
ENDBRANCH   8  20
BRANCH   6  22
ATOM     22  O   UNL     1      18.240 -17.778  24.124  1.00  0.00    -0.508 OA
ATOM     23  H   UNL     1      19.019 -17.381  24.636  1.00  0.00     0.293 HD
ENDBRANCH   6  22
TORSDOF 4
ENDMDL
MODEL 6
REMARK VINA RESULT:    -4.942      2.226      6.645
REMARK INTER + INTRA:          -5.959
REMARK INTER:                  -5.672
REMARK INTRA:                  -0.288
REMARK UNBOUND:                -0.295
REMARK SMILES O=C1C[C@@H](c2ccc(O)cc2)Oc2cc(O)cc(O)c21
REMARK SMILES IDX 3 1 4 2 12 3 13 4 14 5 15 6 17 7 18 8 20 9 2 10 1 11 5 12
REMARK SMILES IDX 6 13 11 14 7 15 10 16 8 17 9 18 19 20 16 22
REMARK H PARENT 9 19 19 21 16 23
REMARK Flexibility Score: inf
ROOT
ATOM      1  C   UNL     1      16.535 -14.829  21.046  1.00  0.00     0.131 C 
ATOM      2  C   UNL     1      15.697 -13.856  20.205  1.00  0.00     0.211 C 
ATOM      3  O   UNL     1      15.024 -14.553  19.152  1.00  0.00    -0.484 OA
ATOM      4  C   UNL     1      14.457 -15.823  19.328  1.00  0.00     0.138 A 
ATOM      5  C   UNL     1      13.585 -16.316  18.354  1.00  0.00     0.093 A 
ATOM      6  C   UNL     1      12.993 -17.569  18.506  1.00  0.00     0.123 A 
ATOM      7  C   UNL     1      13.296 -18.350  19.627  1.00  0.00     0.093 A 
ATOM      8  C   UNL     1      14.198 -17.892  20.597  1.00  0.00     0.133 A 
ATOM      9  C   UNL     1      14.765 -16.597  20.468  1.00  0.00     0.102 A 
ATOM     10  C   UNL     1      15.675 -15.983  21.466  1.00  0.00     0.174 C 
ATOM     11  O   UNL     1      15.703 -16.370  22.665  1.00  0.00    -0.294 OA
ENDROOT
BRANCH   2  12
ATOM     12  C   UNL     1      16.563 -12.763  19.631  1.00  0.00    -0.007 A 
ATOM     13  C   UNL     1      17.941 -12.975  19.447  1.00  0.00     0.011 A 
ATOM     14  C   UNL     1      15.998 -11.543  19.220  1.00  0.00     0.011 A 
ATOM     15  C   UNL     1      18.741 -11.975  18.886  1.00  0.00     0.046 A 
ATOM     16  C   UNL     1      16.800 -10.545  18.661  1.00  0.00     0.046 A 
ATOM     17  C   UNL     1      18.173 -10.756  18.493  1.00  0.00     0.115 A 
BRANCH  17  18
ATOM     18  O   UNL     1      18.960  -9.753  17.934  1.00  0.00    -0.508 OA
ATOM     19  H   UNL     1      19.444  -9.075  18.512  1.00  0.00     0.293 HD
ENDBRANCH  17  18
ENDBRANCH   2  12
BRANCH   8  20
ATOM     20  O   UNL     1      14.522 -18.767  21.636  1.00  0.00    -0.507 OA
ATOM     21  H   UNL     1      15.208 -19.504  21.561  1.00  0.00     0.293 HD
ENDBRANCH   8  20
BRANCH   6  22
ATOM     22  O   UNL     1      12.109 -18.035  17.535  1.00  0.00    -0.508 OA
ATOM     23  H   UNL     1      11.605 -18.905  17.652  1.00  0.00     0.293 HD
ENDBRANCH   6  22
TORSDOF 4
ENDMDL
MODEL 7
REMARK VINA RESULT:    -4.923      9.980     12.071
REMARK INTER + INTRA:          -5.937
REMARK INTER:                  -5.617
REMARK INTRA:                  -0.321
REMARK UNBOUND:                -0.295
REMARK SMILES O=C1C[C@@H](c2ccc(O)cc2)Oc2cc(O)cc(O)c21
REMARK SMILES IDX 3 1 4 2 12 3 13 4 14 5 15 6 17 7 18 8 20 9 2 10 1 11 5 12
REMARK SMILES IDX 6 13 11 14 7 15 10 16 8 17 9 18 19 20 16 22
REMARK H PARENT 9 19 19 21 16 23
REMARK Flexibility Score: inf
ROOT
ATOM      1  C   UNL     1      14.504 -10.443   9.425  1.00  0.00     0.131 C 
ATOM      2  C   UNL     1      14.252 -11.021  10.824  1.00  0.00     0.211 C 
ATOM      3  O   UNL     1      14.954 -10.264  11.815  1.00  0.00    -0.484 OA
ATOM      4  C   UNL     1      15.061  -8.867  11.763  1.00  0.00     0.138 A 
ATOM      5  C   UNL     1      15.511  -8.180  12.893  1.00  0.00     0.093 A 
ATOM      6  C   UNL     1      15.614  -6.790  12.879  1.00  0.00     0.123 A 
ATOM      7  C   UNL     1      15.293  -6.081  11.716  1.00  0.00     0.093 A 
ATOM      8  C   UNL     1      14.878  -6.752  10.558  1.00  0.00     0.133 A 
ATOM      9  C   UNL     1      14.725  -8.163  10.586  1.00  0.00     0.102 A 
ATOM     10  C   UNL     1      14.227  -8.970   9.444  1.00  0.00     0.174 C 
ATOM     11  O   UNL     1      13.534  -8.459   8.525  1.00  0.00    -0.294 OA
ENDROOT
BRANCH   2  12
ATOM     12  C   UNL     1      14.671 -12.469  10.887  1.00  0.00    -0.007 A 
ATOM     13  C   UNL     1      14.413 -13.328   9.806  1.00  0.00     0.011 A 
ATOM     14  C   UNL     1      15.374 -12.963  12.001  1.00  0.00     0.011 A 
ATOM     15  C   UNL     1      14.828 -14.663   9.848  1.00  0.00     0.046 A 
ATOM     16  C   UNL     1      15.787 -14.297  12.042  1.00  0.00     0.046 A 
ATOM     17  C   UNL     1      15.515 -15.152  10.968  1.00  0.00     0.115 A 
BRANCH  17  18
ATOM     18  O   UNL     1      15.932 -16.479  11.022  1.00  0.00    -0.508 OA
ATOM     19  H   UNL     1      16.684 -16.773  11.635  1.00  0.00     0.293 HD
ENDBRANCH  17  18
ENDBRANCH   2  12
BRANCH   8  20
ATOM     20  O   UNL     1      14.667  -5.984   9.411  1.00  0.00    -0.507 OA
ATOM     21  H   UNL     1      15.274  -5.995   8.605  1.00  0.00     0.293 HD
ENDBRANCH   8  20
BRANCH   6  22
ATOM     22  O   UNL     1      16.044  -6.120  14.022  1.00  0.00    -0.508 OA
ATOM     23  H   UNL     1      16.026  -5.109  14.082  1.00  0.00     0.293 HD
ENDBRANCH   6  22
TORSDOF 4
ENDMDL
MODEL 8
REMARK VINA RESULT:    -4.757      9.399     12.087
REMARK INTER + INTRA:          -5.747
REMARK INTER:                  -5.455
REMARK INTRA:                  -0.292
REMARK UNBOUND:                -0.295
REMARK SMILES O=C1C[C@@H](c2ccc(O)cc2)Oc2cc(O)cc(O)c21
REMARK SMILES IDX 3 1 4 2 12 3 13 4 14 5 15 6 17 7 18 8 20 9 2 10 1 11 5 12
REMARK SMILES IDX 6 13 11 14 7 15 10 16 8 17 9 18 19 20 16 22
REMARK H PARENT 9 19 19 21 16 23
REMARK Flexibility Score: inf
ROOT
ATOM      1  C   UNL     1      26.654 -12.572  17.385  1.00  0.00     0.131 C 
ATOM      2  C   UNL     1      25.580 -12.250  18.433  1.00  0.00     0.211 C 
ATOM      3  O   UNL     1      24.578 -13.271  18.456  1.00  0.00    -0.484 OA
ATOM      4  C   UNL     1      24.883 -14.632  18.322  1.00  0.00     0.138 A 
ATOM      5  C   UNL     1      23.903 -15.579  18.630  1.00  0.00     0.093 A 
ATOM      6  C   UNL     1      24.179 -16.941  18.521  1.00  0.00     0.123 A 
ATOM      7  C   UNL     1      25.437 -17.362  18.073  1.00  0.00     0.093 A 
ATOM      8  C   UNL     1      26.421 -16.430  17.720  1.00  0.00     0.133 A 
ATOM      9  C   UNL     1      26.158 -15.043  17.876  1.00  0.00     0.102 A 
ATOM     10  C   UNL     1      27.147 -13.972  17.600  1.00  0.00     0.174 C 
ATOM     11  O   UNL     1      28.386 -14.198  17.598  1.00  0.00    -0.294 OA
ENDROOT
BRANCH   2  12
ATOM     12  C   UNL     1      24.946 -10.910  18.153  1.00  0.00    -0.007 A 
ATOM     13  C   UNL     1      25.200 -10.246  16.940  1.00  0.00     0.011 A 
ATOM     14  C   UNL     1      24.052 -10.334  19.074  1.00  0.00     0.011 A 
ATOM     15  C   UNL     1      24.589  -9.019  16.665  1.00  0.00     0.046 A 
ATOM     16  C   UNL     1      23.445  -9.107  18.797  1.00  0.00     0.046 A 
ATOM     17  C   UNL     1      23.711  -8.445  17.594  1.00  0.00     0.115 A 
BRANCH  17  18
ATOM     18  O   UNL     1      23.098  -7.222  17.331  1.00  0.00    -0.508 OA
ATOM     19  H   UNL     1      22.314  -6.894  17.882  1.00  0.00     0.293 HD
ENDBRANCH  17  18
ENDBRANCH   2  12
BRANCH   8  20
ATOM     20  O   UNL     1      27.615 -16.925  17.191  1.00  0.00    -0.507 OA
ATOM     21  H   UNL     1      28.401 -17.219  17.752  1.00  0.00     0.293 HD
ENDBRANCH   8  20
BRANCH   6  22
ATOM     22  O   UNL     1      23.198 -17.871  18.855  1.00  0.00    -0.508 OA
ATOM     23  H   UNL     1      22.459 -18.117  18.207  1.00  0.00     0.293 HD
ENDBRANCH   6  22
TORSDOF 4
ENDMDL
MODEL 9
REMARK VINA RESULT:    -4.733      1.643      3.256
REMARK INTER + INTRA:          -5.719
REMARK INTER:                  -5.440
REMARK INTRA:                  -0.279
REMARK UNBOUND:                -0.295
REMARK SMILES O=C1C[C@@H](c2ccc(O)cc2)Oc2cc(O)cc(O)c21
REMARK SMILES IDX 3 1 4 2 12 3 13 4 14 5 15 6 17 7 18 8 20 9 2 10 1 11 5 12
REMARK SMILES IDX 6 13 11 14 7 15 10 16 8 17 9 18 19 20 16 22
REMARK H PARENT 9 19 19 21 16 23
REMARK Flexibility Score: inf
ROOT
ATOM      1  C   UNL     1      13.941 -15.859  19.739  1.00  0.00     0.131 C 
ATOM      2  C   UNL     1      13.285 -16.858  20.703  1.00  0.00     0.211 C 
ATOM      3  O   UNL     1      14.255 -17.781  21.206  1.00  0.00    -0.484 OA
ATOM      4  C   UNL     1      15.558 -17.395  21.551  1.00  0.00     0.138 A 
ATOM      5  C   UNL     1      16.352 -18.276  22.290  1.00  0.00     0.093 A 
ATOM      6  C   UNL     1      17.646 -17.917  22.661  1.00  0.00     0.123 A 
ATOM      7  C   UNL     1      18.164 -16.677  22.268  1.00  0.00     0.093 A 
ATOM      8  C   UNL     1      17.400 -15.795  21.493  1.00  0.00     0.133 A 
ATOM      9  C   UNL     1      16.065 -16.138  21.155  1.00  0.00     0.102 A 
ATOM     10  C   UNL     1      15.143 -15.254  20.401  1.00  0.00     0.174 C 
ATOM     11  O   UNL     1      15.314 -14.007  20.349  1.00  0.00    -0.294 OA
ENDROOT
BRANCH   2  12
ATOM     12  C   UNL     1      12.167 -17.604  20.018  1.00  0.00    -0.007 A 
ATOM     13  C   UNL     1      11.162 -18.226  20.778  1.00  0.00     0.011 A 
ATOM     14  C   UNL     1      12.085 -17.641  18.614  1.00  0.00     0.011 A 
ATOM     15  C   UNL     1      10.108 -18.893  20.146  1.00  0.00     0.046 A 
ATOM     16  C   UNL     1      11.031 -18.308  17.985  1.00  0.00     0.046 A 
ATOM     17  C   UNL     1      10.041 -18.937  18.747  1.00  0.00     0.115 A 
BRANCH  17  18
ATOM     18  O   UNL     1       8.996 -19.598  18.107  1.00  0.00    -0.508 OA
ATOM     19  H   UNL     1       9.160 -20.196  17.305  1.00  0.00     0.293 HD
ENDBRANCH  17  18
ENDBRANCH   2  12
BRANCH   8  20
ATOM     20  O   UNL     1      18.019 -14.620  21.061  1.00  0.00    -0.507 OA
ATOM     21  H   UNL     1      19.020 -14.494  21.013  1.00  0.00     0.293 HD
ENDBRANCH   8  20
BRANCH   6  22
ATOM     22  O   UNL     1      18.415 -18.800  23.416  1.00  0.00    -0.508 OA
ATOM     23  H   UNL     1      18.280 -18.899  24.415  1.00  0.00     0.293 HD
ENDBRANCH   6  22
TORSDOF 4
ENDMDL
