MODEL 1
REMARK VINA RESULT:    -3.162      0.000      0.000
REMARK INTER + INTRA:          -3.997
REMARK INTER:                  -3.902
REMARK INTRA:                  -0.096
REMARK UNBOUND:                -0.096
REMARK SMILES CCCCCC(=O)[O-]
REMARK SMILES IDX 4 1 5 2 6 3 7 4 8 5 3 6 2 7 1 8
REMARK H PARENT
REMARK Flexibility Score: inf
ROOT
ATOM      1  C   UNL     1       9.716  14.413   0.099  1.00  0.00     0.006 C 
ENDROOT
BRANCH   1   2
ATOM      2  C   UNL     1       9.656  15.029   1.508  1.00  0.00     0.053 C 
BRANCH   2   3
ATOM      3  C   UNL     1      10.087  16.463   1.533  1.00  0.00     0.041 C 
ATOM      4  O   UNL     1       9.243  17.384   1.372  1.00  0.00    -0.550 OA
ATOM      5  O   UNL     1      11.419  16.785   1.765  1.00  0.00    -0.550 OA
ENDBRANCH   2   3
ENDBRANCH   1   2
BRANCH   1   6
ATOM      6  C   UNL     1      11.146  14.124  -0.396  1.00  0.00     0.000 C 
BRANCH   6   7
ATOM      7  C   UNL     1      11.764  12.875   0.247  1.00  0.00    -0.003 C 
ATOM      8  C   UNL     1      12.653  13.247   1.430  1.00  0.00     0.004 C 
ENDBRANCH   6   7
ENDBRANCH   1   6
TORSDOF 4
ENDMDL
MODEL 2
REMARK VINA RESULT:    -2.941      1.003      1.729
REMARK INTER + INTRA:          -3.725
REMARK INTER:                  -3.716
REMARK INTRA:                  -0.009
REMARK UNBOUND:                -0.096
REMARK SMILES CCCCCC(=O)[O-]
REMARK SMILES IDX 4 1 5 2 6 3 7 4 8 5 3 6 2 7 1 8
REMARK H PARENT
REMARK Flexibility Score: inf
ROOT
ATOM      1  C   UNL     1      11.494  14.657   2.043  1.00  0.00     0.006 C 
ENDROOT
BRANCH   1   2
ATOM      2  C   UNL     1      10.093  15.288   2.125  1.00  0.00     0.053 C 
BRANCH   2   3
ATOM      3  C   UNL     1      10.078  16.724   1.701  1.00  0.00     0.041 C 
ATOM      4  O   UNL     1       9.011  17.392   1.754  1.00  0.00    -0.550 OA
ATOM      5  O   UNL     1      11.250  17.337   1.274  1.00  0.00    -0.550 OA
ENDBRANCH   2   3
ENDBRANCH   1   2
BRANCH   1   6
ATOM      6  C   UNL     1      11.543  13.345   1.237  1.00  0.00     0.000 C 
BRANCH   6   7
ATOM      7  C   UNL     1      11.702  13.573  -0.273  1.00  0.00    -0.003 C 
ATOM      8  C   UNL     1      10.360  13.890  -0.926  1.00  0.00     0.004 C 
ENDBRANCH   6   7
ENDBRANCH   1   6
TORSDOF 4
ENDMDL
MODEL 3
REMARK VINA RESULT:    -2.776      1.084      1.899
REMARK INTER + INTRA:          -3.521
REMARK INTER:                  -3.427
REMARK INTRA:                  -0.094
REMARK UNBOUND:                -0.096
REMARK SMILES CCCCCC(=O)[O-]
REMARK SMILES IDX 4 1 5 2 6 3 7 4 8 5 3 6 2 7 1 8
REMARK H PARENT
REMARK Flexibility Score: inf
ROOT
ATOM      1  C   UNL     1       9.707  14.542   0.927  1.00  0.00     0.006 C 
ENDROOT
BRANCH   1   2
ATOM      2  C   UNL     1       9.099  15.293   2.125  1.00  0.00     0.053 C 
BRANCH   2   3
ATOM      3  C   UNL     1       9.292  16.775   2.039  1.00  0.00     0.041 C 
ATOM      4  O   UNL     1      10.443  17.257   1.862  1.00  0.00    -0.550 OA
ATOM      5  O   UNL     1       8.197  17.627   2.124  1.00  0.00    -0.550 OA
ENDBRANCH   2   3
ENDBRANCH   1   2
BRANCH   1   6
ATOM      6  C   UNL     1      11.089  13.925   1.213  1.00  0.00     0.000 C 
BRANCH   6   7
ATOM      7  C   UNL     1      11.803  13.437  -0.055  1.00  0.00    -0.003 C 
ATOM      8  C   UNL     1      11.060  13.881  -1.311  1.00  0.00     0.004 C 
ENDBRANCH   6   7
ENDBRANCH   1   6
TORSDOF 4
ENDMDL
MODEL 4
REMARK VINA RESULT:    -2.642      2.453      3.920
REMARK INTER + INTRA:          -3.355
REMARK INTER:                  -3.287
REMARK INTRA:                  -0.068
REMARK UNBOUND:                -0.096
REMARK SMILES CCCCCC(=O)[O-]
REMARK SMILES IDX 4 1 5 2 6 3 7 4 8 5 3 6 2 7 1 8
REMARK H PARENT
REMARK Flexibility Score: inf
ROOT
ATOM      1  C   UNL     1       9.590  14.821   0.864  1.00  0.00     0.006 C 
ENDROOT
BRANCH   1   2
ATOM      2  C   UNL     1      10.766  13.846   1.056  1.00  0.00     0.053 C 
BRANCH   2   3
ATOM      3  C   UNL     1      11.528  13.601  -0.209  1.00  0.00     0.041 C 
ATOM      4  O   UNL     1      12.653  13.035  -0.174  1.00  0.00    -0.550 OA
ATOM      5  O   UNL     1      10.982  13.968  -1.433  1.00  0.00    -0.550 OA
ENDBRANCH   2   3
ENDBRANCH   1   2
BRANCH   1   6
ATOM      6  C   UNL     1       9.328  15.731   2.079  1.00  0.00     0.000 C 
BRANCH   6   7
ATOM      7  C   UNL     1       9.842  17.163   1.879  1.00  0.00    -0.003 C 
ATOM      8  C   UNL     1      11.355  17.235   2.062  1.00  0.00     0.004 C 
ENDBRANCH   6   7
ENDBRANCH   1   6
TORSDOF 4
ENDMDL
MODEL 5
REMARK VINA RESULT:    -2.583      2.236      3.797
REMARK INTER + INTRA:          -3.283
REMARK INTER:                  -3.106
REMARK INTRA:                  -0.177
REMARK UNBOUND:                -0.096
REMARK SMILES CCCCCC(=O)[O-]
REMARK SMILES IDX 4 1 5 2 6 3 7 4 8 5 3 6 2 7 1 8
REMARK H PARENT
REMARK Flexibility Score: inf
ROOT
ATOM      1  C   UNL     1      10.132  14.753   0.027  1.00  0.00     0.006 C 
ENDROOT
BRANCH   1   2
ATOM      2  C   UNL     1      10.693  13.324  -0.067  1.00  0.00     0.053 C 
BRANCH   2   3
ATOM      3  C   UNL     1      12.139  13.242   0.318  1.00  0.00     0.041 C 
ATOM      4  O   UNL     1      13.001  12.875  -0.524  1.00  0.00    -0.550 OA
ATOM      5  O   UNL     1      12.540  13.600   1.599  1.00  0.00    -0.550 OA
ENDBRANCH   2   3
ENDBRANCH   1   2
BRANCH   1   6
ATOM      6  C   UNL     1       9.458  15.073   1.375  1.00  0.00     0.000 C 
BRANCH   6   7
ATOM      7  C   UNL     1       9.743  16.498   1.867  1.00  0.00    -0.003 C 
ATOM      8  C   UNL     1      11.113  16.979   1.398  1.00  0.00     0.004 C 
ENDBRANCH   6   7
ENDBRANCH   1   6
TORSDOF 4
ENDMDL
MODEL 6
REMARK VINA RESULT:    -2.450      2.389      4.110
REMARK INTER + INTRA:          -3.118
REMARK INTER:                  -2.997
REMARK INTRA:                  -0.121
REMARK UNBOUND:                -0.096
REMARK SMILES CCCCCC(=O)[O-]
REMARK SMILES IDX 4 1 5 2 6 3 7 4 8 5 3 6 2 7 1 8
REMARK H PARENT
REMARK Flexibility Score: inf
ROOT
ATOM      1  C   UNL     1      11.279  15.942   1.536  1.00  0.00     0.006 C 
ENDROOT
BRANCH   1   2
ATOM      2  C   UNL     1      10.688  14.531   1.376  1.00  0.00     0.053 C 
BRANCH   2   3
ATOM      3  C   UNL     1      11.075  13.883   0.082  1.00  0.00     0.041 C 
ATOM      4  O   UNL     1      10.309  13.950  -0.917  1.00  0.00    -0.550 OA
ATOM      5  O   UNL     1      12.297  13.231  -0.033  1.00  0.00    -0.550 OA
ENDBRANCH   2   3
ENDBRANCH   1   2
BRANCH   1   6
ATOM      6  C   UNL     1      10.255  17.001   1.988  1.00  0.00     0.000 C 
BRANCH   6   7
ATOM      7  C   UNL     1       8.822  16.457   2.067  1.00  0.00    -0.003 C 
ATOM      8  C   UNL     1       7.805  17.592   2.125  1.00  0.00     0.004 C 
ENDBRANCH   6   7
ENDBRANCH   1   6
TORSDOF 4
ENDMDL
MODEL 7
REMARK VINA RESULT:    -2.149      2.218      3.773
REMARK INTER + INTRA:          -2.747
REMARK INTER:                  -2.769
REMARK INTRA:                   0.022
REMARK UNBOUND:                -0.096
REMARK SMILES CCCCCC(=O)[O-]
REMARK SMILES IDX 4 1 5 2 6 3 7 4 8 5 3 6 2 7 1 8
REMARK H PARENT
REMARK Flexibility Score: inf
ROOT
ATOM      1  C   UNL     1      12.152  14.034   1.437  1.00  0.00     0.006 C 
ENDROOT
BRANCH   1   2
ATOM      2  C   UNL     1      11.504  13.068   0.430  1.00  0.00     0.053 C 
BRANCH   2   3
ATOM      3  C   UNL     1      10.733  13.778  -0.640  1.00  0.00     0.041 C 
ATOM      4  O   UNL     1      11.282  14.062  -1.738  1.00  0.00    -0.550 OA
ATOM      5  O   UNL     1       9.396  14.100  -0.438  1.00  0.00    -0.550 OA
ENDBRANCH   2   3
ENDBRANCH   1   2
BRANCH   1   6
ATOM      6  C   UNL     1      11.152  14.983   2.125  1.00  0.00     0.000 C 
BRANCH   6   7
ATOM      7  C   UNL     1      11.161  16.399   1.532  1.00  0.00    -0.003 C 
ATOM      8  C   UNL     1       9.779  17.040   1.616  1.00  0.00     0.004 C 
ENDBRANCH   6   7
ENDBRANCH   1   6
TORSDOF 4
ENDMDL
MODEL 8
REMARK VINA RESULT:    -2.078      1.836      2.443
REMARK INTER + INTRA:          -2.660
REMARK INTER:                  -2.588
REMARK INTRA:                  -0.071
REMARK UNBOUND:                -0.096
REMARK SMILES CCCCCC(=O)[O-]
REMARK SMILES IDX 4 1 5 2 6 3 7 4 8 5 3 6 2 7 1 8
REMARK H PARENT
REMARK Flexibility Score: inf
ROOT
ATOM      1  C   UNL     1      11.628  15.303   1.432  1.00  0.00     0.006 C 
ENDROOT
BRANCH   1   2
ATOM      2  C   UNL     1      10.270  15.752   1.999  1.00  0.00     0.053 C 
BRANCH   2   3
ATOM      3  C   UNL     1       9.116  15.014   1.392  1.00  0.00     0.041 C 
ATOM      4  O   UNL     1       9.223  14.496   0.249  1.00  0.00    -0.550 OA
ATOM      5  O   UNL     1       7.930  14.871   2.102  1.00  0.00    -0.550 OA
ENDBRANCH   2   3
ENDBRANCH   1   2
BRANCH   1   6
ATOM      6  C   UNL     1      12.175  14.011   2.067  1.00  0.00     0.000 C 
BRANCH   6   7
ATOM      7  C   UNL     1      12.429  12.897   1.042  1.00  0.00    -0.003 C 
ATOM      8  C   UNL     1      12.117  13.372  -0.374  1.00  0.00     0.004 C 
ENDBRANCH   6   7
ENDBRANCH   1   6
TORSDOF 4
ENDMDL
MODEL 9
REMARK VINA RESULT:    -1.650      1.755      3.472
REMARK INTER + INTRA:          -2.132
REMARK INTER:                  -2.427
REMARK INTRA:                   0.295
REMARK UNBOUND:                -0.096
REMARK SMILES CCCCCC(=O)[O-]
REMARK SMILES IDX 4 1 5 2 6 3 7 4 8 5 3 6 2 7 1 8
REMARK H PARENT
REMARK Flexibility Score: inf
ROOT
ATOM      1  C   UNL     1       9.297  14.743   0.718  1.00  0.00     0.006 C 
ENDROOT
BRANCH   1   2
ATOM      2  C   UNL     1      10.653  15.443   0.913  1.00  0.00     0.053 C 
BRANCH   2   3
ATOM      3  C   UNL     1      10.525  16.783   1.569  1.00  0.00     0.041 C 
ATOM      4  O   UNL     1      11.552  17.459   1.841  1.00  0.00    -0.550 OA
ATOM      5  O   UNL     1       9.267  17.301   1.855  1.00  0.00    -0.550 OA
ENDBRANCH   2   3
ENDBRANCH   1   2
BRANCH   1   6
ATOM      6  C   UNL     1       8.595  14.361   2.035  1.00  0.00     0.000 C 
BRANCH   6   7
ATOM      7  C   UNL     1       7.157  14.889   2.125  1.00  0.00    -0.003 C 
ATOM      8  C   UNL     1       6.204  14.036   1.293  1.00  0.00     0.004 C 
ENDBRANCH   6   7
ENDBRANCH   1   6
TORSDOF 4
ENDMDL
