MODEL 1
REMARK VINA RESULT:    -3.093      0.000      0.000
REMARK INTER + INTRA:          -3.664
REMARK INTER:                  -3.636
REMARK INTRA:                  -0.028
REMARK UNBOUND:                -0.028
REMARK SMILES CCCCC(=O)[O-]
REMARK SMILES IDX 4 1 5 2 6 3 7 4 3 5 2 6 1 7
REMARK H PARENT
REMARK Flexibility Score: inf
ROOT
ATOM      1  C   UNL     1       6.869   7.010  33.717  1.00  0.00     0.053 C 
ENDROOT
BRANCH   1   2
ATOM      2  C   UNL     1       7.118   6.208  34.957  1.00  0.00     0.041 C 
ATOM      3  O   UNL     1       7.741   6.716  35.926  1.00  0.00    -0.550 OA
ATOM      4  O   UNL     1       6.619   4.916  35.060  1.00  0.00    -0.550 OA
ENDBRANCH   1   2
BRANCH   1   5
ATOM      5  C   UNL     1       6.623   8.482  34.074  1.00  0.00     0.006 C 
BRANCH   5   6
ATOM      6  C   UNL     1       7.059   9.440  32.955  1.00  0.00    -0.003 C 
ATOM      7  C   UNL     1       6.276  10.752  32.961  1.00  0.00     0.004 C 
ENDBRANCH   5   6
ENDBRANCH   1   5
TORSDOF 3
ENDMDL
MODEL 2
REMARK VINA RESULT:    -3.082      2.653      4.041
REMARK INTER + INTRA:          -3.651
REMARK INTER:                  -3.545
REMARK INTRA:                  -0.106
REMARK UNBOUND:                -0.028
REMARK SMILES CCCCC(=O)[O-]
REMARK SMILES IDX 4 1 5 2 6 3 7 4 3 5 2 6 1 7
REMARK H PARENT
REMARK Flexibility Score: inf
ROOT
ATOM      1  C   UNL     1       7.321   8.781  33.004  1.00  0.00     0.053 C 
ENDROOT
BRANCH   1   2
ATOM      2  C   UNL     1       6.548   9.984  33.448  1.00  0.00     0.041 C 
ATOM      3  O   UNL     1       6.190  10.852  32.609  1.00  0.00    -0.550 OA
ATOM      4  O   UNL     1       6.182  10.122  34.781  1.00  0.00    -0.550 OA
ENDBRANCH   1   2
BRANCH   1   5
ATOM      5  C   UNL     1       6.559   7.497  33.357  1.00  0.00     0.006 C 
BRANCH   5   6
ATOM      6  C   UNL     1       7.358   6.576  34.294  1.00  0.00    -0.003 C 
ATOM      7  C   UNL     1       7.010   6.786  35.766  1.00  0.00     0.004 C 
ENDBRANCH   5   6
ENDBRANCH   1   5
TORSDOF 3
ENDMDL
MODEL 3
REMARK VINA RESULT:    -2.864      4.074      5.086
REMARK INTER + INTRA:          -3.394
REMARK INTER:                  -3.363
REMARK INTRA:                  -0.031
REMARK UNBOUND:                -0.028
REMARK SMILES CCCCC(=O)[O-]
REMARK SMILES IDX 4 1 5 2 6 3 7 4 3 5 2 6 1 7
REMARK H PARENT
REMARK Flexibility Score: inf
ROOT
ATOM      1  C   UNL     1       6.028  10.860  34.628  1.00  0.00     0.053 C 
ENDROOT
BRANCH   1   2
ATOM      2  C   UNL     1       5.910  12.352  34.629  1.00  0.00     0.041 C 
ATOM      3  O   UNL     1       5.886  12.986  35.717  1.00  0.00    -0.550 OA
ATOM      4  O   UNL     1       5.876  13.047  33.427  1.00  0.00    -0.550 OA
ENDBRANCH   1   2
BRANCH   1   5
ATOM      5  C   UNL     1       6.093  10.330  33.190  1.00  0.00     0.006 C 
BRANCH   5   6
ATOM      6  C   UNL     1       7.181   9.260  33.005  1.00  0.00    -0.003 C 
ATOM      7  C   UNL     1       6.711   7.863  33.409  1.00  0.00     0.004 C 
ENDBRANCH   5   6
ENDBRANCH   1   5
TORSDOF 3
ENDMDL
MODEL 4
REMARK VINA RESULT:    -2.742      2.594      4.244
REMARK INTER + INTRA:          -3.251
REMARK INTER:                  -3.208
REMARK INTRA:                  -0.043
REMARK UNBOUND:                -0.028
REMARK SMILES CCCCC(=O)[O-]
REMARK SMILES IDX 4 1 5 2 6 3 7 4 3 5 2 6 1 7
REMARK H PARENT
REMARK Flexibility Score: inf
ROOT
ATOM      1  C   UNL     1       6.206   8.670  34.454  1.00  0.00     0.053 C 
ENDROOT
BRANCH   1   2
ATOM      2  C   UNL     1       6.765   9.503  33.343  1.00  0.00     0.041 C 
ATOM      3  O   UNL     1       7.776   9.110  32.703  1.00  0.00    -0.550 OA
ATOM      4  O   UNL     1       6.141  10.690  32.983  1.00  0.00    -0.550 OA
ENDBRANCH   1   2
BRANCH   1   5
ATOM      5  C   UNL     1       6.747   7.237  34.371  1.00  0.00     0.006 C 
BRANCH   5   6
ATOM      6  C   UNL     1       7.387   6.772  35.689  1.00  0.00    -0.003 C 
ATOM      7  C   UNL     1       8.106   5.431  35.556  1.00  0.00     0.004 C 
ENDBRANCH   5   6
ENDBRANCH   1   5
TORSDOF 3
ENDMDL
MODEL 5
REMARK VINA RESULT:    -2.495     10.962     12.061
REMARK INTER + INTRA:          -2.961
REMARK INTER:                  -2.914
REMARK INTRA:                  -0.047
REMARK UNBOUND:                -0.028
REMARK SMILES CCCCC(=O)[O-]
REMARK SMILES IDX 4 1 5 2 6 3 7 4 3 5 2 6 1 7
REMARK H PARENT
REMARK Flexibility Score: inf
ROOT
ATOM      1  C   UNL     1       6.421  20.034  34.351  1.00  0.00     0.053 C 
ENDROOT
BRANCH   1   2
ATOM      2  C   UNL     1       6.374  18.663  34.951  1.00  0.00     0.041 C 
ATOM      3  O   UNL     1       6.324  17.647  34.208  1.00  0.00    -0.550 OA
ATOM      4  O   UNL     1       6.434  18.506  36.330  1.00  0.00    -0.550 OA
ENDBRANCH   1   2
BRANCH   1   5
ATOM      5  C   UNL     1       7.156  20.002  33.004  1.00  0.00     0.006 C 
BRANCH   5   6
ATOM      6  C   UNL     1       6.284  20.510  31.845  1.00  0.00    -0.003 C 
ATOM      7  C   UNL     1       6.932  21.664  31.080  1.00  0.00     0.004 C 
ENDBRANCH   5   6
ENDBRANCH   1   5
TORSDOF 3
ENDMDL
MODEL 6
REMARK VINA RESULT:    -2.482     21.790     22.589
REMARK INTER + INTRA:          -2.946
REMARK INTER:                  -2.924
REMARK INTRA:                  -0.022
REMARK UNBOUND:                -0.028
REMARK SMILES CCCCC(=O)[O-]
REMARK SMILES IDX 4 1 5 2 6 3 7 4 3 5 2 6 1 7
REMARK H PARENT
REMARK Flexibility Score: inf
ROOT
ATOM      1  C   UNL     1      18.828  20.979  19.860  1.00  0.00     0.053 C 
ENDROOT
BRANCH   1   2
ATOM      2  C   UNL     1      19.842  21.066  20.957  1.00  0.00     0.041 C 
ATOM      3  O   UNL     1      20.939  20.454  20.857  1.00  0.00    -0.550 OA
ATOM      4  O   UNL     1      19.597  21.861  22.069  1.00  0.00    -0.550 OA
ENDBRANCH   1   2
BRANCH   1   5
ATOM      5  C   UNL     1      18.631  19.520  19.429  1.00  0.00     0.006 C 
BRANCH   5   6
ATOM      6  C   UNL     1      17.163  19.073  19.515  1.00  0.00    -0.003 C 
ATOM      7  C   UNL     1      16.425  19.205  18.184  1.00  0.00     0.004 C 
ENDBRANCH   5   6
ENDBRANCH   1   5
TORSDOF 3
ENDMDL
MODEL 7
REMARK VINA RESULT:    -2.409     20.112     21.001
REMARK INTER + INTRA:          -2.859
REMARK INTER:                  -2.818
REMARK INTRA:                  -0.041
REMARK UNBOUND:                -0.028
REMARK SMILES CCCCC(=O)[O-]
REMARK SMILES IDX 4 1 5 2 6 3 7 4 3 5 2 6 1 7
REMARK H PARENT
REMARK Flexibility Score: inf
ROOT
ATOM      1  C   UNL     1      23.587  19.095  35.383  1.00  0.00     0.053 C 
ENDROOT
BRANCH   1   2
ATOM      2  C   UNL     1      22.352  19.866  35.727  1.00  0.00     0.041 C 
ATOM      3  O   UNL     1      21.615  19.492  36.678  1.00  0.00    -0.550 OA
ATOM      4  O   UNL     1      22.039  21.026  35.029  1.00  0.00    -0.550 OA
ENDBRANCH   1   2
BRANCH   1   5
ATOM      5  C   UNL     1      24.768  20.048  35.159  1.00  0.00     0.006 C 
BRANCH   5   6
ATOM      6  C   UNL     1      26.094  19.478  35.686  1.00  0.00    -0.003 C 
ATOM      7  C   UNL     1      25.939  18.084  36.291  1.00  0.00     0.004 C 
ENDBRANCH   5   6
ENDBRANCH   1   5
TORSDOF 3
ENDMDL
MODEL 8
REMARK VINA RESULT:    -2.395     21.914     22.490
REMARK INTER + INTRA:          -2.843
REMARK INTER:                  -2.805
REMARK INTRA:                  -0.038
REMARK UNBOUND:                -0.028
REMARK SMILES CCCCC(=O)[O-]
REMARK SMILES IDX 4 1 5 2 6 3 7 4 3 5 2 6 1 7
REMARK H PARENT
REMARK Flexibility Score: inf
ROOT
ATOM      1  C   UNL     1      17.540  18.530  19.115  1.00  0.00     0.053 C 
ENDROOT
BRANCH   1   2
ATOM      2  C   UNL     1      18.217  19.848  19.332  1.00  0.00     0.041 C 
ATOM      3  O   UNL     1      19.352  19.895  19.875  1.00  0.00    -0.550 OA
ATOM      4  O   UNL     1      17.615  21.019  18.890  1.00  0.00    -0.550 OA
ENDBRANCH   1   2
BRANCH   1   5
ATOM      5  C   UNL     1      18.003  17.902  17.794  1.00  0.00     0.006 C 
BRANCH   5   6
ATOM      6  C   UNL     1      18.671  16.533  17.994  1.00  0.00    -0.003 C 
ATOM      7  C   UNL     1      18.344  15.546  16.875  1.00  0.00     0.004 C 
ENDBRANCH   5   6
ENDBRANCH   1   5
TORSDOF 3
ENDMDL
MODEL 9
REMARK VINA RESULT:    -2.297     21.604     22.459
REMARK INTER + INTRA:          -2.728
REMARK INTER:                  -2.672
REMARK INTRA:                  -0.056
REMARK UNBOUND:                -0.028
REMARK SMILES CCCCC(=O)[O-]
REMARK SMILES IDX 4 1 5 2 6 3 7 4 3 5 2 6 1 7
REMARK H PARENT
REMARK Flexibility Score: inf
ROOT
ATOM      1  C   UNL     1      17.626  19.089  19.525  1.00  0.00     0.053 C 
ENDROOT
BRANCH   1   2
ATOM      2  C   UNL     1      18.048  18.308  18.319  1.00  0.00     0.041 C 
ATOM      3  O   UNL     1      18.213  18.888  17.214  1.00  0.00    -0.550 OA
ATOM      4  O   UNL     1      18.304  16.947  18.427  1.00  0.00    -0.550 OA
ENDBRANCH   1   2
BRANCH   1   5
ATOM      5  C   UNL     1      18.284  20.474  19.520  1.00  0.00     0.006 C 
BRANCH   5   6
ATOM      6  C   UNL     1      19.662  20.475  20.201  1.00  0.00    -0.003 C 
ATOM      7  C   UNL     1      19.697  21.335  21.463  1.00  0.00     0.004 C 
ENDBRANCH   5   6
ENDBRANCH   1   5
TORSDOF 3
ENDMDL
