MODEL 1
REMARK VINA RESULT:    15.847      0.000      0.000
REMARK INTER + INTRA:          19.606
REMARK INTER:                  20.015
REMARK INTRA:                  -0.409
REMARK UNBOUND:                -0.409
REMARK SMILES Oc1cc(O)cc(CCc2ccccc2O)c1
REMARK SMILES IDX 9 1 10 2 12 3 13 4 11 5 14 6 15 7 16 8 8 10 7 11 6 12 17 13
REMARK SMILES IDX 4 14 2 15 3 16 5 17 1 19
REMARK H PARENT 16 9 5 18 1 20
REMARK Flexibility Score: inf
ROOT
ATOM      1  C   UNL     1     -13.110  19.116 -10.721  1.00  0.00     0.044 C 
ENDROOT
BRANCH   1   2
ATOM      2  C   UNL     1     -12.959  19.573  -9.292  1.00  0.00    -0.006 A 
ATOM      3  C   UNL     1     -12.125  21.206  -7.693  1.00  0.00     0.001 A 
ATOM      4  C   UNL     1     -12.717  20.492  -6.649  1.00  0.00     0.004 A 
ATOM      5  C   UNL     1     -12.248  20.752  -9.009  1.00  0.00     0.007 A 
ATOM      6  C   UNL     1     -13.438  19.327  -6.918  1.00  0.00     0.046 A 
ATOM      7  C   UNL     1     -13.569  18.864  -8.236  1.00  0.00     0.118 A 
BRANCH   7   8
ATOM      8  O   UNL     1     -14.303  17.708  -8.498  1.00  0.00    -0.508 OA
ATOM      9  H   UNL     1     -13.975  16.794  -8.210  1.00  0.00     0.293 HD
ENDBRANCH   7   8
ENDBRANCH   1   2
BRANCH   1  10
ATOM     10  C   UNL     1     -12.388  20.075 -11.671  1.00  0.00     0.040 C 
BRANCH  10  11
ATOM     11  C   UNL     1     -12.458  19.568 -13.087  1.00  0.00    -0.040 A 
ATOM     12  C   UNL     1     -11.314  19.585 -13.903  1.00  0.00     0.050 A 
ATOM     13  C   UNL     1     -13.679  19.127 -13.621  1.00  0.00     0.050 A 
ATOM     14  C   UNL     1     -11.386  19.143 -15.231  1.00  0.00     0.119 A 
ATOM     15  C   UNL     1     -13.752  18.686 -14.950  1.00  0.00     0.119 A 
ATOM     16  C   UNL     1     -12.604  18.693 -15.749  1.00  0.00     0.092 A 
BRANCH  14  17
ATOM     17  O   UNL     1     -10.254  19.152 -16.043  1.00  0.00    -0.508 OA
ATOM     18  H   UNL     1      -9.343  19.405 -15.679  1.00  0.00     0.293 HD
ENDBRANCH  14  17
BRANCH  15  19
ATOM     19  O   UNL     1     -14.959  18.241 -15.486  1.00  0.00    -0.508 OA
ATOM     20  H   UNL     1     -15.763  18.853 -15.558  1.00  0.00     0.293 HD
ENDBRANCH  15  19
ENDBRANCH  10  11
ENDBRANCH   1  10
TORSDOF 6
ENDMDL
MODEL 2
REMARK VINA RESULT:    15.941      0.053      2.031
REMARK INTER + INTRA:          19.726
REMARK INTER:                  20.140
REMARK INTRA:                  -0.414
REMARK UNBOUND:                -0.409
REMARK SMILES Oc1cc(O)cc(CCc2ccccc2O)c1
REMARK SMILES IDX 9 1 10 2 12 3 13 4 11 5 14 6 15 7 16 8 8 10 7 11 6 12 17 13
REMARK SMILES IDX 4 14 2 15 3 16 5 17 1 19
REMARK H PARENT 16 9 5 18 1 20
REMARK Flexibility Score: inf
ROOT
ATOM      1  C   UNL     1     -13.080  19.127 -10.721  1.00  0.00     0.044 C 
ENDROOT
BRANCH   1   2
ATOM      2  C   UNL     1     -12.940  19.576  -9.288  1.00  0.00    -0.006 A 
ATOM      3  C   UNL     1     -12.151  21.219  -7.676  1.00  0.00     0.001 A 
ATOM      4  C   UNL     1     -12.721  20.480  -6.638  1.00  0.00     0.004 A 
ATOM      5  C   UNL     1     -12.264  20.773  -8.997  1.00  0.00     0.007 A 
ATOM      6  C   UNL     1     -13.408  19.296  -6.916  1.00  0.00     0.046 A 
ATOM      7  C   UNL     1     -13.528  18.841  -8.238  1.00  0.00     0.118 A 
BRANCH   7   8
ATOM      8  O   UNL     1     -14.228  17.666  -8.508  1.00  0.00    -0.508 OA
ATOM      9  H   UNL     1     -13.781  16.759  -8.461  1.00  0.00     0.293 HD
ENDBRANCH   7   8
ENDBRANCH   1   2
BRANCH   1  10
ATOM     10  C   UNL     1     -12.353  20.094 -11.660  1.00  0.00     0.040 C 
BRANCH  10  11
ATOM     11  C   UNL     1     -12.465  19.627 -13.087  1.00  0.00    -0.040 A 
ATOM     12  C   UNL     1     -13.690  19.151 -13.582  1.00  0.00     0.050 A 
ATOM     13  C   UNL     1     -11.333  19.610 -13.917  1.00  0.00     0.050 A 
ATOM     14  C   UNL     1     -13.788  18.686 -14.901  1.00  0.00     0.119 A 
ATOM     15  C   UNL     1     -11.430  19.145 -15.236  1.00  0.00     0.119 A 
ATOM     16  C   UNL     1     -12.658  18.687 -15.724  1.00  0.00     0.092 A 
BRANCH  14  17
ATOM     17  O   UNL     1     -15.002  18.219 -15.400  1.00  0.00    -0.508 OA
ATOM     18  H   UNL     1     -15.842  18.217 -14.834  1.00  0.00     0.293 HD
ENDBRANCH  14  17
BRANCH  15  19
ATOM     19  O   UNL     1     -10.312  19.130 -16.068  1.00  0.00    -0.508 OA
ATOM     20  H   UNL     1     -10.057  19.936 -16.626  1.00  0.00     0.293 HD
ENDBRANCH  15  19
ENDBRANCH  10  11
ENDBRANCH   1  10
TORSDOF 6
ENDMDL
MODEL 3
REMARK VINA RESULT:    16.429     14.219     16.349
REMARK INTER + INTRA:          20.342
REMARK INTER:                  20.843
REMARK INTRA:                  -0.502
REMARK UNBOUND:                -0.409
REMARK SMILES Oc1cc(O)cc(CCc2ccccc2O)c1
REMARK SMILES IDX 9 1 10 2 12 3 13 4 11 5 14 6 15 7 16 8 8 10 7 11 6 12 17 13
REMARK SMILES IDX 4 14 2 15 3 16 5 17 1 19
REMARK H PARENT 16 9 5 18 1 20
REMARK Flexibility Score: inf
ROOT
ATOM      1  C   UNL     1      -6.861   6.572 -18.913  1.00  0.00     0.044 C 
ENDROOT
BRANCH   1   2
ATOM      2  C   UNL     1      -7.382   7.789 -18.190  1.00  0.00    -0.006 A 
ATOM      3  C   UNL     1      -8.615   9.885 -18.239  1.00  0.00     0.001 A 
ATOM      4  C   UNL     1      -8.426  10.033 -16.864  1.00  0.00     0.004 A 
ATOM      5  C   UNL     1      -8.100   8.766 -18.900  1.00  0.00     0.007 A 
ATOM      6  C   UNL     1      -7.726   9.061 -16.145  1.00  0.00     0.046 A 
ATOM      7  C   UNL     1      -7.207   7.934 -16.798  1.00  0.00     0.118 A 
BRANCH   7   8
ATOM      8  O   UNL     1      -6.522   6.962 -16.071  1.00  0.00    -0.508 OA
ATOM      9  H   UNL     1      -6.980   6.118 -15.749  1.00  0.00     0.293 HD
ENDBRANCH   7   8
ENDBRANCH   1   2
BRANCH   1  10
ATOM     10  C   UNL     1      -7.916   5.462 -18.928  1.00  0.00     0.040 C 
BRANCH  10  11
ATOM     11  C   UNL     1      -8.066   4.894 -20.314  1.00  0.00    -0.040 A 
ATOM     12  C   UNL     1      -7.029   4.138 -20.884  1.00  0.00     0.050 A 
ATOM     13  C   UNL     1      -9.218   5.163 -21.069  1.00  0.00     0.050 A 
ATOM     14  C   UNL     1      -7.153   3.635 -22.187  1.00  0.00     0.119 A 
ATOM     15  C   UNL     1      -9.344   4.662 -22.372  1.00  0.00     0.119 A 
ATOM     16  C   UNL     1      -8.312   3.897 -22.925  1.00  0.00     0.092 A 
BRANCH  14  17
ATOM     17  O   UNL     1      -6.131   2.879 -22.756  1.00  0.00    -0.508 OA
ATOM     18  H   UNL     1      -6.225   2.473 -23.680  1.00  0.00     0.293 HD
ENDBRANCH  14  17
BRANCH  15  19
ATOM     19  O   UNL     1     -10.487   4.919 -23.125  1.00  0.00    -0.508 OA
ATOM     20  H   UNL     1     -10.619   4.512 -24.043  1.00  0.00     0.293 HD
ENDBRANCH  15  19
ENDBRANCH  10  11
ENDBRANCH   1  10
TORSDOF 6
ENDMDL
MODEL 4
REMARK VINA RESULT:    16.483     14.320     17.417
REMARK INTER + INTRA:          20.411
REMARK INTER:                  20.811
REMARK INTRA:                  -0.400
REMARK UNBOUND:                -0.409
REMARK SMILES Oc1cc(O)cc(CCc2ccccc2O)c1
REMARK SMILES IDX 9 1 10 2 12 3 13 4 11 5 14 6 15 7 16 8 8 10 7 11 6 12 17 13
REMARK SMILES IDX 4 14 2 15 3 16 5 17 1 19
REMARK H PARENT 16 9 5 18 1 20
REMARK Flexibility Score: inf
ROOT
ATOM      1  C   UNL     1      -8.235   5.369 -19.689  1.00  0.00     0.044 C 
ENDROOT
BRANCH   1   2
ATOM      2  C   UNL     1      -7.915   4.525 -20.897  1.00  0.00    -0.006 A 
ATOM      3  C   UNL     1      -6.494   2.875 -21.981  1.00  0.00     0.001 A 
ATOM      4  C   UNL     1      -7.325   2.889 -23.102  1.00  0.00     0.004 A 
ATOM      5  C   UNL     1      -6.788   3.685 -20.880  1.00  0.00     0.007 A 
ATOM      6  C   UNL     1      -8.456   3.710 -23.125  1.00  0.00     0.046 A 
ATOM      7  C   UNL     1      -8.761   4.525 -22.025  1.00  0.00     0.118 A 
BRANCH   7   8
ATOM      8  O   UNL     1      -9.899   5.330 -22.051  1.00  0.00    -0.508 OA
ATOM      9  H   UNL     1     -10.027   6.089 -21.393  1.00  0.00     0.293 HD
ENDBRANCH   7   8
ENDBRANCH   1   2
BRANCH   1  10
ATOM     10  C   UNL     1      -6.949   5.809 -18.984  1.00  0.00     0.040 C 
BRANCH  10  11
ATOM     11  C   UNL     1      -7.233   6.929 -18.019  1.00  0.00    -0.040 A 
ATOM     12  C   UNL     1      -7.811   8.126 -18.473  1.00  0.00     0.050 A 
ATOM     13  C   UNL     1      -6.870   6.808 -16.668  1.00  0.00     0.050 A 
ATOM     14  C   UNL     1      -8.046   9.181 -17.581  1.00  0.00     0.119 A 
ATOM     15  C   UNL     1      -7.103   7.864 -15.775  1.00  0.00     0.119 A 
ATOM     16  C   UNL     1      -7.694   9.045 -16.235  1.00  0.00     0.092 A 
BRANCH  14  17
ATOM     17  O   UNL     1      -8.626  10.368 -18.023  1.00  0.00    -0.508 OA
ATOM     18  H   UNL     1      -8.073  11.096 -18.461  1.00  0.00     0.293 HD
ENDBRANCH  14  17
BRANCH  15  19
ATOM     19  O   UNL     1      -6.751   7.749 -14.432  1.00  0.00    -0.508 OA
ATOM     20  H   UNL     1      -5.878   8.123 -14.080  1.00  0.00     0.293 HD
ENDBRANCH  15  19
ENDBRANCH  10  11
ENDBRANCH   1  10
TORSDOF 6
ENDMDL
MODEL 5
REMARK VINA RESULT:    16.566     14.366     16.590
REMARK INTER + INTRA:          20.514
REMARK INTER:                  21.107
REMARK INTRA:                  -0.592
REMARK UNBOUND:                -0.409
REMARK SMILES Oc1cc(O)cc(CCc2ccccc2O)c1
REMARK SMILES IDX 9 1 10 2 12 3 13 4 11 5 14 6 15 7 16 8 8 10 7 11 6 12 17 13
REMARK SMILES IDX 4 14 2 15 3 16 5 17 1 19
REMARK H PARENT 16 9 5 18 1 20
REMARK Flexibility Score: inf
ROOT
ATOM      1  C   UNL     1      -6.870   5.902 -18.462  1.00  0.00     0.044 C 
ENDROOT
BRANCH   1   2
ATOM      2  C   UNL     1      -7.287   7.285 -18.029  1.00  0.00    -0.006 A 
ATOM      3  C   UNL     1      -8.236   9.455 -18.581  1.00  0.00     0.001 A 
ATOM      4  C   UNL     1      -8.138   9.844 -17.244  1.00  0.00     0.004 A 
ATOM      5  C   UNL     1      -7.818   8.180 -18.973  1.00  0.00     0.007 A 
ATOM      6  C   UNL     1      -7.626   8.957 -16.294  1.00  0.00     0.046 A 
ATOM      7  C   UNL     1      -7.205   7.675 -16.676  1.00  0.00     0.118 A 
BRANCH   7   8
ATOM      8  O   UNL     1      -6.708   6.791 -15.718  1.00  0.00    -0.508 OA
ATOM      9  H   UNL     1      -6.138   5.995 -15.975  1.00  0.00     0.293 HD
ENDBRANCH   7   8
ENDBRANCH   1   2
BRANCH   1  10
ATOM     10  C   UNL     1      -8.099   5.046 -18.784  1.00  0.00     0.040 C 
BRANCH  10  11
ATOM     11  C   UNL     1      -8.150   4.727 -20.255  1.00  0.00    -0.040 A 
ATOM     12  C   UNL     1      -9.292   5.043 -21.008  1.00  0.00     0.050 A 
ATOM     13  C   UNL     1      -7.080   4.061 -20.872  1.00  0.00     0.050 A 
ATOM     14  C   UNL     1      -9.354   4.718 -22.370  1.00  0.00     0.119 A 
ATOM     15  C   UNL     1      -7.141   3.734 -22.234  1.00  0.00     0.119 A 
ATOM     16  C   UNL     1      -8.277   4.066 -22.979  1.00  0.00     0.092 A 
BRANCH  14  17
ATOM     17  O   UNL     1     -10.481   5.034 -23.125  1.00  0.00    -0.508 OA
ATOM     18  H   UNL     1     -10.769   5.994 -23.270  1.00  0.00     0.293 HD
ENDBRANCH  14  17
BRANCH  15  19
ATOM     19  O   UNL     1      -6.080   3.077 -22.855  1.00  0.00    -0.508 OA
ATOM     20  H   UNL     1      -5.285   3.587 -23.222  1.00  0.00     0.293 HD
ENDBRANCH  15  19
ENDBRANCH  10  11
ENDBRANCH   1  10
TORSDOF 6
ENDMDL
MODEL 6
REMARK VINA RESULT:    16.595     14.298     17.378
REMARK INTER + INTRA:          20.552
REMARK INTER:                  20.954
REMARK INTRA:                  -0.403
REMARK UNBOUND:                -0.409
REMARK SMILES Oc1cc(O)cc(CCc2ccccc2O)c1
REMARK SMILES IDX 9 1 10 2 12 3 13 4 11 5 14 6 15 7 16 8 8 10 7 11 6 12 17 13
REMARK SMILES IDX 4 14 2 15 3 16 5 17 1 19
REMARK H PARENT 16 9 5 18 1 20
REMARK Flexibility Score: inf
ROOT
ATOM      1  C   UNL     1      -8.198   5.430 -19.695  1.00  0.00     0.044 C 
ENDROOT
BRANCH   1   2
ATOM      2  C   UNL     1      -7.910   4.573 -20.902  1.00  0.00    -0.006 A 
ATOM      3  C   UNL     1      -6.548   2.875 -21.988  1.00  0.00     0.001 A 
ATOM      4  C   UNL     1      -7.384   2.912 -23.105  1.00  0.00     0.004 A 
ATOM      5  C   UNL     1      -6.811   3.697 -20.889  1.00  0.00     0.007 A 
ATOM      6  C   UNL     1      -8.489   3.767 -23.125  1.00  0.00     0.046 A 
ATOM      7  C   UNL     1      -8.762   4.595 -22.026  1.00  0.00     0.118 A 
BRANCH   7   8
ATOM      8  O   UNL     1      -9.875   5.435 -22.048  1.00  0.00    -0.508 OA
ATOM      9  H   UNL     1     -10.142   5.984 -21.241  1.00  0.00     0.293 HD
ENDBRANCH   7   8
ENDBRANCH   1   2
BRANCH   1  10
ATOM     10  C   UNL     1      -6.893   5.860 -19.018  1.00  0.00     0.040 C 
BRANCH  10  11
ATOM     11  C   UNL     1      -7.149   6.976 -18.041  1.00  0.00    -0.040 A 
ATOM     12  C   UNL     1      -6.830   6.814 -16.682  1.00  0.00     0.050 A 
ATOM     13  C   UNL     1      -7.760   8.165 -18.468  1.00  0.00     0.050 A 
ATOM     14  C   UNL     1      -7.097   7.840 -15.766  1.00  0.00     0.119 A 
ATOM     15  C   UNL     1      -8.028   9.192 -17.552  1.00  0.00     0.119 A 
ATOM     16  C   UNL     1      -7.693   9.027 -16.204  1.00  0.00     0.092 A 
BRANCH  14  17
ATOM     17  O   UNL     1      -6.777   7.689 -14.418  1.00  0.00    -0.508 OA
ATOM     18  H   UNL     1      -7.392   7.197 -13.780  1.00  0.00     0.293 HD
ENDBRANCH  14  17
BRANCH  15  19
ATOM     19  O   UNL     1      -8.629  10.378 -17.970  1.00  0.00    -0.508 OA
ATOM     20  H   UNL     1      -8.651  10.644 -18.947  1.00  0.00     0.293 HD
ENDBRANCH  15  19
ENDBRANCH  10  11
ENDBRANCH   1  10
TORSDOF 6
ENDMDL
MODEL 7
REMARK VINA RESULT:    16.929      2.006      6.491
REMARK INTER + INTRA:          20.974
REMARK INTER:                  21.514
REMARK INTRA:                  -0.541
REMARK UNBOUND:                -0.409
REMARK SMILES Oc1cc(O)cc(CCc2ccccc2O)c1
REMARK SMILES IDX 9 1 10 2 12 3 13 4 11 5 14 6 15 7 16 8 8 10 7 11 6 12 17 13
REMARK SMILES IDX 4 14 2 15 3 16 5 17 1 19
REMARK H PARENT 16 9 5 18 1 20
REMARK Flexibility Score: inf
ROOT
ATOM      1  C   UNL     1     -12.725  17.147 -11.457  1.00  0.00     0.044 C 
ENDROOT
BRANCH   1   2
ATOM      2  C   UNL     1     -12.452  18.203 -12.498  1.00  0.00    -0.006 A 
ATOM      3  C   UNL     1     -12.853  20.439 -13.367  1.00  0.00     0.001 A 
ATOM      4  C   UNL     1     -11.917  20.219 -14.379  1.00  0.00     0.004 A 
ATOM      5  C   UNL     1     -13.117  19.439 -12.427  1.00  0.00     0.007 A 
ATOM      6  C   UNL     1     -11.239  19.000 -14.451  1.00  0.00     0.046 A 
ATOM      7  C   UNL     1     -11.495  17.990 -13.512  1.00  0.00     0.118 A 
BRANCH   7   8
ATOM      8  O   UNL     1     -10.803  16.781 -13.583  1.00  0.00    -0.508 OA
ATOM      9  H   UNL     1     -10.458  16.318 -12.752  1.00  0.00     0.293 HD
ENDBRANCH   7   8
ENDBRANCH   1   2
BRANCH   1  10
ATOM     10  C   UNL     1     -11.965  17.457 -10.164  1.00  0.00     0.040 C 
BRANCH  10  11
ATOM     11  C   UNL     1     -12.794  18.328  -9.259  1.00  0.00    -0.040 A 
ATOM     12  C   UNL     1     -14.189  18.168  -9.207  1.00  0.00     0.050 A 
ATOM     13  C   UNL     1     -12.188  19.344  -8.503  1.00  0.00     0.050 A 
ATOM     14  C   UNL     1     -14.966  19.000  -8.389  1.00  0.00     0.119 A 
ATOM     15  C   UNL     1     -12.964  20.177  -7.686  1.00  0.00     0.119 A 
ATOM     16  C   UNL     1     -14.350  20.000  -7.629  1.00  0.00     0.092 A 
BRANCH  14  17
ATOM     17  O   UNL     1     -16.349  18.843  -8.327  1.00  0.00    -0.508 OA
ATOM     18  H   UNL     1     -16.974  19.639  -8.365  1.00  0.00     0.293 HD
ENDBRANCH  14  17
BRANCH  15  19
ATOM     19  O   UNL     1     -12.369  21.184  -6.928  1.00  0.00    -0.508 OA
ATOM     20  H   UNL     1     -11.469  21.049  -6.483  1.00  0.00     0.293 HD
ENDBRANCH  15  19
ENDBRANCH  10  11
ENDBRANCH   1  10
TORSDOF 6
ENDMDL
MODEL 8
REMARK VINA RESULT:    16.954      1.973      6.759
REMARK INTER + INTRA:          21.005
REMARK INTER:                  21.501
REMARK INTRA:                  -0.496
REMARK UNBOUND:                -0.409
REMARK SMILES Oc1cc(O)cc(CCc2ccccc2O)c1
REMARK SMILES IDX 9 1 10 2 12 3 13 4 11 5 14 6 15 7 16 8 8 10 7 11 6 12 17 13
REMARK SMILES IDX 4 14 2 15 3 16 5 17 1 19
REMARK H PARENT 16 9 5 18 1 20
REMARK Flexibility Score: inf
ROOT
ATOM      1  C   UNL     1     -13.484  19.385 -12.036  1.00  0.00     0.044 C 
ENDROOT
BRANCH   1   2
ATOM      2  C   UNL     1     -12.709  19.312 -13.328  1.00  0.00    -0.006 A 
ATOM      3  C   UNL     1     -12.466  18.413 -15.575  1.00  0.00     0.001 A 
ATOM      4  C   UNL     1     -11.331  19.202 -15.773  1.00  0.00     0.004 A 
ATOM      5  C   UNL     1     -13.156  18.470 -14.361  1.00  0.00     0.007 A 
ATOM      6  C   UNL     1     -10.886  20.054 -14.759  1.00  0.00     0.046 A 
ATOM      7  C   UNL     1     -11.572  20.120 -13.538  1.00  0.00     0.118 A 
BRANCH   7   8
ATOM      8  O   UNL     1     -11.130  20.984 -12.536  1.00  0.00    -0.508 OA
ATOM      9  H   UNL     1     -11.776  21.447 -11.910  1.00  0.00     0.293 HD
ENDBRANCH   7   8
ENDBRANCH   1   2
BRANCH   1  10
ATOM     10  C   UNL     1     -13.118  18.212 -11.123  1.00  0.00     0.040 C 
BRANCH  10  11
ATOM     11  C   UNL     1     -12.979  18.676  -9.697  1.00  0.00    -0.040 A 
ATOM     12  C   UNL     1     -12.802  20.039  -9.411  1.00  0.00     0.050 A 
ATOM     13  C   UNL     1     -12.967  17.744  -8.648  1.00  0.00     0.050 A 
ATOM     14  C   UNL     1     -12.640  20.469  -8.086  1.00  0.00     0.119 A 
ATOM     15  C   UNL     1     -12.805  18.172  -7.323  1.00  0.00     0.119 A 
ATOM     16  C   UNL     1     -12.645  19.534  -7.047  1.00  0.00     0.092 A 
BRANCH  14  17
ATOM     17  O   UNL     1     -12.471  21.820  -7.795  1.00  0.00    -0.508 OA
ATOM     18  H   UNL     1     -11.826  22.131  -7.078  1.00  0.00     0.293 HD
ENDBRANCH  14  17
BRANCH  15  19
ATOM     19  O   UNL     1     -12.799  17.254  -6.275  1.00  0.00    -0.508 OA
ATOM     20  H   UNL     1     -13.003  16.273  -6.429  1.00  0.00     0.293 HD
ENDBRANCH  15  19
ENDBRANCH  10  11
ENDBRANCH   1  10
TORSDOF 6
ENDMDL
MODEL 9
REMARK VINA RESULT:    17.040      1.803      6.710
REMARK INTER + INTRA:          21.114
REMARK INTER:                  21.593
REMARK INTRA:                  -0.480
REMARK UNBOUND:                -0.409
REMARK SMILES Oc1cc(O)cc(CCc2ccccc2O)c1
REMARK SMILES IDX 9 1 10 2 12 3 13 4 11 5 14 6 15 7 16 8 8 10 7 11 6 12 17 13
REMARK SMILES IDX 4 14 2 15 3 16 5 17 1 19
REMARK H PARENT 16 9 5 18 1 20
REMARK Flexibility Score: inf
ROOT
ATOM      1  C   UNL     1     -12.830  18.557 -12.091  1.00  0.00     0.044 C 
ENDROOT
BRANCH   1   2
ATOM      2  C   UNL     1     -12.181  19.170 -13.306  1.00  0.00    -0.006 A 
ATOM      3  C   UNL     1     -11.809  21.109 -14.727  1.00  0.00     0.001 A 
ATOM      4  C   UNL     1     -10.936  20.365 -15.523  1.00  0.00     0.004 A 
ATOM      5  C   UNL     1     -12.426  20.518 -13.621  1.00  0.00     0.007 A 
ATOM      6  C   UNL     1     -10.673  19.028 -15.211  1.00  0.00     0.046 A 
ATOM      7  C   UNL     1     -11.286  18.426 -14.103  1.00  0.00     0.118 A 
BRANCH   7   8
ATOM      8  O   UNL     1     -11.008  17.096 -13.791  1.00  0.00    -0.508 OA
ATOM      9  H   UNL     1     -10.463  16.508 -14.410  1.00  0.00     0.293 HD
ENDBRANCH   7   8
ENDBRANCH   1   2
BRANCH   1  10
ATOM     10  C   UNL     1     -13.515  19.635 -11.246  1.00  0.00     0.040 C 
BRANCH  10  11
ATOM     11  C   UNL     1     -13.163  19.469  -9.792  1.00  0.00    -0.040 A 
ATOM     12  C   UNL     1     -13.142  18.190  -9.211  1.00  0.00     0.050 A 
ATOM     13  C   UNL     1     -12.909  20.593  -8.991  1.00  0.00     0.050 A 
ATOM     14  C   UNL     1     -12.846  18.036  -7.849  1.00  0.00     0.119 A 
ATOM     15  C   UNL     1     -12.613  20.441  -7.629  1.00  0.00     0.119 A 
ATOM     16  C   UNL     1     -12.580  19.162  -7.064  1.00  0.00     0.092 A 
BRANCH  14  17
ATOM     17  O   UNL     1     -12.818  16.770  -7.268  1.00  0.00    -0.508 OA
ATOM     18  H   UNL     1     -13.518  16.480  -6.596  1.00  0.00     0.293 HD
ENDBRANCH  14  17
BRANCH  15  19
ATOM     19  O   UNL     1     -12.354  21.552  -6.830  1.00  0.00    -0.508 OA
ATOM     20  H   UNL     1     -12.734  21.631  -5.894  1.00  0.00     0.293 HD
ENDBRANCH  15  19
ENDBRANCH  10  11
ENDBRANCH   1  10
TORSDOF 6
ENDMDL
