MODEL 1
REMARK VINA RESULT:    -4.428      0.000      0.000
REMARK INTER + INTRA:          -6.785
REMARK INTER:                  -6.240
REMARK INTRA:                  -0.545
REMARK UNBOUND:                -0.545
REMARK SMILES CCCCCCCCC(=O)[O-]
REMARK SMILES IDX 6 1 7 2 8 3 9 4 10 5 11 6 5 7 4 8 3 9 2 10 1 11
REMARK H PARENT
REMARK Flexibility Score: inf
ROOT
ATOM      1  C   UNL     1     102.938 107.571 230.380  1.00  0.00     0.000 C 
ENDROOT
BRANCH   1   2
ATOM      2  C   UNL     1     102.705 106.668 231.609  1.00  0.00     0.006 C 
BRANCH   2   3
ATOM      3  C   UNL     1     103.923 105.830 232.025  1.00  0.00     0.053 C 
BRANCH   3   4
ATOM      4  C   UNL     1     104.274 106.029 233.468  1.00  0.00     0.041 C 
ATOM      5  O   UNL     1     103.367 106.102 234.338  1.00  0.00    -0.550 OA
ATOM      6  O   UNL     1     105.603 106.170 233.847  1.00  0.00    -0.550 OA
ENDBRANCH   3   4
ENDBRANCH   2   3
ENDBRANCH   1   2
BRANCH   1   7
ATOM      7  C   UNL     1     104.414 107.811 230.017  1.00  0.00     0.000 C 
BRANCH   7   8
ATOM      8  C   UNL     1     104.767 107.345 228.597  1.00  0.00    -0.000 C 
BRANCH   8   9
ATOM      9  C   UNL     1     105.224 105.879 228.597  1.00  0.00    -0.000 C 
BRANCH   9  10
ATOM     10  C   UNL     1     104.714 105.102 227.374  1.00  0.00    -0.003 C 
ATOM     11  C   UNL     1     103.270 105.449 227.012  1.00  0.00     0.004 C 
ENDBRANCH   9  10
ENDBRANCH   8   9
ENDBRANCH   7   8
ENDBRANCH   1   7
TORSDOF 7
ENDMDL
MODEL 2
REMARK VINA RESULT:    -4.407      3.003      4.829
REMARK INTER + INTRA:          -6.755
REMARK INTER:                  -6.103
REMARK INTRA:                  -0.653
REMARK UNBOUND:                -0.545
REMARK SMILES CCCCCCCCC(=O)[O-]
REMARK SMILES IDX 6 1 7 2 8 3 9 4 10 5 11 6 5 7 4 8 3 9 2 10 1 11
REMARK H PARENT
REMARK Flexibility Score: inf
ROOT
ATOM      1  C   UNL     1     105.380 105.861 228.538  1.00  0.00     0.000 C 
ENDROOT
BRANCH   1   2
ATOM      2  C   UNL     1     104.567 104.928 227.618  1.00  0.00     0.006 C 
BRANCH   2   3
ATOM      3  C   UNL     1     103.291 105.556 227.038  1.00  0.00     0.053 C 
BRANCH   3   4
ATOM      4  C   UNL     1     102.053 104.982 227.657  1.00  0.00     0.041 C 
ATOM      5  O   UNL     1     100.916 105.335 227.247  1.00  0.00    -0.550 OA
ATOM      6  O   UNL     1     102.155 104.083 228.710  1.00  0.00    -0.550 OA
ENDBRANCH   3   4
ENDBRANCH   2   3
ENDBRANCH   1   2
BRANCH   1   7
ATOM      7  C   UNL     1     104.864 107.309 228.619  1.00  0.00     0.000 C 
BRANCH   7   8
ATOM      8  C   UNL     1     105.315 108.037 229.893  1.00  0.00    -0.000 C 
BRANCH   8   9
ATOM      9  C   UNL     1     104.297 107.842 231.027  1.00  0.00    -0.000 C 
BRANCH   9  10
ATOM     10  C   UNL     1     102.845 107.891 230.531  1.00  0.00    -0.003 C 
ATOM     11  C   UNL     1     101.976 106.783 231.127  1.00  0.00     0.004 C 
ENDBRANCH   9  10
ENDBRANCH   8   9
ENDBRANCH   7   8
ENDBRANCH   1   7
TORSDOF 7
ENDMDL
MODEL 3
REMARK VINA RESULT:    -4.328      3.318      5.183
REMARK INTER + INTRA:          -6.644
REMARK INTER:                  -6.152
REMARK INTRA:                  -0.492
REMARK UNBOUND:                -0.545
REMARK SMILES CCCCCCCCC(=O)[O-]
REMARK SMILES IDX 6 1 7 2 8 3 9 4 10 5 11 6 5 7 4 8 3 9 2 10 1 11
REMARK H PARENT
REMARK Flexibility Score: inf
ROOT
ATOM      1  C   UNL     1     105.447 107.960 229.528  1.00  0.00     0.000 C 
ENDROOT
BRANCH   1   2
ATOM      2  C   UNL     1     104.638 107.179 228.472  1.00  0.00     0.006 C 
BRANCH   2   3
ATOM      3  C   UNL     1     105.016 105.695 228.347  1.00  0.00     0.053 C 
BRANCH   3   4
ATOM      4  C   UNL     1     104.529 105.100 227.061  1.00  0.00     0.041 C 
ATOM      5  O   UNL     1     103.340 105.280 226.688  1.00  0.00    -0.550 OA
ATOM      6  O   UNL     1     105.380 104.316 226.292  1.00  0.00    -0.550 OA
ENDBRANCH   3   4
ENDBRANCH   2   3
ENDBRANCH   1   2
BRANCH   1   7
ATOM      7  C   UNL     1     104.724 108.186 230.868  1.00  0.00     0.000 C 
BRANCH   7   8
ATOM      8  C   UNL     1     103.242 107.789 230.824  1.00  0.00    -0.000 C 
BRANCH   8   9
ATOM      9  C   UNL     1     102.926 106.725 231.887  1.00  0.00    -0.000 C 
BRANCH   9  10
ATOM     10  C   UNL     1     104.165 105.911 232.293  1.00  0.00    -0.003 C 
ATOM     11  C   UNL     1     104.519 106.068 233.772  1.00  0.00     0.004 C 
ENDBRANCH   9  10
ENDBRANCH   8   9
ENDBRANCH   7   8
ENDBRANCH   1   7
TORSDOF 7
ENDMDL
MODEL 4
REMARK VINA RESULT:    -4.328      2.686      4.997
REMARK INTER + INTRA:          -6.644
REMARK INTER:                  -6.014
REMARK INTRA:                  -0.629
REMARK UNBOUND:                -0.545
REMARK SMILES CCCCCCCCC(=O)[O-]
REMARK SMILES IDX 6 1 7 2 8 3 9 4 10 5 11 6 5 7 4 8 3 9 2 10 1 11
REMARK H PARENT
REMARK Flexibility Score: inf
ROOT
ATOM      1  C   UNL     1     104.859 106.142 232.336  1.00  0.00     0.000 C 
ENDROOT
BRANCH   1   2
ATOM      2  C   UNL     1     105.038 107.514 231.653  1.00  0.00     0.006 C 
BRANCH   2   3
ATOM      3  C   UNL     1     103.926 107.880 230.658  1.00  0.00     0.053 C 
BRANCH   3   4
ATOM      4  C   UNL     1     103.851 106.909 229.520  1.00  0.00     0.041 C 
ATOM      5  O   UNL     1     102.984 105.997 229.519  1.00  0.00    -0.550 OA
ATOM      6  O   UNL     1     104.762 106.992 228.474  1.00  0.00    -0.550 OA
ENDBRANCH   3   4
ENDBRANCH   2   3
ENDBRANCH   1   2
BRANCH   1   7
ATOM      7  C   UNL     1     104.600 106.197 233.852  1.00  0.00     0.000 C 
BRANCH   7   8
ATOM      8  C   UNL     1     103.132 105.941 234.220  1.00  0.00    -0.000 C 
BRANCH   8   9
ATOM      9  C   UNL     1     102.319 105.533 232.982  1.00  0.00    -0.000 C 
BRANCH   9  10
ATOM     10  C   UNL     1     101.157 106.496 232.695  1.00  0.00    -0.003 C 
ATOM     11  C   UNL     1     100.551 107.089 233.967  1.00  0.00     0.004 C 
ENDBRANCH   9  10
ENDBRANCH   8   9
ENDBRANCH   7   8
ENDBRANCH   1   7
TORSDOF 7
ENDMDL
MODEL 5
REMARK VINA RESULT:    -4.323      1.758      2.252
REMARK INTER + INTRA:          -6.637
REMARK INTER:                  -6.217
REMARK INTRA:                  -0.420
REMARK UNBOUND:                -0.545
REMARK SMILES CCCCCCCCC(=O)[O-]
REMARK SMILES IDX 6 1 7 2 8 3 9 4 10 5 11 6 5 7 4 8 3 9 2 10 1 11
REMARK H PARENT
REMARK Flexibility Score: inf
ROOT
ATOM      1  C   UNL     1     103.143 107.799 230.615  1.00  0.00     0.000 C 
ENDROOT
BRANCH   1   2
ATOM      2  C   UNL     1     102.455 106.494 231.068  1.00  0.00     0.006 C 
BRANCH   2   3
ATOM      3  C   UNL     1     102.568 106.203 232.572  1.00  0.00     0.053 C 
BRANCH   3   4
ATOM      4  C   UNL     1     101.259 106.387 233.278  1.00  0.00     0.041 C 
ATOM      5  O   UNL     1     101.234 106.720 234.492  1.00  0.00    -0.550 OA
ATOM      6  O   UNL     1     100.067 106.158 232.603  1.00  0.00    -0.550 OA
ENDBRANCH   3   4
ENDBRANCH   2   3
ENDBRANCH   1   2
BRANCH   1   7
ATOM      7  C   UNL     1     104.630 107.917 230.992  1.00  0.00     0.000 C 
BRANCH   7   8
ATOM      8  C   UNL     1     105.571 107.412 229.890  1.00  0.00    -0.000 C 
BRANCH   8   9
ATOM      9  C   UNL     1     104.817 107.236 228.562  1.00  0.00    -0.000 C 
BRANCH   9  10
ATOM     10  C   UNL     1     104.814 105.780 228.074  1.00  0.00    -0.003 C 
ATOM     11  C   UNL     1     103.756 105.516 227.003  1.00  0.00     0.004 C 
ENDBRANCH   9  10
ENDBRANCH   8   9
ENDBRANCH   7   8
ENDBRANCH   1   7
TORSDOF 7
ENDMDL
MODEL 6
REMARK VINA RESULT:    -4.313      2.378      2.855
REMARK INTER + INTRA:          -6.623
REMARK INTER:                  -5.947
REMARK INTRA:                  -0.676
REMARK UNBOUND:                -0.545
REMARK SMILES CCCCCCCCC(=O)[O-]
REMARK SMILES IDX 6 1 7 2 8 3 9 4 10 5 11 6 5 7 4 8 3 9 2 10 1 11
REMARK H PARENT
REMARK Flexibility Score: inf
ROOT
ATOM      1  C   UNL     1     104.362 107.629 231.049  1.00  0.00     0.000 C 
ENDROOT
BRANCH   1   2
ATOM      2  C   UNL     1     102.904 107.932 230.644  1.00  0.00     0.006 C 
BRANCH   2   3
ATOM      3  C   UNL     1     101.873 106.922 231.170  1.00  0.00     0.053 C 
BRANCH   3   4
ATOM      4  C   UNL     1     101.576 105.850 230.166  1.00  0.00     0.041 C 
ATOM      5  O   UNL     1     100.652 106.006 229.326  1.00  0.00    -0.550 OA
ATOM      6  O   UNL     1     102.298 104.664 230.181  1.00  0.00    -0.550 OA
ENDBRANCH   3   4
ENDBRANCH   2   3
ENDBRANCH   1   2
BRANCH   1   7
ATOM      7  C   UNL     1     105.412 107.900 229.957  1.00  0.00     0.000 C 
BRANCH   7   8
ATOM      8  C   UNL     1     105.054 107.261 228.608  1.00  0.00    -0.000 C 
BRANCH   8   9
ATOM      9  C   UNL     1     105.245 105.737 228.654  1.00  0.00    -0.000 C 
BRANCH   9  10
ATOM     10  C   UNL     1     104.757 105.043 227.373  1.00  0.00    -0.003 C 
ATOM     11  C   UNL     1     103.380 105.531 226.923  1.00  0.00     0.004 C 
ENDBRANCH   9  10
ENDBRANCH   8   9
ENDBRANCH   7   8
ENDBRANCH   1   7
TORSDOF 7
ENDMDL
MODEL 7
REMARK VINA RESULT:    -4.295      2.333      2.726
REMARK INTER + INTRA:          -6.597
REMARK INTER:                  -5.688
REMARK INTRA:                  -0.910
REMARK UNBOUND:                -0.545
REMARK SMILES CCCCCCCCC(=O)[O-]
REMARK SMILES IDX 6 1 7 2 8 3 9 4 10 5 11 6 5 7 4 8 3 9 2 10 1 11
REMARK H PARENT
REMARK Flexibility Score: inf
ROOT
ATOM      1  C   UNL     1     102.932 107.839 230.545  1.00  0.00     0.000 C 
ENDROOT
BRANCH   1   2
ATOM      2  C   UNL     1     102.157 106.684 231.213  1.00  0.00     0.006 C 
BRANCH   2   3
ATOM      3  C   UNL     1     101.690 105.586 230.245  1.00  0.00     0.053 C 
BRANCH   3   4
ATOM      4  C   UNL     1     102.507 104.337 230.378  1.00  0.00     0.041 C 
ATOM      5  O   UNL     1     103.504 104.310 231.146  1.00  0.00    -0.550 OA
ATOM      6  O   UNL     1     102.187 103.214 229.627  1.00  0.00    -0.550 OA
ENDBRANCH   3   4
ENDBRANCH   2   3
ENDBRANCH   1   2
BRANCH   1   7
ATOM      7  C   UNL     1     104.416 107.943 230.938  1.00  0.00     0.000 C 
BRANCH   7   8
ATOM      8  C   UNL     1     105.343 107.160 229.997  1.00  0.00    -0.000 C 
BRANCH   8   9
ATOM      9  C   UNL     1     104.762 107.103 228.576  1.00  0.00    -0.000 C 
BRANCH   9  10
ATOM     10  C   UNL     1     104.855 105.701 227.956  1.00  0.00    -0.003 C 
ATOM     11  C   UNL     1     103.710 105.403 226.988  1.00  0.00     0.004 C 
ENDBRANCH   9  10
ENDBRANCH   8   9
ENDBRANCH   7   8
ENDBRANCH   1   7
TORSDOF 7
ENDMDL
MODEL 8
REMARK VINA RESULT:    -4.285      1.723      2.078
REMARK INTER + INTRA:          -6.583
REMARK INTER:                  -6.111
REMARK INTRA:                  -0.473
REMARK UNBOUND:                -0.545
REMARK SMILES CCCCCCCCC(=O)[O-]
REMARK SMILES IDX 6 1 7 2 8 3 9 4 10 5 11 6 5 7 4 8 3 9 2 10 1 11
REMARK H PARENT
REMARK Flexibility Score: inf
ROOT
ATOM      1  C   UNL     1     103.835 106.994 231.558  1.00  0.00     0.000 C 
ENDROOT
BRANCH   1   2
ATOM      2  C   UNL     1     104.214 105.673 232.260  1.00  0.00     0.006 C 
BRANCH   2   3
ATOM      3  C   UNL     1     105.401 105.785 233.230  1.00  0.00     0.053 C 
BRANCH   3   4
ATOM      4  C   UNL     1     106.419 104.712 232.994  1.00  0.00     0.041 C 
ATOM      5  O   UNL     1     106.141 103.720 232.269  1.00  0.00    -0.550 OA
ATOM      6  O   UNL     1     107.665 104.790 233.602  1.00  0.00    -0.550 OA
ENDBRANCH   3   4
ENDBRANCH   2   3
ENDBRANCH   1   2
BRANCH   1   7
ATOM      7  C   UNL     1     105.026 107.875 231.139  1.00  0.00     0.000 C 
BRANCH   7   8
ATOM      8  C   UNL     1     105.734 107.367 229.876  1.00  0.00    -0.000 C 
BRANCH   8   9
ATOM      9  C   UNL     1     104.721 107.073 228.758  1.00  0.00    -0.000 C 
BRANCH   9  10
ATOM     10  C   UNL     1     104.876 105.658 228.179  1.00  0.00    -0.003 C 
ATOM     11  C   UNL     1     103.833 105.338 227.109  1.00  0.00     0.004 C 
ENDBRANCH   9  10
ENDBRANCH   8   9
ENDBRANCH   7   8
ENDBRANCH   1   7
TORSDOF 7
ENDMDL
MODEL 9
REMARK VINA RESULT:    -4.211      3.106      4.992
REMARK INTER + INTRA:          -6.479
REMARK INTER:                  -5.881
REMARK INTRA:                  -0.598
REMARK UNBOUND:                -0.545
REMARK SMILES CCCCCCCCC(=O)[O-]
REMARK SMILES IDX 6 1 7 2 8 3 9 4 10 5 11 6 5 7 4 8 3 9 2 10 1 11
REMARK H PARENT
REMARK Flexibility Score: inf
ROOT
ATOM      1  C   UNL     1     104.873 107.250 228.501  1.00  0.00     0.000 C 
ENDROOT
BRANCH   1   2
ATOM      2  C   UNL     1     104.162 105.889 228.350  1.00  0.00     0.006 C 
BRANCH   2   3
ATOM      3  C   UNL     1     104.537 105.111 227.080  1.00  0.00     0.053 C 
BRANCH   3   4
ATOM      4  C   UNL     1     105.804 104.329 227.255  1.00  0.00     0.041 C 
ATOM      5  O   UNL     1     106.489 103.998 226.253  1.00  0.00    -0.550 OA
ATOM      6  O   UNL     1     106.208 103.937 228.525  1.00  0.00    -0.550 OA
ENDBRANCH   3   4
ENDBRANCH   2   3
ENDBRANCH   1   2
BRANCH   1   7
ATOM      7  C   UNL     1     105.738 107.399 229.765  1.00  0.00     0.000 C 
BRANCH   7   8
ATOM      8  C   UNL     1     104.967 107.989 230.954  1.00  0.00    -0.000 C 
BRANCH   8   9
ATOM      9  C   UNL     1     104.872 106.976 232.105  1.00  0.00    -0.000 C 
BRANCH   9  10
ATOM     10  C   UNL     1     103.490 106.309 232.191  1.00  0.00    -0.003 C 
ATOM     11  C   UNL     1     102.406 107.095 231.454  1.00  0.00     0.004 C 
ENDBRANCH   9  10
ENDBRANCH   8   9
ENDBRANCH   7   8
ENDBRANCH   1   7
TORSDOF 7
ENDMDL
