MODEL 1
REMARK VINA RESULT:    -3.435      0.000      0.000
REMARK INTER + INTRA:          -6.902
REMARK INTER:                  -5.845
REMARK INTRA:                  -1.057
REMARK UNBOUND:                -1.057
REMARK SMILES CCCCCCCCCCCCCC(=O)[O-]
REMARK SMILES IDX 8 1 9 2 10 3 11 4 12 5 13 6 14 7 15 8 16 9 7 10 6 11 5 12
REMARK SMILES IDX 4 13 3 14 2 15 1 16
REMARK H PARENT
REMARK Flexibility Score: inf
ROOT
ATOM      1  C   UNL     1      -8.278 -23.058  20.951  1.00  0.00     0.000 C 
ENDROOT
BRANCH   1   2
ATOM      2  C   UNL     1      -8.513 -22.954  22.471  1.00  0.00     0.000 C 
BRANCH   2   3
ATOM      3  C   UNL     1      -8.847 -21.541  22.986  1.00  0.00     0.000 C 
BRANCH   3   4
ATOM      4  C   UNL     1     -10.351 -21.250  23.165  1.00  0.00     0.000 C 
BRANCH   4   5
ATOM      5  C   UNL     1     -10.788 -19.828  22.768  1.00  0.00     0.006 C 
BRANCH   5   6
ATOM      6  C   UNL     1     -10.753 -19.595  21.253  1.00  0.00     0.053 C 
BRANCH   6   7
ATOM      7  C   UNL     1     -10.299 -18.203  20.949  1.00  0.00     0.041 C 
ATOM      8  O   UNL     1     -10.777 -17.580  19.965  1.00  0.00    -0.550 OA
ATOM      9  O   UNL     1      -9.310 -17.609  21.725  1.00  0.00    -0.550 OA
ENDBRANCH   6   7
ENDBRANCH   5   6
ENDBRANCH   4   5
ENDBRANCH   3   4
ENDBRANCH   2   3
ENDBRANCH   1   2
BRANCH   1  10
ATOM     10  C   UNL     1      -9.548 -22.924  20.091  1.00  0.00     0.000 C 
BRANCH  10  11
ATOM     11  C   UNL     1      -9.238 -22.628  18.614  1.00  0.00    -0.000 C 
BRANCH  11  12
ATOM     12  C   UNL     1      -9.526 -21.167  18.234  1.00  0.00    -0.000 C 
BRANCH  12  13
ATOM     13  C   UNL     1     -10.954 -20.971  17.692  1.00  0.00    -0.000 C 
BRANCH  13  14
ATOM     14  C   UNL     1     -11.027 -19.892  16.599  1.00  0.00    -0.000 C 
BRANCH  14  15
ATOM     15  C   UNL     1     -11.035 -20.486  15.183  1.00  0.00    -0.003 C 
ATOM     16  C   UNL     1      -9.767 -20.109  14.422  1.00  0.00     0.004 C 
ENDBRANCH  14  15
ENDBRANCH  13  14
ENDBRANCH  12  13
ENDBRANCH  11  12
ENDBRANCH  10  11
ENDBRANCH   1  10
TORSDOF 12
ENDMDL
MODEL 2
REMARK VINA RESULT:    -2.990      3.033      6.191
REMARK INTER + INTRA:          -6.144
REMARK INTER:                  -4.618
REMARK INTRA:                  -1.526
REMARK UNBOUND:                -1.057
REMARK SMILES CCCCCCCCCCCCCC(=O)[O-]
REMARK SMILES IDX 8 1 9 2 10 3 11 4 12 5 13 6 14 7 15 8 16 9 7 10 6 11 5 12
REMARK SMILES IDX 4 13 3 14 2 15 1 16
REMARK H PARENT
REMARK Flexibility Score: inf
ROOT
ATOM      1  C   UNL     1      -9.879 -19.416  19.801  1.00  0.00     0.000 C 
ENDROOT
BRANCH   1   2
ATOM      2  C   UNL     1     -11.003 -20.180  19.072  1.00  0.00     0.000 C 
BRANCH   2   3
ATOM      3  C   UNL     1     -10.548 -21.444  18.316  1.00  0.00     0.000 C 
BRANCH   3   4
ATOM      4  C   UNL     1      -9.052 -21.481  17.945  1.00  0.00     0.000 C 
BRANCH   4   5
ATOM      5  C   UNL     1      -8.434 -22.889  17.884  1.00  0.00     0.006 C 
BRANCH   5   6
ATOM      6  C   UNL     1      -7.310 -23.003  16.846  1.00  0.00     0.053 C 
BRANCH   6   7
ATOM      7  C   UNL     1      -5.976 -22.828  17.499  1.00  0.00     0.041 C 
ATOM      8  O   UNL     1      -4.938 -22.708  16.798  1.00  0.00    -0.550 OA
ATOM      9  O   UNL     1      -5.873 -22.846  18.885  1.00  0.00    -0.550 OA
ENDBRANCH   6   7
ENDBRANCH   5   6
ENDBRANCH   4   5
ENDBRANCH   3   4
ENDBRANCH   2   3
ENDBRANCH   1   2
BRANCH   1  10
ATOM     10  C   UNL     1     -10.361 -18.455  20.902  1.00  0.00     0.000 C 
BRANCH  10  11
ATOM     11  C   UNL     1     -10.096 -18.991  22.319  1.00  0.00    -0.000 C 
BRANCH  11  12
ATOM     12  C   UNL     1     -11.123 -20.049  22.750  1.00  0.00    -0.000 C 
BRANCH  12  13
ATOM     13  C   UNL     1     -10.459 -21.353  23.227  1.00  0.00    -0.000 C 
BRANCH  13  14
ATOM     14  C   UNL     1      -8.942 -21.369  22.980  1.00  0.00    -0.000 C 
BRANCH  14  15
ATOM     15  C   UNL     1      -8.511 -22.493  22.028  1.00  0.00    -0.003 C 
ATOM     16  C   UNL     1      -9.720 -23.125  21.343  1.00  0.00     0.004 C 
ENDBRANCH  14  15
ENDBRANCH  13  14
ENDBRANCH  12  13
ENDBRANCH  11  12
ENDBRANCH  10  11
ENDBRANCH   1  10
TORSDOF 12
ENDMDL
MODEL 3
REMARK VINA RESULT:    -2.875      3.304      5.760
REMARK INTER + INTRA:          -5.950
REMARK INTER:                  -4.767
REMARK INTRA:                  -1.183
REMARK UNBOUND:                -1.057
REMARK SMILES CCCCCCCCCCCCCC(=O)[O-]
REMARK SMILES IDX 8 1 9 2 10 3 11 4 12 5 13 6 14 7 15 8 16 9 7 10 6 11 5 12
REMARK SMILES IDX 4 13 3 14 2 15 1 16
REMARK H PARENT
REMARK Flexibility Score: inf
ROOT
ATOM      1  C   UNL     1      -8.817 -22.938  20.908  1.00  0.00     0.000 C 
ENDROOT
BRANCH   1   2
ATOM      2  C   UNL     1     -10.181 -23.090  20.205  1.00  0.00     0.000 C 
BRANCH   2   3
ATOM      3  C   UNL     1     -10.136 -23.001  18.667  1.00  0.00     0.000 C 
BRANCH   3   4
ATOM      4  C   UNL     1      -9.003 -22.124  18.096  1.00  0.00     0.000 C 
BRANCH   4   5
ATOM      5  C   UNL     1      -7.835 -22.905  17.466  1.00  0.00     0.006 C 
BRANCH   5   6
ATOM      6  C   UNL     1      -6.462 -22.385  17.910  1.00  0.00     0.053 C 
BRANCH   6   7
ATOM      7  C   UNL     1      -5.526 -22.320  16.746  1.00  0.00     0.041 C 
ATOM      8  O   UNL     1      -4.561 -23.125  16.662  1.00  0.00    -0.550 OA
ATOM      9  O   UNL     1      -5.689 -21.338  15.777  1.00  0.00    -0.550 OA
ENDBRANCH   6   7
ENDBRANCH   5   6
ENDBRANCH   4   5
ENDBRANCH   3   4
ENDBRANCH   2   3
ENDBRANCH   1   2
BRANCH   1  10
ATOM     10  C   UNL     1      -8.873 -22.995  22.445  1.00  0.00     0.000 C 
BRANCH  10  11
ATOM     11  C   UNL     1      -8.971 -21.603  23.090  1.00  0.00    -0.000 C 
BRANCH  11  12
ATOM     12  C   UNL     1     -10.425 -21.171  23.338  1.00  0.00    -0.000 C 
BRANCH  12  13
ATOM     13  C   UNL     1     -10.930 -20.169  22.285  1.00  0.00    -0.000 C 
BRANCH  13  14
ATOM     14  C   UNL     1     -10.378 -18.751  22.506  1.00  0.00    -0.000 C 
BRANCH  14  15
ATOM     15  C   UNL     1      -9.996 -18.055  21.192  1.00  0.00    -0.003 C 
ATOM     16  C   UNL     1     -10.001 -19.041  20.027  1.00  0.00     0.004 C 
ENDBRANCH  14  15
ENDBRANCH  13  14
ENDBRANCH  12  13
ENDBRANCH  11  12
ENDBRANCH  10  11
ENDBRANCH   1  10
TORSDOF 12
ENDMDL
MODEL 4
REMARK VINA RESULT:    -2.824      2.540      5.273
REMARK INTER + INTRA:          -5.861
REMARK INTER:                  -4.770
REMARK INTRA:                  -1.092
REMARK UNBOUND:                -1.057
REMARK SMILES CCCCCCCCCCCCCC(=O)[O-]
REMARK SMILES IDX 8 1 9 2 10 3 11 4 12 5 13 6 14 7 15 8 16 9 7 10 6 11 5 12
REMARK SMILES IDX 4 13 3 14 2 15 1 16
REMARK H PARENT
REMARK Flexibility Score: inf
ROOT
ATOM      1  C   UNL     1      -7.873 -22.973  20.240  1.00  0.00     0.000 C 
ENDROOT
BRANCH   1   2
ATOM      2  C   UNL     1      -9.082 -22.986  19.283  1.00  0.00     0.000 C 
BRANCH   2   3
ATOM      3  C   UNL     1      -9.217 -21.741  18.384  1.00  0.00     0.000 C 
BRANCH   3   4
ATOM      4  C   UNL     1     -10.647 -21.178  18.260  1.00  0.00     0.000 C 
BRANCH   4   5
ATOM      5  C   UNL     1     -10.827 -20.100  17.176  1.00  0.00     0.006 C 
BRANCH   5   6
ATOM      6  C   UNL     1     -11.125 -20.690  15.792  1.00  0.00     0.053 C 
BRANCH   6   7
ATOM      7  C   UNL     1     -10.000 -20.405  14.849  1.00  0.00     0.041 C 
ATOM      8  O   UNL     1     -10.209 -19.757  13.790  1.00  0.00    -0.550 OA
ATOM      9  O   UNL     1      -8.728 -20.897  15.115  1.00  0.00    -0.550 OA
ENDBRANCH   6   7
ENDBRANCH   5   6
ENDBRANCH   4   5
ENDBRANCH   3   4
ENDBRANCH   2   3
ENDBRANCH   1   2
BRANCH   1  10
ATOM     10  C   UNL     1      -8.233 -22.911  21.735  1.00  0.00     0.000 C 
BRANCH  10  11
ATOM     11  C   UNL     1      -9.594 -22.244  21.993  1.00  0.00    -0.000 C 
BRANCH  11  12
ATOM     12  C   UNL     1      -9.466 -20.930  22.779  1.00  0.00    -0.000 C 
BRANCH  12  13
ATOM     13  C   UNL     1     -10.764 -20.102  22.756  1.00  0.00    -0.000 C 
BRANCH  13  14
ATOM     14  C   UNL     1     -10.499 -18.593  22.627  1.00  0.00    -0.000 C 
BRANCH  14  15
ATOM     15  C   UNL     1      -9.776 -18.231  21.322  1.00  0.00    -0.003 C 
ATOM     16  C   UNL     1     -10.774 -17.893  20.217  1.00  0.00     0.004 C 
ENDBRANCH  14  15
ENDBRANCH  13  14
ENDBRANCH  12  13
ENDBRANCH  11  12
ENDBRANCH  10  11
ENDBRANCH   1  10
TORSDOF 12
ENDMDL
MODEL 5
REMARK VINA RESULT:    -2.558      3.118      6.451
REMARK INTER + INTRA:          -5.409
REMARK INTER:                  -4.440
REMARK INTRA:                  -0.969
REMARK UNBOUND:                -1.057
REMARK SMILES CCCCCCCCCCCCCC(=O)[O-]
REMARK SMILES IDX 8 1 9 2 10 3 11 4 12 5 13 6 14 7 15 8 16 9 7 10 6 11 5 12
REMARK SMILES IDX 4 13 3 14 2 15 1 16
REMARK H PARENT
REMARK Flexibility Score: inf
ROOT
ATOM      1  C   UNL     1     -10.502 -20.718  17.655  1.00  0.00     0.000 C 
ENDROOT
BRANCH   1   2
ATOM      2  C   UNL     1     -11.053 -20.771  16.215  1.00  0.00     0.000 C 
BRANCH   2   3
ATOM      3  C   UNL     1     -10.240 -19.976  15.176  1.00  0.00     0.000 C 
BRANCH   3   4
ATOM      4  C   UNL     1      -9.069 -20.748  14.533  1.00  0.00     0.000 C 
BRANCH   4   5
ATOM      5  C   UNL     1      -7.786 -20.804  15.381  1.00  0.00     0.006 C 
BRANCH   5   6
ATOM      6  C   UNL     1      -7.402 -22.232  15.788  1.00  0.00     0.053 C 
BRANCH   6   7
ATOM      7  C   UNL     1      -6.262 -22.211  16.756  1.00  0.00     0.041 C 
ATOM      8  O   UNL     1      -5.080 -22.092  16.340  1.00  0.00    -0.550 OA
ATOM      9  O   UNL     1      -6.501 -22.372  18.115  1.00  0.00    -0.550 OA
ENDBRANCH   6   7
ENDBRANCH   5   6
ENDBRANCH   4   5
ENDBRANCH   3   4
ENDBRANCH   2   3
ENDBRANCH   1   2
BRANCH   1  10
ATOM     10  C   UNL     1     -10.252 -22.092  18.302  1.00  0.00     0.000 C 
BRANCH  10  11
ATOM     11  C   UNL     1      -9.607 -21.986  19.694  1.00  0.00    -0.000 C 
BRANCH  11  12
ATOM     12  C   UNL     1     -10.616 -21.582  20.781  1.00  0.00    -0.000 C 
BRANCH  12  13
ATOM     13  C   UNL     1     -10.000 -20.643  21.834  1.00  0.00    -0.000 C 
BRANCH  13  14
ATOM     14  C   UNL     1     -10.697 -19.273  21.884  1.00  0.00    -0.000 C 
BRANCH  14  15
ATOM     15  C   UNL     1      -9.780 -18.129  21.428  1.00  0.00    -0.003 C 
ATOM     16  C   UNL     1      -8.935 -17.609  22.588  1.00  0.00     0.004 C 
ENDBRANCH  14  15
ENDBRANCH  13  14
ENDBRANCH  12  13
ENDBRANCH  11  12
ENDBRANCH  10  11
ENDBRANCH   1  10
TORSDOF 12
ENDMDL
MODEL 6
REMARK VINA RESULT:    -2.473      2.393      5.702
REMARK INTER + INTRA:          -5.264
REMARK INTER:                  -4.875
REMARK INTRA:                  -0.389
REMARK UNBOUND:                -1.057
REMARK SMILES CCCCCCCCCCCCCC(=O)[O-]
REMARK SMILES IDX 8 1 9 2 10 3 11 4 12 5 13 6 14 7 15 8 16 9 7 10 6 11 5 12
REMARK SMILES IDX 4 13 3 14 2 15 1 16
REMARK H PARENT
REMARK Flexibility Score: inf
ROOT
ATOM      1  C   UNL     1      -7.194 -22.459  18.582  1.00  0.00     0.000 C 
ENDROOT
BRANCH   1   2
ATOM      2  C   UNL     1      -6.915 -23.061  17.190  1.00  0.00     0.000 C 
BRANCH   2   3
ATOM      3  C   UNL     1      -6.963 -22.056  16.023  1.00  0.00     0.000 C 
BRANCH   3   4
ATOM      4  C   UNL     1      -8.243 -21.200  15.950  1.00  0.00     0.000 C 
BRANCH   4   5
ATOM      5  C   UNL     1      -8.656 -20.770  14.530  1.00  0.00     0.006 C 
BRANCH   5   6
ATOM      6  C   UNL     1      -9.989 -20.014  14.500  1.00  0.00     0.053 C 
BRANCH   6   7
ATOM      7  C   UNL     1     -10.756 -20.256  15.761  1.00  0.00     0.041 C 
ATOM      8  O   UNL     1     -11.032 -19.297  16.529  1.00  0.00    -0.550 OA
ATOM      9  O   UNL     1     -11.124 -21.549  16.114  1.00  0.00    -0.550 OA
ENDBRANCH   6   7
ENDBRANCH   5   6
ENDBRANCH   4   5
ENDBRANCH   3   4
ENDBRANCH   2   3
ENDBRANCH   1   2
BRANCH   1  10
ATOM     10  C   UNL     1      -8.417 -23.047  19.308  1.00  0.00     0.000 C 
BRANCH  10  11
ATOM     11  C   UNL     1      -9.676 -22.179  19.151  1.00  0.00    -0.000 C 
BRANCH  11  12
ATOM     12  C   UNL     1      -9.897 -21.241  20.347  1.00  0.00    -0.000 C 
BRANCH  12  13
ATOM     13  C   UNL     1     -10.666 -19.964  19.959  1.00  0.00    -0.000 C 
BRANCH  13  14
ATOM     14  C   UNL     1     -10.063 -18.698  20.588  1.00  0.00    -0.000 C 
BRANCH  14  15
ATOM     15  C   UNL     1      -9.835 -18.841  22.099  1.00  0.00    -0.003 C 
ATOM     16  C   UNL     1      -9.012 -17.675  22.643  1.00  0.00     0.004 C 
ENDBRANCH  14  15
ENDBRANCH  13  14
ENDBRANCH  12  13
ENDBRANCH  11  12
ENDBRANCH  10  11
ENDBRANCH   1  10
TORSDOF 12
ENDMDL
MODEL 7
REMARK VINA RESULT:    -2.427      1.610      2.566
REMARK INTER + INTRA:          -5.186
REMARK INTER:                  -4.173
REMARK INTRA:                  -1.013
REMARK UNBOUND:                -1.057
REMARK SMILES CCCCCCCCCCCCCC(=O)[O-]
REMARK SMILES IDX 8 1 9 2 10 3 11 4 12 5 13 6 14 7 15 8 16 9 7 10 6 11 5 12
REMARK SMILES IDX 4 13 3 14 2 15 1 16
REMARK H PARENT
REMARK Flexibility Score: inf
ROOT
ATOM      1  C   UNL     1      -7.880 -22.205  18.962  1.00  0.00     0.000 C 
ENDROOT
BRANCH   1   2
ATOM      2  C   UNL     1      -9.110 -23.030  19.394  1.00  0.00     0.000 C 
BRANCH   2   3
ATOM      3  C   UNL     1     -10.347 -22.201  19.787  1.00  0.00     0.000 C 
BRANCH   3   4
ATOM      4  C   UNL     1     -10.170 -20.672  19.683  1.00  0.00     0.000 C 
BRANCH   4   5
ATOM      5  C   UNL     1     -10.943 -19.857  20.735  1.00  0.00     0.006 C 
BRANCH   5   6
ATOM      6  C   UNL     1     -10.092 -19.508  21.962  1.00  0.00     0.053 C 
BRANCH   6   7
ATOM      7  C   UNL     1      -9.610 -18.094  21.879  1.00  0.00     0.041 C 
ATOM      8  O   UNL     1      -9.816 -17.414  20.839  1.00  0.00    -0.550 OA
ATOM      9  O   UNL     1      -8.890 -17.542  22.932  1.00  0.00    -0.550 OA
ENDBRANCH   6   7
ENDBRANCH   5   6
ENDBRANCH   4   5
ENDBRANCH   3   4
ENDBRANCH   2   3
ENDBRANCH   1   2
BRANCH   1  10
ATOM     10  C   UNL     1      -6.956 -22.903  17.949  1.00  0.00     0.000 C 
BRANCH  10  11
ATOM     11  C   UNL     1      -7.600 -23.055  16.561  1.00  0.00    -0.000 C 
BRANCH  11  12
ATOM     12  C   UNL     1      -7.299 -21.863  15.639  1.00  0.00    -0.000 C 
BRANCH  12  13
ATOM     13  C   UNL     1      -8.415 -20.803  15.663  1.00  0.00    -0.000 C 
BRANCH  13  14
ATOM     14  C   UNL     1      -9.084 -20.620  14.291  1.00  0.00    -0.000 C 
BRANCH  14  15
ATOM     15  C   UNL     1     -10.592 -20.352  14.402  1.00  0.00    -0.003 C 
ATOM     16  C   UNL     1     -11.067 -20.475  15.848  1.00  0.00     0.004 C 
ENDBRANCH  14  15
ENDBRANCH  13  14
ENDBRANCH  12  13
ENDBRANCH  11  12
ENDBRANCH  10  11
ENDBRANCH   1  10
TORSDOF 12
ENDMDL
MODEL 8
REMARK VINA RESULT:    -2.245      2.225      5.389
REMARK INTER + INTRA:          -4.877
REMARK INTER:                  -3.913
REMARK INTRA:                  -0.964
REMARK UNBOUND:                -1.057
REMARK SMILES CCCCCCCCCCCCCC(=O)[O-]
REMARK SMILES IDX 8 1 9 2 10 3 11 4 12 5 13 6 14 7 15 8 16 9 7 10 6 11 5 12
REMARK SMILES IDX 4 13 3 14 2 15 1 16
REMARK H PARENT
REMARK Flexibility Score: inf
ROOT
ATOM      1  C   UNL     1      -7.864 -23.124  21.274  1.00  0.00     0.000 C 
ENDROOT
BRANCH   1   2
ATOM      2  C   UNL     1      -8.664 -23.060  19.957  1.00  0.00     0.000 C 
BRANCH   2   3
ATOM      3  C   UNL     1      -7.811 -22.944  18.679  1.00  0.00     0.000 C 
BRANCH   3   4
ATOM      4  C   UNL     1      -8.113 -21.713  17.801  1.00  0.00     0.000 C 
BRANCH   4   5
ATOM      5  C   UNL     1      -8.376 -22.026  16.316  1.00  0.00     0.006 C 
BRANCH   5   6
ATOM      6  C   UNL     1      -8.889 -20.811  15.533  1.00  0.00     0.053 C 
BRANCH   6   7
ATOM      7  C   UNL     1     -10.329 -20.555  15.850  1.00  0.00     0.041 C 
ATOM      8  O   UNL     1     -10.812 -19.401  15.714  1.00  0.00    -0.550 OA
ATOM      9  O   UNL     1     -11.125 -21.582  16.343  1.00  0.00    -0.550 OA
ENDBRANCH   6   7
ENDBRANCH   5   6
ENDBRANCH   4   5
ENDBRANCH   3   4
ENDBRANCH   2   3
ENDBRANCH   1   2
BRANCH   1  10
ATOM     10  C   UNL     1      -8.717 -23.050  22.553  1.00  0.00     0.000 C 
BRANCH  10  11
ATOM     11  C   UNL     1      -8.981 -21.606  23.009  1.00  0.00    -0.000 C 
BRANCH  11  12
ATOM     12  C   UNL     1     -10.472 -21.330  23.257  1.00  0.00    -0.000 C 
BRANCH  12  13
ATOM     13  C   UNL     1     -11.064 -20.338  22.239  1.00  0.00    -0.000 C 
BRANCH  13  14
ATOM     14  C   UNL     1     -10.025 -19.852  21.215  1.00  0.00    -0.000 C 
BRANCH  14  15
ATOM     15  C   UNL     1      -9.834 -18.329  21.247  1.00  0.00    -0.003 C 
ATOM     16  C   UNL     1      -9.267 -17.875  22.590  1.00  0.00     0.004 C 
ENDBRANCH  14  15
ENDBRANCH  13  14
ENDBRANCH  12  13
ENDBRANCH  11  12
ENDBRANCH  10  11
ENDBRANCH   1  10
TORSDOF 12
ENDMDL
MODEL 9
REMARK VINA RESULT:    -1.958      1.597      2.199
REMARK INTER + INTRA:          -4.388
REMARK INTER:                  -3.555
REMARK INTRA:                  -0.833
REMARK UNBOUND:                -1.057
REMARK SMILES CCCCCCCCCCCCCC(=O)[O-]
REMARK SMILES IDX 8 1 9 2 10 3 11 4 12 5 13 6 14 7 15 8 16 9 7 10 6 11 5 12
REMARK SMILES IDX 4 13 3 14 2 15 1 16
REMARK H PARENT
REMARK Flexibility Score: inf
ROOT
ATOM      1  C   UNL     1      -7.317 -22.390  19.101  1.00  0.00     0.000 C 
ENDROOT
BRANCH   1   2
ATOM      2  C   UNL     1      -6.521 -23.080  20.227  1.00  0.00     0.000 C 
BRANCH   2   3
ATOM      3  C   UNL     1      -7.214 -23.092  21.603  1.00  0.00     0.000 C 
BRANCH   3   4
ATOM      4  C   UNL     1      -8.756 -23.120  21.558  1.00  0.00     0.000 C 
BRANCH   4   5
ATOM      5  C   UNL     1      -9.446 -21.932  22.251  1.00  0.00     0.006 C 
BRANCH   5   6
ATOM      6  C   UNL     1     -10.276 -21.078  21.284  1.00  0.00     0.053 C 
BRANCH   6   7
ATOM      7  C   UNL     1     -10.188 -19.632  21.657  1.00  0.00     0.041 C 
ATOM      8  O   UNL     1      -9.536 -18.831  20.937  1.00  0.00    -0.550 OA
ATOM      9  O   UNL     1     -10.785 -19.178  22.827  1.00  0.00    -0.550 OA
ENDBRANCH   6   7
ENDBRANCH   5   6
ENDBRANCH   4   5
ENDBRANCH   3   4
ENDBRANCH   2   3
ENDBRANCH   1   2
BRANCH   1  10
ATOM     10  C   UNL     1      -6.812 -22.689  17.677  1.00  0.00     0.000 C 
BRANCH  10  11
ATOM     11  C   UNL     1      -7.737 -22.123  16.587  1.00  0.00    -0.000 C 
BRANCH  11  12
ATOM     12  C   UNL     1      -9.197 -22.013  17.053  1.00  0.00    -0.000 C 
BRANCH  12  13
ATOM     13  C   UNL     1      -9.818 -20.643  16.722  1.00  0.00    -0.000 C 
BRANCH  13  14
ATOM     14  C   UNL     1     -11.125 -20.765  15.921  1.00  0.00    -0.000 C 
BRANCH  14  15
ATOM     15  C   UNL     1     -10.908 -20.594  14.411  1.00  0.00    -0.003 C 
ATOM     16  C   UNL     1      -9.518 -20.037  14.116  1.00  0.00     0.004 C 
ENDBRANCH  14  15
ENDBRANCH  13  14
ENDBRANCH  12  13
ENDBRANCH  11  12
ENDBRANCH  10  11
ENDBRANCH   1  10
TORSDOF 12
ENDMDL
