MODEL 1
REMARK VINA RESULT:    -4.144      0.000      0.000
REMARK INTER + INTRA:          -8.854
REMARK INTER:                  -7.052
REMARK INTRA:                  -1.802
REMARK UNBOUND:                -1.802
REMARK SMILES CCCCCCCCCCCCCC(=O)[O-]
REMARK SMILES IDX 8 1 9 2 10 3 11 4 12 5 13 6 14 7 15 8 16 9 7 10 6 11 5 12
REMARK SMILES IDX 4 13 3 14 2 15 1 16
REMARK H PARENT
REMARK Flexibility Score: inf
ROOT
ATOM      1  C   UNL     1      -0.947 -21.334 -15.186  1.00  0.00     0.000 C 
ENDROOT
BRANCH   1   2
ATOM      2  C   UNL     1       0.497 -21.424 -15.713  1.00  0.00     0.000 C 
BRANCH   2   3
ATOM      3  C   UNL     1       1.543 -21.249 -14.602  1.00  0.00     0.000 C 
BRANCH   3   4
ATOM      4  C   UNL     1       1.039 -20.368 -13.449  1.00  0.00     0.000 C 
BRANCH   4   5
ATOM      5  C   UNL     1       2.185 -20.000 -12.498  1.00  0.00     0.006 C 
BRANCH   5   6
ATOM      6  C   UNL     1       2.962 -21.246 -12.067  1.00  0.00     0.053 C 
BRANCH   6   7
ATOM      7  C   UNL     1       4.389 -20.899 -11.776  1.00  0.00     0.041 C 
ATOM      8  O   UNL     1       5.316 -21.402 -12.463  1.00  0.00    -0.550 OA
ATOM      9  O   UNL     1       4.696 -20.058 -10.714  1.00  0.00    -0.550 OA
ENDBRANCH   6   7
ENDBRANCH   5   6
ENDBRANCH   4   5
ENDBRANCH   3   4
ENDBRANCH   2   3
ENDBRANCH   1   2
BRANCH   1  10
ATOM     10  C   UNL     1      -1.858 -22.425 -15.771  1.00  0.00     0.000 C 
BRANCH  10  11
ATOM     11  C   UNL     1      -1.074 -23.656 -16.248  1.00  0.00    -0.000 C 
BRANCH  11  12
ATOM     12  C   UNL     1      -1.104 -24.770 -15.195  1.00  0.00    -0.000 C 
BRANCH  12  13
ATOM     13  C   UNL     1       0.285 -24.978 -14.573  1.00  0.00    -0.000 C 
BRANCH  13  14
ATOM     14  C   UNL     1       0.221 -25.286 -13.068  1.00  0.00    -0.000 C 
BRANCH  14  15
ATOM     15  C   UNL     1       0.629 -24.087 -12.201  1.00  0.00    -0.003 C 
ATOM     16  C   UNL     1      -0.574 -23.204 -11.885  1.00  0.00     0.004 C 
ENDBRANCH  14  15
ENDBRANCH  13  14
ENDBRANCH  12  13
ENDBRANCH  11  12
ENDBRANCH  10  11
ENDBRANCH   1  10
TORSDOF 12
ENDMDL
MODEL 2
REMARK VINA RESULT:    -4.090      1.547      2.109
REMARK INTER + INTRA:          -8.761
REMARK INTER:                  -7.398
REMARK INTRA:                  -1.363
REMARK UNBOUND:                -1.802
REMARK SMILES CCCCCCCCCCCCCC(=O)[O-]
REMARK SMILES IDX 8 1 9 2 10 3 11 4 12 5 13 6 14 7 15 8 16 9 7 10 6 11 5 12
REMARK SMILES IDX 4 13 3 14 2 15 1 16
REMARK H PARENT
REMARK Flexibility Score: inf
ROOT
ATOM      1  C   UNL     1       0.429 -20.873 -14.924  1.00  0.00     0.000 C 
ENDROOT
BRANCH   1   2
ATOM      2  C   UNL     1       1.351 -20.531 -13.738  1.00  0.00     0.000 C 
BRANCH   2   3
ATOM      3  C   UNL     1       2.832 -20.465 -14.142  1.00  0.00     0.000 C 
BRANCH   3   4
ATOM      4  C   UNL     1       3.729 -19.934 -13.014  1.00  0.00     0.000 C 
BRANCH   4   5
ATOM      5  C   UNL     1       3.235 -20.419 -11.645  1.00  0.00     0.006 C 
BRANCH   5   6
ATOM      6  C   UNL     1       3.833 -21.784 -11.298  1.00  0.00     0.053 C 
BRANCH   6   7
ATOM      7  C   UNL     1       3.689 -22.062  -9.834  1.00  0.00     0.041 C 
ATOM      8  O   UNL     1       3.546 -21.112  -9.020  1.00  0.00    -0.550 OA
ATOM      9  O   UNL     1       3.762 -23.367  -9.365  1.00  0.00    -0.550 OA
ENDBRANCH   6   7
ENDBRANCH   5   6
ENDBRANCH   4   5
ENDBRANCH   3   4
ENDBRANCH   2   3
ENDBRANCH   1   2
BRANCH   1  10
ATOM     10  C   UNL     1       0.903 -22.109 -15.703  1.00  0.00     0.000 C 
BRANCH  10  11
ATOM     11  C   UNL     1      -0.215 -22.744 -16.542  1.00  0.00    -0.000 C 
BRANCH  11  12
ATOM     12  C   UNL     1      -0.720 -24.040 -15.896  1.00  0.00    -0.000 C 
BRANCH  12  13
ATOM     13  C   UNL     1       0.390 -24.715 -15.076  1.00  0.00    -0.000 C 
BRANCH  13  14
ATOM     14  C   UNL     1      -0.144 -25.406 -13.811  1.00  0.00    -0.000 C 
BRANCH  14  15
ATOM     15  C   UNL     1      -0.455 -24.413 -12.682  1.00  0.00    -0.003 C 
ATOM     16  C   UNL     1       0.825 -23.806 -12.116  1.00  0.00     0.004 C 
ENDBRANCH  14  15
ENDBRANCH  13  14
ENDBRANCH  12  13
ENDBRANCH  11  12
ENDBRANCH  10  11
ENDBRANCH   1  10
TORSDOF 12
ENDMDL
MODEL 3
REMARK VINA RESULT:    -4.048      1.118      1.828
REMARK INTER + INTRA:          -8.690
REMARK INTER:                  -7.082
REMARK INTRA:                  -1.608
REMARK UNBOUND:                -1.802
REMARK SMILES CCCCCCCCCCCCCC(=O)[O-]
REMARK SMILES IDX 8 1 9 2 10 3 11 4 12 5 13 6 14 7 15 8 16 9 7 10 6 11 5 12
REMARK SMILES IDX 4 13 3 14 2 15 1 16
REMARK H PARENT
REMARK Flexibility Score: inf
ROOT
ATOM      1  C   UNL     1      -1.971 -21.812 -13.569  1.00  0.00     0.000 C 
ENDROOT
BRANCH   1   2
ATOM      2  C   UNL     1      -0.620 -21.613 -12.858  1.00  0.00     0.000 C 
BRANCH   2   3
ATOM      3  C   UNL     1       0.256 -20.552 -13.542  1.00  0.00     0.000 C 
BRANCH   3   4
ATOM      4  C   UNL     1       1.476 -21.161 -14.251  1.00  0.00     0.000 C 
BRANCH   4   5
ATOM      5  C   UNL     1       2.767 -20.447 -13.832  1.00  0.00     0.006 C 
BRANCH   5   6
ATOM      6  C   UNL     1       2.924 -20.446 -12.309  1.00  0.00     0.053 C 
BRANCH   6   7
ATOM      7  C   UNL     1       4.246 -21.031 -11.919  1.00  0.00     0.041 C 
ATOM      8  O   UNL     1       4.294 -22.076 -11.219  1.00  0.00    -0.550 OA
ATOM      9  O   UNL     1       5.423 -20.393 -12.286  1.00  0.00    -0.550 OA
ENDBRANCH   6   7
ENDBRANCH   5   6
ENDBRANCH   4   5
ENDBRANCH   3   4
ENDBRANCH   2   3
ENDBRANCH   1   2
BRANCH   1  10
ATOM     10  C   UNL     1      -1.864 -21.661 -15.094  1.00  0.00     0.000 C 
BRANCH  10  11
ATOM     11  C   UNL     1      -2.648 -22.742 -15.852  1.00  0.00    -0.000 C 
BRANCH  11  12
ATOM     12  C   UNL     1      -1.855 -24.053 -15.916  1.00  0.00    -0.000 C 
BRANCH  12  13
ATOM     13  C   UNL     1      -0.361 -23.783 -16.151  1.00  0.00    -0.000 C 
BRANCH  13  14
ATOM     14  C   UNL     1       0.543 -24.592 -15.208  1.00  0.00    -0.000 C 
BRANCH  14  15
ATOM     15  C   UNL     1      -0.222 -25.170 -14.008  1.00  0.00    -0.003 C 
ATOM     16  C   UNL     1       0.590 -25.033 -12.723  1.00  0.00     0.004 C 
ENDBRANCH  14  15
ENDBRANCH  13  14
ENDBRANCH  12  13
ENDBRANCH  11  12
ENDBRANCH  10  11
ENDBRANCH   1  10
TORSDOF 12
ENDMDL
MODEL 4
REMARK VINA RESULT:    -4.039     10.587     12.799
REMARK INTER + INTRA:          -8.676
REMARK INTER:                  -7.243
REMARK INTRA:                  -1.432
REMARK UNBOUND:                -1.802
REMARK SMILES CCCCCCCCCCCCCC(=O)[O-]
REMARK SMILES IDX 8 1 9 2 10 3 11 4 12 5 13 6 14 7 15 8 16 9 7 10 6 11 5 12
REMARK SMILES IDX 4 13 3 14 2 15 1 16
REMARK H PARENT
REMARK Flexibility Score: inf
ROOT
ATOM      1  C   UNL     1      -6.454 -21.760  -2.917  1.00  0.00     0.000 C 
ENDROOT
BRANCH   1   2
ATOM      2  C   UNL     1      -6.779 -20.338  -3.410  1.00  0.00     0.000 C 
BRANCH   2   3
ATOM      3  C   UNL     1      -7.177 -20.304  -4.893  1.00  0.00     0.000 C 
BRANCH   3   4
ATOM      4  C   UNL     1      -8.282 -19.277  -5.185  1.00  0.00     0.000 C 
BRANCH   4   5
ATOM      5  C   UNL     1      -8.351 -18.955  -6.683  1.00  0.00     0.006 C 
BRANCH   5   6
ATOM      6  C   UNL     1      -8.781 -20.182  -7.490  1.00  0.00     0.053 C 
BRANCH   6   7
ATOM      7  C   UNL     1     -10.260 -20.166  -7.719  1.00  0.00     0.041 C 
ATOM      8  O   UNL     1     -11.034 -20.731  -6.902  1.00  0.00    -0.550 OA
ATOM      9  O   UNL     1     -10.779 -19.571  -8.861  1.00  0.00    -0.550 OA
ENDBRANCH   6   7
ENDBRANCH   5   6
ENDBRANCH   4   5
ENDBRANCH   3   4
ENDBRANCH   2   3
ENDBRANCH   1   2
BRANCH   1  10
ATOM     10  C   UNL     1      -4.955 -21.966  -2.654  1.00  0.00     0.000 C 
BRANCH  10  11
ATOM     11  C   UNL     1      -4.348 -23.075  -3.526  1.00  0.00    -0.000 C 
BRANCH  11  12
ATOM     12  C   UNL     1      -5.435 -24.029  -4.038  1.00  0.00    -0.000 C 
BRANCH  12  13
ATOM     13  C   UNL     1      -5.344 -24.200  -5.562  1.00  0.00    -0.000 C 
BRANCH  13  14
ATOM     14  C   UNL     1      -6.710 -24.077  -6.255  1.00  0.00    -0.000 C 
BRANCH  14  15
ATOM     15  C   UNL     1      -6.657 -23.198  -7.513  1.00  0.00    -0.003 C 
ATOM     16  C   UNL     1      -5.445 -22.271  -7.484  1.00  0.00     0.004 C 
ENDBRANCH  14  15
ENDBRANCH  13  14
ENDBRANCH  12  13
ENDBRANCH  11  12
ENDBRANCH  10  11
ENDBRANCH   1  10
TORSDOF 12
ENDMDL
MODEL 5
REMARK VINA RESULT:    -4.011      1.272      2.910
REMARK INTER + INTRA:          -8.626
REMARK INTER:                  -7.176
REMARK INTRA:                  -1.451
REMARK UNBOUND:                -1.802
REMARK SMILES CCCCCCCCCCCCCC(=O)[O-]
REMARK SMILES IDX 8 1 9 2 10 3 11 4 12 5 13 6 14 7 15 8 16 9 7 10 6 11 5 12
REMARK SMILES IDX 4 13 3 14 2 15 1 16
REMARK H PARENT
REMARK Flexibility Score: inf
ROOT
ATOM      1  C   UNL     1       1.118 -22.459 -12.391  1.00  0.00     0.000 C 
ENDROOT
BRANCH   1   2
ATOM      2  C   UNL     1       0.584 -21.015 -12.368  1.00  0.00     0.000 C 
BRANCH   2   3
ATOM      3  C   UNL     1       1.124 -20.167 -13.530  1.00  0.00     0.000 C 
BRANCH   3   4
ATOM      4  C   UNL     1       2.551 -20.563 -13.938  1.00  0.00     0.000 C 
BRANCH   4   5
ATOM      5  C   UNL     1       3.588 -19.875 -13.042  1.00  0.00     0.006 C 
BRANCH   5   6
ATOM      6  C   UNL     1       4.497 -20.904 -12.365  1.00  0.00     0.053 C 
BRANCH   6   7
ATOM      7  C   UNL     1       4.106 -21.084 -10.931  1.00  0.00     0.041 C 
ATOM      8  O   UNL     1       4.089 -22.234 -10.419  1.00  0.00    -0.550 OA
ATOM      9  O   UNL     1       3.714 -19.988 -10.175  1.00  0.00    -0.550 OA
ENDBRANCH   6   7
ENDBRANCH   5   6
ENDBRANCH   4   5
ENDBRANCH   3   4
ENDBRANCH   2   3
ENDBRANCH   1   2
BRANCH   1  10
ATOM     10  C   UNL     1       0.122 -23.466 -11.797  1.00  0.00     0.000 C 
BRANCH  10  11
ATOM     11  C   UNL     1      -0.760 -24.126 -12.867  1.00  0.00    -0.000 C 
BRANCH  11  12
ATOM     12  C   UNL     1       0.031 -25.169 -13.666  1.00  0.00    -0.000 C 
BRANCH  12  13
ATOM     13  C   UNL     1       0.275 -24.691 -15.105  1.00  0.00    -0.000 C 
BRANCH  13  14
ATOM     14  C   UNL     1      -1.013 -24.225 -15.802  1.00  0.00    -0.000 C 
BRANCH  14  15
ATOM     15  C   UNL     1      -0.831 -22.898 -16.554  1.00  0.00    -0.003 C 
ATOM     16  C   UNL     1       0.614 -22.416 -16.474  1.00  0.00     0.004 C 
ENDBRANCH  14  15
ENDBRANCH  13  14
ENDBRANCH  12  13
ENDBRANCH  11  12
ENDBRANCH  10  11
ENDBRANCH   1  10
TORSDOF 12
ENDMDL
MODEL 6
REMARK VINA RESULT:    -4.005      1.710      3.029
REMARK INTER + INTRA:          -8.616
REMARK INTER:                  -7.297
REMARK INTRA:                  -1.319
REMARK UNBOUND:                -1.802
REMARK SMILES CCCCCCCCCCCCCC(=O)[O-]
REMARK SMILES IDX 8 1 9 2 10 3 11 4 12 5 13 6 14 7 15 8 16 9 7 10 6 11 5 12
REMARK SMILES IDX 4 13 3 14 2 15 1 16
REMARK H PARENT
REMARK Flexibility Score: inf
ROOT
ATOM      1  C   UNL     1      -0.159 -23.294 -16.290  1.00  0.00     0.000 C 
ENDROOT
BRANCH   1   2
ATOM      2  C   UNL     1       0.848 -22.253 -15.767  1.00  0.00     0.000 C 
BRANCH   2   3
ATOM      3  C   UNL     1       0.185 -20.911 -15.422  1.00  0.00     0.000 C 
BRANCH   3   4
ATOM      4  C   UNL     1       0.635 -20.361 -14.061  1.00  0.00     0.000 C 
BRANCH   4   5
ATOM      5  C   UNL     1       2.165 -20.350 -13.952  1.00  0.00     0.006 C 
BRANCH   5   6
ATOM      6  C   UNL     1       2.629 -21.050 -12.672  1.00  0.00     0.053 C 
BRANCH   6   7
ATOM      7  C   UNL     1       4.107 -20.889 -12.494  1.00  0.00     0.041 C 
ATOM      8  O   UNL     1       4.743 -20.058 -13.194  1.00  0.00    -0.550 OA
ATOM      9  O   UNL     1       4.788 -21.692 -11.588  1.00  0.00    -0.550 OA
ENDBRANCH   6   7
ENDBRANCH   5   6
ENDBRANCH   4   5
ENDBRANCH   3   4
ENDBRANCH   2   3
ENDBRANCH   1   2
BRANCH   1  10
ATOM     10  C   UNL     1      -0.473 -24.384 -15.255  1.00  0.00     0.000 C 
BRANCH  10  11
ATOM     11  C   UNL     1      -1.900 -24.935 -15.392  1.00  0.00    -0.000 C 
BRANCH  11  12
ATOM     12  C   UNL     1      -2.640 -24.264 -16.555  1.00  0.00    -0.000 C 
BRANCH  12  13
ATOM     13  C   UNL     1      -4.065 -23.863 -16.145  1.00  0.00    -0.000 C 
BRANCH  13  14
ATOM     14  C   UNL     1      -4.358 -22.376 -16.397  1.00  0.00    -0.000 C 
BRANCH  14  15
ATOM     15  C   UNL     1      -3.381 -21.447 -15.661  1.00  0.00    -0.003 C 
ATOM     16  C   UNL     1      -3.473 -21.640 -14.150  1.00  0.00     0.004 C 
ENDBRANCH  14  15
ENDBRANCH  13  14
ENDBRANCH  12  13
ENDBRANCH  11  12
ENDBRANCH  10  11
ENDBRANCH   1  10
TORSDOF 12
ENDMDL
MODEL 7
REMARK VINA RESULT:    -3.984     11.249     13.383
REMARK INTER + INTRA:          -8.581
REMARK INTER:                  -6.930
REMARK INTRA:                  -1.651
REMARK UNBOUND:                -1.802
REMARK SMILES CCCCCCCCCCCCCC(=O)[O-]
REMARK SMILES IDX 8 1 9 2 10 3 11 4 12 5 13 6 14 7 15 8 16 9 7 10 6 11 5 12
REMARK SMILES IDX 4 13 3 14 2 15 1 16
REMARK H PARENT
REMARK Flexibility Score: inf
ROOT
ATOM      1  C   UNL     1      -9.297 -28.608 -15.429  1.00  0.00     0.000 C 
ENDROOT
BRANCH   1   2
ATOM      2  C   UNL     1     -10.473 -28.916 -16.374  1.00  0.00     0.000 C 
BRANCH   2   3
ATOM      3  C   UNL     1     -10.014 -29.222 -17.808  1.00  0.00     0.000 C 
BRANCH   3   4
ATOM      4  C   UNL     1      -8.506 -29.006 -18.004  1.00  0.00     0.000 C 
BRANCH   4   5
ATOM      5  C   UNL     1      -7.938 -30.001 -19.024  1.00  0.00     0.006 C 
BRANCH   5   6
ATOM      6  C   UNL     1      -8.477 -31.411 -18.774  1.00  0.00     0.053 C 
BRANCH   6   7
ATOM      7  C   UNL     1      -7.794 -32.032 -17.596  1.00  0.00     0.041 C 
ATOM      8  O   UNL     1      -6.548 -32.210 -17.606  1.00  0.00    -0.550 OA
ATOM      9  O   UNL     1      -8.542 -32.461 -16.507  1.00  0.00    -0.550 OA
ENDBRANCH   6   7
ENDBRANCH   5   6
ENDBRANCH   4   5
ENDBRANCH   3   4
ENDBRANCH   2   3
ENDBRANCH   1   2
BRANCH   1  10
ATOM     10  C   UNL     1      -9.656 -27.565 -14.360  1.00  0.00     0.000 C 
BRANCH  10  11
ATOM     11  C   UNL     1     -10.134 -26.238 -14.967  1.00  0.00    -0.000 C 
BRANCH  11  12
ATOM     12  C   UNL     1      -8.953 -25.420 -15.502  1.00  0.00    -0.000 C 
BRANCH  12  13
ATOM     13  C   UNL     1      -9.355 -24.627 -16.755  1.00  0.00    -0.000 C 
BRANCH  13  14
ATOM     14  C   UNL     1      -9.711 -25.534 -17.943  1.00  0.00    -0.000 C 
BRANCH  14  15
ATOM     15  C   UNL     1      -8.731 -25.384 -19.116  1.00  0.00    -0.003 C 
ATOM     16  C   UNL     1      -7.286 -25.504 -18.642  1.00  0.00     0.004 C 
ENDBRANCH  14  15
ENDBRANCH  13  14
ENDBRANCH  12  13
ENDBRANCH  11  12
ENDBRANCH  10  11
ENDBRANCH   1  10
TORSDOF 12
ENDMDL
MODEL 8
REMARK VINA RESULT:    -3.984     11.108     12.908
REMARK INTER + INTRA:          -8.580
REMARK INTER:                  -7.134
REMARK INTRA:                  -1.446
REMARK UNBOUND:                -1.802
REMARK SMILES CCCCCCCCCCCCCC(=O)[O-]
REMARK SMILES IDX 8 1 9 2 10 3 11 4 12 5 13 6 14 7 15 8 16 9 7 10 6 11 5 12
REMARK SMILES IDX 4 13 3 14 2 15 1 16
REMARK H PARENT
REMARK Flexibility Score: inf
ROOT
ATOM      1  C   UNL     1      -5.793 -23.928  -4.457  1.00  0.00     0.000 C 
ENDROOT
BRANCH   1   2
ATOM      2  C   UNL     1      -5.505 -24.841  -5.664  1.00  0.00     0.000 C 
BRANCH   2   3
ATOM      3  C   UNL     1      -6.377 -24.500  -6.883  1.00  0.00     0.000 C 
BRANCH   3   4
ATOM      4  C   UNL     1      -7.139 -23.177  -6.713  1.00  0.00     0.000 C 
BRANCH   4   5
ATOM      5  C   UNL     1      -8.376 -23.137  -7.618  1.00  0.00     0.006 C 
BRANCH   5   6
ATOM      6  C   UNL     1      -8.365 -21.891  -8.507  1.00  0.00     0.053 C 
BRANCH   6   7
ATOM      7  C   UNL     1      -9.732 -21.284  -8.575  1.00  0.00     0.041 C 
ATOM      8  O   UNL     1     -10.111 -20.693  -9.620  1.00  0.00    -0.550 OA
ATOM      9  O   UNL     1     -10.567 -21.327  -7.467  1.00  0.00    -0.550 OA
ENDBRANCH   6   7
ENDBRANCH   5   6
ENDBRANCH   4   5
ENDBRANCH   3   4
ENDBRANCH   2   3
ENDBRANCH   1   2
BRANCH   1  10
ATOM     10  C   UNL     1      -4.548 -23.161  -3.987  1.00  0.00     0.000 C 
BRANCH  10  11
ATOM     11  C   UNL     1      -4.892 -21.796  -3.372  1.00  0.00    -0.000 C 
BRANCH  11  12
ATOM     12  C   UNL     1      -6.318 -21.790  -2.809  1.00  0.00    -0.000 C 
BRANCH  12  13
ATOM     13  C   UNL     1      -7.038 -20.475  -3.147  1.00  0.00    -0.000 C 
BRANCH  13  14
ATOM     14  C   UNL     1      -6.961 -20.124  -4.641  1.00  0.00    -0.000 C 
BRANCH  14  15
ATOM     15  C   UNL     1      -8.311 -19.662  -5.209  1.00  0.00    -0.003 C 
ATOM     16  C   UNL     1      -8.115 -18.641  -6.327  1.00  0.00     0.004 C 
ENDBRANCH  14  15
ENDBRANCH  13  14
ENDBRANCH  12  13
ENDBRANCH  11  12
ENDBRANCH  10  11
ENDBRANCH   1  10
TORSDOF 12
ENDMDL
MODEL 9
REMARK VINA RESULT:    -3.882     10.173     11.547
REMARK INTER + INTRA:          -8.407
REMARK INTER:                  -6.759
REMARK INTRA:                  -1.649
REMARK UNBOUND:                -1.802
REMARK SMILES CCCCCCCCCCCCCC(=O)[O-]
REMARK SMILES IDX 8 1 9 2 10 3 11 4 12 5 13 6 14 7 15 8 16 9 7 10 6 11 5 12
REMARK SMILES IDX 4 13 3 14 2 15 1 16
REMARK H PARENT
REMARK Flexibility Score: inf
ROOT
ATOM      1  C   UNL     1      -7.630 -25.177 -17.515  1.00  0.00     0.000 C 
ENDROOT
BRANCH   1   2
ATOM      2  C   UNL     1      -7.967 -24.529 -16.159  1.00  0.00     0.000 C 
BRANCH   2   3
ATOM      3  C   UNL     1      -9.479 -24.348 -15.951  1.00  0.00     0.000 C 
BRANCH   3   4
ATOM      4  C   UNL     1     -10.094 -25.464 -15.094  1.00  0.00     0.000 C 
BRANCH   4   5
ATOM      5  C   UNL     1      -9.919 -25.169 -13.599  1.00  0.00     0.006 C 
BRANCH   5   6
ATOM      6  C   UNL     1      -9.748 -26.463 -12.800  1.00  0.00     0.053 C 
BRANCH   6   7
ATOM      7  C   UNL     1      -8.330 -26.616 -12.347  1.00  0.00     0.041 C 
ATOM      8  O   UNL     1      -7.985 -26.222 -11.202  1.00  0.00    -0.550 OA
ATOM      9  O   UNL     1      -7.379 -27.148 -13.208  1.00  0.00    -0.550 OA
ENDBRANCH   6   7
ENDBRANCH   5   6
ENDBRANCH   4   5
ENDBRANCH   3   4
ENDBRANCH   2   3
ENDBRANCH   1   2
BRANCH   1  10
ATOM     10  C   UNL     1      -8.836 -25.219 -18.465  1.00  0.00     0.000 C 
BRANCH  10  11
ATOM     11  C   UNL     1      -9.317 -26.650 -18.745  1.00  0.00    -0.000 C 
BRANCH  11  12
ATOM     12  C   UNL     1      -8.174 -27.658 -18.579  1.00  0.00    -0.000 C 
BRANCH  12  13
ATOM     13  C   UNL     1      -8.622 -28.868 -17.745  1.00  0.00    -0.000 C 
BRANCH  13  14
ATOM     14  C   UNL     1      -8.650 -28.572 -16.238  1.00  0.00    -0.000 C 
BRANCH  14  15
ATOM     15  C   UNL     1      -9.933 -29.074 -15.560  1.00  0.00    -0.003 C 
ATOM     16  C   UNL     1     -10.832 -29.800 -16.558  1.00  0.00     0.004 C 
ENDBRANCH  14  15
ENDBRANCH  13  14
ENDBRANCH  12  13
ENDBRANCH  11  12
ENDBRANCH  10  11
ENDBRANCH   1  10
TORSDOF 12
ENDMDL
