MODEL 1
REMARK VINA RESULT:     2.431      0.000      0.000
REMARK INTER + INTRA:           1.869
REMARK INTER:                   3.283
REMARK INTRA:                  -1.414
REMARK UNBOUND:                -1.414
REMARK SMILES CC[C@@H](CC[C@@H](C)[C@H]1CC[C@@H]2[C@H]3CC(=O)C4=CC(=O)CC[C@]4(C)[C@@H]3CC[C@]21C)C(C)C
REMARK SMILES IDX 4 1 3 2 2 3 1 4 29 5 30 6 31 7 5 8 6 9 7 10 8 11 9 12 27 13
REMARK SMILES IDX 10 14 11 15 26 16 28 17 12 18 25 19 24 20 13 21 22 22 14 23
REMARK SMILES IDX 16 24 21 25 23 26 15 27 17 28 20 29 18 30 19 31
REMARK H PARENT
REMARK Flexibility Score: inf
ROOT
ATOM      1  C   UNL     1       1.409  11.966  29.249  1.00  0.00     0.004 C 
ENDROOT
BRANCH   1   2
ATOM      2  C   UNL     1       0.409  12.941  29.936  1.00  0.00    -0.009 C 
BRANCH   2   3
ATOM      3  C   UNL     1       0.536  14.373  29.329  1.00  0.00     0.000 C 
ATOM      4  C   UNL     1      -0.534  14.658  28.272  1.00  0.00     0.004 C 
ENDBRANCH   2   3
BRANCH   2   5
ATOM      5  C   UNL     1       0.498  12.947  31.503  1.00  0.00    -0.014 C 
ATOM      6  C   UNL     1       1.367  11.797  32.045  1.00  0.00     0.007 C 
ATOM      7  C   UNL     1      -0.897  12.855  32.145  1.00  0.00     0.007 C 
ENDBRANCH   2   5
ENDBRANCH   1   2
BRANCH   1   8
ATOM      8  C   UNL     1       1.664  12.253  27.750  1.00  0.00     0.004 C 
BRANCH   8   9
ATOM      9  C   UNL     1       2.840  11.395  27.183  1.00  0.00    -0.011 C 
ATOM     10  C   UNL     1       2.747  11.398  25.632  1.00  0.00     0.008 C 
BRANCH   9  11
ATOM     11  C   UNL     1       4.241  11.911  27.681  1.00  0.00    -0.002 C 
ATOM     12  C   UNL     1       4.317  13.469  27.770  1.00  0.00     0.005 C 
ATOM     13  C   UNL     1       4.749  11.427  29.098  1.00  0.00    -0.026 C 
ATOM     14  C   UNL     1       4.873  13.837  29.141  1.00  0.00     0.005 C 
ATOM     15  C   UNL     1       4.474  12.649  29.987  1.00  0.00    -0.001 C 
ATOM     16  C   UNL     1       4.040  10.226  29.780  1.00  0.00     0.007 C 
ATOM     17  C   UNL     1       6.272  11.109  28.950  1.00  0.00     0.012 C 
ATOM     18  C   UNL     1       5.064  12.546  31.414  1.00  0.00     0.004 C 
ATOM     19  C   UNL     1       4.549  10.002  31.222  1.00  0.00     0.005 C 
ATOM     20  C   UNL     1       4.486  11.279  32.121  1.00  0.00     0.003 C 
ATOM     21  C   UNL     1       4.673  13.800  32.226  1.00  0.00     0.085 C 
ATOM     22  C   UNL     1       5.063  11.068  33.591  1.00  0.00    -0.000 C 
ATOM     23  C   UNL     1       5.064  13.680  33.663  1.00  0.00     0.159 C 
ATOM     24  C   UNL     1       5.549  12.393  34.204  1.00  0.00     0.005 C 
ATOM     25  C   UNL     1       6.252  10.054  33.618  1.00  0.00     0.020 C 
ATOM     26  C   UNL     1       3.914  10.532  34.484  1.00  0.00     0.017 C 
ATOM     27  O   UNL     1       4.984  14.697  34.405  1.00  0.00    -0.295 OA
ATOM     28  C   UNL     1       6.426  12.410  35.225  1.00  0.00     0.055 C 
ATOM     29  C   UNL     1       6.877   9.875  35.011  1.00  0.00     0.081 C 
ATOM     30  C   UNL     1       7.084  11.187  35.704  1.00  0.00     0.156 C 
ATOM     31  O   UNL     1       7.826  11.241  36.721  1.00  0.00    -0.295 OA
ENDBRANCH   9  11
ENDBRANCH   8   9
ENDBRANCH   1   8
TORSDOF 6
ENDMDL
