MODEL 1
REMARK VINA RESULT:    -3.885      0.000      0.000
REMARK INTER + INTRA:          -4.497
REMARK INTER:                  -4.452
REMARK INTRA:                  -0.045
REMARK UNBOUND:                -0.045
REMARK SMILES CC(C)[C@H]([NH3+])C(=O)[O-]
REMARK SMILES IDX 4 1 5 2 6 6 7 7 8 8 2 9 1 10 3 11
REMARK H PARENT 5 3 5 4 5 5
REMARK Flexibility Score: inf
ROOT
ATOM      1  C   UNL     1      -6.520   3.528  -0.685  1.00  0.00     0.230 C 
ENDROOT
BRANCH   1   2
ATOM      2  N   UNL     1      -6.040   4.801  -0.128  1.00  0.00    -0.350 N 
ATOM      3  H   UNL     1      -6.212   4.828   0.904  1.00  0.00     0.345 HD
ATOM      4  H   UNL     1      -5.009   4.885  -0.287  1.00  0.00     0.345 HD
ATOM      5  H   UNL     1      -6.512   5.617  -0.576  1.00  0.00     0.345 HD
ENDBRANCH   1   2
BRANCH   1   6
ATOM      6  C   UNL     1      -7.931   3.665  -1.205  1.00  0.00     0.099 C 
ATOM      7  O   UNL     1      -8.785   4.351  -0.581  1.00  0.00    -0.544 OA
ATOM      8  O   UNL     1      -8.305   3.005  -2.368  1.00  0.00    -0.544 OA
ENDBRANCH   1   6
BRANCH   1   9
ATOM      9  C   UNL     1      -6.364   2.357   0.333  1.00  0.00     0.047 C 
ATOM     10  C   UNL     1      -5.602   1.145  -0.231  1.00  0.00     0.014 C 
ATOM     11  C   UNL     1      -5.704   2.834   1.635  1.00  0.00     0.014 C 
ENDBRANCH   1   9
TORSDOF 3
ENDMDL
MODEL 2
REMARK VINA RESULT:    -3.854      0.523      1.322
REMARK INTER + INTRA:          -4.463
REMARK INTER:                  -4.484
REMARK INTRA:                   0.022
REMARK UNBOUND:                -0.045
REMARK SMILES CC(C)[C@H]([NH3+])C(=O)[O-]
REMARK SMILES IDX 4 1 5 2 6 6 7 7 8 8 2 9 1 10 3 11
REMARK H PARENT 5 3 5 4 5 5
REMARK Flexibility Score: inf
ROOT
ATOM      1  C   UNL     1      -6.312   3.508  -0.910  1.00  0.00     0.230 C 
ENDROOT
BRANCH   1   2
ATOM      2  N   UNL     1      -5.827   4.800  -0.405  1.00  0.00    -0.350 N 
ATOM      3  H   UNL     1      -6.083   5.565  -1.072  1.00  0.00     0.345 HD
ATOM      4  H   UNL     1      -6.281   5.008   0.515  1.00  0.00     0.345 HD
ATOM      5  H   UNL     1      -4.792   4.795  -0.270  1.00  0.00     0.345 HD
ENDBRANCH   1   2
BRANCH   1   6
ATOM      6  C   UNL     1      -7.800   3.553  -1.164  1.00  0.00     0.099 C 
ATOM      7  O   UNL     1      -8.587   4.042  -0.309  1.00  0.00    -0.544 OA
ATOM      8  O   UNL     1      -8.316   3.026  -2.341  1.00  0.00    -0.544 OA
ENDBRANCH   1   6
BRANCH   1   9
ATOM      9  C   UNL     1      -5.896   2.330   0.023  1.00  0.00     0.047 C 
ATOM     10  C   UNL     1      -5.921   2.688   1.519  1.00  0.00     0.014 C 
ATOM     11  C   UNL     1      -6.757   1.084  -0.234  1.00  0.00     0.014 C 
ENDBRANCH   1   9
TORSDOF 3
ENDMDL
MODEL 3
REMARK VINA RESULT:    -3.798      3.630      4.502
REMARK INTER + INTRA:          -4.398
REMARK INTER:                  -4.325
REMARK INTRA:                  -0.072
REMARK UNBOUND:                -0.045
REMARK SMILES CC(C)[C@H]([NH3+])C(=O)[O-]
REMARK SMILES IDX 4 1 5 2 6 6 7 7 8 8 2 9 1 10 3 11
REMARK H PARENT 5 3 5 4 5 5
REMARK Flexibility Score: inf
ROOT
ATOM      1  C   UNL     1      -5.567   0.192   0.036  1.00  0.00     0.230 C 
ENDROOT
BRANCH   1   2
ATOM      2  N   UNL     1      -5.157   1.467  -0.570  1.00  0.00    -0.350 N 
ATOM      3  H   UNL     1      -5.920   1.833  -1.185  1.00  0.00     0.345 HD
ATOM      4  H   UNL     1      -4.983   2.171   0.184  1.00  0.00     0.345 HD
ATOM      5  H   UNL     1      -4.284   1.360  -1.132  1.00  0.00     0.345 HD
ENDBRANCH   1   2
BRANCH   1   6
ATOM      6  C   UNL     1      -5.145  -0.975  -0.825  1.00  0.00     0.099 C 
ATOM      7  O   UNL     1      -5.687  -1.180  -1.945  1.00  0.00    -0.544 OA
ATOM      8  O   UNL     1      -4.168  -1.851  -0.370  1.00  0.00    -0.544 OA
ENDBRANCH   1   6
BRANCH   1   9
ATOM      9  C   UNL     1      -7.090   0.174   0.370  1.00  0.00     0.047 C 
ATOM     10  C   UNL     1      -7.513  -1.002   1.265  1.00  0.00     0.014 C 
ATOM     11  C   UNL     1      -7.539   1.502   0.997  1.00  0.00     0.014 C 
ENDBRANCH   1   9
TORSDOF 3
ENDMDL
MODEL 4
REMARK VINA RESULT:    -3.762      2.426      3.266
REMARK INTER + INTRA:          -4.356
REMARK INTER:                  -4.303
REMARK INTRA:                  -0.054
REMARK UNBOUND:                -0.045
REMARK SMILES CC(C)[C@H]([NH3+])C(=O)[O-]
REMARK SMILES IDX 4 1 5 2 6 6 7 7 8 8 2 9 1 10 3 11
REMARK H PARENT 5 3 5 4 5 5
REMARK Flexibility Score: inf
ROOT
ATOM      1  C   UNL     1      -6.436   1.138  -0.203  1.00  0.00     0.230 C 
ENDROOT
BRANCH   1   2
ATOM      2  N   UNL     1      -5.287   2.014  -0.476  1.00  0.00    -0.350 N 
ATOM      3  H   UNL     1      -4.874   1.781  -1.409  1.00  0.00     0.345 HD
ATOM      4  H   UNL     1      -5.607   3.010  -0.503  1.00  0.00     0.345 HD
ATOM      5  H   UNL     1      -4.551   1.922   0.258  1.00  0.00     0.345 HD
ENDBRANCH   1   2
BRANCH   1   6
ATOM      6  C   UNL     1      -7.436   1.827   0.696  1.00  0.00     0.099 C 
ATOM      7  O   UNL     1      -8.624   2.013   0.316  1.00  0.00    -0.544 OA
ATOM      8  O   UNL     1      -7.040   2.289   1.944  1.00  0.00    -0.544 OA
ENDBRANCH   1   6
BRANCH   1   9
ATOM      9  C   UNL     1      -5.986  -0.249   0.349  1.00  0.00     0.047 C 
ATOM     10  C   UNL     1      -7.131  -1.069   0.967  1.00  0.00     0.014 C 
ATOM     11  C   UNL     1      -5.271  -1.074  -0.731  1.00  0.00     0.014 C 
ENDBRANCH   1   9
TORSDOF 3
ENDMDL
MODEL 5
REMARK VINA RESULT:    -3.754      1.676      2.070
REMARK INTER + INTRA:          -4.348
REMARK INTER:                  -4.296
REMARK INTRA:                  -0.052
REMARK UNBOUND:                -0.045
REMARK SMILES CC(C)[C@H]([NH3+])C(=O)[O-]
REMARK SMILES IDX 4 1 5 2 6 6 7 7 8 8 2 9 1 10 3 11
REMARK H PARENT 5 3 5 4 5 5
REMARK Flexibility Score: inf
ROOT
ATOM      1  C   UNL     1      -5.782   2.148  -0.342  1.00  0.00     0.230 C 
ENDROOT
BRANCH   1   2
ATOM      2  N   UNL     1      -5.582   2.694   1.008  1.00  0.00    -0.350 N 
ATOM      3  H   UNL     1      -6.498   3.000   1.410  1.00  0.00     0.345 HD
ATOM      4  H   UNL     1      -5.188   1.950   1.631  1.00  0.00     0.345 HD
ATOM      5  H   UNL     1      -4.923   3.504   1.001  1.00  0.00     0.345 HD
ENDBRANCH   1   2
BRANCH   1   6
ATOM      6  C   UNL     1      -6.656   3.061  -1.168  1.00  0.00     0.099 C 
ATOM      7  O   UNL     1      -7.893   2.846  -1.278  1.00  0.00    -0.544 OA
ATOM      8  O   UNL     1      -6.089   4.136  -1.842  1.00  0.00    -0.544 OA
ENDBRANCH   1   6
BRANCH   1   9
ATOM      9  C   UNL     1      -6.312   0.682  -0.300  1.00  0.00     0.047 C 
ATOM     10  C   UNL     1      -5.275  -0.363  -0.743  1.00  0.00     0.014 C 
ATOM     11  C   UNL     1      -6.857   0.326   1.092  1.00  0.00     0.014 C 
ENDBRANCH   1   9
TORSDOF 3
ENDMDL
MODEL 6
REMARK VINA RESULT:    -3.749      0.567      1.730
REMARK INTER + INTRA:          -4.342
REMARK INTER:                  -4.328
REMARK INTRA:                  -0.014
REMARK UNBOUND:                -0.045
REMARK SMILES CC(C)[C@H]([NH3+])C(=O)[O-]
REMARK SMILES IDX 4 1 5 2 6 6 7 7 8 8 2 9 1 10 3 11
REMARK H PARENT 5 3 5 4 5 5
REMARK Flexibility Score: inf
ROOT
ATOM      1  C   UNL     1      -6.376   3.598  -0.510  1.00  0.00     0.230 C 
ENDROOT
BRANCH   1   2
ATOM      2  N   UNL     1      -5.979   4.883   0.085  1.00  0.00    -0.350 N 
ATOM      3  H   UNL     1      -5.061   5.192  -0.310  1.00  0.00     0.345 HD
ATOM      4  H   UNL     1      -6.694   5.610  -0.150  1.00  0.00     0.345 HD
ATOM      5  H   UNL     1      -5.901   4.817   1.124  1.00  0.00     0.345 HD
ENDBRANCH   1   2
BRANCH   1   6
ATOM      6  C   UNL     1      -7.817   3.635  -0.960  1.00  0.00     0.099 C 
ATOM      7  O   UNL     1      -8.206   2.939  -1.937  1.00  0.00    -0.544 OA
ATOM      8  O   UNL     1      -8.721   4.467  -0.313  1.00  0.00    -0.544 OA
ENDBRANCH   1   6
BRANCH   1   9
ATOM      9  C   UNL     1      -6.073   2.402   0.444  1.00  0.00     0.047 C 
ATOM     10  C   UNL     1      -7.224   2.077   1.411  1.00  0.00     0.014 C 
ATOM     11  C   UNL     1      -5.678   1.145  -0.345  1.00  0.00     0.014 C 
ENDBRANCH   1   9
TORSDOF 3
ENDMDL
MODEL 7
REMARK VINA RESULT:    -3.689      1.723      2.295
REMARK INTER + INTRA:          -4.273
REMARK INTER:                  -4.273
REMARK INTRA:                   0.001
REMARK UNBOUND:                -0.045
REMARK SMILES CC(C)[C@H]([NH3+])C(=O)[O-]
REMARK SMILES IDX 4 1 5 2 6 6 7 7 8 8 2 9 1 10 3 11
REMARK H PARENT 5 3 5 4 5 5
REMARK Flexibility Score: inf
ROOT
ATOM      1  C   UNL     1      -6.409   3.645  -0.318  1.00  0.00     0.230 C 
ENDROOT
BRANCH   1   2
ATOM      2  N   UNL     1      -5.942   4.314  -1.541  1.00  0.00    -0.350 N 
ATOM      3  H   UNL     1      -6.759   4.586  -2.135  1.00  0.00     0.345 HD
ATOM      4  H   UNL     1      -5.423   5.187  -1.285  1.00  0.00     0.345 HD
ATOM      5  H   UNL     1      -5.304   3.700  -2.094  1.00  0.00     0.345 HD
ENDBRANCH   1   2
BRANCH   1   6
ATOM      6  C   UNL     1      -7.812   3.116  -0.497  1.00  0.00     0.099 C 
ATOM      7  O   UNL     1      -8.588   3.618  -1.354  1.00  0.00    -0.544 OA
ATOM      8  O   UNL     1      -8.268   2.081   0.311  1.00  0.00    -0.544 OA
ENDBRANCH   1   6
BRANCH   1   9
ATOM      9  C   UNL     1      -6.267   4.564   0.933  1.00  0.00     0.047 C 
ATOM     10  C   UNL     1      -7.575   5.264   1.338  1.00  0.00     0.014 C 
ATOM     11  C   UNL     1      -5.691   3.792   2.130  1.00  0.00     0.014 C 
ENDBRANCH   1   9
TORSDOF 3
ENDMDL
MODEL 8
REMARK VINA RESULT:    -3.670      1.767      2.331
REMARK INTER + INTRA:          -4.251
REMARK INTER:                  -4.202
REMARK INTRA:                  -0.049
REMARK UNBOUND:                -0.045
REMARK SMILES CC(C)[C@H]([NH3+])C(=O)[O-]
REMARK SMILES IDX 4 1 5 2 6 6 7 7 8 8 2 9 1 10 3 11
REMARK H PARENT 5 3 5 4 5 5
REMARK Flexibility Score: inf
ROOT
ATOM      1  C   UNL     1      -6.327   2.762   0.011  1.00  0.00     0.230 C 
ENDROOT
BRANCH   1   2
ATOM      2  N   UNL     1      -5.228   1.853  -0.346  1.00  0.00    -0.350 N 
ATOM      3  H   UNL     1      -5.285   0.980   0.228  1.00  0.00     0.345 HD
ATOM      4  H   UNL     1      -5.312   1.583  -1.354  1.00  0.00     0.345 HD
ATOM      5  H   UNL     1      -4.296   2.300  -0.199  1.00  0.00     0.345 HD
ENDBRANCH   1   2
BRANCH   1   6
ATOM      6  C   UNL     1      -6.865   3.463  -1.215  1.00  0.00     0.099 C 
ATOM      7  O   UNL     1      -6.110   4.165  -1.941  1.00  0.00    -0.544 OA
ATOM      8  O   UNL     1      -8.213   3.359  -1.533  1.00  0.00    -0.544 OA
ENDBRANCH   1   6
BRANCH   1   9
ATOM      9  C   UNL     1      -5.911   3.755   1.138  1.00  0.00     0.047 C 
ATOM     10  C   UNL     1      -6.900   4.917   1.335  1.00  0.00     0.014 C 
ATOM     11  C   UNL     1      -5.687   3.024   2.471  1.00  0.00     0.014 C 
ENDBRANCH   1   9
TORSDOF 3
ENDMDL
MODEL 9
REMARK VINA RESULT:    -3.644      4.462      5.330
REMARK INTER + INTRA:          -4.222
REMARK INTER:                  -4.166
REMARK INTRA:                  -0.056
REMARK UNBOUND:                -0.045
REMARK SMILES CC(C)[C@H]([NH3+])C(=O)[O-]
REMARK SMILES IDX 4 1 5 2 6 6 7 7 8 8 2 9 1 10 3 11
REMARK H PARENT 5 3 5 4 5 5
REMARK Flexibility Score: inf
ROOT
ATOM      1  C   UNL     1      -6.086  -1.491   0.861  1.00  0.00     0.230 C 
ENDROOT
BRANCH   1   2
ATOM      2  N   UNL     1      -5.278  -1.409   2.087  1.00  0.00    -0.350 N 
ATOM      3  H   UNL     1      -4.624  -0.595   2.031  1.00  0.00     0.345 HD
ATOM      4  H   UNL     1      -5.908  -1.263   2.910  1.00  0.00     0.345 HD
ATOM      5  H   UNL     1      -4.727  -2.283   2.242  1.00  0.00     0.345 HD
ENDBRANCH   1   2
BRANCH   1   6
ATOM      6  C   UNL     1      -5.205  -1.657  -0.354  1.00  0.00     0.099 C 
ATOM      7  O   UNL     1      -5.597  -1.284  -1.493  1.00  0.00    -0.544 OA
ATOM      8  O   UNL     1      -3.957  -2.255  -0.226  1.00  0.00    -0.544 OA
ENDBRANCH   1   6
BRANCH   1   9
ATOM      9  C   UNL     1      -7.067  -0.286   0.734  1.00  0.00     0.047 C 
ATOM     10  C   UNL     1      -8.409  -0.503   1.451  1.00  0.00     0.014 C 
ATOM     11  C   UNL     1      -6.415   1.018   1.220  1.00  0.00     0.014 C 
ENDBRANCH   1   9
TORSDOF 3
ENDMDL
