MODEL 1
REMARK VINA RESULT:    -3.188      0.000      0.000
REMARK INTER + INTRA:          -6.453
REMARK INTER:                  -5.517
REMARK INTRA:                  -0.936
REMARK UNBOUND:                -0.936
REMARK SMILES CCCCCCCCCCCCCCO
REMARK SMILES IDX 8 1 7 2 6 3 5 4 4 5 3 6 2 7 1 8 9 9 10 10 11 11 12 12 13 13
REMARK SMILES IDX 14 14 15 15
REMARK H PARENT 15 16
REMARK Flexibility Score: inf
ROOT
ATOM      1  C   UNL     1     139.878 143.344 142.824  1.00  0.00     0.000 C 
ENDROOT
BRANCH   1   2
ATOM      2  C   UNL     1     141.197 143.918 142.266  1.00  0.00    -0.000 C 
BRANCH   2   3
ATOM      3  C   UNL     1     142.023 144.748 143.268  1.00  0.00    -0.000 C 
BRANCH   3   4
ATOM      4  C   UNL     1     141.850 146.273 143.143  1.00  0.00    -0.000 C 
BRANCH   4   5
ATOM      5  C   UNL     1     142.524 146.876 141.893  1.00  0.00    -0.000 C 
BRANCH   5   6
ATOM      6  C   UNL     1     141.739 148.062 141.313  1.00  0.00    -0.000 C 
BRANCH   6   7
ATOM      7  C   UNL     1     140.245 147.735 141.211  1.00  0.00    -0.003 C 
ATOM      8  C   UNL     1     139.953 146.871 139.988  1.00  0.00     0.004 C 
ENDBRANCH   6   7
ENDBRANCH   5   6
ENDBRANCH   4   5
ENDBRANCH   3   4
ENDBRANCH   2   3
ENDBRANCH   1   2
BRANCH   1   9
ATOM      9  C   UNL     1     139.841 143.164 144.352  1.00  0.00     0.000 C 
BRANCH   9  10
ATOM     10  C   UNL     1     138.763 142.166 144.809  1.00  0.00     0.000 C 
BRANCH  10  11
ATOM     11  C   UNL     1     137.379 142.817 144.961  1.00  0.00     0.000 C 
BRANCH  11  12
ATOM     12  C   UNL     1     136.255 141.962 144.350  1.00  0.00     0.002 C 
BRANCH  12  13
ATOM     13  C   UNL     1     136.108 142.179 142.835  1.00  0.00     0.028 C 
BRANCH  13  14
ATOM     14  C   UNL     1     134.644 142.246 142.384  1.00  0.00     0.156 C 
BRANCH  14  15
ATOM     15  O   UNL     1     134.273 143.576 142.148  1.00  0.00    -0.396 OA
ATOM     16  H   UNL     1     134.509 144.087 142.966  1.00  0.00     0.210 HD
ENDBRANCH  14  15
ENDBRANCH  13  14
ENDBRANCH  12  13
ENDBRANCH  11  12
ENDBRANCH  10  11
ENDBRANCH   9  10
ENDBRANCH   1   9
TORSDOF 13
ENDMDL
MODEL 2
REMARK VINA RESULT:    -3.153      4.866      7.425
REMARK INTER + INTRA:          -6.394
REMARK INTER:                  -5.246
REMARK INTRA:                  -1.148
REMARK UNBOUND:                -0.936
REMARK SMILES CCCCCCCCCCCCCCO
REMARK SMILES IDX 8 1 7 2 6 3 5 4 4 5 3 6 2 7 1 8 9 9 10 10 11 11 12 12 13 13
REMARK SMILES IDX 14 14 15 15
REMARK H PARENT 15 16
REMARK Flexibility Score: inf
ROOT
ATOM      1  C   UNL     1     143.111 141.831 142.249  1.00  0.00     0.000 C 
ENDROOT
BRANCH   1   2
ATOM      2  C   UNL     1     142.594 140.424 141.885  1.00  0.00    -0.000 C 
BRANCH   2   3
ATOM      3  C   UNL     1     142.947 139.316 142.896  1.00  0.00    -0.000 C 
BRANCH   3   4
ATOM      4  C   UNL     1     143.576 139.815 144.210  1.00  0.00    -0.000 C 
BRANCH   4   5
ATOM      5  C   UNL     1     144.975 139.227 144.493  1.00  0.00    -0.000 C 
BRANCH   5   6
ATOM      6  C   UNL     1     146.107 140.109 143.947  1.00  0.00    -0.000 C 
BRANCH   6   7
ATOM      7  C   UNL     1     146.605 139.589 142.594  1.00  0.00    -0.003 C 
ATOM      8  C   UNL     1     146.680 140.714 141.565  1.00  0.00     0.004 C 
ENDBRANCH   6   7
ENDBRANCH   5   6
ENDBRANCH   4   5
ENDBRANCH   3   4
ENDBRANCH   2   3
ENDBRANCH   1   2
BRANCH   1   9
ATOM      9  C   UNL     1     142.035 142.809 142.754  1.00  0.00     0.000 C 
BRANCH   9  10
ATOM     10  C   UNL     1     142.436 143.514 144.062  1.00  0.00     0.000 C 
BRANCH  10  11
ATOM     11  C   UNL     1     142.360 145.045 143.957  1.00  0.00     0.000 C 
BRANCH  11  12
ATOM     12  C   UNL     1     142.220 145.529 142.503  1.00  0.00     0.002 C 
BRANCH  12  13
ATOM     13  C   UNL     1     141.834 147.015 142.412  1.00  0.00     0.028 C 
BRANCH  13  14
ATOM     14  C   UNL     1     142.865 147.851 141.645  1.00  0.00     0.156 C 
BRANCH  14  15
ATOM     15  O   UNL     1     143.957 147.051 141.278  1.00  0.00    -0.396 OA
ATOM     16  H   UNL     1     144.732 147.661 141.169  1.00  0.00     0.210 HD
ENDBRANCH  14  15
ENDBRANCH  13  14
ENDBRANCH  12  13
ENDBRANCH  11  12
ENDBRANCH  10  11
ENDBRANCH   9  10
ENDBRANCH   1   9
TORSDOF 13
ENDMDL
MODEL 3
REMARK VINA RESULT:    -3.134      5.451      7.628
REMARK INTER + INTRA:          -6.361
REMARK INTER:                  -5.589
REMARK INTRA:                  -0.772
REMARK UNBOUND:                -0.936
REMARK SMILES CCCCCCCCCCCCCCO
REMARK SMILES IDX 8 1 7 2 6 3 5 4 4 5 3 6 2 7 1 8 9 9 10 10 11 11 12 12 13 13
REMARK SMILES IDX 14 14 15 15
REMARK H PARENT 15 16
REMARK Flexibility Score: inf
ROOT
ATOM      1  C   UNL     1     138.684 139.478 142.450  1.00  0.00     0.000 C 
ENDROOT
BRANCH   1   2
ATOM      2  C   UNL     1     137.506 140.358 141.985  1.00  0.00    -0.000 C 
BRANCH   2   3
ATOM      3  C   UNL     1     137.200 141.570 142.887  1.00  0.00    -0.000 C 
BRANCH   3   4
ATOM      4  C   UNL     1     135.702 141.846 143.114  1.00  0.00    -0.000 C 
BRANCH   4   5
ATOM      5  C   UNL     1     135.036 142.645 141.974  1.00  0.00    -0.000 C 
BRANCH   5   6
ATOM      6  C   UNL     1     133.650 142.099 141.601  1.00  0.00    -0.000 C 
BRANCH   6   7
ATOM      7  C   UNL     1     133.746 141.099 140.444  1.00  0.00    -0.003 C 
ATOM      8  C   UNL     1     133.660 139.661 140.950  1.00  0.00     0.004 C 
ENDBRANCH   6   7
ENDBRANCH   5   6
ENDBRANCH   4   5
ENDBRANCH   3   4
ENDBRANCH   2   3
ENDBRANCH   1   2
BRANCH   1   9
ATOM      9  C   UNL     1     138.726 139.191 143.961  1.00  0.00     0.000 C 
BRANCH   9  10
ATOM     10  C   UNL     1     139.047 137.720 144.280  1.00  0.00     0.000 C 
BRANCH  10  11
ATOM     11  C   UNL     1     139.553 136.945 143.053  1.00  0.00     0.000 C 
BRANCH  11  12
ATOM     12  C   UNL     1     139.710 135.440 143.331  1.00  0.00     0.002 C 
BRANCH  12  13
ATOM     13  C   UNL     1     139.713 134.600 142.043  1.00  0.00     0.028 C 
BRANCH  13  14
ATOM     14  C   UNL     1     138.404 133.830 141.832  1.00  0.00     0.156 C 
BRANCH  14  15
ATOM     15  O   UNL     1     137.524 134.584 141.044  1.00  0.00    -0.396 OA
ATOM     16  H   UNL     1     137.042 133.941 140.461  1.00  0.00     0.210 HD
ENDBRANCH  14  15
ENDBRANCH  13  14
ENDBRANCH  12  13
ENDBRANCH  11  12
ENDBRANCH  10  11
ENDBRANCH   9  10
ENDBRANCH   1   9
TORSDOF 13
ENDMDL
MODEL 4
REMARK VINA RESULT:    -3.108      7.699     10.633
REMARK INTER + INTRA:          -6.316
REMARK INTER:                  -5.672
REMARK INTRA:                  -0.644
REMARK UNBOUND:                -0.936
REMARK SMILES CCCCCCCCCCCCCCO
REMARK SMILES IDX 8 1 7 2 6 3 5 4 4 5 3 6 2 7 1 8 9 9 10 10 11 11 12 12 13 13
REMARK SMILES IDX 14 14 15 15
REMARK H PARENT 15 16
REMARK Flexibility Score: inf
ROOT
ATOM      1  C   UNL     1     142.179 138.625 143.234  1.00  0.00     0.000 C 
ENDROOT
BRANCH   1   2
ATOM      2  C   UNL     1     140.727 138.177 142.969  1.00  0.00    -0.000 C 
BRANCH   2   3
ATOM      3  C   UNL     1     140.061 137.401 144.123  1.00  0.00    -0.000 C 
BRANCH   3   4
ATOM      4  C   UNL     1     139.684 135.945 143.790  1.00  0.00    -0.000 C 
BRANCH   4   5
ATOM      5  C   UNL     1     139.914 135.565 142.312  1.00  0.00    -0.000 C 
BRANCH   5   6
ATOM      6  C   UNL     1     139.403 134.156 141.980  1.00  0.00    -0.000 C 
BRANCH   6   7
ATOM      7  C   UNL     1     140.285 133.487 140.920  1.00  0.00    -0.003 C 
ATOM      8  C   UNL     1     141.702 133.266 141.441  1.00  0.00     0.004 C 
ENDBRANCH   6   7
ENDBRANCH   5   6
ENDBRANCH   4   5
ENDBRANCH   3   4
ENDBRANCH   2   3
ENDBRANCH   1   2
BRANCH   1   9
ATOM      9  C   UNL     1     142.566 138.735 144.720  1.00  0.00     0.000 C 
BRANCH   9  10
ATOM     10  C   UNL     1     144.057 139.055 144.926  1.00  0.00     0.000 C 
BRANCH  10  11
ATOM     11  C   UNL     1     144.661 139.842 143.753  1.00  0.00     0.000 C 
BRANCH  11  12
ATOM     12  C   UNL     1     146.148 139.516 143.529  1.00  0.00     0.002 C 
BRANCH  12  13
ATOM     13  C   UNL     1     146.556 139.612 142.049  1.00  0.00     0.028 C 
BRANCH  13  14
ATOM     14  C   UNL     1     147.682 138.639 141.679  1.00  0.00     0.156 C 
BRANCH  14  15
ATOM     15  O   UNL     1     147.145 137.471 141.120  1.00  0.00    -0.396 OA
ATOM     16  H   UNL     1     147.036 136.823 141.865  1.00  0.00     0.210 HD
ENDBRANCH  14  15
ENDBRANCH  13  14
ENDBRANCH  12  13
ENDBRANCH  11  12
ENDBRANCH  10  11
ENDBRANCH   9  10
ENDBRANCH   1   9
TORSDOF 13
ENDMDL
MODEL 5
REMARK VINA RESULT:    -3.065      7.183     10.021
REMARK INTER + INTRA:          -6.241
REMARK INTER:                  -4.905
REMARK INTRA:                  -1.336
REMARK UNBOUND:                -0.936
REMARK SMILES CCCCCCCCCCCCCCO
REMARK SMILES IDX 8 1 7 2 6 3 5 4 4 5 3 6 2 7 1 8 9 9 10 10 11 11 12 12 13 13
REMARK SMILES IDX 14 14 15 15
REMARK H PARENT 15 16
REMARK Flexibility Score: inf
ROOT
ATOM      1  C   UNL     1     144.756 141.742 139.690  1.00  0.00     0.000 C 
ENDROOT
BRANCH   1   2
ATOM      2  C   UNL     1     143.862 141.034 140.728  1.00  0.00    -0.000 C 
BRANCH   2   3
ATOM      3  C   UNL     1     144.436 140.981 142.157  1.00  0.00    -0.000 C 
BRANCH   3   4
ATOM      4  C   UNL     1     144.711 139.562 142.692  1.00  0.00    -0.000 C 
BRANCH   4   5
ATOM      5  C   UNL     1     145.305 139.539 144.116  1.00  0.00    -0.000 C 
BRANCH   5   6
ATOM      6  C   UNL     1     144.389 138.830 145.125  1.00  0.00    -0.000 C 
BRANCH   6   7
ATOM      7  C   UNL     1     142.986 139.448 145.123  1.00  0.00    -0.003 C 
ATOM      8  C   UNL     1     141.909 138.370 145.044  1.00  0.00     0.004 C 
ENDBRANCH   6   7
ENDBRANCH   5   6
ENDBRANCH   4   5
ENDBRANCH   3   4
ENDBRANCH   2   3
ENDBRANCH   1   2
BRANCH   1   9
ATOM      9  C   UNL     1     145.462 140.805 138.693  1.00  0.00     0.000 C 
BRANCH   9  10
ATOM     10  C   UNL     1     146.971 140.674 138.964  1.00  0.00     0.000 C 
BRANCH  10  11
ATOM     11  C   UNL     1     147.461 141.631 140.062  1.00  0.00     0.000 C 
BRANCH  11  12
ATOM     12  C   UNL     1     148.129 140.889 141.234  1.00  0.00     0.002 C 
BRANCH  12  13
ATOM     13  C   UNL     1     148.572 139.467 140.854  1.00  0.00     0.028 C 
BRANCH  13  14
ATOM     14  C   UNL     1     147.942 138.390 141.745  1.00  0.00     0.156 C 
BRANCH  14  15
ATOM     15  O   UNL     1     147.060 137.599 140.995  1.00  0.00    -0.396 OA
ATOM     16  H   UNL     1     147.239 136.656 141.248  1.00  0.00     0.210 HD
ENDBRANCH  14  15
ENDBRANCH  13  14
ENDBRANCH  12  13
ENDBRANCH  11  12
ENDBRANCH  10  11
ENDBRANCH   9  10
ENDBRANCH   1   9
TORSDOF 13
ENDMDL
MODEL 6
REMARK VINA RESULT:    -3.061      5.421      6.996
REMARK INTER + INTRA:          -6.234
REMARK INTER:                  -5.561
REMARK INTRA:                  -0.673
REMARK UNBOUND:                -0.936
REMARK SMILES CCCCCCCCCCCCCCO
REMARK SMILES IDX 8 1 7 2 6 3 5 4 4 5 3 6 2 7 1 8 9 9 10 10 11 11 12 12 13 13
REMARK SMILES IDX 14 14 15 15
REMARK H PARENT 15 16
REMARK Flexibility Score: inf
ROOT
ATOM      1  C   UNL     1     142.821 142.540 143.640  1.00  0.00     0.000 C 
ENDROOT
BRANCH   1   2
ATOM      2  C   UNL     1     142.670 143.177 145.037  1.00  0.00    -0.000 C 
BRANCH   2   3
ATOM      3  C   UNL     1     142.836 144.708 145.079  1.00  0.00    -0.000 C 
BRANCH   3   4
ATOM      4  C   UNL     1     141.622 145.505 144.567  1.00  0.00    -0.000 C 
BRANCH   4   5
ATOM      5  C   UNL     1     141.849 146.172 143.194  1.00  0.00    -0.000 C 
BRANCH   5   6
ATOM      6  C   UNL     1     141.101 145.456 142.060  1.00  0.00    -0.000 C 
BRANCH   6   7
ATOM      7  C   UNL     1     141.051 146.326 140.799  1.00  0.00    -0.003 C 
ATOM      8  C   UNL     1     140.116 147.517 140.987  1.00  0.00     0.004 C 
ENDBRANCH   6   7
ENDBRANCH   5   6
ENDBRANCH   4   5
ENDBRANCH   3   4
ENDBRANCH   2   3
ENDBRANCH   1   2
BRANCH   1   9
ATOM      9  C   UNL     1     142.467 141.044 143.565  1.00  0.00     0.000 C 
BRANCH   9  10
ATOM     10  C   UNL     1     143.502 140.150 144.271  1.00  0.00     0.000 C 
BRANCH  10  11
ATOM     11  C   UNL     1     144.437 139.434 143.284  1.00  0.00     0.000 C 
BRANCH  11  12
ATOM     12  C   UNL     1     145.921 139.597 143.655  1.00  0.00     0.002 C 
BRANCH  12  13
ATOM     13  C   UNL     1     146.767 140.118 142.482  1.00  0.00     0.028 C 
BRANCH  13  14
ATOM     14  C   UNL     1     147.029 139.048 141.416  1.00  0.00     0.156 C 
BRANCH  14  15
ATOM     15  O   UNL     1     147.501 137.873 142.018  1.00  0.00    -0.396 OA
ATOM     16  H   UNL     1     146.745 137.230 142.017  1.00  0.00     0.210 HD
ENDBRANCH  14  15
ENDBRANCH  13  14
ENDBRANCH  12  13
ENDBRANCH  11  12
ENDBRANCH  10  11
ENDBRANCH   9  10
ENDBRANCH   1   9
TORSDOF 13
ENDMDL
MODEL 7
REMARK VINA RESULT:    -3.038      4.715      7.047
REMARK INTER + INTRA:          -6.194
REMARK INTER:                  -4.509
REMARK INTRA:                  -1.685
REMARK UNBOUND:                -0.936
REMARK SMILES CCCCCCCCCCCCCCO
REMARK SMILES IDX 8 1 7 2 6 3 5 4 4 5 3 6 2 7 1 8 9 9 10 10 11 11 12 12 13 13
REMARK SMILES IDX 14 14 15 15
REMARK H PARENT 15 16
REMARK Flexibility Score: inf
ROOT
ATOM      1  C   UNL     1     135.706 140.642 139.995  1.00  0.00     0.000 C 
ENDROOT
BRANCH   1   2
ATOM      2  C   UNL     1     134.379 139.864 139.882  1.00  0.00    -0.000 C 
BRANCH   2   3
ATOM      3  C   UNL     1     133.339 140.185 140.974  1.00  0.00    -0.000 C 
BRANCH   3   4
ATOM      4  C   UNL     1     132.315 141.271 140.593  1.00  0.00    -0.000 C 
BRANCH   4   5
ATOM      5  C   UNL     1     132.701 142.686 141.075  1.00  0.00    -0.000 C 
BRANCH   5   6
ATOM      6  C   UNL     1     132.792 143.698 139.924  1.00  0.00    -0.000 C 
BRANCH   6   7
ATOM      7  C   UNL     1     134.252 143.985 139.558  1.00  0.00    -0.003 C 
ATOM      8  C   UNL     1     134.553 143.567 138.121  1.00  0.00     0.004 C 
ENDBRANCH   6   7
ENDBRANCH   5   6
ENDBRANCH   4   5
ENDBRANCH   3   4
ENDBRANCH   2   3
ENDBRANCH   1   2
BRANCH   1   9
ATOM      9  C   UNL     1     136.332 140.662 141.401  1.00  0.00     0.000 C 
BRANCH   9  10
ATOM     10  C   UNL     1     136.275 142.052 142.059  1.00  0.00     0.000 C 
BRANCH  10  11
ATOM     11  C   UNL     1     135.489 142.051 143.380  1.00  0.00     0.000 C 
BRANCH  11  12
ATOM     12  C   UNL     1     136.366 142.428 144.587  1.00  0.00     0.002 C 
BRANCH  12  13
ATOM     13  C   UNL     1     137.220 141.251 145.085  1.00  0.00     0.028 C 
BRANCH  13  14
ATOM     14  C   UNL     1     138.717 141.447 144.817  1.00  0.00     0.156 C 
BRANCH  14  15
ATOM     15  O   UNL     1     139.003 142.810 144.656  1.00  0.00    -0.396 OA
ATOM     16  H   UNL     1     138.172 143.237 144.320  1.00  0.00     0.210 HD
ENDBRANCH  14  15
ENDBRANCH  13  14
ENDBRANCH  12  13
ENDBRANCH  11  12
ENDBRANCH  10  11
ENDBRANCH   9  10
ENDBRANCH   1   9
TORSDOF 13
ENDMDL
MODEL 8
REMARK VINA RESULT:    -3.021      3.025      7.199
REMARK INTER + INTRA:          -6.165
REMARK INTER:                  -5.706
REMARK INTRA:                  -0.459
REMARK UNBOUND:                -0.936
REMARK SMILES CCCCCCCCCCCCCCO
REMARK SMILES IDX 8 1 7 2 6 3 5 4 4 5 3 6 2 7 1 8 9 9 10 10 11 11 12 12 13 13
REMARK SMILES IDX 14 14 15 15
REMARK H PARENT 15 16
REMARK Flexibility Score: inf
ROOT
ATOM      1  C   UNL     1     139.415 142.890 144.115  1.00  0.00     0.000 C 
ENDROOT
BRANCH   1   2
ATOM      2  C   UNL     1     138.350 142.130 144.932  1.00  0.00    -0.000 C 
BRANCH   2   3
ATOM      3  C   UNL     1     136.889 142.441 144.551  1.00  0.00    -0.000 C 
BRANCH   3   4
ATOM      4  C   UNL     1     136.499 142.054 143.112  1.00  0.00    -0.000 C 
BRANCH   4   5
ATOM      5  C   UNL     1     134.980 141.871 142.908  1.00  0.00    -0.000 C 
BRANCH   5   6
ATOM      6  C   UNL     1     134.489 142.462 141.578  1.00  0.00    -0.000 C 
BRANCH   6   7
ATOM      7  C   UNL     1     133.363 141.610 140.980  1.00  0.00    -0.003 C 
ATOM      8  C   UNL     1     133.488 140.151 141.412  1.00  0.00     0.004 C 
ENDBRANCH   6   7
ENDBRANCH   5   6
ENDBRANCH   4   5
ENDBRANCH   3   4
ENDBRANCH   2   3
ENDBRANCH   1   2
BRANCH   1   9
ATOM      9  C   UNL     1     140.761 143.095 144.832  1.00  0.00     0.000 C 
BRANCH   9  10
ATOM     10  C   UNL     1     141.825 143.744 143.928  1.00  0.00     0.000 C 
BRANCH  10  11
ATOM     11  C   UNL     1     142.113 145.205 144.308  1.00  0.00     0.000 C 
BRANCH  11  12
ATOM     12  C   UNL     1     141.807 146.183 143.160  1.00  0.00     0.002 C 
BRANCH  12  13
ATOM     13  C   UNL     1     142.143 145.594 141.780  1.00  0.00     0.028 C 
BRANCH  13  14
ATOM     14  C   UNL     1     142.758 146.627 140.828  1.00  0.00     0.156 C 
BRANCH  14  15
ATOM     15  O   UNL     1     143.985 147.078 141.332  1.00  0.00    -0.396 OA
ATOM     16  H   UNL     1     144.435 147.565 140.594  1.00  0.00     0.210 HD
ENDBRANCH  14  15
ENDBRANCH  13  14
ENDBRANCH  12  13
ENDBRANCH  11  12
ENDBRANCH  10  11
ENDBRANCH   9  10
ENDBRANCH   1   9
TORSDOF 13
ENDMDL
MODEL 9
REMARK VINA RESULT:    -3.004      2.853      5.586
REMARK INTER + INTRA:          -6.136
REMARK INTER:                  -4.861
REMARK INTRA:                  -1.275
REMARK UNBOUND:                -0.936
REMARK SMILES CCCCCCCCCCCCCCO
REMARK SMILES IDX 8 1 7 2 6 3 5 4 4 5 3 6 2 7 1 8 9 9 10 10 11 11 12 12 13 13
REMARK SMILES IDX 14 14 15 15
REMARK H PARENT 15 16
REMARK Flexibility Score: inf
ROOT
ATOM      1  C   UNL     1     136.544 141.685 142.123  1.00  0.00     0.000 C 
ENDROOT
BRANCH   1   2
ATOM      2  C   UNL     1     135.721 142.125 143.350  1.00  0.00    -0.000 C 
BRANCH   2   3
ATOM      3  C   UNL     1     136.502 142.173 144.678  1.00  0.00    -0.000 C 
BRANCH   3   4
ATOM      4  C   UNL     1     137.436 140.973 144.923  1.00  0.00    -0.000 C 
BRANCH   4   5
ATOM      5  C   UNL     1     138.935 141.340 144.915  1.00  0.00    -0.000 C 
BRANCH   5   6
ATOM      6  C   UNL     1     139.176 142.842 145.125  1.00  0.00    -0.000 C 
BRANCH   6   7
ATOM      7  C   UNL     1     140.251 143.366 144.167  1.00  0.00    -0.003 C 
ATOM      8  C   UNL     1     139.803 143.240 142.713  1.00  0.00     0.004 C 
ENDBRANCH   6   7
ENDBRANCH   5   6
ENDBRANCH   4   5
ENDBRANCH   3   4
ENDBRANCH   2   3
ENDBRANCH   1   2
BRANCH   1   9
ATOM      9  C   UNL     1     135.811 140.744 141.150  1.00  0.00     0.000 C 
BRANCH   9  10
ATOM     10  C   UNL     1     134.300 140.657 141.430  1.00  0.00     0.000 C 
BRANCH  10  11
ATOM     11  C   UNL     1     133.464 140.569 140.143  1.00  0.00     0.000 C 
BRANCH  11  12
ATOM     12  C   UNL     1     132.791 141.905 139.785  1.00  0.00     0.002 C 
BRANCH  12  13
ATOM     13  C   UNL     1     133.697 142.811 138.934  1.00  0.00     0.028 C 
BRANCH  13  14
ATOM     14  C   UNL     1     133.796 144.238 139.486  1.00  0.00     0.156 C 
BRANCH  14  15
ATOM     15  O   UNL     1     134.648 144.268 140.598  1.00  0.00    -0.396 OA
ATOM     16  H   UNL     1     135.150 143.411 140.594  1.00  0.00     0.210 HD
ENDBRANCH  14  15
ENDBRANCH  13  14
ENDBRANCH  12  13
ENDBRANCH  11  12
ENDBRANCH  10  11
ENDBRANCH   9  10
ENDBRANCH   1   9
TORSDOF 13
ENDMDL
