MODEL 1
REMARK VINA RESULT:    -3.496      0.000      0.000
REMARK INTER + INTRA:         -11.715
REMARK INTER:                  -7.583
REMARK INTRA:                  -4.132
REMARK UNBOUND:                -4.132
REMARK SMILES CCCCCCCCCCCCCCCCCCCCCC(=O)[O-]
REMARK SMILES IDX 12 1 11 2 10 3 9 4 8 5 7 6 6 7 5 8 4 9 3 10 2 11 1 12 13 13
REMARK SMILES IDX 14 14 15 15 16 16 17 17 18 18 19 19 20 20 21 21 22 22 23 23
REMARK SMILES IDX 24 24
REMARK H PARENT
REMARK Flexibility Score: inf
ROOT
ATOM      1  C   UNL     1      40.982  22.902 225.034  1.00  0.00     0.000 C 
ENDROOT
BRANCH   1   2
ATOM      2  C   UNL     1      41.425  23.604 223.740  1.00  0.00     0.000 C 
BRANCH   2   3
ATOM      3  C   UNL     1      40.752  22.975 222.515  1.00  0.00     0.000 C 
BRANCH   3   4
ATOM      4  C   UNL     1      39.920  24.015 221.748  1.00  0.00    -0.000 C 
BRANCH   4   5
ATOM      5  C   UNL     1      38.660  23.405 221.113  1.00  0.00    -0.000 C 
BRANCH   5   6
ATOM      6  C   UNL     1      37.375  23.841 221.834  1.00  0.00    -0.000 C 
BRANCH   6   7
ATOM      7  C   UNL     1      36.947  22.804 222.879  1.00  0.00    -0.000 C 
BRANCH   7   8
ATOM      8  C   UNL     1      37.362  23.246 224.289  1.00  0.00    -0.000 C 
BRANCH   8   9
ATOM      9  C   UNL     1      37.028  24.719 224.575  1.00  0.00    -0.000 C 
BRANCH   9  10
ATOM     10  C   UNL     1      38.160  25.475 225.304  1.00  0.00    -0.000 C 
BRANCH  10  11
ATOM     11  C   UNL     1      38.988  26.341 224.342  1.00  0.00    -0.003 C 
ATOM     12  C   UNL     1      40.176  26.980 225.058  1.00  0.00     0.004 C 
ENDBRANCH  10  11
ENDBRANCH   9  10
ENDBRANCH   8   9
ENDBRANCH   7   8
ENDBRANCH   6   7
ENDBRANCH   5   6
ENDBRANCH   4   5
ENDBRANCH   3   4
ENDBRANCH   2   3
ENDBRANCH   1   2
BRANCH   1  13
ATOM     13  C   UNL     1      42.141  22.153 225.726  1.00  0.00     0.000 C 
BRANCH  13  14
ATOM     14  C   UNL     1      43.437  22.105 224.899  1.00  0.00     0.000 C 
BRANCH  14  15
ATOM     15  C   UNL     1      43.997  20.682 224.742  1.00  0.00     0.000 C 
BRANCH  15  16
ATOM     16  C   UNL     1      42.928  19.680 224.268  1.00  0.00     0.000 C 
BRANCH  16  17
ATOM     17  C   UNL     1      42.645  19.752 222.755  1.00  0.00     0.000 C 
BRANCH  17  18
ATOM     18  C   UNL     1      41.158  19.527 222.424  1.00  0.00     0.000 C 
BRANCH  18  19
ATOM     19  C   UNL     1      40.342  19.072 223.653  1.00  0.00     0.000 C 
BRANCH  19  20
ATOM     20  C   UNL     1      39.153  19.993 223.982  1.00  0.00     0.006 C 
BRANCH  20  21
ATOM     21  C   UNL     1      38.526  19.749 225.363  1.00  0.00     0.053 C 
BRANCH  21  22
ATOM     22  C   UNL     1      37.830  18.423 225.444  1.00  0.00     0.041 C 
ATOM     23  O   UNL     1      38.245  17.534 226.236  1.00  0.00    -0.550 OA
ATOM     24  O   UNL     1      36.724  18.168 224.645  1.00  0.00    -0.550 OA
ENDBRANCH  21  22
ENDBRANCH  20  21
ENDBRANCH  19  20
ENDBRANCH  18  19
ENDBRANCH  17  18
ENDBRANCH  16  17
ENDBRANCH  15  16
ENDBRANCH  14  15
ENDBRANCH  13  14
ENDBRANCH   1  13
TORSDOF 20
ENDMDL
MODEL 2
REMARK VINA RESULT:    -3.327      1.440      3.352
REMARK INTER + INTRA:         -11.349
REMARK INTER:                  -7.675
REMARK INTRA:                  -3.674
REMARK UNBOUND:                -4.132
REMARK SMILES CCCCCCCCCCCCCCCCCCCCCC(=O)[O-]
REMARK SMILES IDX 12 1 11 2 10 3 9 4 8 5 7 6 6 7 5 8 4 9 3 10 2 11 1 12 13 13
REMARK SMILES IDX 14 14 15 15 16 16 17 17 18 18 19 19 20 20 21 21 22 22 23 23
REMARK SMILES IDX 24 24
REMARK H PARENT
REMARK Flexibility Score: inf
ROOT
ATOM      1  C   UNL     1      42.744  19.253 223.036  1.00  0.00     0.000 C 
ENDROOT
BRANCH   1   2
ATOM      2  C   UNL     1      41.321  19.473 222.497  1.00  0.00     0.000 C 
BRANCH   2   3
ATOM      3  C   UNL     1      41.320  20.471 221.336  1.00  0.00     0.000 C 
BRANCH   3   4
ATOM      4  C   UNL     1      40.477  21.710 221.674  1.00  0.00    -0.000 C 
BRANCH   4   5
ATOM      5  C   UNL     1      41.304  22.820 222.343  1.00  0.00    -0.000 C 
BRANCH   5   6
ATOM      6  C   UNL     1      40.513  24.129 222.491  1.00  0.00    -0.000 C 
BRANCH   6   7
ATOM      7  C   UNL     1      39.032  23.922 222.154  1.00  0.00    -0.000 C 
BRANCH   7   8
ATOM      8  C   UNL     1      38.145  24.263 223.360  1.00  0.00    -0.000 C 
BRANCH   8   9
ATOM      9  C   UNL     1      36.903  23.361 223.462  1.00  0.00    -0.000 C 
BRANCH   9  10
ATOM     10  C   UNL     1      36.378  22.882 222.091  1.00  0.00    -0.000 C 
BRANCH  10  11
ATOM     11  C   UNL     1      35.315  23.829 221.516  1.00  0.00    -0.003 C 
ATOM     12  C   UNL     1      35.503  24.023 220.014  1.00  0.00     0.004 C 
ENDBRANCH  10  11
ENDBRANCH   9  10
ENDBRANCH   8   9
ENDBRANCH   7   8
ENDBRANCH   6   7
ENDBRANCH   5   6
ENDBRANCH   4   5
ENDBRANCH   3   4
ENDBRANCH   2   3
ENDBRANCH   1   2
BRANCH   1  13
ATOM     13  C   UNL     1      42.939  19.845 224.447  1.00  0.00     0.000 C 
BRANCH  13  14
ATOM     14  C   UNL     1      43.913  21.035 224.498  1.00  0.00     0.000 C 
BRANCH  14  15
ATOM     15  C   UNL     1      43.404  22.191 225.374  1.00  0.00     0.000 C 
BRANCH  15  16
ATOM     16  C   UNL     1      42.150  21.806 226.181  1.00  0.00     0.000 C 
BRANCH  16  17
ATOM     17  C   UNL     1      40.941  22.722 225.913  1.00  0.00     0.000 C 
BRANCH  17  18
ATOM     18  C   UNL     1      39.599  22.019 226.188  1.00  0.00     0.000 C 
BRANCH  18  19
ATOM     19  C   UNL     1      39.263  20.953 225.122  1.00  0.00     0.000 C 
BRANCH  19  20
ATOM     20  C   UNL     1      39.407  19.505 225.628  1.00  0.00     0.006 C 
BRANCH  20  21
ATOM     21  C   UNL     1      38.405  18.517 225.012  1.00  0.00     0.053 C 
BRANCH  21  22
ATOM     22  C   UNL     1      37.689  17.711 226.054  1.00  0.00     0.041 C 
ATOM     23  O   UNL     1      38.244  16.704 226.573  1.00  0.00    -0.550 OA
ATOM     24  O   UNL     1      36.409  18.070 226.454  1.00  0.00    -0.550 OA
ENDBRANCH  21  22
ENDBRANCH  20  21
ENDBRANCH  19  20
ENDBRANCH  18  19
ENDBRANCH  17  18
ENDBRANCH  16  17
ENDBRANCH  15  16
ENDBRANCH  14  15
ENDBRANCH  13  14
ENDBRANCH   1  13
TORSDOF 20
ENDMDL
MODEL 3
REMARK VINA RESULT:    -3.221      3.056      6.243
REMARK INTER + INTRA:         -11.118
REMARK INTER:                  -7.578
REMARK INTRA:                  -3.540
REMARK UNBOUND:                -4.132
REMARK SMILES CCCCCCCCCCCCCCCCCCCCCC(=O)[O-]
REMARK SMILES IDX 12 1 11 2 10 3 9 4 8 5 7 6 6 7 5 8 4 9 3 10 2 11 1 12 13 13
REMARK SMILES IDX 14 14 15 15 16 16 17 17 18 18 19 19 20 20 21 21 22 22 23 23
REMARK SMILES IDX 24 24
REMARK H PARENT
REMARK Flexibility Score: inf
ROOT
ATOM      1  C   UNL     1      41.138  26.167 225.733  1.00  0.00     0.000 C 
ENDROOT
BRANCH   1   2
ATOM      2  C   UNL     1      42.438  25.371 225.928  1.00  0.00     0.000 C 
BRANCH   2   3
ATOM      3  C   UNL     1      42.831  24.636 224.642  1.00  0.00     0.000 C 
BRANCH   3   4
ATOM      4  C   UNL     1      42.248  23.214 224.619  1.00  0.00    -0.000 C 
BRANCH   4   5
ATOM      5  C   UNL     1      42.378  22.504 225.976  1.00  0.00    -0.000 C 
BRANCH   5   6
ATOM      6  C   UNL     1      41.233  21.511 226.227  1.00  0.00    -0.000 C 
BRANCH   6   7
ATOM      7  C   UNL     1      40.085  21.727 225.234  1.00  0.00    -0.000 C 
BRANCH   7   8
ATOM      8  C   UNL     1      39.683  20.404 224.568  1.00  0.00    -0.000 C 
BRANCH   8   9
ATOM      9  C   UNL     1      40.824  19.373 224.551  1.00  0.00    -0.000 C 
BRANCH   9  10
ATOM     10  C   UNL     1      41.520  19.251 223.178  1.00  0.00    -0.000 C 
BRANCH  10  11
ATOM     11  C   UNL     1      40.974  20.264 222.161  1.00  0.00    -0.003 C 
ATOM     12  C   UNL     1      42.108  20.970 221.421  1.00  0.00     0.004 C 
ENDBRANCH  10  11
ENDBRANCH   9  10
ENDBRANCH   8   9
ENDBRANCH   7   8
ENDBRANCH   6   7
ENDBRANCH   5   6
ENDBRANCH   4   5
ENDBRANCH   3   4
ENDBRANCH   2   3
ENDBRANCH   1   2
BRANCH   1  13
ATOM     13  C   UNL     1      39.915  25.465 226.361  1.00  0.00     0.000 C 
BRANCH  13  14
ATOM     14  C   UNL     1      38.743  25.260 225.387  1.00  0.00     0.000 C 
BRANCH  14  15
ATOM     15  C   UNL     1      38.761  26.248 224.209  1.00  0.00     0.000 C 
BRANCH  15  16
ATOM     16  C   UNL     1      38.367  25.580 222.879  1.00  0.00     0.000 C 
BRANCH  16  17
ATOM     17  C   UNL     1      39.291  24.415 222.477  1.00  0.00     0.000 C 
BRANCH  17  18
ATOM     18  C   UNL     1      38.525  23.091 222.300  1.00  0.00     0.000 C 
BRANCH  18  19
ATOM     19  C   UNL     1      37.022  23.231 222.627  1.00  0.00     0.000 C 
BRANCH  19  20
ATOM     20  C   UNL     1      36.102  23.030 221.408  1.00  0.00     0.006 C 
BRANCH  20  21
ATOM     21  C   UNL     1      35.785  24.320 220.636  1.00  0.00     0.053 C 
BRANCH  21  22
ATOM     22  C   UNL     1      35.531  24.062 219.181  1.00  0.00     0.041 C 
ATOM     23  O   UNL     1      34.359  24.125 218.718  1.00  0.00    -0.550 OA
ATOM     24  O   UNL     1      36.586  23.752 218.334  1.00  0.00    -0.550 OA
ENDBRANCH  21  22
ENDBRANCH  20  21
ENDBRANCH  19  20
ENDBRANCH  18  19
ENDBRANCH  17  18
ENDBRANCH  16  17
ENDBRANCH  15  16
ENDBRANCH  14  15
ENDBRANCH  13  14
ENDBRANCH   1  13
TORSDOF 20
ENDMDL
MODEL 4
REMARK VINA RESULT:    -3.200      1.578      2.442
REMARK INTER + INTRA:         -11.074
REMARK INTER:                  -7.720
REMARK INTRA:                  -3.354
REMARK UNBOUND:                -4.132
REMARK SMILES CCCCCCCCCCCCCCCCCCCCCC(=O)[O-]
REMARK SMILES IDX 12 1 11 2 10 3 9 4 8 5 7 6 6 7 5 8 4 9 3 10 2 11 1 12 13 13
REMARK SMILES IDX 14 14 15 15 16 16 17 17 18 18 19 19 20 20 21 21 22 22 23 23
REMARK SMILES IDX 24 24
REMARK H PARENT
REMARK Flexibility Score: inf
ROOT
ATOM      1  C   UNL     1      42.110  22.358 223.603  1.00  0.00     0.000 C 
ENDROOT
BRANCH   1   2
ATOM      2  C   UNL     1      41.458  22.317 222.212  1.00  0.00     0.000 C 
BRANCH   2   3
ATOM      3  C   UNL     1      40.330  23.348 222.102  1.00  0.00     0.000 C 
BRANCH   3   4
ATOM      4  C   UNL     1      39.007  22.677 221.699  1.00  0.00    -0.000 C 
BRANCH   4   5
ATOM      5  C   UNL     1      38.060  23.640 220.964  1.00  0.00    -0.000 C 
BRANCH   5   6
ATOM      6  C   UNL     1      36.592  23.437 221.368  1.00  0.00    -0.000 C 
BRANCH   6   7
ATOM      7  C   UNL     1      36.447  23.334 222.891  1.00  0.00    -0.000 C 
BRANCH   7   8
ATOM      8  C   UNL     1      36.505  24.724 223.540  1.00  0.00    -0.000 C 
BRANCH   8   9
ATOM      9  C   UNL     1      37.691  24.882 224.507  1.00  0.00    -0.000 C 
BRANCH   9  10
ATOM     10  C   UNL     1      38.701  25.964 224.067  1.00  0.00    -0.000 C 
BRANCH  10  11
ATOM     11  C   UNL     1      39.548  26.475 225.242  1.00  0.00    -0.003 C 
ATOM     12  C   UNL     1      40.043  27.897 224.988  1.00  0.00     0.004 C 
ENDBRANCH  10  11
ENDBRANCH   9  10
ENDBRANCH   8   9
ENDBRANCH   7   8
ENDBRANCH   6   7
ENDBRANCH   5   6
ENDBRANCH   4   5
ENDBRANCH   3   4
ENDBRANCH   2   3
ENDBRANCH   1   2
BRANCH   1  13
ATOM     13  C   UNL     1      41.132  22.830 224.700  1.00  0.00     0.000 C 
BRANCH  13  14
ATOM     14  C   UNL     1      40.521  21.686 225.527  1.00  0.00     0.000 C 
BRANCH  14  15
ATOM     15  C   UNL     1      39.004  21.541 225.323  1.00  0.00     0.000 C 
BRANCH  15  16
ATOM     16  C   UNL     1      38.641  20.296 224.493  1.00  0.00     0.000 C 
BRANCH  16  17
ATOM     17  C   UNL     1      39.854  19.415 224.142  1.00  0.00     0.000 C 
BRANCH  17  18
ATOM     18  C   UNL     1      39.792  18.033 224.817  1.00  0.00     0.000 C 
BRANCH  18  19
ATOM     19  C   UNL     1      40.159  18.092 226.316  1.00  0.00     0.000 C 
BRANCH  19  20
ATOM     20  C   UNL     1      39.179  17.324 227.223  1.00  0.00     0.006 C 
BRANCH  20  21
ATOM     21  C   UNL     1      37.829  18.024 227.433  1.00  0.00     0.053 C 
BRANCH  21  22
ATOM     22  C   UNL     1      36.698  17.284 226.782  1.00  0.00     0.041 C 
ATOM     23  O   UNL     1      36.676  16.023 226.788  1.00  0.00    -0.550 OA
ATOM     24  O   UNL     1      35.669  17.986 226.169  1.00  0.00    -0.550 OA
ENDBRANCH  21  22
ENDBRANCH  20  21
ENDBRANCH  19  20
ENDBRANCH  18  19
ENDBRANCH  17  18
ENDBRANCH  16  17
ENDBRANCH  15  16
ENDBRANCH  14  15
ENDBRANCH  13  14
ENDBRANCH   1  13
TORSDOF 20
ENDMDL
MODEL 5
REMARK VINA RESULT:    -3.187      3.355      6.054
REMARK INTER + INTRA:         -11.046
REMARK INTER:                  -7.299
REMARK INTRA:                  -3.747
REMARK UNBOUND:                -4.132
REMARK SMILES CCCCCCCCCCCCCCCCCCCCCC(=O)[O-]
REMARK SMILES IDX 12 1 11 2 10 3 9 4 8 5 7 6 6 7 5 8 4 9 3 10 2 11 1 12 13 13
REMARK SMILES IDX 14 14 15 15 16 16 17 17 18 18 19 19 20 20 21 21 22 22 23 23
REMARK SMILES IDX 24 24
REMARK H PARENT
REMARK Flexibility Score: inf
ROOT
ATOM      1  C   UNL     1      39.918  22.807 221.926  1.00  0.00     0.000 C 
ENDROOT
BRANCH   1   2
ATOM      2  C   UNL     1      40.726  21.977 222.937  1.00  0.00     0.000 C 
BRANCH   2   3
ATOM      3  C   UNL     1      39.823  20.998 223.692  1.00  0.00     0.000 C 
BRANCH   3   4
ATOM      4  C   UNL     1      38.430  21.602 223.930  1.00  0.00    -0.000 C 
BRANCH   4   5
ATOM      5  C   UNL     1      38.066  21.669 225.422  1.00  0.00    -0.000 C 
BRANCH   5   6
ATOM      6  C   UNL     1      39.105  22.450 226.242  1.00  0.00    -0.000 C 
BRANCH   6   7
ATOM      7  C   UNL     1      39.700  21.579 227.355  1.00  0.00    -0.000 C 
BRANCH   7   8
ATOM      8  C   UNL     1      41.133  22.021 227.685  1.00  0.00    -0.000 C 
BRANCH   8   9
ATOM      9  C   UNL     1      41.568  23.272 226.904  1.00  0.00    -0.000 C 
BRANCH   9  10
ATOM     10  C   UNL     1      43.099  23.401 226.752  1.00  0.00    -0.000 C 
BRANCH  10  11
ATOM     11  C   UNL     1      43.491  24.170 225.481  1.00  0.00    -0.003 C 
ATOM     12  C   UNL     1      43.263  25.670 225.652  1.00  0.00     0.004 C 
ENDBRANCH  10  11
ENDBRANCH   9  10
ENDBRANCH   8   9
ENDBRANCH   7   8
ENDBRANCH   6   7
ENDBRANCH   5   6
ENDBRANCH   4   5
ENDBRANCH   3   4
ENDBRANCH   2   3
ENDBRANCH   1   2
BRANCH   1  13
ATOM     13  C   UNL     1      40.019  24.323 222.190  1.00  0.00     0.000 C 
BRANCH  13  14
ATOM     14  C   UNL     1      40.517  24.680 223.601  1.00  0.00     0.000 C 
BRANCH  14  15
ATOM     15  C   UNL     1      39.602  25.682 224.325  1.00  0.00     0.000 C 
BRANCH  15  16
ATOM     16  C   UNL     1      38.219  25.799 223.659  1.00  0.00     0.000 C 
BRANCH  16  17
ATOM     17  C   UNL     1      37.095  25.097 224.444  1.00  0.00     0.000 C 
BRANCH  17  18
ATOM     18  C   UNL     1      35.863  24.801 223.570  1.00  0.00     0.000 C 
BRANCH  18  19
ATOM     19  C   UNL     1      36.192  24.824 222.061  1.00  0.00     0.000 C 
BRANCH  19  20
ATOM     20  C   UNL     1      36.023  23.457 221.371  1.00  0.00     0.006 C 
BRANCH  20  21
ATOM     21  C   UNL     1      36.820  23.304 220.067  1.00  0.00     0.053 C 
BRANCH  21  22
ATOM     22  C   UNL     1      36.024  23.712 218.863  1.00  0.00     0.041 C 
ATOM     23  O   UNL     1      36.545  23.681 217.715  1.00  0.00    -0.550 OA
ATOM     24  O   UNL     1      34.706  24.126 219.008  1.00  0.00    -0.550 OA
ENDBRANCH  21  22
ENDBRANCH  20  21
ENDBRANCH  19  20
ENDBRANCH  18  19
ENDBRANCH  17  18
ENDBRANCH  16  17
ENDBRANCH  15  16
ENDBRANCH  14  15
ENDBRANCH  13  14
ENDBRANCH   1  13
TORSDOF 20
ENDMDL
MODEL 6
REMARK VINA RESULT:    -3.153      2.733      6.132
REMARK INTER + INTRA:         -10.970
REMARK INTER:                  -7.541
REMARK INTRA:                  -3.429
REMARK UNBOUND:                -4.132
REMARK SMILES CCCCCCCCCCCCCCCCCCCCCC(=O)[O-]
REMARK SMILES IDX 12 1 11 2 10 3 9 4 8 5 7 6 6 7 5 8 4 9 3 10 2 11 1 12 13 13
REMARK SMILES IDX 14 14 15 15 16 16 17 17 18 18 19 19 20 20 21 21 22 22 23 23
REMARK SMILES IDX 24 24
REMARK H PARENT
REMARK Flexibility Score: inf
ROOT
ATOM      1  C   UNL     1      40.433  20.012 227.900  1.00  0.00     0.000 C 
ENDROOT
BRANCH   1   2
ATOM      2  C   UNL     1      38.974  19.776 228.323  1.00  0.00     0.000 C 
BRANCH   2   3
ATOM      3  C   UNL     1      38.709  18.288 228.573  1.00  0.00     0.000 C 
BRANCH   3   4
ATOM      4  C   UNL     1      38.243  17.587 227.287  1.00  0.00    -0.000 C 
BRANCH   4   5
ATOM      5  C   UNL     1      37.428  18.516 226.374  1.00  0.00    -0.000 C 
BRANCH   5   6
ATOM      6  C   UNL     1      37.956  18.526 224.931  1.00  0.00    -0.000 C 
BRANCH   6   7
ATOM      7  C   UNL     1      39.438  18.137 224.881  1.00  0.00    -0.000 C 
BRANCH   7   8
ATOM      8  C   UNL     1      40.147  18.836 223.714  1.00  0.00    -0.000 C 
BRANCH   8   9
ATOM      9  C   UNL     1      41.590  19.250 224.052  1.00  0.00    -0.000 C 
BRANCH   9  10
ATOM     10  C   UNL     1      42.439  19.590 222.808  1.00  0.00    -0.000 C 
BRANCH  10  11
ATOM     11  C   UNL     1      43.311  20.836 223.027  1.00  0.00    -0.003 C 
ATOM     12  C   UNL     1      43.996  20.797 224.391  1.00  0.00     0.004 C 
ENDBRANCH  10  11
ENDBRANCH   9  10
ENDBRANCH   8   9
ENDBRANCH   7   8
ENDBRANCH   6   7
ENDBRANCH   5   6
ENDBRANCH   4   5
ENDBRANCH   3   4
ENDBRANCH   2   3
ENDBRANCH   1   2
BRANCH   1  13
ATOM     13  C   UNL     1      40.608  21.308 227.080  1.00  0.00     0.000 C 
BRANCH  13  14
ATOM     14  C   UNL     1      39.314  21.803 226.410  1.00  0.00     0.000 C 
BRANCH  14  15
ATOM     15  C   UNL     1      39.519  22.222 224.945  1.00  0.00     0.000 C 
BRANCH  15  16
ATOM     16  C   UNL     1      40.897  22.865 224.706  1.00  0.00     0.000 C 
BRANCH  16  17
ATOM     17  C   UNL     1      40.873  24.009 223.675  1.00  0.00     0.000 C 
BRANCH  17  18
ATOM     18  C   UNL     1      40.264  23.574 222.329  1.00  0.00     0.000 C 
BRANCH  18  19
ATOM     19  C   UNL     1      38.909  24.258 222.046  1.00  0.00     0.000 C 
BRANCH  19  20
ATOM     20  C   UNL     1      37.848  23.308 221.458  1.00  0.00     0.006 C 
BRANCH  20  21
ATOM     21  C   UNL     1      36.717  22.944 222.431  1.00  0.00     0.053 C 
BRANCH  21  22
ATOM     22  C   UNL     1      35.541  23.866 222.304  1.00  0.00     0.041 C 
ATOM     23  O   UNL     1      34.820  23.840 221.270  1.00  0.00    -0.550 OA
ATOM     24  O   UNL     1      35.240  24.754 223.328  1.00  0.00    -0.550 OA
ENDBRANCH  21  22
ENDBRANCH  20  21
ENDBRANCH  19  20
ENDBRANCH  18  19
ENDBRANCH  17  18
ENDBRANCH  16  17
ENDBRANCH  15  16
ENDBRANCH  14  15
ENDBRANCH  13  14
ENDBRANCH   1  13
TORSDOF 20
ENDMDL
MODEL 7
REMARK VINA RESULT:    -3.124      1.527      3.501
REMARK INTER + INTRA:         -10.909
REMARK INTER:                  -7.728
REMARK INTRA:                  -3.181
REMARK UNBOUND:                -4.132
REMARK SMILES CCCCCCCCCCCCCCCCCCCCCC(=O)[O-]
REMARK SMILES IDX 12 1 11 2 10 3 9 4 8 5 7 6 6 7 5 8 4 9 3 10 2 11 1 12 13 13
REMARK SMILES IDX 14 14 15 15 16 16 17 17 18 18 19 19 20 20 21 21 22 22 23 23
REMARK SMILES IDX 24 24
REMARK H PARENT
REMARK Flexibility Score: inf
ROOT
ATOM      1  C   UNL     1      44.042  21.374 224.720  1.00  0.00     0.000 C 
ENDROOT
BRANCH   1   2
ATOM      2  C   UNL     1      43.347  21.125 226.068  1.00  0.00     0.000 C 
BRANCH   2   3
ATOM      3  C   UNL     1      42.259  22.173 226.326  1.00  0.00     0.000 C 
BRANCH   3   4
ATOM      4  C   UNL     1      42.232  23.228 225.210  1.00  0.00    -0.000 C 
BRANCH   4   5
ATOM      5  C   UNL     1      41.208  24.343 225.480  1.00  0.00    -0.000 C 
BRANCH   5   6
ATOM      6  C   UNL     1      40.355  24.663 224.243  1.00  0.00    -0.000 C 
BRANCH   6   7
ATOM      7  C   UNL     1      40.915  23.978 222.991  1.00  0.00    -0.000 C 
BRANCH   7   8
ATOM      8  C   UNL     1      39.784  23.370 222.149  1.00  0.00    -0.000 C 
BRANCH   8   9
ATOM      9  C   UNL     1      38.387  23.788 222.636  1.00  0.00    -0.000 C 
BRANCH   9  10
ATOM     10  C   UNL     1      37.414  22.601 222.803  1.00  0.00    -0.000 C 
BRANCH  10  11
ATOM     11  C   UNL     1      36.083  22.837 222.072  1.00  0.00    -0.003 C 
ATOM     12  C   UNL     1      36.267  23.774 220.881  1.00  0.00     0.004 C 
ENDBRANCH  10  11
ENDBRANCH   9  10
ENDBRANCH   8   9
ENDBRANCH   7   8
ENDBRANCH   6   7
ENDBRANCH   5   6
ENDBRANCH   4   5
ENDBRANCH   3   4
ENDBRANCH   2   3
ENDBRANCH   1   2
BRANCH   1  13
ATOM     13  C   UNL     1      44.367  20.064 223.972  1.00  0.00     0.000 C 
BRANCH  13  14
ATOM     14  C   UNL     1      43.994  20.087 222.479  1.00  0.00     0.000 C 
BRANCH  14  15
ATOM     15  C   UNL     1      42.844  21.058 222.163  1.00  0.00     0.000 C 
BRANCH  15  16
ATOM     16  C   UNL     1      41.712  20.385 221.365  1.00  0.00     0.000 C 
BRANCH  16  17
ATOM     17  C   UNL     1      40.792  19.502 222.227  1.00  0.00     0.000 C 
BRANCH  17  18
ATOM     18  C   UNL     1      40.584  20.074 223.641  1.00  0.00     0.000 C 
BRANCH  18  19
ATOM     19  C   UNL     1      40.722  18.998 224.740  1.00  0.00     0.000 C 
BRANCH  19  20
ATOM     20  C   UNL     1      39.542  18.009 224.789  1.00  0.00     0.006 C 
BRANCH  20  21
ATOM     21  C   UNL     1      39.158  17.552 226.204  1.00  0.00     0.053 C 
BRANCH  21  22
ATOM     22  C   UNL     1      37.672  17.490 226.397  1.00  0.00     0.041 C 
ATOM     23  O   UNL     1      36.955  18.497 226.145  1.00  0.00    -0.550 OA
ATOM     24  O   UNL     1      37.078  16.322 226.856  1.00  0.00    -0.550 OA
ENDBRANCH  21  22
ENDBRANCH  20  21
ENDBRANCH  19  20
ENDBRANCH  18  19
ENDBRANCH  17  18
ENDBRANCH  16  17
ENDBRANCH  15  16
ENDBRANCH  14  15
ENDBRANCH  13  14
ENDBRANCH   1  13
TORSDOF 20
ENDMDL
MODEL 8
REMARK VINA RESULT:    -3.072      2.666      6.253
REMARK INTER + INTRA:         -10.795
REMARK INTER:                  -6.865
REMARK INTRA:                  -3.931
REMARK UNBOUND:                -4.132
REMARK SMILES CCCCCCCCCCCCCCCCCCCCCC(=O)[O-]
REMARK SMILES IDX 12 1 11 2 10 3 9 4 8 5 7 6 6 7 5 8 4 9 3 10 2 11 1 12 13 13
REMARK SMILES IDX 14 14 15 15 16 16 17 17 18 18 19 19 20 20 21 21 22 22 23 23
REMARK SMILES IDX 24 24
REMARK H PARENT
REMARK Flexibility Score: inf
ROOT
ATOM      1  C   UNL     1      39.891  21.578 226.124  1.00  0.00     0.000 C 
ENDROOT
BRANCH   1   2
ATOM      2  C   UNL     1      39.980  21.909 224.625  1.00  0.00     0.000 C 
BRANCH   2   3
ATOM      3  C   UNL     1      41.153  22.851 224.339  1.00  0.00     0.000 C 
BRANCH   3   4
ATOM      4  C   UNL     1      41.411  22.967 222.829  1.00  0.00    -0.000 C 
BRANCH   4   5
ATOM      5  C   UNL     1      40.540  22.003 222.008  1.00  0.00    -0.000 C 
BRANCH   5   6
ATOM      6  C   UNL     1      41.353  20.843 221.414  1.00  0.00    -0.000 C 
BRANCH   6   7
ATOM      7  C   UNL     1      42.822  20.916 221.850  1.00  0.00    -0.000 C 
BRANCH   7   8
ATOM      8  C   UNL     1      43.176  19.741 222.772  1.00  0.00    -0.000 C 
BRANCH   8   9
ATOM      9  C   UNL     1      41.936  19.046 223.359  1.00  0.00    -0.000 C 
BRANCH   9  10
ATOM     10  C   UNL     1      42.045  18.773 224.875  1.00  0.00    -0.000 C 
BRANCH  10  11
ATOM     11  C   UNL     1      40.827  18.008 225.413  1.00  0.00    -0.003 C 
ATOM     12  C   UNL     1      39.597  18.243 224.539  1.00  0.00     0.004 C 
ENDBRANCH  10  11
ENDBRANCH   9  10
ENDBRANCH   8   9
ENDBRANCH   7   8
ENDBRANCH   6   7
ENDBRANCH   5   6
ENDBRANCH   4   5
ENDBRANCH   3   4
ENDBRANCH   2   3
ENDBRANCH   1   2
BRANCH   1  13
ATOM     13  C   UNL     1      38.439  21.591 226.647  1.00  0.00     0.000 C 
BRANCH  13  14
ATOM     14  C   UNL     1      37.848  23.001 226.817  1.00  0.00     0.000 C 
BRANCH  14  15
ATOM     15  C   UNL     1      38.824  23.985 227.483  1.00  0.00     0.000 C 
BRANCH  15  16
ATOM     16  C   UNL     1      39.109  25.214 226.602  1.00  0.00     0.000 C 
BRANCH  16  17
ATOM     17  C   UNL     1      38.138  25.359 225.414  1.00  0.00     0.000 C 
BRANCH  17  18
ATOM     18  C   UNL     1      38.786  26.065 224.209  1.00  0.00     0.000 C 
BRANCH  18  19
ATOM     19  C   UNL     1      38.609  25.272 222.896  1.00  0.00     0.000 C 
BRANCH  19  20
ATOM     20  C   UNL     1      37.561  24.147 222.989  1.00  0.00     0.006 C 
BRANCH  20  21
ATOM     21  C   UNL     1      37.030  23.663 221.631  1.00  0.00     0.053 C 
BRANCH  21  22
ATOM     22  C   UNL     1      35.586  24.014 221.428  1.00  0.00     0.041 C 
ATOM     23  O   UNL     1      34.852  24.287 222.417  1.00  0.00    -0.550 OA
ATOM     24  O   UNL     1      35.050  24.040 220.148  1.00  0.00    -0.550 OA
ENDBRANCH  21  22
ENDBRANCH  20  21
ENDBRANCH  19  20
ENDBRANCH  18  19
ENDBRANCH  17  18
ENDBRANCH  16  17
ENDBRANCH  15  16
ENDBRANCH  14  15
ENDBRANCH  13  14
ENDBRANCH   1  13
TORSDOF 20
ENDMDL
MODEL 9
REMARK VINA RESULT:    -3.061      1.623      3.536
REMARK INTER + INTRA:         -10.772
REMARK INTER:                  -7.668
REMARK INTRA:                  -3.104
REMARK UNBOUND:                -4.132
REMARK SMILES CCCCCCCCCCCCCCCCCCCCCC(=O)[O-]
REMARK SMILES IDX 12 1 11 2 10 3 9 4 8 5 7 6 6 7 5 8 4 9 3 10 2 11 1 12 13 13
REMARK SMILES IDX 14 14 15 15 16 16 17 17 18 18 19 19 20 20 21 21 22 22 23 23
REMARK SMILES IDX 24 24
REMARK H PARENT
REMARK Flexibility Score: inf
ROOT
ATOM      1  C   UNL     1      41.394  22.878 223.155  1.00  0.00     0.000 C 
ENDROOT
BRANCH   1   2
ATOM      2  C   UNL     1      40.946  22.720 224.617  1.00  0.00     0.000 C 
BRANCH   2   3
ATOM      3  C   UNL     1      39.573  22.045 224.702  1.00  0.00     0.000 C 
BRANCH   3   4
ATOM      4  C   UNL     1      38.638  22.814 225.648  1.00  0.00    -0.000 C 
BRANCH   4   5
ATOM      5  C   UNL     1      38.797  24.338 225.520  1.00  0.00    -0.000 C 
BRANCH   5   6
ATOM      6  C   UNL     1      37.683  24.971 224.672  1.00  0.00    -0.000 C 
BRANCH   6   7
ATOM      7  C   UNL     1      38.194  25.343 223.275  1.00  0.00    -0.000 C 
BRANCH   7   8
ATOM      8  C   UNL     1      37.872  24.234 222.263  1.00  0.00    -0.000 C 
BRANCH   8   9
ATOM      9  C   UNL     1      36.595  23.454 222.617  1.00  0.00    -0.000 C 
BRANCH   9  10
ATOM     10  C   UNL     1      35.622  23.297 221.429  1.00  0.00    -0.000 C 
BRANCH  10  11
ATOM     11  C   UNL     1      35.707  24.480 220.452  1.00  0.00    -0.003 C 
ATOM     12  C   UNL     1      35.269  24.069 219.049  1.00  0.00     0.004 C 
ENDBRANCH  10  11
ENDBRANCH   9  10
ENDBRANCH   8   9
ENDBRANCH   7   8
ENDBRANCH   6   7
ENDBRANCH   5   6
ENDBRANCH   4   5
ENDBRANCH   3   4
ENDBRANCH   2   3
ENDBRANCH   1   2
BRANCH   1  13
ATOM     13  C   UNL     1      40.610  21.959 222.194  1.00  0.00     0.000 C 
BRANCH  13  14
ATOM     14  C   UNL     1      41.420  20.756 221.680  1.00  0.00     0.000 C 
BRANCH  14  15
ATOM     15  C   UNL     1      41.262  19.505 222.560  1.00  0.00     0.000 C 
BRANCH  15  16
ATOM     16  C   UNL     1      42.496  19.253 223.445  1.00  0.00     0.000 C 
BRANCH  16  17
ATOM     17  C   UNL     1      42.200  18.380 224.680  1.00  0.00     0.000 C 
BRANCH  17  18
ATOM     18  C   UNL     1      41.411  19.140 225.761  1.00  0.00     0.000 C 
BRANCH  18  19
ATOM     19  C   UNL     1      40.239  18.310 226.329  1.00  0.00     0.000 C 
BRANCH  19  20
ATOM     20  C   UNL     1      38.888  18.603 225.651  1.00  0.00     0.006 C 
BRANCH  20  21
ATOM     21  C   UNL     1      37.689  18.619 226.610  1.00  0.00     0.053 C 
BRANCH  21  22
ATOM     22  C   UNL     1      36.600  17.683 226.175  1.00  0.00     0.041 C 
ATOM     23  O   UNL     1      36.004  17.866 225.079  1.00  0.00    -0.550 OA
ATOM     24  O   UNL     1      36.244  16.609 226.979  1.00  0.00    -0.550 OA
ENDBRANCH  21  22
ENDBRANCH  20  21
ENDBRANCH  19  20
ENDBRANCH  18  19
ENDBRANCH  17  18
ENDBRANCH  16  17
ENDBRANCH  15  16
ENDBRANCH  14  15
ENDBRANCH  13  14
ENDBRANCH   1  13
TORSDOF 20
ENDMDL
