MODEL 1
REMARK VINA RESULT:    -4.274      0.000      0.000
REMARK INTER + INTRA:          -8.249
REMARK INTER:                  -6.773
REMARK INTRA:                  -1.477
REMARK UNBOUND:                -1.477
REMARK SMILES CCCCCCCCCCCC(=O)[O-]
REMARK SMILES IDX 7 1 8 2 9 3 10 4 11 5 12 6 13 7 14 8 6 9 5 10 4 11 3 12 2 13
REMARK SMILES IDX 1 14
REMARK H PARENT
REMARK Flexibility Score: inf
ROOT
ATOM      1  C   UNL     1       7.090  10.489  32.284  1.00  0.00     0.000 C 
ENDROOT
BRANCH   1   2
ATOM      2  C   UNL     1       8.194  10.509  31.210  1.00  0.00     0.000 C 
BRANCH   2   3
ATOM      3  C   UNL     1       9.143   9.296  31.233  1.00  0.00     0.000 C 
BRANCH   3   4
ATOM      4  C   UNL     1       9.096   8.474  29.937  1.00  0.00     0.006 C 
BRANCH   4   5
ATOM      5  C   UNL     1      10.275   8.821  29.024  1.00  0.00     0.053 C 
BRANCH   5   6
ATOM      6  C   UNL     1       9.832   9.725  27.916  1.00  0.00     0.041 C 
ATOM      7  O   UNL     1       9.793  10.970  28.093  1.00  0.00    -0.550 OA
ATOM      8  O   UNL     1       9.415   9.186  26.706  1.00  0.00    -0.550 OA
ENDBRANCH   5   6
ENDBRANCH   4   5
ENDBRANCH   3   4
ENDBRANCH   2   3
ENDBRANCH   1   2
BRANCH   1   9
ATOM      9  C   UNL     1       5.752  11.051  31.774  1.00  0.00     0.000 C 
BRANCH   9  10
ATOM     10  C   UNL     1       4.679   9.962  31.601  1.00  0.00    -0.000 C 
BRANCH  10  11
ATOM     11  C   UNL     1       4.375   9.577  30.139  1.00  0.00    -0.000 C 
BRANCH  11  12
ATOM     12  C   UNL     1       5.341   8.550  29.515  1.00  0.00    -0.000 C 
BRANCH  12  13
ATOM     13  C   UNL     1       5.892   8.938  28.132  1.00  0.00    -0.003 C 
ATOM     14  C   UNL     1       6.192  10.431  28.008  1.00  0.00     0.004 C 
ENDBRANCH  12  13
ENDBRANCH  11  12
ENDBRANCH  10  11
ENDBRANCH   9  10
ENDBRANCH   1   9
TORSDOF 10
ENDMDL
MODEL 2
REMARK VINA RESULT:    -4.147      1.780      3.753
REMARK INTER + INTRA:          -8.048
REMARK INTER:                  -6.829
REMARK INTRA:                  -1.219
REMARK UNBOUND:                -1.477
REMARK SMILES CCCCCCCCCCCC(=O)[O-]
REMARK SMILES IDX 7 1 8 2 9 3 10 4 11 5 12 6 13 7 14 8 6 9 5 10 4 11 3 12 2 13
REMARK SMILES IDX 1 14
REMARK H PARENT
REMARK Flexibility Score: inf
ROOT
ATOM      1  C   UNL     1       4.862   8.746  29.877  1.00  0.00     0.000 C 
ENDROOT
BRANCH   1   2
ATOM      2  C   UNL     1       4.849   9.053  28.368  1.00  0.00     0.000 C 
BRANCH   2   3
ATOM      3  C   UNL     1       6.011   9.935  27.875  1.00  0.00     0.000 C 
BRANCH   3   4
ATOM      4  C   UNL     1       7.385   9.276  28.059  1.00  0.00     0.006 C 
BRANCH   4   5
ATOM      5  C   UNL     1       7.432   7.906  27.376  1.00  0.00     0.053 C 
BRANCH   5   6
ATOM      6  C   UNL     1       8.017   6.881  28.296  1.00  0.00     0.041 C 
ATOM      7  O   UNL     1       7.288   5.979  28.785  1.00  0.00    -0.550 OA
ATOM      8  O   UNL     1       9.357   6.954  28.654  1.00  0.00    -0.550 OA
ENDBRANCH   5   6
ENDBRANCH   4   5
ENDBRANCH   3   4
ENDBRANCH   2   3
ENDBRANCH   1   2
BRANCH   1   9
ATOM      9  C   UNL     1       3.895   9.636  30.675  1.00  0.00     0.000 C 
BRANCH   9  10
ATOM     10  C   UNL     1       4.589  10.381  31.829  1.00  0.00    -0.000 C 
BRANCH  10  11
ATOM     11  C   UNL     1       5.911  11.079  31.449  1.00  0.00    -0.000 C 
BRANCH  11  12
ATOM     12  C   UNL     1       7.153  10.604  32.229  1.00  0.00    -0.000 C 
BRANCH  12  13
ATOM     13  C   UNL     1       8.456  10.572  31.413  1.00  0.00    -0.003 C 
ATOM     14  C   UNL     1       9.127   9.199  31.415  1.00  0.00     0.004 C 
ENDBRANCH  12  13
ENDBRANCH  11  12
ENDBRANCH  10  11
ENDBRANCH   9  10
ENDBRANCH   1   9
TORSDOF 10
ENDMDL
MODEL 3
REMARK VINA RESULT:    -4.133      1.471      3.850
REMARK INTER + INTRA:          -8.026
REMARK INTER:                  -6.891
REMARK INTRA:                  -1.135
REMARK UNBOUND:                -1.477
REMARK SMILES CCCCCCCCCCCC(=O)[O-]
REMARK SMILES IDX 7 1 8 2 9 3 10 4 11 5 12 6 13 7 14 8 6 9 5 10 4 11 3 12 2 13
REMARK SMILES IDX 1 14
REMARK H PARENT
REMARK Flexibility Score: inf
ROOT
ATOM      1  C   UNL     1       5.027  10.441  32.041  1.00  0.00     0.000 C 
ENDROOT
BRANCH   1   2
ATOM      2  C   UNL     1       4.020   9.976  30.973  1.00  0.00     0.000 C 
BRANCH   2   3
ATOM      3  C   UNL     1       4.346   8.620  30.321  1.00  0.00     0.000 C 
BRANCH   3   4
ATOM      4  C   UNL     1       4.599   8.726  28.810  1.00  0.00     0.006 C 
BRANCH   4   5
ATOM      5  C   UNL     1       6.042   8.345  28.468  1.00  0.00     0.053 C 
BRANCH   5   6
ATOM      6  C   UNL     1       6.460   8.980  27.178  1.00  0.00     0.041 C 
ATOM      7  O   UNL     1       7.385   8.471  26.492  1.00  0.00    -0.550 OA
ATOM      8  O   UNL     1       5.861  10.161  26.760  1.00  0.00    -0.550 OA
ENDBRANCH   5   6
ENDBRANCH   4   5
ENDBRANCH   3   4
ENDBRANCH   2   3
ENDBRANCH   1   2
BRANCH   1   9
ATOM      9  C   UNL     1       6.322  11.008  31.433  1.00  0.00     0.000 C 
BRANCH   9  10
ATOM     10  C   UNL     1       7.588  10.388  32.049  1.00  0.00    -0.000 C 
BRANCH  10  11
ATOM     11  C   UNL     1       8.650   9.933  31.027  1.00  0.00    -0.000 C 
BRANCH  11  12
ATOM     12  C   UNL     1       8.696  10.750  29.720  1.00  0.00    -0.000 C 
BRANCH  12  13
ATOM     13  C   UNL     1       9.642  10.193  28.643  1.00  0.00    -0.003 C 
ATOM     14  C   UNL     1      10.236   8.835  29.016  1.00  0.00     0.004 C 
ENDBRANCH  12  13
ENDBRANCH  11  12
ENDBRANCH  10  11
ENDBRANCH   9  10
ENDBRANCH   1   9
TORSDOF 10
ENDMDL
MODEL 4
REMARK VINA RESULT:    -4.111      2.849      5.676
REMARK INTER + INTRA:          -7.992
REMARK INTER:                  -6.346
REMARK INTRA:                  -1.646
REMARK UNBOUND:                -1.477
REMARK SMILES CCCCCCCCCCCC(=O)[O-]
REMARK SMILES IDX 7 1 8 2 9 3 10 4 11 5 12 6 13 7 14 8 6 9 5 10 4 11 3 12 2 13
REMARK SMILES IDX 1 14
REMARK H PARENT
REMARK Flexibility Score: inf
ROOT
ATOM      1  C   UNL     1       7.216   6.807  27.048  1.00  0.00     0.000 C 
ENDROOT
BRANCH   1   2
ATOM      2  C   UNL     1       6.490   7.634  28.125  1.00  0.00     0.000 C 
BRANCH   2   3
ATOM      3  C   UNL     1       5.929   8.983  27.638  1.00  0.00     0.000 C 
BRANCH   3   4
ATOM      4  C   UNL     1       6.060  10.100  28.684  1.00  0.00     0.006 C 
BRANCH   4   5
ATOM      5  C   UNL     1       6.227   9.517  30.091  1.00  0.00     0.053 C 
BRANCH   5   6
ATOM      6  C   UNL     1       5.021   9.813  30.927  1.00  0.00     0.041 C 
ATOM      7  O   UNL     1       3.876   9.476  30.528  1.00  0.00    -0.550 OA
ATOM      8  O   UNL     1       5.159  10.506  32.122  1.00  0.00    -0.550 OA
ENDBRANCH   5   6
ENDBRANCH   4   5
ENDBRANCH   3   4
ENDBRANCH   2   3
ENDBRANCH   1   2
BRANCH   1   9
ATOM      9  C   UNL     1       7.751   7.670  25.893  1.00  0.00     0.000 C 
BRANCH   9  10
ATOM     10  C   UNL     1       9.231   8.052  26.074  1.00  0.00    -0.000 C 
BRANCH  10  11
ATOM     11  C   UNL     1       9.477   9.516  26.491  1.00  0.00    -0.000 C 
BRANCH  11  12
ATOM     12  C   UNL     1       9.756   9.734  27.992  1.00  0.00    -0.000 C 
BRANCH  12  13
ATOM     13  C   UNL     1      10.416   8.543  28.706  1.00  0.00    -0.003 C 
ATOM     14  C   UNL     1       9.708   8.160  30.005  1.00  0.00     0.004 C 
ENDBRANCH  12  13
ENDBRANCH  11  12
ENDBRANCH  10  11
ENDBRANCH   9  10
ENDBRANCH   1   9
TORSDOF 10
ENDMDL
MODEL 5
REMARK VINA RESULT:    -4.070      2.507      4.052
REMARK INTER + INTRA:          -7.926
REMARK INTER:                  -7.005
REMARK INTRA:                  -0.921
REMARK UNBOUND:                -1.477
REMARK SMILES CCCCCCCCCCCC(=O)[O-]
REMARK SMILES IDX 7 1 8 2 9 3 10 4 11 5 12 6 13 7 14 8 6 9 5 10 4 11 3 12 2 13
REMARK SMILES IDX 1 14
REMARK H PARENT
REMARK Flexibility Score: inf
ROOT
ATOM      1  C   UNL     1       4.261   8.868  28.807  1.00  0.00     0.000 C 
ENDROOT
BRANCH   1   2
ATOM      2  C   UNL     1       5.311   9.730  28.083  1.00  0.00     0.000 C 
BRANCH   2   3
ATOM      3  C   UNL     1       6.737   9.149  28.078  1.00  0.00     0.000 C 
BRANCH   3   4
ATOM      4  C   UNL     1       6.771   7.647  27.762  1.00  0.00     0.006 C 
BRANCH   4   5
ATOM      5  C   UNL     1       7.849   7.330  26.721  1.00  0.00     0.053 C 
BRANCH   5   6
ATOM      6  C   UNL     1       7.456   6.140  25.905  1.00  0.00     0.041 C 
ATOM      7  O   UNL     1       8.197   5.740  24.969  1.00  0.00    -0.550 OA
ATOM      8  O   UNL     1       6.245   5.503  26.145  1.00  0.00    -0.550 OA
ENDBRANCH   5   6
ENDBRANCH   4   5
ENDBRANCH   3   4
ENDBRANCH   2   3
ENDBRANCH   1   2
BRANCH   1   9
ATOM      9  C   UNL     1       4.483   8.811  30.328  1.00  0.00     0.000 C 
BRANCH   9  10
ATOM     10  C   UNL     1       3.875  10.019  31.063  1.00  0.00    -0.000 C 
BRANCH  10  11
ATOM     11  C   UNL     1       4.824  10.716  32.059  1.00  0.00    -0.000 C 
BRANCH  11  12
ATOM     12  C   UNL     1       6.219  11.064  31.503  1.00  0.00    -0.000 C 
BRANCH  12  13
ATOM     13  C   UNL     1       7.378  10.261  32.118  1.00  0.00    -0.003 C 
ATOM     14  C   UNL     1       8.646  10.298  31.265  1.00  0.00     0.004 C 
ENDBRANCH  12  13
ENDBRANCH  11  12
ENDBRANCH  10  11
ENDBRANCH   9  10
ENDBRANCH   1   9
TORSDOF 10
ENDMDL
MODEL 6
REMARK VINA RESULT:    -4.060      1.365      1.755
REMARK INTER + INTRA:          -7.910
REMARK INTER:                  -6.615
REMARK INTRA:                  -1.295
REMARK UNBOUND:                -1.477
REMARK SMILES CCCCCCCCCCCC(=O)[O-]
REMARK SMILES IDX 7 1 8 2 9 3 10 4 11 5 12 6 13 7 14 8 6 9 5 10 4 11 3 12 2 13
REMARK SMILES IDX 1 14
REMARK H PARENT
REMARK Flexibility Score: inf
ROOT
ATOM      1  C   UNL     1       7.620  10.368  32.167  1.00  0.00     0.000 C 
ENDROOT
BRANCH   1   2
ATOM      2  C   UNL     1       8.736   9.961  31.188  1.00  0.00     0.000 C 
BRANCH   2   3
ATOM      3  C   UNL     1       8.789  10.782  29.886  1.00  0.00     0.000 C 
BRANCH   3   4
ATOM      4  C   UNL     1       9.499  10.045  28.741  1.00  0.00     0.006 C 
BRANCH   4   5
ATOM      5  C   UNL     1      10.121   8.736  29.233  1.00  0.00     0.053 C 
BRANCH   5   6
ATOM      6  C   UNL     1       9.515   7.568  28.520  1.00  0.00     0.041 C 
ATOM      7  O   UNL     1       8.664   6.843  29.099  1.00  0.00    -0.550 OA
ATOM      8  O   UNL     1       9.929   7.250  27.233  1.00  0.00    -0.550 OA
ENDBRANCH   5   6
ENDBRANCH   4   5
ENDBRANCH   3   4
ENDBRANCH   2   3
ENDBRANCH   1   2
BRANCH   1   9
ATOM      9  C   UNL     1       6.425  11.036  31.466  1.00  0.00     0.000 C 
BRANCH   9  10
ATOM     10  C   UNL     1       5.089  10.336  31.773  1.00  0.00    -0.000 C 
BRANCH  10  11
ATOM     11  C   UNL     1       4.446   9.610  30.574  1.00  0.00    -0.000 C 
BRANCH  11  12
ATOM     12  C   UNL     1       5.439   8.941  29.602  1.00  0.00    -0.000 C 
BRANCH  12  13
ATOM     13  C   UNL     1       5.482   9.559  28.194  1.00  0.00    -0.003 C 
ATOM     14  C   UNL     1       6.355   8.766  27.222  1.00  0.00     0.004 C 
ENDBRANCH  12  13
ENDBRANCH  11  12
ENDBRANCH  10  11
ENDBRANCH   9  10
ENDBRANCH   1   9
TORSDOF 10
ENDMDL
MODEL 7
REMARK VINA RESULT:    -4.039      4.693      6.827
REMARK INTER + INTRA:          -7.878
REMARK INTER:                  -6.314
REMARK INTRA:                  -1.563
REMARK UNBOUND:                -1.477
REMARK SMILES CCCCCCCCCCCC(=O)[O-]
REMARK SMILES IDX 7 1 8 2 9 3 10 4 11 5 12 6 13 7 14 8 6 9 5 10 4 11 3 12 2 13
REMARK SMILES IDX 1 14
REMARK H PARENT
REMARK Flexibility Score: inf
ROOT
ATOM      1  C   UNL     1       7.655   5.161  28.285  1.00  0.00     0.000 C 
ENDROOT
BRANCH   1   2
ATOM      2  C   UNL     1       7.293   5.518  26.832  1.00  0.00     0.000 C 
BRANCH   2   3
ATOM      3  C   UNL     1       7.458   7.005  26.468  1.00  0.00     0.000 C 
BRANCH   3   4
ATOM      4  C   UNL     1       8.040   7.218  25.063  1.00  0.00     0.006 C 
BRANCH   4   5
ATOM      5  C   UNL     1       8.403   5.881  24.411  1.00  0.00     0.053 C 
BRANCH   5   6
ATOM      6  C   UNL     1       7.988   5.870  22.973  1.00  0.00     0.041 C 
ATOM      7  O   UNL     1       8.433   4.988  22.193  1.00  0.00    -0.550 OA
ATOM      8  O   UNL     1       7.151   6.865  22.485  1.00  0.00    -0.550 OA
ENDBRANCH   5   6
ENDBRANCH   4   5
ENDBRANCH   3   4
ENDBRANCH   2   3
ENDBRANCH   1   2
BRANCH   1   9
ATOM      9  C   UNL     1       8.695   4.032  28.381  1.00  0.00     0.000 C 
BRANCH   9  10
ATOM     10  C   UNL     1       9.721   4.071  27.235  1.00  0.00    -0.000 C 
BRANCH  10  11
ATOM     11  C   UNL     1      11.029   4.820  27.561  1.00  0.00    -0.000 C 
BRANCH  11  12
ATOM     12  C   UNL     1      11.172   6.209  26.907  1.00  0.00    -0.000 C 
BRANCH  12  13
ATOM     13  C   UNL     1      11.499   7.353  27.882  1.00  0.00    -0.003 C 
ATOM     14  C   UNL     1      10.386   7.606  28.898  1.00  0.00     0.004 C 
ENDBRANCH  12  13
ENDBRANCH  11  12
ENDBRANCH  10  11
ENDBRANCH   9  10
ENDBRANCH   1   9
TORSDOF 10
ENDMDL
MODEL 8
REMARK VINA RESULT:    -4.014      2.975      5.155
REMARK INTER + INTRA:          -7.838
REMARK INTER:                  -6.467
REMARK INTRA:                  -1.372
REMARK UNBOUND:                -1.477
REMARK SMILES CCCCCCCCCCCC(=O)[O-]
REMARK SMILES IDX 7 1 8 2 9 3 10 4 11 5 12 6 13 7 14 8 6 9 5 10 4 11 3 12 2 13
REMARK SMILES IDX 1 14
REMARK H PARENT
REMARK Flexibility Score: inf
ROOT
ATOM      1  C   UNL     1       9.712   7.937  25.016  1.00  0.00     0.000 C 
ENDROOT
BRANCH   1   2
ATOM      2  C   UNL     1       9.838   8.463  26.458  1.00  0.00     0.000 C 
BRANCH   2   3
ATOM      3  C   UNL     1      10.965   7.821  27.287  1.00  0.00     0.000 C 
BRANCH   3   4
ATOM      4  C   UNL     1      10.961   8.271  28.755  1.00  0.00     0.006 C 
BRANCH   4   5
ATOM      5  C   UNL     1       9.712   7.762  29.481  1.00  0.00     0.053 C 
BRANCH   5   6
ATOM      6  C   UNL     1       9.205   8.795  30.438  1.00  0.00     0.041 C 
ATOM      7  O   UNL     1       9.479   8.712  31.663  1.00  0.00    -0.550 OA
ATOM      8  O   UNL     1       8.388   9.821  29.982  1.00  0.00    -0.550 OA
ENDBRANCH   5   6
ENDBRANCH   4   5
ENDBRANCH   3   4
ENDBRANCH   2   3
ENDBRANCH   1   2
BRANCH   1   9
ATOM      9  C   UNL     1       8.562   6.930  24.847  1.00  0.00     0.000 C 
BRANCH   9  10
ATOM     10  C   UNL     1       8.838   5.589  25.550  1.00  0.00    -0.000 C 
BRANCH  10  11
ATOM     11  C   UNL     1       7.937   5.298  26.768  1.00  0.00    -0.000 C 
BRANCH  11  12
ATOM     12  C   UNL     1       6.607   6.078  26.802  1.00  0.00    -0.000 C 
BRANCH  12  13
ATOM     13  C   UNL     1       6.500   7.123  27.926  1.00  0.00    -0.003 C 
ATOM     14  C   UNL     1       6.366   8.552  27.400  1.00  0.00     0.004 C 
ENDBRANCH  12  13
ENDBRANCH  11  12
ENDBRANCH  10  11
ENDBRANCH   9  10
ENDBRANCH   1   9
TORSDOF 10
ENDMDL
MODEL 9
REMARK VINA RESULT:    -3.994      3.156      5.843
REMARK INTER + INTRA:          -7.806
REMARK INTER:                  -6.137
REMARK INTRA:                  -1.670
REMARK UNBOUND:                -1.477
REMARK SMILES CCCCCCCCCCCC(=O)[O-]
REMARK SMILES IDX 7 1 8 2 9 3 10 4 11 5 12 6 13 7 14 8 6 9 5 10 4 11 3 12 2 13
REMARK SMILES IDX 1 14
REMARK H PARENT
REMARK Flexibility Score: inf
ROOT
ATOM      1  C   UNL     1       7.520   5.561  26.324  1.00  0.00     0.000 C 
ENDROOT
BRANCH   1   2
ATOM      2  C   UNL     1       7.981   5.682  27.788  1.00  0.00     0.000 C 
BRANCH   2   3
ATOM      3  C   UNL     1       7.238   6.746  28.617  1.00  0.00     0.000 C 
BRANCH   3   4
ATOM      4  C   UNL     1       6.128   7.454  27.827  1.00  0.00     0.006 C 
BRANCH   4   5
ATOM      5  C   UNL     1       6.192   8.970  28.030  1.00  0.00     0.053 C 
BRANCH   5   6
ATOM      6  C   UNL     1       6.039   9.312  29.479  1.00  0.00     0.041 C 
ATOM      7  O   UNL     1       6.981   9.869  30.101  1.00  0.00    -0.550 OA
ATOM      8  O   UNL     1       4.875   8.968  30.155  1.00  0.00    -0.550 OA
ENDBRANCH   5   6
ENDBRANCH   4   5
ENDBRANCH   3   4
ENDBRANCH   2   3
ENDBRANCH   1   2
BRANCH   1   9
ATOM      9  C   UNL     1       8.643   5.864  25.318  1.00  0.00     0.000 C 
BRANCH   9  10
ATOM     10  C   UNL     1       8.692   7.347  24.911  1.00  0.00    -0.000 C 
BRANCH  10  11
ATOM     11  C   UNL     1       9.879   8.140  25.494  1.00  0.00    -0.000 C 
BRANCH  11  12
ATOM     12  C   UNL     1       9.498   9.270  26.472  1.00  0.00    -0.000 C 
BRANCH  12  13
ATOM     13  C   UNL     1       9.957   9.050  27.923  1.00  0.00    -0.003 C 
ATOM     14  C   UNL     1      10.952   7.899  28.066  1.00  0.00     0.004 C 
ENDBRANCH  12  13
ENDBRANCH  11  12
ENDBRANCH  10  11
ENDBRANCH   9  10
ENDBRANCH   1   9
TORSDOF 10
ENDMDL
