MODEL 1
REMARK VINA RESULT:    -4.842      0.000      0.000
REMARK INTER + INTRA:          -6.028
REMARK INTER:                  -5.833
REMARK INTRA:                  -0.196
REMARK UNBOUND:                -0.196
REMARK SMILES NC(=O)C[C@H]([NH3+])C(=O)[O-]
REMARK SMILES IDX 4 1 5 2 6 3 7 7 8 8 9 9 2 10 3 11 1 12
REMARK H PARENT 6 4 6 5 6 6 1 13 1 14
REMARK Flexibility Score: inf
ROOT
ATOM      1  C   UNL     1      25.020   6.698  15.242  1.00  0.00     0.171 C 
ENDROOT
BRANCH   1   2
ATOM      2  C   UNL     1      23.688   6.605  14.465  1.00  0.00     0.237 C 
BRANCH   2   3
ATOM      3  N   UNL     1      23.796   7.195  13.124  1.00  0.00    -0.350 N 
ATOM      4  H   UNL     1      24.783   7.489  12.945  1.00  0.00     0.345 HD
ATOM      5  H   UNL     1      23.168   8.024  13.023  1.00  0.00     0.345 HD
ATOM      6  H   UNL     1      23.532   6.481  12.405  1.00  0.00     0.345 HD
ENDBRANCH   2   3
BRANCH   2   7
ATOM      7  C   UNL     1      22.554   7.225  15.242  1.00  0.00     0.100 C 
ATOM      8  O   UNL     1      21.735   6.488  15.853  1.00  0.00    -0.544 OA
ATOM      9  O   UNL     1      22.430   8.606  15.336  1.00  0.00    -0.544 OA
ENDBRANCH   2   7
ENDBRANCH   1   2
BRANCH   1  10
ATOM     10  C   UNL     1      25.222   5.567  16.211  1.00  0.00     0.223 C 
ATOM     11  O   UNL     1      26.247   5.547  16.944  1.00  0.00    -0.275 OA
ATOM     12  N   UNL     1      24.272   4.505  16.294  1.00  0.00    -0.369 N 
ATOM     13  H   UNL     1      23.422   4.501  15.689  1.00  0.00     0.159 HD
ATOM     14  H   UNL     1      24.422   3.716  16.962  1.00  0.00     0.159 HD
ENDBRANCH   1  10
TORSDOF 4
ENDMDL
MODEL 2
REMARK VINA RESULT:    -4.600      1.841      3.695
REMARK INTER + INTRA:          -5.737
REMARK INTER:                  -5.650
REMARK INTRA:                  -0.087
REMARK UNBOUND:                -0.196
REMARK SMILES NC(=O)C[C@H]([NH3+])C(=O)[O-]
REMARK SMILES IDX 4 1 5 2 6 3 7 7 8 8 9 9 2 10 3 11 1 12
REMARK H PARENT 6 4 6 5 6 6 1 13 1 14
REMARK Flexibility Score: inf
ROOT
ATOM      1  C   UNL     1      22.724   6.232  15.451  1.00  0.00     0.171 C 
ENDROOT
BRANCH   1   2
ATOM      2  C   UNL     1      23.978   6.862  14.806  1.00  0.00     0.237 C 
BRANCH   2   3
ATOM      3  N   UNL     1      24.004   6.658  13.351  1.00  0.00    -0.350 N 
ATOM      4  H   UNL     1      23.479   7.428  12.876  1.00  0.00     0.345 HD
ATOM      5  H   UNL     1      23.578   5.740  13.090  1.00  0.00     0.345 HD
ATOM      6  H   UNL     1      24.993   6.681  13.012  1.00  0.00     0.345 HD
ENDBRANCH   2   3
BRANCH   2   7
ATOM      7  C   UNL     1      25.242   6.352  15.449  1.00  0.00     0.100 C 
ATOM      8  O   UNL     1      26.334   6.948  15.248  1.00  0.00    -0.544 OA
ATOM      9  O   UNL     1      25.210   5.259  16.307  1.00  0.00    -0.544 OA
ENDBRANCH   2   7
ENDBRANCH   1   2
BRANCH   1  10
ATOM     10  C   UNL     1      21.603   7.214  15.653  1.00  0.00     0.223 C 
ATOM     11  O   UNL     1      21.826   8.449  15.544  1.00  0.00    -0.275 OA
ATOM     12  N   UNL     1      20.292   6.759  15.988  1.00  0.00    -0.369 N 
ATOM     13  H   UNL     1      20.092   5.740  16.091  1.00  0.00     0.159 HD
ATOM     14  H   UNL     1      19.519   7.445  16.137  1.00  0.00     0.159 HD
ENDBRANCH   1  10
TORSDOF 4
ENDMDL
MODEL 3
REMARK VINA RESULT:    -4.560      1.765      3.804
REMARK INTER + INTRA:          -5.689
REMARK INTER:                  -5.603
REMARK INTRA:                  -0.086
REMARK UNBOUND:                -0.196
REMARK SMILES NC(=O)C[C@H]([NH3+])C(=O)[O-]
REMARK SMILES IDX 4 1 5 2 6 3 7 7 8 8 9 9 2 10 3 11 1 12
REMARK H PARENT 6 4 6 5 6 6 1 13 1 14
REMARK Flexibility Score: inf
ROOT
ATOM      1  C   UNL     1      22.779   6.195  15.505  1.00  0.00     0.171 C 
ENDROOT
BRANCH   1   2
ATOM      2  C   UNL     1      23.972   6.898  14.819  1.00  0.00     0.237 C 
BRANCH   2   3
ATOM      3  N   UNL     1      23.968   6.685  13.366  1.00  0.00    -0.350 N 
ATOM      4  H   UNL     1      23.853   7.600  12.874  1.00  0.00     0.345 HD
ATOM      5  H   UNL     1      23.195   6.041  13.079  1.00  0.00     0.345 HD
ATOM      6  H   UNL     1      24.882   6.268  13.071  1.00  0.00     0.345 HD
ENDBRANCH   2   3
BRANCH   2   7
ATOM      7  C   UNL     1      25.284   6.474  15.428  1.00  0.00     0.100 C 
ATOM      8  O   UNL     1      26.325   7.150  15.210  1.00  0.00    -0.544 OA
ATOM      9  O   UNL     1      25.351   5.372  16.272  1.00  0.00    -0.544 OA
ENDBRANCH   2   7
ENDBRANCH   1   2
BRANCH   1  10
ATOM     10  C   UNL     1      21.584   7.089  15.681  1.00  0.00     0.223 C 
ATOM     11  O   UNL     1      20.476   6.594  16.019  1.00  0.00    -0.275 OA
ATOM     12  N   UNL     1      21.689   8.494  15.449  1.00  0.00    -0.369 N 
ATOM     13  H   UNL     1      22.597   8.920  15.161  1.00  0.00     0.159 HD
ATOM     14  H   UNL     1      20.853   9.110  15.563  1.00  0.00     0.159 HD
ENDBRANCH   1  10
TORSDOF 4
ENDMDL
MODEL 4
REMARK VINA RESULT:    -4.338      1.606      1.815
REMARK INTER + INTRA:          -5.421
REMARK INTER:                  -5.237
REMARK INTRA:                  -0.184
REMARK UNBOUND:                -0.196
REMARK SMILES NC(=O)C[C@H]([NH3+])C(=O)[O-]
REMARK SMILES IDX 4 1 5 2 6 3 7 7 8 8 9 9 2 10 3 11 1 12
REMARK H PARENT 6 4 6 5 6 6 1 13 1 14
REMARK Flexibility Score: inf
ROOT
ATOM      1  C   UNL     1      25.181   6.726  15.109  1.00  0.00     0.171 C 
ENDROOT
BRANCH   1   2
ATOM      2  C   UNL     1      23.843   6.099  15.561  1.00  0.00     0.237 C 
BRANCH   2   3
ATOM      3  N   UNL     1      23.597   4.808  14.904  1.00  0.00    -0.350 N 
ATOM      4  H   UNL     1      23.747   4.030  15.586  1.00  0.00     0.345 HD
ATOM      5  H   UNL     1      24.231   4.672  14.084  1.00  0.00     0.345 HD
ATOM      6  H   UNL     1      22.605   4.766  14.574  1.00  0.00     0.345 HD
ENDBRANCH   2   3
BRANCH   2   7
ATOM      7  C   UNL     1      22.691   7.047  15.345  1.00  0.00     0.100 C 
ATOM      8  O   UNL     1      21.507   6.633  15.461  1.00  0.00    -0.544 OA
ATOM      9  O   UNL     1      22.920   8.390  15.071  1.00  0.00    -0.544 OA
ENDBRANCH   2   7
ENDBRANCH   1   2
BRANCH   1  10
ATOM     10  C   UNL     1      26.361   6.247  15.908  1.00  0.00     0.223 C 
ATOM     11  O   UNL     1      26.177   5.529  16.927  1.00  0.00    -0.275 OA
ATOM     12  N   UNL     1      27.688   6.616  15.533  1.00  0.00    -0.369 N 
ATOM     13  H   UNL     1      27.858   7.217  14.697  1.00  0.00     0.159 HD
ATOM     14  H   UNL     1      28.504   6.290  16.097  1.00  0.00     0.159 HD
ENDBRANCH   1  10
TORSDOF 4
ENDMDL
MODEL 5
REMARK VINA RESULT:    -4.336      1.881      3.736
REMARK INTER + INTRA:          -5.419
REMARK INTER:                  -5.342
REMARK INTRA:                  -0.077
REMARK UNBOUND:                -0.196
REMARK SMILES NC(=O)C[C@H]([NH3+])C(=O)[O-]
REMARK SMILES IDX 4 1 5 2 6 3 7 7 8 8 9 9 2 10 3 11 1 12
REMARK H PARENT 6 4 6 5 6 6 1 13 1 14
REMARK Flexibility Score: inf
ROOT
ATOM      1  C   UNL     1      22.769   7.609  15.220  1.00  0.00     0.171 C 
ENDROOT
BRANCH   1   2
ATOM      2  C   UNL     1      24.118   7.197  14.590  1.00  0.00     0.237 C 
BRANCH   2   3
ATOM      3  N   UNL     1      23.948   6.681  13.225  1.00  0.00    -0.350 N 
ATOM      4  H   UNL     1      22.976   6.876  12.891  1.00  0.00     0.345 HD
ATOM      5  H   UNL     1      24.124   5.652  13.184  1.00  0.00     0.345 HD
ATOM      6  H   UNL     1      24.617   7.165  12.581  1.00  0.00     0.345 HD
ENDBRANCH   2   3
BRANCH   2   7
ATOM      7  C   UNL     1      24.851   6.207  15.458  1.00  0.00     0.100 C 
ATOM      8  O   UNL     1      24.247   5.196  15.905  1.00  0.00    -0.544 OA
ATOM      9  O   UNL     1      26.204   6.368  15.731  1.00  0.00    -0.544 OA
ENDBRANCH   2   7
ENDBRANCH   1   2
BRANCH   1  10
ATOM     10  C   UNL     1      22.574   9.098  15.286  1.00  0.00     0.223 C 
ATOM     11  O   UNL     1      23.570   9.853  15.444  1.00  0.00    -0.275 OA
ATOM     12  N   UNL     1      21.266   9.663  15.192  1.00  0.00    -0.369 N 
ATOM     13  H   UNL     1      20.429   9.052  15.070  1.00  0.00     0.159 HD
ATOM     14  H   UNL     1      21.135  10.698  15.249  1.00  0.00     0.159 HD
ENDBRANCH   1  10
TORSDOF 4
ENDMDL
MODEL 6
REMARK VINA RESULT:    -4.243      1.188      3.832
REMARK INTER + INTRA:          -5.307
REMARK INTER:                  -4.860
REMARK INTRA:                  -0.447
REMARK UNBOUND:                -0.196
REMARK SMILES NC(=O)C[C@H]([NH3+])C(=O)[O-]
REMARK SMILES IDX 4 1 5 2 6 3 7 7 8 8 9 9 2 10 3 11 1 12
REMARK H PARENT 6 4 6 5 6 6 1 13 1 14
REMARK Flexibility Score: inf
ROOT
ATOM      1  C   UNL     1      23.675   5.933  14.727  1.00  0.00     0.171 C 
ENDROOT
BRANCH   1   2
ATOM      2  C   UNL     1      24.352   5.190  15.899  1.00  0.00     0.237 C 
BRANCH   2   3
ATOM      3  N   UNL     1      23.475   5.112  17.075  1.00  0.00    -0.350 N 
ATOM      4  H   UNL     1      22.938   6.004  17.177  1.00  0.00     0.345 HD
ATOM      5  H   UNL     1      24.025   4.943  17.948  1.00  0.00     0.345 HD
ATOM      6  H   UNL     1      22.790   4.331  16.951  1.00  0.00     0.345 HD
ENDBRANCH   2   3
BRANCH   2   7
ATOM      7  C   UNL     1      25.680   5.811  16.251  1.00  0.00     0.100 C 
ATOM      8  O   UNL     1      26.266   5.480  17.316  1.00  0.00    -0.544 OA
ATOM      9  O   UNL     1      26.294   6.709  15.386  1.00  0.00    -0.544 OA
ENDBRANCH   2   7
ENDBRANCH   1   2
BRANCH   1  10
ATOM     10  C   UNL     1      23.031   7.228  15.138  1.00  0.00     0.223 C 
ATOM     11  O   UNL     1      21.926   7.213  15.743  1.00  0.00    -0.275 OA
ATOM     12  N   UNL     1      23.651   8.477  14.829  1.00  0.00    -0.369 N 
ATOM     13  H   UNL     1      24.561   8.508  14.320  1.00  0.00     0.159 HD
ATOM     14  H   UNL     1      23.194   9.374  15.107  1.00  0.00     0.159 HD
ENDBRANCH   1  10
TORSDOF 4
ENDMDL
MODEL 7
REMARK VINA RESULT:    -4.073      1.409      1.776
REMARK INTER + INTRA:          -5.102
REMARK INTER:                  -4.760
REMARK INTRA:                  -0.342
REMARK UNBOUND:                -0.196
REMARK SMILES NC(=O)C[C@H]([NH3+])C(=O)[O-]
REMARK SMILES IDX 4 1 5 2 6 3 7 7 8 8 9 9 2 10 3 11 1 12
REMARK H PARENT 6 4 6 5 6 6 1 13 1 14
REMARK Flexibility Score: inf
ROOT
ATOM      1  C   UNL     1      23.158   6.334  15.790  1.00  0.00     0.171 C 
ENDROOT
BRANCH   1   2
ATOM      2  C   UNL     1      23.147   7.350  14.627  1.00  0.00     0.237 C 
BRANCH   2   3
ATOM      3  N   UNL     1      24.111   6.988  13.578  1.00  0.00    -0.350 N 
ATOM      4  H   UNL     1      24.802   7.762  13.450  1.00  0.00     0.345 HD
ATOM      5  H   UNL     1      23.630   6.804  12.669  1.00  0.00     0.345 HD
ATOM      6  H   UNL     1      24.633   6.128  13.865  1.00  0.00     0.345 HD
ENDBRANCH   2   3
BRANCH   2   7
ATOM      7  C   UNL     1      23.382   8.755  15.121  1.00  0.00     0.100 C 
ATOM      8  O   UNL     1      24.535   9.258  15.057  1.00  0.00    -0.544 OA
ATOM      9  O   UNL     1      22.327   9.523  15.599  1.00  0.00    -0.544 OA
ENDBRANCH   2   7
ENDBRANCH   1   2
BRANCH   1  10
ATOM     10  C   UNL     1      24.404   5.494  15.834  1.00  0.00     0.223 C 
ATOM     11  O   UNL     1      25.534   6.051  15.852  1.00  0.00    -0.275 OA
ATOM     12  N   UNL     1      24.318   4.069  15.835  1.00  0.00    -0.369 N 
ATOM     13  H   UNL     1      23.391   3.591  15.812  1.00  0.00     0.159 HD
ATOM     14  H   UNL     1      25.187   3.490  15.855  1.00  0.00     0.159 HD
ENDBRANCH   1  10
TORSDOF 4
ENDMDL
MODEL 8
REMARK VINA RESULT:    -3.923      2.040      2.842
REMARK INTER + INTRA:          -4.921
REMARK INTER:                  -4.726
REMARK INTRA:                  -0.196
REMARK UNBOUND:                -0.196
REMARK SMILES NC(=O)C[C@H]([NH3+])C(=O)[O-]
REMARK SMILES IDX 4 1 5 2 6 3 7 7 8 8 9 9 2 10 3 11 1 12
REMARK H PARENT 6 4 6 5 6 6 1 13 1 14
REMARK Flexibility Score: inf
ROOT
ATOM      1  C   UNL     1      23.890   7.291  14.314  1.00  0.00     0.171 C 
ENDROOT
BRANCH   1   2
ATOM      2  C   UNL     1      23.425   6.350  15.447  1.00  0.00     0.237 C 
BRANCH   2   3
ATOM      3  N   UNL     1      23.524   4.937  15.057  1.00  0.00    -0.350 N 
ATOM      4  H   UNL     1      24.040   4.402  15.793  1.00  0.00     0.345 HD
ATOM      5  H   UNL     1      24.020   4.829  14.143  1.00  0.00     0.345 HD
ATOM      6  H   UNL     1      22.564   4.529  14.970  1.00  0.00     0.345 HD
ENDBRANCH   2   3
BRANCH   2   7
ATOM      7  C   UNL     1      22.031   6.691  15.908  1.00  0.00     0.100 C 
ATOM      8  O   UNL     1      21.568   6.161  16.953  1.00  0.00    -0.544 OA
ATOM      9  O   UNL     1      21.266   7.626  15.221  1.00  0.00    -0.544 OA
ENDBRANCH   2   7
ENDBRANCH   1   2
BRANCH   1  10
ATOM     10  C   UNL     1      24.394   8.617  14.812  1.00  0.00     0.223 C 
ATOM     11  O   UNL     1      25.614   8.757  15.093  1.00  0.00    -0.275 OA
ATOM     12  N   UNL     1      23.497   9.713  14.988  1.00  0.00    -0.369 N 
ATOM     13  H   UNL     1      22.482   9.612  14.769  1.00  0.00     0.159 HD
ATOM     14  H   UNL     1      23.850  10.630  15.344  1.00  0.00     0.159 HD
ENDBRANCH   1  10
TORSDOF 4
ENDMDL
MODEL 9
REMARK VINA RESULT:    -3.658      1.757      3.626
REMARK INTER + INTRA:          -4.602
REMARK INTER:                  -4.389
REMARK INTRA:                  -0.212
REMARK UNBOUND:                -0.196
REMARK SMILES NC(=O)C[C@H]([NH3+])C(=O)[O-]
REMARK SMILES IDX 4 1 5 2 6 3 7 7 8 8 9 9 2 10 3 11 1 12
REMARK H PARENT 6 4 6 5 6 6 1 13 1 14
REMARK Flexibility Score: inf
ROOT
ATOM      1  C   UNL     1      24.275   7.204  14.306  1.00  0.00     0.171 C 
ENDROOT
BRANCH   1   2
ATOM      2  C   UNL     1      25.173   7.997  15.280  1.00  0.00     0.237 C 
BRANCH   2   3
ATOM      3  N   UNL     1      25.475   9.342  14.772  1.00  0.00    -0.350 N 
ATOM      4  H   UNL     1      24.828  10.039  15.207  1.00  0.00     0.345 HD
ATOM      5  H   UNL     1      25.376   9.385  13.732  1.00  0.00     0.345 HD
ATOM      6  H   UNL     1      26.455   9.602  15.029  1.00  0.00     0.345 HD
ENDBRANCH   2   3
BRANCH   2   7
ATOM      7  C   UNL     1      26.437   7.241  15.603  1.00  0.00     0.100 C 
ATOM      8  O   UNL     1      27.547   7.837  15.585  1.00  0.00    -0.544 OA
ATOM      9  O   UNL     1      26.388   5.902  15.972  1.00  0.00    -0.544 OA
ENDBRANCH   2   7
ENDBRANCH   1   2
BRANCH   1  10
ATOM     10  C   UNL     1      23.301   6.294  15.002  1.00  0.00     0.223 C 
ATOM     11  O   UNL     1      22.225   6.762  15.459  1.00  0.00    -0.275 OA
ATOM     12  N   UNL     1      23.596   4.907  15.169  1.00  0.00    -0.369 N 
ATOM     13  H   UNL     1      24.487   4.504  14.805  1.00  0.00     0.159 HD
ATOM     14  H   UNL     1      22.921   4.281  15.662  1.00  0.00     0.159 HD
ENDBRANCH   1  10
TORSDOF 4
ENDMDL
