MODEL 1
REMARK VINA RESULT:    18.802      0.000      0.000
REMARK INTER + INTRA:          21.270
REMARK INTER:                  21.001
REMARK INTRA:                   0.269
REMARK UNBOUND:                 0.269
REMARK SMILES O=C([O-])c1ccccc1C(=O)[O-]
REMARK SMILES IDX 4 1 9 2 5 3 8 4 6 5 7 6 2 7 1 8 3 9 10 10 11 11 12 12
REMARK H PARENT
REMARK Flexibility Score: inf
ROOT
ATOM      1  C   UNL     1     -27.371  -5.702 -11.037  1.00  0.00     0.006 A 
ATOM      2  C   UNL     1     -26.914  -4.465 -11.574  1.00  0.00     0.006 A 
ATOM      3  C   UNL     1     -28.648  -5.764 -10.451  1.00  0.00     0.010 A 
ATOM      4  C   UNL     1     -27.725  -3.323 -11.445  1.00  0.00     0.010 A 
ATOM      5  C   UNL     1     -29.445  -4.622 -10.355  1.00  0.00     0.001 A 
ATOM      6  C   UNL     1     -28.979  -3.403 -10.839  1.00  0.00     0.001 A 
ENDROOT
BRANCH   1   7
ATOM      7  C   UNL     1     -26.535  -6.925 -11.002  1.00  0.00     0.072 C 
ATOM      8  O   UNL     1     -27.045  -8.061 -11.188  1.00  0.00    -0.545 OA
ATOM      9  O   UNL     1     -25.159  -6.822 -10.829  1.00  0.00    -0.545 OA
ENDBRANCH   1   7
BRANCH   2  10
ATOM     10  C   UNL     1     -25.646  -4.330 -12.328  1.00  0.00     0.072 C 
ATOM     11  O   UNL     1     -25.621  -4.481 -13.579  1.00  0.00    -0.545 OA
ATOM     12  O   UNL     1     -24.478  -3.966 -11.669  1.00  0.00    -0.545 OA
ENDBRANCH   2  10
TORSDOF 2
ENDMDL
MODEL 2
REMARK VINA RESULT:    18.820      0.028      2.914
REMARK INTER + INTRA:          21.289
REMARK INTER:                  21.005
REMARK INTRA:                   0.284
REMARK UNBOUND:                 0.269
REMARK SMILES O=C([O-])c1ccccc1C(=O)[O-]
REMARK SMILES IDX 4 1 9 2 5 3 8 4 6 5 7 6 2 7 1 8 3 9 10 10 11 11 12 12
REMARK H PARENT
REMARK Flexibility Score: inf
ROOT
ATOM      1  C   UNL     1     -26.898  -4.460 -11.586  1.00  0.00     0.006 A 
ATOM      2  C   UNL     1     -27.351  -5.693 -11.036  1.00  0.00     0.006 A 
ATOM      3  C   UNL     1     -27.707  -3.316 -11.460  1.00  0.00     0.010 A 
ATOM      4  C   UNL     1     -28.623  -5.748 -10.439  1.00  0.00     0.010 A 
ATOM      5  C   UNL     1     -28.956  -3.390 -10.843  1.00  0.00     0.001 A 
ATOM      6  C   UNL     1     -29.418  -4.606 -10.344  1.00  0.00     0.001 A 
ENDROOT
BRANCH   1   7
ATOM      7  C   UNL     1     -25.637  -4.334 -12.353  1.00  0.00     0.072 C 
ATOM      8  O   UNL     1     -25.626  -4.473 -13.604  1.00  0.00    -0.545 OA
ATOM      9  O   UNL     1     -24.457  -3.992 -11.702  1.00  0.00    -0.545 OA
ENDBRANCH   1   7
BRANCH   2  10
ATOM     10  C   UNL     1     -26.516  -6.917 -10.999  1.00  0.00     0.072 C 
ATOM     11  O   UNL     1     -27.032  -8.053 -11.174  1.00  0.00    -0.545 OA
ATOM     12  O   UNL     1     -25.140  -6.818 -10.839  1.00  0.00    -0.545 OA
ENDBRANCH   2  10
TORSDOF 2
ENDMDL
MODEL 3
REMARK VINA RESULT:    20.054     16.830     17.738
REMARK INTER + INTRA:          22.669
REMARK INTER:                  22.857
REMARK INTRA:                  -0.189
REMARK UNBOUND:                 0.269
REMARK SMILES O=C([O-])c1ccccc1C(=O)[O-]
REMARK SMILES IDX 4 1 9 2 5 3 8 4 6 5 7 6 2 7 1 8 3 9 10 10 11 11 12 12
REMARK H PARENT
REMARK Flexibility Score: inf
ROOT
ATOM      1  C   UNL     1     -14.630  -7.314 -23.633  1.00  0.00     0.006 A 
ATOM      2  C   UNL     1     -13.647  -6.739 -22.778  1.00  0.00     0.006 A 
ATOM      3  C   UNL     1     -14.990  -6.637 -24.812  1.00  0.00     0.010 A 
ATOM      4  C   UNL     1     -13.111  -5.479 -23.102  1.00  0.00     0.010 A 
ATOM      5  C   UNL     1     -14.428  -5.399 -25.125  1.00  0.00     0.001 A 
ATOM      6  C   UNL     1     -13.500  -4.816 -24.266  1.00  0.00     0.001 A 
ENDROOT
BRANCH   1   7
ATOM      7  C   UNL     1     -15.350  -8.567 -23.307  1.00  0.00     0.072 C 
ATOM      8  O   UNL     1     -16.528  -8.537 -22.865  1.00  0.00    -0.545 OA
ATOM      9  O   UNL     1     -14.751  -9.797 -23.551  1.00  0.00    -0.545 OA
ENDBRANCH   1   7
BRANCH   2  10
ATOM     10  C   UNL     1     -13.104  -7.435 -21.588  1.00  0.00     0.072 C 
ATOM     11  O   UNL     1     -13.468  -7.106 -20.428  1.00  0.00    -0.545 OA
ATOM     12  O   UNL     1     -12.235  -8.508 -21.743  1.00  0.00    -0.545 OA
ENDBRANCH   2  10
TORSDOF 2
ENDMDL
MODEL 4
REMARK VINA RESULT:    20.083     16.806     17.791
REMARK INTER + INTRA:          22.701
REMARK INTER:                  22.892
REMARK INTRA:                  -0.192
REMARK UNBOUND:                 0.269
REMARK SMILES O=C([O-])c1ccccc1C(=O)[O-]
REMARK SMILES IDX 4 1 9 2 5 3 8 4 6 5 7 6 2 7 1 8 3 9 10 10 11 11 12 12
REMARK H PARENT
REMARK Flexibility Score: inf
ROOT
ATOM      1  C   UNL     1     -13.662  -6.722 -22.773  1.00  0.00     0.006 A 
ATOM      2  C   UNL     1     -14.646  -7.291 -23.631  1.00  0.00     0.006 A 
ATOM      3  C   UNL     1     -13.115  -5.467 -23.097  1.00  0.00     0.010 A 
ATOM      4  C   UNL     1     -14.997  -6.613 -24.813  1.00  0.00     0.010 A 
ATOM      5  C   UNL     1     -13.495  -4.802 -24.263  1.00  0.00     0.001 A 
ATOM      6  C   UNL     1     -14.424  -5.380 -25.125  1.00  0.00     0.001 A 
ENDROOT
BRANCH   1   7
ATOM      7  C   UNL     1     -13.128  -7.422 -21.581  1.00  0.00     0.072 C 
ATOM      8  O   UNL     1     -13.491  -7.091 -20.422  1.00  0.00    -0.545 OA
ATOM      9  O   UNL     1     -12.266  -8.502 -21.736  1.00  0.00    -0.545 OA
ENDBRANCH   1   7
BRANCH   2  10
ATOM     10  C   UNL     1     -15.376  -8.538 -23.308  1.00  0.00     0.072 C 
ATOM     11  O   UNL     1     -16.554  -8.498 -22.861  1.00  0.00    -0.545 OA
ATOM     12  O   UNL     1     -14.792  -9.774 -23.559  1.00  0.00    -0.545 OA
ENDBRANCH   2  10
TORSDOF 2
ENDMDL
MODEL 5
REMARK VINA RESULT:    20.858     15.038     17.039
REMARK INTER + INTRA:          23.566
REMARK INTER:                  23.592
REMARK INTRA:                  -0.027
REMARK UNBOUND:                 0.269
REMARK SMILES O=C([O-])c1ccccc1C(=O)[O-]
REMARK SMILES IDX 4 1 9 2 5 3 8 4 6 5 7 6 2 7 1 8 3 9 10 10 11 11 12 12
REMARK H PARENT
REMARK Flexibility Score: inf
ROOT
ATOM      1  C   UNL     1     -13.676  -7.879 -22.031  1.00  0.00     0.006 A 
ATOM      2  C   UNL     1     -14.052  -7.365 -20.757  1.00  0.00     0.006 A 
ATOM      3  C   UNL     1     -12.557  -8.727 -22.123  1.00  0.00     0.010 A 
ATOM      4  C   UNL     1     -13.256  -7.667 -19.637  1.00  0.00     0.010 A 
ATOM      5  C   UNL     1     -11.797  -9.030 -20.994  1.00  0.00     0.001 A 
ATOM      6  C   UNL     1     -12.138  -8.492 -19.756  1.00  0.00     0.001 A 
ENDROOT
BRANCH   1   7
ATOM      7  C   UNL     1     -14.368  -7.508 -23.287  1.00  0.00     0.072 C 
ATOM      8  O   UNL     1     -15.288  -8.229 -23.754  1.00  0.00    -0.545 OA
ATOM      9  O   UNL     1     -14.050  -6.317 -23.931  1.00  0.00    -0.545 OA
ENDBRANCH   1   7
BRANCH   2  10
ATOM     10  C   UNL     1     -15.287  -6.577 -20.536  1.00  0.00     0.072 C 
ATOM     11  O   UNL     1     -15.238  -5.443 -19.991  1.00  0.00    -0.545 OA
ATOM     12  O   UNL     1     -16.510  -7.055 -20.990  1.00  0.00    -0.545 OA
ENDBRANCH   2  10
TORSDOF 2
ENDMDL
MODEL 6
REMARK VINA RESULT:    20.863     15.042     17.001
REMARK INTER + INTRA:          23.572
REMARK INTER:                  23.597
REMARK INTRA:                  -0.025
REMARK UNBOUND:                 0.269
REMARK SMILES O=C([O-])c1ccccc1C(=O)[O-]
REMARK SMILES IDX 4 1 9 2 5 3 8 4 6 5 7 6 2 7 1 8 3 9 10 10 11 11 12 12
REMARK H PARENT
REMARK Flexibility Score: inf
ROOT
ATOM      1  C   UNL     1     -14.077  -7.374 -20.783  1.00  0.00     0.006 A 
ATOM      2  C   UNL     1     -13.681  -7.866 -22.059  1.00  0.00     0.006 A 
ATOM      3  C   UNL     1     -13.297  -7.691 -19.655  1.00  0.00     0.010 A 
ATOM      4  C   UNL     1     -12.558  -8.709 -22.148  1.00  0.00     0.010 A 
ATOM      5  C   UNL     1     -12.174  -8.510 -19.772  1.00  0.00     0.001 A 
ATOM      6  C   UNL     1     -11.813  -9.028 -21.013  1.00  0.00     0.001 A 
ENDROOT
BRANCH   1   7
ATOM      7  C   UNL     1     -15.319  -6.595 -20.567  1.00  0.00     0.072 C 
ATOM      8  O   UNL     1     -15.285  -5.469 -20.006  1.00  0.00    -0.545 OA
ATOM      9  O   UNL     1     -16.533  -7.075 -21.046  1.00  0.00    -0.545 OA
ENDBRANCH   1   7
BRANCH   2  10
ATOM     10  C   UNL     1     -14.357  -7.480 -23.319  1.00  0.00     0.072 C 
ATOM     11  O   UNL     1     -15.271  -8.197 -23.806  1.00  0.00    -0.545 OA
ATOM     12  O   UNL     1     -14.035  -6.281 -23.944  1.00  0.00    -0.545 OA
ENDBRANCH   2  10
TORSDOF 2
ENDMDL
