MODEL 1
REMARK VINA RESULT:    -4.122      0.000      0.000
REMARK INTER + INTRA:          -4.777
REMARK INTER:                  -4.724
REMARK INTRA:                  -0.053
REMARK UNBOUND:                -0.053
REMARK SMILES O=C([O-])c1cc(O)c(O)c(O)c1
REMARK SMILES IDX 4 1 5 2 12 3 6 4 10 5 8 6 2 7 1 8 3 9 7 10 11 12 9 14
REMARK H PARENT 7 11 11 13 9 15
REMARK Flexibility Score: inf
ROOT
ATOM      1  C   UNL     1     -11.930 -27.547  -2.226  1.00  0.00     0.005 A 
ATOM      2  C   UNL     1     -10.603 -27.907  -2.518  1.00  0.00     0.060 A 
ATOM      3  C   UNL     1     -12.230 -27.020  -0.958  1.00  0.00     0.060 A 
ATOM      4  C   UNL     1      -9.593 -27.745  -1.565  1.00  0.00     0.162 A 
ATOM      5  C   UNL     1     -11.223 -26.855   0.002  1.00  0.00     0.162 A 
ATOM      6  C   UNL     1      -9.900 -27.217  -0.299  1.00  0.00     0.200 A 
ENDROOT
BRANCH   1   7
ATOM      7  C   UNL     1     -12.999 -27.719  -3.234  1.00  0.00     0.072 C 
ATOM      8  O   UNL     1     -12.723 -28.107  -4.402  1.00  0.00    -0.545 OA
ATOM      9  O   UNL     1     -14.324 -27.454  -2.910  1.00  0.00    -0.545 OA
ENDBRANCH   1   7
BRANCH   4  10
ATOM     10  O   UNL     1      -8.289 -28.114  -1.894  1.00  0.00    -0.504 OA
ATOM     11  H   UNL     1      -7.966 -28.157  -2.854  1.00  0.00     0.293 HD
ENDBRANCH   4  10
BRANCH   5  12
ATOM     12  O   UNL     1     -11.533 -26.331   1.256  1.00  0.00    -0.504 OA
ATOM     13  H   UNL     1     -11.936 -26.905   1.988  1.00  0.00     0.293 HD
ENDBRANCH   5  12
BRANCH   6  14
ATOM     14  O   UNL     1      -8.885 -27.059   0.646  1.00  0.00    -0.502 OA
ATOM     15  H   UNL     1      -7.908 -27.001   0.385  1.00  0.00     0.293 HD
ENDBRANCH   6  14
TORSDOF 4
ENDMDL
MODEL 2
REMARK VINA RESULT:    -4.009     13.756     15.543
REMARK INTER + INTRA:          -4.648
REMARK INTER:                  -4.598
REMARK INTRA:                  -0.050
REMARK UNBOUND:                -0.053
REMARK SMILES O=C([O-])c1cc(O)c(O)c(O)c1
REMARK SMILES IDX 4 1 5 2 12 3 6 4 10 5 8 6 2 7 1 8 3 9 7 10 11 12 9 14
REMARK H PARENT 7 11 11 13 9 15
REMARK Flexibility Score: inf
ROOT
ATOM      1  C   UNL     1     -13.730 -13.806   4.569  1.00  0.00     0.005 A 
ATOM      2  C   UNL     1     -14.645 -12.879   4.042  1.00  0.00     0.060 A 
ATOM      3  C   UNL     1     -12.948 -14.569   3.686  1.00  0.00     0.060 A 
ATOM      4  C   UNL     1     -14.779 -12.714   2.659  1.00  0.00     0.162 A 
ATOM      5  C   UNL     1     -13.075 -14.410   2.299  1.00  0.00     0.162 A 
ATOM      6  C   UNL     1     -13.993 -13.481   1.782  1.00  0.00     0.200 A 
ENDROOT
BRANCH   1   7
ATOM      7  C   UNL     1     -13.590 -13.980   6.032  1.00  0.00     0.072 C 
ATOM      8  O   UNL     1     -14.592 -13.871   6.789  1.00  0.00    -0.545 OA
ATOM      9  O   UNL     1     -12.351 -14.266   6.593  1.00  0.00    -0.545 OA
ENDBRANCH   1   7
BRANCH   4  10
ATOM     10  O   UNL     1     -15.698 -11.784   2.176  1.00  0.00    -0.504 OA
ATOM     11  H   UNL     1     -16.491 -11.474   2.724  1.00  0.00     0.293 HD
ENDBRANCH   4  10
BRANCH   5  12
ATOM     12  O   UNL     1     -12.292 -15.173   1.434  1.00  0.00    -0.504 OA
ATOM     13  H   UNL     1     -11.531 -15.749   1.774  1.00  0.00     0.293 HD
ENDBRANCH   5  12
BRANCH   6  14
ATOM     14  O   UNL     1     -14.132 -13.310   0.404  1.00  0.00    -0.502 OA
ATOM     15  H   UNL     1     -14.237 -14.093  -0.230  1.00  0.00     0.293 HD
ENDBRANCH   6  14
TORSDOF 4
ENDMDL
MODEL 3
REMARK VINA RESULT:    -3.991     13.791     15.419
REMARK INTER + INTRA:          -4.627
REMARK INTER:                  -4.578
REMARK INTRA:                  -0.049
REMARK UNBOUND:                -0.053
REMARK SMILES O=C([O-])c1cc(O)c(O)c(O)c1
REMARK SMILES IDX 4 1 5 2 12 3 6 4 10 5 8 6 2 7 1 8 3 9 7 10 11 12 9 14
REMARK H PARENT 7 11 11 13 9 15
REMARK Flexibility Score: inf
ROOT
ATOM      1  C   UNL     1     -13.708 -13.765   4.584  1.00  0.00     0.005 A 
ATOM      2  C   UNL     1     -12.966 -14.578   3.709  1.00  0.00     0.060 A 
ATOM      3  C   UNL     1     -14.559 -12.785   4.047  1.00  0.00     0.060 A 
ATOM      4  C   UNL     1     -13.072 -14.418   2.324  1.00  0.00     0.162 A 
ATOM      5  C   UNL     1     -14.670 -12.619   2.659  1.00  0.00     0.162 A 
ATOM      6  C   UNL     1     -13.925 -13.436   1.793  1.00  0.00     0.200 A 
ENDROOT
BRANCH   1   7
ATOM      7  C   UNL     1     -13.595 -13.934   6.049  1.00  0.00     0.072 C 
ATOM      8  O   UNL     1     -14.611 -13.825   6.788  1.00  0.00    -0.545 OA
ATOM      9  O   UNL     1     -12.366 -14.214   6.635  1.00  0.00    -0.545 OA
ENDBRANCH   1   7
BRANCH   4  10
ATOM     10  O   UNL     1     -12.319 -15.245   1.490  1.00  0.00    -0.504 OA
ATOM     11  H   UNL     1     -11.608 -15.870   1.850  1.00  0.00     0.293 HD
ENDBRANCH   4  10
BRANCH   5  12
ATOM     12  O   UNL     1     -15.519 -11.643   2.139  1.00  0.00    -0.504 OA
ATOM     13  H   UNL     1     -16.293 -11.270   2.676  1.00  0.00     0.293 HD
ENDBRANCH   5  12
BRANCH   6  14
ATOM     14  O   UNL     1     -14.024 -13.284   0.409  1.00  0.00    -0.502 OA
ATOM     15  H   UNL     1     -14.553 -13.926  -0.168  1.00  0.00     0.293 HD
ENDBRANCH   6  14
TORSDOF 4
ENDMDL
MODEL 4
REMARK VINA RESULT:    -3.737     11.064     12.702
REMARK INTER + INTRA:          -4.336
REMARK INTER:                  -4.288
REMARK INTRA:                  -0.049
REMARK UNBOUND:                -0.053
REMARK SMILES O=C([O-])c1cc(O)c(O)c(O)c1
REMARK SMILES IDX 4 1 5 2 12 3 6 4 10 5 8 6 2 7 1 8 3 9 7 10 11 12 9 14
REMARK H PARENT 7 11 11 13 9 15
REMARK Flexibility Score: inf
ROOT
ATOM      1  C   UNL     1      -1.942 -26.287   6.570  1.00  0.00     0.005 A 
ATOM      2  C   UNL     1      -1.867 -25.275   7.542  1.00  0.00     0.060 A 
ATOM      3  C   UNL     1      -3.148 -26.988   6.408  1.00  0.00     0.060 A 
ATOM      4  C   UNL     1      -2.974 -24.964   8.337  1.00  0.00     0.162 A 
ATOM      5  C   UNL     1      -4.263 -26.683   7.201  1.00  0.00     0.162 A 
ATOM      6  C   UNL     1      -4.178 -25.669   8.169  1.00  0.00     0.200 A 
ENDROOT
BRANCH   1   7
ATOM      7  C   UNL     1      -0.769 -26.615   5.729  1.00  0.00     0.072 C 
ATOM      8  O   UNL     1       0.386 -26.663   6.231  1.00  0.00    -0.545 OA
ATOM      9  O   UNL     1      -0.924 -26.875   4.372  1.00  0.00    -0.545 OA
ENDBRANCH   1   7
BRANCH   4  10
ATOM     10  O   UNL     1      -2.859 -23.952   9.289  1.00  0.00    -0.504 OA
ATOM     11  H   UNL     1      -3.393 -23.958  10.150  1.00  0.00     0.293 HD
ENDBRANCH   4  10
BRANCH   5  12
ATOM     12  O   UNL     1      -5.455 -27.386   7.030  1.00  0.00    -0.504 OA
ATOM     13  H   UNL     1      -5.777 -27.672   6.112  1.00  0.00     0.293 HD
ENDBRANCH   5  12
BRANCH   6  14
ATOM     14  O   UNL     1      -5.279 -25.353   8.968  1.00  0.00    -0.502 OA
ATOM     15  H   UNL     1      -6.137 -24.979   8.581  1.00  0.00     0.293 HD
ENDBRANCH   6  14
TORSDOF 4
ENDMDL
MODEL 5
REMARK VINA RESULT:    -3.725     14.120     15.344
REMARK INTER + INTRA:          -4.322
REMARK INTER:                  -4.276
REMARK INTRA:                  -0.047
REMARK UNBOUND:                -0.053
REMARK SMILES O=C([O-])c1cc(O)c(O)c(O)c1
REMARK SMILES IDX 4 1 5 2 12 3 6 4 10 5 8 6 2 7 1 8 3 9 7 10 11 12 9 14
REMARK H PARENT 7 11 11 13 9 15
REMARK Flexibility Score: inf
ROOT
ATOM      1  C   UNL     1     -14.262 -12.937   1.635  1.00  0.00     0.005 A 
ATOM      2  C   UNL     1     -14.455 -11.988   2.654  1.00  0.00     0.060 A 
ATOM      3  C   UNL     1     -13.671 -14.170   1.956  1.00  0.00     0.060 A 
ATOM      4  C   UNL     1     -14.067 -12.263   3.969  1.00  0.00     0.162 A 
ATOM      5  C   UNL     1     -13.280 -14.454   3.272  1.00  0.00     0.162 A 
ATOM      6  C   UNL     1     -13.476 -13.499   4.283  1.00  0.00     0.200 A 
ENDROOT
BRANCH   1   7
ATOM      7  C   UNL     1     -14.672 -12.645   0.244  1.00  0.00     0.072 C 
ATOM      8  O   UNL     1     -14.186 -11.660  -0.375  1.00  0.00    -0.545 OA
ATOM      9  O   UNL     1     -15.602 -13.452  -0.401  1.00  0.00    -0.545 OA
ENDBRANCH   1   7
BRANCH   4  10
ATOM     10  O   UNL     1     -14.275 -11.295   4.951  1.00  0.00    -0.504 OA
ATOM     11  H   UNL     1     -15.130 -10.753   5.002  1.00  0.00     0.293 HD
ENDBRANCH   4  10
BRANCH   5  12
ATOM     12  O   UNL     1     -12.695 -15.682   3.577  1.00  0.00    -0.504 OA
ATOM     13  H   UNL     1     -11.711 -15.859   3.409  1.00  0.00     0.293 HD
ENDBRANCH   5  12
BRANCH   6  14
ATOM     14  O   UNL     1     -13.092 -13.765   5.598  1.00  0.00    -0.502 OA
ATOM     15  H   UNL     1     -13.764 -13.982   6.324  1.00  0.00     0.293 HD
ENDBRANCH   6  14
TORSDOF 4
ENDMDL
MODEL 6
REMARK VINA RESULT:    -3.714     14.120     15.199
REMARK INTER + INTRA:          -4.310
REMARK INTER:                  -4.264
REMARK INTRA:                  -0.046
REMARK UNBOUND:                -0.053
REMARK SMILES O=C([O-])c1cc(O)c(O)c(O)c1
REMARK SMILES IDX 4 1 5 2 12 3 6 4 10 5 8 6 2 7 1 8 3 9 7 10 11 12 9 14
REMARK H PARENT 7 11 11 13 9 15
REMARK Flexibility Score: inf
ROOT
ATOM      1  C   UNL     1     -14.290 -12.945   1.635  1.00  0.00     0.005 A 
ATOM      2  C   UNL     1     -13.678 -14.169   1.956  1.00  0.00     0.060 A 
ATOM      3  C   UNL     1     -14.487 -11.995   2.651  1.00  0.00     0.060 A 
ATOM      4  C   UNL     1     -13.269 -14.441   3.265  1.00  0.00     0.162 A 
ATOM      5  C   UNL     1     -14.079 -12.260   3.966  1.00  0.00     0.162 A 
ATOM      6  C   UNL     1     -13.469 -13.486   4.276  1.00  0.00     0.200 A 
ENDROOT
BRANCH   1   7
ATOM      7  C   UNL     1     -14.723 -12.657   0.250  1.00  0.00     0.072 C 
ATOM      8  O   UNL     1     -14.243 -11.678  -0.382  1.00  0.00    -0.545 OA
ATOM      9  O   UNL     1     -15.668 -13.463  -0.375  1.00  0.00    -0.545 OA
ENDBRANCH   1   7
BRANCH   4  10
ATOM     10  O   UNL     1     -12.665 -15.668   3.542  1.00  0.00    -0.504 OA
ATOM     11  H   UNL     1     -13.142 -16.401   4.053  1.00  0.00     0.293 HD
ENDBRANCH   4  10
BRANCH   5  12
ATOM     12  O   UNL     1     -14.280 -11.309   4.965  1.00  0.00    -0.504 OA
ATOM     13  H   UNL     1     -14.797 -11.525   5.810  1.00  0.00     0.293 HD
ENDBRANCH   5  12
BRANCH   6  14
ATOM     14  O   UNL     1     -13.057 -13.767   5.581  1.00  0.00    -0.502 OA
ATOM     15  H   UNL     1     -12.564 -14.618   5.820  1.00  0.00     0.293 HD
ENDBRANCH   6  14
TORSDOF 4
ENDMDL
