MODEL 1
REMARK VINA RESULT:    -4.409      0.000      0.000
REMARK INTER + INTRA:          -5.226
REMARK INTER:                  -5.053
REMARK INTRA:                  -0.173
REMARK UNBOUND:                -0.173
REMARK SMILES CC=Cc1ccc(O)c(OC)c1
REMARK SMILES IDX 4 1 12 2 9 3 7 4 6 5 5 6 3 7 1 8 2 9 10 10 11 11 8 12
REMARK H PARENT 8 13
REMARK Flexibility Score: inf
ROOT
ATOM      1  C   UNL     1       9.268 -29.498  15.747  1.00  0.00    -0.022 A 
ATOM      2  C   UNL     1       8.379 -30.560  15.985  1.00  0.00     0.058 A 
ATOM      3  C   UNL     1       7.888 -30.815  17.282  1.00  0.00     0.161 A 
ATOM      4  C   UNL     1       8.288 -29.991  18.342  1.00  0.00     0.157 A 
ATOM      5  C   UNL     1       9.162 -28.922  18.109  1.00  0.00     0.051 A 
ATOM      6  C   UNL     1       9.645 -28.672  16.824  1.00  0.00     0.012 A 
ENDROOT
BRANCH   1   7
ATOM      7  C   UNL     1       9.745 -29.268  14.361  1.00  0.00     0.003 C 
ATOM      8  C   UNL     1       9.596 -29.325  11.902  1.00  0.00     0.035 C 
ATOM      9  C   UNL     1       9.052 -29.604  13.266  1.00  0.00    -0.030 C 
ENDBRANCH   1   7
BRANCH   3  10
ATOM     10  O   UNL     1       7.007 -31.874  17.554  1.00  0.00    -0.493 OA
ATOM     11  C   UNL     1       7.369 -33.251  17.535  1.00  0.00     0.278 C 
ENDBRANCH   3  10
BRANCH   4  12
ATOM     12  O   UNL     1       7.808 -30.239  19.627  1.00  0.00    -0.504 OA
ATOM     13  H   UNL     1       8.118 -31.042  20.163  1.00  0.00     0.293 HD
ENDBRANCH   4  12
TORSDOF 3
ENDMDL
MODEL 2
REMARK VINA RESULT:    -4.333      2.147      4.477
REMARK INTER + INTRA:          -5.138
REMARK INTER:                  -4.973
REMARK INTRA:                  -0.166
REMARK UNBOUND:                -0.173
REMARK SMILES CC=Cc1ccc(O)c(OC)c1
REMARK SMILES IDX 4 1 12 2 9 3 7 4 6 5 5 6 3 7 1 8 2 9 10 10 11 11 8 12
REMARK H PARENT 8 13
REMARK Flexibility Score: inf
ROOT
ATOM      1  C   UNL     1       7.460 -31.289  16.623  1.00  0.00    -0.022 A 
ATOM      2  C   UNL     1       8.032 -30.824  15.427  1.00  0.00     0.058 A 
ATOM      3  C   UNL     1       8.878 -29.697  15.420  1.00  0.00     0.161 A 
ATOM      4  C   UNL     1       9.157 -29.040  16.626  1.00  0.00     0.157 A 
ATOM      5  C   UNL     1       8.602 -29.507  17.824  1.00  0.00     0.051 A 
ATOM      6  C   UNL     1       7.765 -30.625  17.826  1.00  0.00     0.012 A 
ENDROOT
BRANCH   1   7
ATOM      7  C   UNL     1       6.585 -32.487  16.573  1.00  0.00     0.003 C 
ATOM      8  C   UNL     1       5.940 -34.812  17.073  1.00  0.00     0.035 C 
ATOM      9  C   UNL     1       6.882 -33.654  17.156  1.00  0.00    -0.030 C 
ENDBRANCH   1   7
BRANCH   3  10
ATOM     10  O   UNL     1       9.457 -29.202  14.240  1.00  0.00    -0.493 OA
ATOM     11  C   UNL     1      10.661 -29.696  13.663  1.00  0.00     0.278 C 
ENDBRANCH   3  10
BRANCH   4  12
ATOM     12  O   UNL     1       9.991 -27.923  16.626  1.00  0.00    -0.504 OA
ATOM     13  H   UNL     1       9.685 -27.032  17.000  1.00  0.00     0.293 HD
ENDBRANCH   4  12
TORSDOF 3
ENDMDL
MODEL 3
REMARK VINA RESULT:    -4.333      1.737      1.926
REMARK INTER + INTRA:          -5.138
REMARK INTER:                  -4.970
REMARK INTRA:                  -0.168
REMARK UNBOUND:                -0.173
REMARK SMILES CC=Cc1ccc(O)c(OC)c1
REMARK SMILES IDX 4 1 12 2 9 3 7 4 6 5 5 6 3 7 1 8 2 9 10 10 11 11 8 12
REMARK H PARENT 8 13
REMARK Flexibility Score: inf
ROOT
ATOM      1  C   UNL     1       9.872 -29.176  15.279  1.00  0.00    -0.022 A 
ATOM      2  C   UNL     1       8.706 -29.700  15.861  1.00  0.00     0.058 A 
ATOM      3  C   UNL     1       8.367 -29.404  17.196  1.00  0.00     0.161 A 
ATOM      4  C   UNL     1       9.203 -28.568  17.948  1.00  0.00     0.157 A 
ATOM      5  C   UNL     1      10.360 -28.030  17.370  1.00  0.00     0.051 A 
ATOM      6  C   UNL     1      10.691 -28.325  16.046  1.00  0.00     0.012 A 
ENDROOT
BRANCH   1   7
ATOM      7  C   UNL     1      10.174 -29.512  13.866  1.00  0.00     0.003 C 
ATOM      8  C   UNL     1      10.673 -31.014  11.977  1.00  0.00     0.035 C 
ATOM      9  C   UNL     1      10.388 -30.756  13.422  1.00  0.00    -0.030 C 
ENDBRANCH   1   7
BRANCH   3  10
ATOM     10  O   UNL     1       7.214 -29.920  17.809  1.00  0.00    -0.493 OA
ATOM     11  C   UNL     1       5.888 -29.478  17.535  1.00  0.00     0.278 C 
ENDBRANCH   3  10
BRANCH   4  12
ATOM     12  O   UNL     1       8.875 -28.273  19.270  1.00  0.00    -0.504 OA
ATOM     13  H   UNL     1       8.839 -27.318  19.606  1.00  0.00     0.293 HD
ENDBRANCH   4  12
TORSDOF 3
ENDMDL
MODEL 4
REMARK VINA RESULT:    -4.330      1.965      3.161
REMARK INTER + INTRA:          -5.136
REMARK INTER:                  -4.983
REMARK INTRA:                  -0.152
REMARK UNBOUND:                -0.173
REMARK SMILES CC=Cc1ccc(O)c(OC)c1
REMARK SMILES IDX 4 1 12 2 9 3 7 4 6 5 5 6 3 7 1 8 2 9 10 10 11 11 8 12
REMARK H PARENT 8 13
REMARK Flexibility Score: inf
ROOT
ATOM      1  C   UNL     1       7.305 -30.234  15.831  1.00  0.00    -0.022 A 
ATOM      2  C   UNL     1       8.508 -29.514  15.917  1.00  0.00     0.058 A 
ATOM      3  C   UNL     1       9.050 -29.159  17.168  1.00  0.00     0.161 A 
ATOM      4  C   UNL     1       8.382 -29.538  18.340  1.00  0.00     0.157 A 
ATOM      5  C   UNL     1       7.190 -30.269  18.261  1.00  0.00     0.051 A 
ATOM      6  C   UNL     1       6.656 -30.620  17.020  1.00  0.00     0.012 A 
ENDROOT
BRANCH   1   7
ATOM      7  C   UNL     1       6.784 -30.592  14.488  1.00  0.00     0.003 C 
ATOM      8  C   UNL     1       6.609 -30.424  12.036  1.00  0.00     0.035 C 
ATOM      9  C   UNL     1       7.171 -29.996  13.354  1.00  0.00    -0.030 C 
ENDBRANCH   1   7
BRANCH   3  10
ATOM     10  O   UNL     1      10.245 -28.431  17.287  1.00  0.00    -0.493 OA
ATOM     11  C   UNL     1      11.079 -28.065  16.192  1.00  0.00     0.278 C 
ENDBRANCH   3  10
BRANCH   4  12
ATOM     12  O   UNL     1       8.912 -29.188  19.580  1.00  0.00    -0.504 OA
ATOM     13  H   UNL     1       9.596 -28.446  19.674  1.00  0.00     0.293 HD
ENDBRANCH   4  12
TORSDOF 3
ENDMDL
MODEL 5
REMARK VINA RESULT:    -4.051      1.839      4.275
REMARK INTER + INTRA:          -4.816
REMARK INTER:                  -4.717
REMARK INTRA:                  -0.099
REMARK UNBOUND:                -0.173
REMARK SMILES CC=Cc1ccc(O)c(OC)c1
REMARK SMILES IDX 4 1 12 2 9 3 7 4 6 5 5 6 3 7 1 8 2 9 10 10 11 11 8 12
REMARK H PARENT 8 13
REMARK Flexibility Score: inf
ROOT
ATOM      1  C   UNL     1       7.850 -31.602  15.925  1.00  0.00    -0.022 A 
ATOM      2  C   UNL     1       7.819 -30.905  17.144  1.00  0.00     0.058 A 
ATOM      3  C   UNL     1       8.502 -29.682  17.295  1.00  0.00     0.161 A 
ATOM      4  C   UNL     1       9.214 -29.154  16.210  1.00  0.00     0.157 A 
ATOM      5  C   UNL     1       9.237 -29.836  14.987  1.00  0.00     0.051 A 
ATOM      6  C   UNL     1       8.558 -31.047  14.841  1.00  0.00     0.012 A 
ENDROOT
BRANCH   1   7
ATOM      7  C   UNL     1       7.104 -32.881  15.818  1.00  0.00     0.003 C 
ATOM      8  C   UNL     1       5.910 -34.857  16.679  1.00  0.00     0.035 C 
ATOM      9  C   UNL     1       6.669 -33.583  16.870  1.00  0.00    -0.030 C 
ENDBRANCH   1   7
BRANCH   3  10
ATOM     10  O   UNL     1       8.498 -28.966  18.503  1.00  0.00    -0.493 OA
ATOM     11  C   UNL     1       9.539 -29.015  19.474  1.00  0.00     0.278 C 
ENDBRANCH   3  10
BRANCH   4  12
ATOM     12  O   UNL     1       9.893 -27.946  16.353  1.00  0.00    -0.504 OA
ATOM     13  H   UNL     1      10.897 -27.915  16.494  1.00  0.00     0.293 HD
ENDBRANCH   4  12
TORSDOF 3
ENDMDL
MODEL 6
REMARK VINA RESULT:    -3.931      2.812      5.009
REMARK INTER + INTRA:          -4.678
REMARK INTER:                  -4.524
REMARK INTRA:                  -0.153
REMARK UNBOUND:                -0.173
REMARK SMILES CC=Cc1ccc(O)c(OC)c1
REMARK SMILES IDX 4 1 12 2 9 3 7 4 6 5 5 6 3 7 1 8 2 9 10 10 11 11 8 12
REMARK H PARENT 8 13
REMARK Flexibility Score: inf
ROOT
ATOM      1  C   UNL     1       7.752 -29.885  16.613  1.00  0.00    -0.022 A 
ATOM      2  C   UNL     1       8.669 -29.605  15.586  1.00  0.00     0.058 A 
ATOM      3  C   UNL     1       8.303 -29.748  14.232  1.00  0.00     0.161 A 
ATOM      4  C   UNL     1       7.005 -30.167  13.912  1.00  0.00     0.157 A 
ATOM      5  C   UNL     1       6.083 -30.434  14.931  1.00  0.00     0.051 A 
ATOM      6  C   UNL     1       6.448 -30.290  16.270  1.00  0.00     0.012 A 
ENDROOT
BRANCH   1   7
ATOM      7  C   UNL     1       8.187 -29.708  18.021  1.00  0.00     0.003 C 
ATOM      8  C   UNL     1       9.615 -28.841  19.833  1.00  0.00     0.035 C 
ATOM      9  C   UNL     1       9.250 -28.984  18.390  1.00  0.00    -0.030 C 
ENDBRANCH   1   7
BRANCH   3  10
ATOM     10  O   UNL     1       9.199 -29.485  13.183  1.00  0.00    -0.493 OA
ATOM     11  C   UNL     1      10.608 -29.351  13.339  1.00  0.00     0.278 C 
ENDBRANCH   3  10
BRANCH   4  12
ATOM     12  O   UNL     1       6.638 -30.312  12.575  1.00  0.00    -0.504 OA
ATOM     13  H   UNL     1       6.138 -29.583  12.080  1.00  0.00     0.293 HD
ENDBRANCH   4  12
TORSDOF 3
ENDMDL
MODEL 7
REMARK VINA RESULT:    -3.930      1.884      2.761
REMARK INTER + INTRA:          -4.677
REMARK INTER:                  -4.509
REMARK INTRA:                  -0.168
REMARK UNBOUND:                -0.173
REMARK SMILES CC=Cc1ccc(O)c(OC)c1
REMARK SMILES IDX 4 1 12 2 9 3 7 4 6 5 5 6 3 7 1 8 2 9 10 10 11 11 8 12
REMARK H PARENT 8 13
REMARK Flexibility Score: inf
ROOT
ATOM      1  C   UNL     1       8.088 -30.060  15.560  1.00  0.00    -0.022 A 
ATOM      2  C   UNL     1       8.718 -29.470  16.668  1.00  0.00     0.058 A 
ATOM      3  C   UNL     1       7.984 -29.127  17.821  1.00  0.00     0.161 A 
ATOM      4  C   UNL     1       6.608 -29.389  17.862  1.00  0.00     0.157 A 
ATOM      5  C   UNL     1       5.976 -29.991  16.766  1.00  0.00     0.051 A 
ATOM      6  C   UNL     1       6.707 -30.329  15.627  1.00  0.00     0.012 A 
ENDROOT
BRANCH   1   7
ATOM      7  C   UNL     1       8.911 -30.410  14.376  1.00  0.00     0.003 C 
ATOM      8  C   UNL     1      10.877 -30.278  12.896  1.00  0.00     0.035 C 
ATOM      9  C   UNL     1      10.100 -29.861  14.103  1.00  0.00    -0.030 C 
ENDBRANCH   1   7
BRANCH   3  10
ATOM     10  O   UNL     1       8.583 -28.527  18.940  1.00  0.00    -0.493 OA
ATOM     11  C   UNL     1       9.628 -29.116  19.708  1.00  0.00     0.278 C 
ENDBRANCH   3  10
BRANCH   4  12
ATOM     12  O   UNL     1       5.875 -29.051  18.998  1.00  0.00    -0.504 OA
ATOM     13  H   UNL     1       4.939 -28.669  18.931  1.00  0.00     0.293 HD
ENDBRANCH   4  12
TORSDOF 3
ENDMDL
MODEL 8
REMARK VINA RESULT:    -3.859      2.002      3.565
REMARK INTER + INTRA:          -4.596
REMARK INTER:                  -4.445
REMARK INTRA:                  -0.151
REMARK UNBOUND:                -0.173
REMARK SMILES CC=Cc1ccc(O)c(OC)c1
REMARK SMILES IDX 4 1 12 2 9 3 7 4 6 5 5 6 3 7 1 8 2 9 10 10 11 11 8 12
REMARK H PARENT 8 13
REMARK Flexibility Score: inf
ROOT
ATOM      1  C   UNL     1       9.911 -29.417  13.999  1.00  0.00    -0.022 A 
ATOM      2  C   UNL     1       9.474 -29.552  15.327  1.00  0.00     0.058 A 
ATOM      3  C   UNL     1       8.125 -29.833  15.620  1.00  0.00     0.161 A 
ATOM      4  C   UNL     1       7.211 -29.987  14.569  1.00  0.00     0.157 A 
ATOM      5  C   UNL     1       7.643 -29.868  13.242  1.00  0.00     0.051 A 
ATOM      6  C   UNL     1       8.980 -29.591  12.956  1.00  0.00     0.012 A 
ENDROOT
BRANCH   1   7
ATOM      7  C   UNL     1      11.345 -29.132  13.747  1.00  0.00     0.003 C 
ATOM      8  C   UNL     1      13.535 -28.094  14.194  1.00  0.00     0.035 C 
ATOM      9  C   UNL     1      12.090 -28.319  14.505  1.00  0.00    -0.030 C 
ENDBRANCH   1   7
BRANCH   3  10
ATOM     10  O   UNL     1       7.656 -29.965  16.937  1.00  0.00    -0.493 OA
ATOM     11  C   UNL     1       8.338 -29.478  18.089  1.00  0.00     0.278 C 
ENDBRANCH   3  10
BRANCH   4  12
ATOM     12  O   UNL     1       5.875 -30.263  14.852  1.00  0.00    -0.504 OA
ATOM     13  H   UNL     1       5.132 -29.632  14.574  1.00  0.00     0.293 HD
ENDBRANCH   4  12
TORSDOF 3
ENDMDL
MODEL 9
REMARK VINA RESULT:    -3.826      2.479      4.273
REMARK INTER + INTRA:          -4.558
REMARK INTER:                  -4.410
REMARK INTRA:                  -0.148
REMARK UNBOUND:                -0.173
REMARK SMILES CC=Cc1ccc(O)c(OC)c1
REMARK SMILES IDX 4 1 12 2 9 3 7 4 6 5 5 6 3 7 1 8 2 9 10 10 11 11 8 12
REMARK H PARENT 8 13
REMARK Flexibility Score: inf
ROOT
ATOM      1  C   UNL     1       8.268 -30.684  14.769  1.00  0.00    -0.022 A 
ATOM      2  C   UNL     1       8.503 -30.016  15.982  1.00  0.00     0.058 A 
ATOM      3  C   UNL     1       9.570 -29.104  16.110  1.00  0.00     0.161 A 
ATOM      4  C   UNL     1      10.399 -28.857  15.008  1.00  0.00     0.157 A 
ATOM      5  C   UNL     1      10.161 -29.508  13.791  1.00  0.00     0.051 A 
ATOM      6  C   UNL     1       9.103 -30.410  13.668  1.00  0.00     0.012 A 
ENDROOT
BRANCH   1   7
ATOM      7  C   UNL     1       7.124 -31.627  14.687  1.00  0.00     0.003 C 
ATOM      8  C   UNL     1       5.875 -33.685  15.210  1.00  0.00     0.035 C 
ATOM      9  C   UNL     1       7.072 -32.797  15.333  1.00  0.00    -0.030 C 
ENDBRANCH   1   7
BRANCH   3  10
ATOM     10  O   UNL     1       9.836 -28.427  17.311  1.00  0.00    -0.493 OA
ATOM     11  C   UNL     1       9.277 -28.775  18.574  1.00  0.00     0.278 C 
ENDBRANCH   3  10
BRANCH   4  12
ATOM     12  O   UNL     1      11.456 -27.957  15.128  1.00  0.00    -0.504 OA
ATOM     13  H   UNL     1      11.401 -27.152  15.742  1.00  0.00     0.293 HD
ENDBRANCH   4  12
TORSDOF 3
ENDMDL
