MODEL 1
REMARK VINA RESULT:    -4.560      0.000      0.000
REMARK INTER + INTRA:          -6.138
REMARK INTER:                  -6.426
REMARK INTRA:                   0.287
REMARK UNBOUND:                 0.287
REMARK SMILES CC1=CCC(=C(C)C)C(=O)CC(C)=CCC1
REMARK SMILES IDX 12 1 14 2 13 3 15 4 16 5 2 6 1 7 3 8 11 10 9 11 10 12 5 13
REMARK SMILES IDX 6 14 7 15 8 16 4 17
REMARK H PARENT
REMARK Flexibility Score: 60.00
ROOT
ATOM      1  C   UNL     1      15.278  19.103  56.115  1.00  0.00    -0.070 C 
ATOM      2  C   UNL     1      15.026  19.596  57.350  1.00  0.00    -0.027 C 
ATOM      3  C   UNL     1      16.407  19.715  55.324  1.00  0.00     0.039 C 
ENDROOT
BRANCH   2   4
ATOM      4  C   UNL     1      13.901  19.144  58.255  1.00  0.00     0.032 C 
BRANCH   4   5
ATOM      5  C   UNL     1      12.570  19.814  57.879  1.00  0.00     0.034 C 
BRANCH   5   6
ATOM      6  C   UNL     1      11.374  18.877  57.959  1.00  0.00    -0.077 C 
ATOM      7  C   UNL     1      10.913  18.400  59.314  1.00  0.00     0.039 C 
ATOM      8  C   UNL     1      10.706  18.428  56.872  1.00  0.00    -0.023 CG0
ATOM      9  G   UNL     1      10.973  18.846  55.446  1.00  0.00     0.000 G0
ENDBRANCH   5   6
ENDBRANCH   4   5
ENDBRANCH   2   4
BRANCH   1  10
ATOM     10  C   UNL     1      14.480  17.970  55.499  1.00  0.00     0.111 C 
BRANCH  10  11
ATOM     11  C   UNL     1      13.402  18.496  54.593  1.00  0.00     0.163 C 
ATOM     12  O   UNL     1      13.686  19.385  53.746  1.00  0.00    -0.294 OA
BRANCH  11  13
ATOM     13  C   UNL     1      12.004  18.005  54.694  1.00  0.00    -0.002 C 
ATOM     14  C   UNL     1      11.651  16.817  54.132  1.00  0.00    -0.069 C 
ATOM     15  C   UNL     1      10.247  16.276  54.267  1.00  0.00     0.039 C 
ATOM     16  C   UNL     1      12.640  16.013  53.317  1.00  0.00     0.039 C 
BRANCH  13  17
ATOM     17  C   UNL     1      10.971  18.851  55.432  1.00  0.00     0.066 CG0
ATOM     18  G   UNL     1      10.737  18.416  56.859  1.00  0.00     0.000 G0
ENDBRANCH  13  17
ENDBRANCH  11  13
ENDBRANCH  10  11
ENDBRANCH   1  10
TORSDOF 0
ENDMDL
MODEL 2
REMARK VINA RESULT:    -4.445      1.428      3.674
REMARK INTER + INTRA:          -5.977
REMARK INTER:                  -6.313
REMARK INTRA:                   0.336
REMARK UNBOUND:                 0.287
REMARK SMILES CC1=CCC(=C(C)C)C(=O)CC(C)=CCC1
REMARK SMILES IDX 12 1 14 2 13 3 15 4 16 5 2 6 1 7 3 8 11 10 9 11 10 12 5 13
REMARK SMILES IDX 6 14 7 15 8 16 4 17
REMARK H PARENT
REMARK Flexibility Score: 60.00
ROOT
ATOM      1  C   UNL     1      14.757  18.933  54.868  1.00  0.00    -0.070 C 
ATOM      2  C   UNL     1      14.102  18.822  53.689  1.00  0.00    -0.027 C 
ATOM      3  C   UNL     1      16.000  19.785  54.913  1.00  0.00     0.039 C 
ENDROOT
BRANCH   2   4
ATOM      4  C   UNL     1      12.878  17.967  53.449  1.00  0.00     0.032 C 
BRANCH   4   5
ATOM      5  C   UNL     1      11.582  18.744  53.728  1.00  0.00     0.034 C 
BRANCH   5   6
ATOM      6  C   UNL     1      10.639  18.028  54.684  1.00  0.00    -0.077 C 
ATOM      7  C   UNL     1       9.870  16.831  54.187  1.00  0.00     0.039 C 
ATOM      8  C   UNL     1      10.435  18.422  55.962  1.00  0.00    -0.023 CG0
ATOM      9  G   UNL     1      11.161  19.550  56.658  1.00  0.00     0.000 G0
ENDBRANCH   5   6
ENDBRANCH   4   5
ENDBRANCH   2   4
BRANCH   1  10
ATOM     10  C   UNL     1      14.294  18.242  56.137  1.00  0.00     0.111 C 
BRANCH  10  11
ATOM     11  C   UNL     1      13.703  19.228  57.106  1.00  0.00     0.163 C 
ATOM     12  O   UNL     1      14.418  20.170  57.542  1.00  0.00    -0.294 OA
BRANCH  11  13
ATOM     13  C   UNL     1      12.302  19.098  57.579  1.00  0.00    -0.002 C 
ATOM     14  C   UNL     1      12.037  18.580  58.809  1.00  0.00    -0.069 C 
ATOM     15  C   UNL     1      10.621  18.488  59.329  1.00  0.00     0.039 C 
ATOM     16  C   UNL     1      13.145  18.040  59.686  1.00  0.00     0.039 C 
BRANCH  13  17
ATOM     17  C   UNL     1      11.166  19.550  56.666  1.00  0.00     0.066 CG0
ATOM     18  G   UNL     1      10.449  18.412  55.979  1.00  0.00     0.000 G0
ENDBRANCH  13  17
ENDBRANCH  11  13
ENDBRANCH  10  11
ENDBRANCH   1  10
TORSDOF 0
ENDMDL
MODEL 3
REMARK VINA RESULT:    -4.191      2.549      5.196
REMARK INTER + INTRA:          -5.619
REMARK INTER:                  -6.060
REMARK INTRA:                   0.441
REMARK UNBOUND:                 0.287
REMARK SMILES CC1=CCC(=C(C)C)C(=O)CC(C)=CCC1
REMARK SMILES IDX 12 1 14 2 13 3 15 4 16 5 2 6 1 7 3 8 11 10 9 11 10 12 5 13
REMARK SMILES IDX 6 14 7 15 8 16 4 17
REMARK H PARENT
REMARK Flexibility Score: 60.00
ROOT
ATOM      1  C   UNL     1       8.961  18.996  60.029  1.00  0.00    -0.070 C 
ATOM      2  C   UNL     1       7.700  18.659  59.671  1.00  0.00    -0.027 C 
ATOM      3  C   UNL     1       9.150  19.801  61.289  1.00  0.00     0.039 C 
ENDROOT
BRANCH   2   4
ATOM      4  C   UNL     1       7.323  17.908  58.413  1.00  0.00     0.032 C 
BRANCH   4   5
ATOM      5  C   UNL     1       7.546  18.764  57.156  1.00  0.00     0.034 C 
BRANCH   5   6
ATOM      6  C   UNL     1       8.135  17.986  55.988  1.00  0.00    -0.077 C 
ATOM      7  C   UNL     1       7.393  16.778  55.471  1.00  0.00     0.039 C 
ATOM      8  C   UNL     1       9.307  18.307  55.395  1.00  0.00    -0.023 CG0
ATOM      9  G   UNL     1      10.154  19.513  55.725  1.00  0.00     0.000 G0
ENDBRANCH   5   6
ENDBRANCH   4   5
ENDBRANCH   2   4
BRANCH   1  10
ATOM     10  C   UNL     1      10.182  18.598  59.222  1.00  0.00     0.111 C 
BRANCH  10  11
ATOM     11  C   UNL     1      10.576  19.687  58.264  1.00  0.00     0.163 C 
ATOM     12  O   UNL     1      10.441  20.892  58.607  1.00  0.00    -0.294 OA
BRANCH  11  13
ATOM     13  C   UNL     1      11.100  19.370  56.910  1.00  0.00    -0.002 C 
ATOM     14  C   UNL     1      12.387  18.955  56.752  1.00  0.00    -0.069 C 
ATOM     15  C   UNL     1      12.922  18.578  55.390  1.00  0.00     0.039 C 
ATOM     16  C   UNL     1      13.339  18.893  57.926  1.00  0.00     0.039 C 
BRANCH  13  17
ATOM     17  C   UNL     1      10.179  19.519  55.704  1.00  0.00     0.066 CG0
ATOM     18  G   UNL     1       9.333  18.298  55.430  1.00  0.00     0.000 G0
ENDBRANCH  13  17
ENDBRANCH  11  13
ENDBRANCH  10  11
ENDBRANCH   1  10
TORSDOF 0
ENDMDL
MODEL 4
REMARK VINA RESULT:    -3.993      2.539      4.794
REMARK INTER + INTRA:          -5.339
REMARK INTER:                  -5.659
REMARK INTRA:                   0.320
REMARK UNBOUND:                 0.287
REMARK SMILES CC1=CCC(=C(C)C)C(=O)CC(C)=CCC1
REMARK SMILES IDX 12 1 14 2 13 3 15 4 16 5 2 6 1 7 3 8 11 10 9 11 10 12 5 13
REMARK SMILES IDX 6 14 7 15 8 16 4 17
REMARK H PARENT
REMARK Flexibility Score: 60.00
ROOT
ATOM      1  C   UNL     1       9.866  20.819  58.370  1.00  0.00    -0.070 C 
ATOM      2  C   UNL     1       9.029  21.559  57.607  1.00  0.00    -0.027 C 
ATOM      3  C   UNL     1       9.389  20.388  59.734  1.00  0.00     0.039 C 
ENDROOT
BRANCH   2   4
ATOM      4  C   UNL     1       9.363  22.125  56.244  1.00  0.00     0.032 C 
BRANCH   4   5
ATOM      5  C   UNL     1       9.033  21.128  55.122  1.00  0.00     0.034 C 
BRANCH   5   6
ATOM      6  C   UNL     1      10.113  21.037  54.054  1.00  0.00    -0.077 C 
ATOM      7  C   UNL     1      10.318  22.207  53.125  1.00  0.00     0.039 C 
ATOM      8  C   UNL     1      10.894  19.947  53.876  1.00  0.00    -0.023 CG0
ATOM      9  G   UNL     1      10.885  18.712  54.746  1.00  0.00     0.000 G0
ENDBRANCH   5   6
ENDBRANCH   4   5
ENDBRANCH   2   4
BRANCH   1  10
ATOM     10  C   UNL     1      11.253  20.407  57.913  1.00  0.00     0.111 C 
BRANCH  10  11
ATOM     11  C   UNL     1      11.234  19.041  57.287  1.00  0.00     0.163 C 
ATOM     12  O   UNL     1      10.722  18.078  57.920  1.00  0.00    -0.294 OA
BRANCH  11  13
ATOM     13  C   UNL     1      11.827  18.799  55.947  1.00  0.00    -0.002 C 
ATOM     14  C   UNL     1      13.174  18.657  55.808  1.00  0.00    -0.069 C 
ATOM     15  C   UNL     1      13.791  18.358  54.462  1.00  0.00     0.039 C 
ATOM     16  C   UNL     1      14.105  18.832  56.987  1.00  0.00     0.039 C 
BRANCH  13  17
ATOM     17  C   UNL     1      10.908  18.714  54.733  1.00  0.00     0.066 CG0
ATOM     18  G   UNL     1      10.918  19.958  53.875  1.00  0.00     0.000 G0
ENDBRANCH  13  17
ENDBRANCH  11  13
ENDBRANCH  10  11
ENDBRANCH   1  10
TORSDOF 0
ENDMDL
MODEL 5
REMARK VINA RESULT:    -3.896      1.628      3.566
REMARK INTER + INTRA:          -5.204
REMARK INTER:                  -5.970
REMARK INTRA:                   0.767
REMARK UNBOUND:                 0.287
REMARK SMILES CC1=CCC(=C(C)C)C(=O)CC(C)=CCC1
REMARK SMILES IDX 12 1 14 2 13 3 15 4 16 5 2 6 1 7 3 8 11 10 9 11 10 12 5 13
REMARK SMILES IDX 6 14 7 15 8 16 4 17
REMARK H PARENT
REMARK Flexibility Score: 60.00
ROOT
ATOM      1  C   UNL     1      12.010  18.750  58.989  1.00  0.00    -0.070 C 
ATOM      2  C   UNL     1      10.695  18.527  59.220  1.00  0.00    -0.027 C 
ATOM      3  C   UNL     1      13.011  18.124  59.927  1.00  0.00     0.039 C 
ENDROOT
BRANCH   2   4
ATOM      4  C   UNL     1       9.557  19.122  58.420  1.00  0.00     0.032 C 
BRANCH   4   5
ATOM      5  C   UNL     1       9.219  18.260  57.193  1.00  0.00     0.034 C 
BRANCH   5   6
ATOM      6  C   UNL     1       9.485  18.959  55.868  1.00  0.00    -0.077 C 
ATOM      7  C   UNL     1       8.516  20.012  55.394  1.00  0.00     0.039 C 
ATOM      8  C   UNL     1      10.542  18.672  55.074  1.00  0.00    -0.023 CG0
ATOM      9  G   UNL     1      11.651  17.703  55.409  1.00  0.00     0.000 G0
ENDBRANCH   5   6
ENDBRANCH   4   5
ENDBRANCH   2   4
BRANCH   1  10
ATOM     10  C   UNL     1      12.514  19.595  57.835  1.00  0.00     0.111 C 
BRANCH  10  11
ATOM     11  C   UNL     1      13.436  18.806  56.948  1.00  0.00     0.163 C 
ATOM     12  O   UNL     1      14.592  18.519  57.358  1.00  0.00    -0.294 OA
BRANCH  11  13
ATOM     13  C   UNL     1      13.018  18.379  55.588  1.00  0.00    -0.002 C 
ATOM     14  C   UNL     1      13.839  18.585  54.522  1.00  0.00    -0.069 C 
ATOM     15  C   UNL     1      13.455  18.111  53.139  1.00  0.00     0.039 C 
ATOM     16  C   UNL     1      15.146  19.331  54.673  1.00  0.00     0.039 C 
BRANCH  13  17
ATOM     17  C   UNL     1      11.660  17.710  55.404  1.00  0.00     0.066 CG0
ATOM     18  G   UNL     1      10.545  18.677  55.083  1.00  0.00     0.000 G0
ENDBRANCH  13  17
ENDBRANCH  11  13
ENDBRANCH  10  11
ENDBRANCH   1  10
TORSDOF 0
ENDMDL
MODEL 6
REMARK VINA RESULT:    -3.818      3.545      5.666
REMARK INTER + INTRA:          -5.093
REMARK INTER:                  -5.448
REMARK INTRA:                   0.356
REMARK UNBOUND:                 0.287
REMARK SMILES CC1=CCC(=C(C)C)C(=O)CC(C)=CCC1
REMARK SMILES IDX 12 1 14 2 13 3 15 4 16 5 2 6 1 7 3 8 11 10 9 11 10 12 5 13
REMARK SMILES IDX 6 14 7 15 8 16 4 17
REMARK H PARENT
REMARK Flexibility Score: 60.00
ROOT
ATOM      1  C   UNL     1       6.804  18.434  59.064  1.00  0.00    -0.070 C 
ATOM      2  C   UNL     1       7.673  18.623  60.084  1.00  0.00    -0.027 C 
ATOM      3  C   UNL     1       5.329  18.537  59.360  1.00  0.00     0.039 C 
ENDROOT
BRANCH   2   4
ATOM      4  C   UNL     1       9.177  18.498  59.981  1.00  0.00     0.032 C 
BRANCH   4   5
ATOM      5  C   UNL     1       9.800  19.726  59.299  1.00  0.00     0.034 C 
BRANCH   5   6
ATOM      6  C   UNL     1      10.826  19.373  58.231  1.00  0.00    -0.077 C 
ATOM      7  C   UNL     1      12.032  18.558  58.623  1.00  0.00     0.039 C 
ATOM      8  C   UNL     1      10.724  19.771  56.943  1.00  0.00    -0.023 CG0
ATOM      9  G   UNL     1       9.561  20.529  56.348  1.00  0.00     0.000 G0
ENDBRANCH   5   6
ENDBRANCH   4   5
ENDBRANCH   2   4
BRANCH   1  10
ATOM     10  C   UNL     1       7.248  18.125  57.647  1.00  0.00     0.111 C 
BRANCH  10  11
ATOM     11  C   UNL     1       7.286  19.371  56.808  1.00  0.00     0.163 C 
ATOM     12  O   UNL     1       6.334  20.194  56.879  1.00  0.00    -0.294 OA
BRANCH  11  13
ATOM     13  C   UNL     1       8.413  19.640  55.879  1.00  0.00    -0.002 C 
ATOM     14  C   UNL     1       8.420  19.095  54.631  1.00  0.00    -0.069 C 
ATOM     15  C   UNL     1       9.531  19.398  53.654  1.00  0.00     0.039 C 
ATOM     16  C   UNL     1       7.338  18.134  54.192  1.00  0.00     0.039 C 
BRANCH  13  17
ATOM     17  C   UNL     1       9.561  20.531  56.342  1.00  0.00     0.066 CG0
ATOM     18  G   UNL     1      10.722  19.768  56.935  1.00  0.00     0.000 G0
ENDBRANCH  13  17
ENDBRANCH  11  13
ENDBRANCH  10  11
ENDBRANCH   1  10
TORSDOF 0
ENDMDL
MODEL 7
REMARK VINA RESULT:    -3.783      1.732      2.239
REMARK INTER + INTRA:          -5.044
REMARK INTER:                  -5.713
REMARK INTRA:                   0.669
REMARK UNBOUND:                 0.287
REMARK SMILES CC1=CCC(=C(C)C)C(=O)CC(C)=CCC1
REMARK SMILES IDX 12 1 14 2 13 3 15 4 16 5 2 6 1 7 3 8 11 10 9 11 10 12 5 13
REMARK SMILES IDX 6 14 7 15 8 16 4 17
REMARK H PARENT
REMARK Flexibility Score: 60.00
ROOT
ATOM      1  C   UNL     1      13.764  18.262  54.362  1.00  0.00    -0.070 C 
ATOM      2  C   UNL     1      14.217  18.921  55.454  1.00  0.00    -0.027 C 
ATOM      3  C   UNL     1      14.058  18.852  53.005  1.00  0.00     0.039 C 
ENDROOT
BRANCH   2   4
ATOM      4  C   UNL     1      13.964  18.508  56.887  1.00  0.00     0.032 C 
BRANCH   4   5
ATOM      5  C   UNL     1      13.044  19.505  57.609  1.00  0.00     0.034 C 
BRANCH   5   6
ATOM      6  C   UNL     1      11.637  18.975  57.841  1.00  0.00    -0.077 C 
ATOM      7  C   UNL     1      11.292  18.393  59.189  1.00  0.00     0.039 C 
ATOM      8  C   UNL     1      10.674  18.978  56.891  1.00  0.00    -0.023 CG0
ATOM      9  G   UNL     1      10.807  19.578  55.511  1.00  0.00     0.000 G0
ENDBRANCH   5   6
ENDBRANCH   4   5
ENDBRANCH   2   4
BRANCH   1  10
ATOM     10  C   UNL     1      12.982  16.966  54.445  1.00  0.00     0.111 C 
BRANCH  10  11
ATOM     11  C   UNL     1      11.529  17.227  54.727  1.00  0.00     0.163 C 
ATOM     12  O   UNL     1      10.819  16.308  55.216  1.00  0.00    -0.294 OA
BRANCH  11  13
ATOM     13  C   UNL     1      10.908  18.540  54.418  1.00  0.00    -0.002 C 
ATOM     14  C   UNL     1      10.450  18.805  53.163  1.00  0.00    -0.069 C 
ATOM     15  C   UNL     1       9.769  20.115  52.842  1.00  0.00     0.039 C 
ATOM     16  C   UNL     1      10.643  17.816  52.035  1.00  0.00     0.039 C 
BRANCH  13  17
ATOM     17  C   UNL     1      10.793  19.585  55.523  1.00  0.00     0.066 CG0
ATOM     18  G   UNL     1      10.672  18.995  56.908  1.00  0.00     0.000 G0
ENDBRANCH  13  17
ENDBRANCH  11  13
ENDBRANCH  10  11
ENDBRANCH   1  10
TORSDOF 0
ENDMDL
MODEL 8
REMARK VINA RESULT:    -3.719      2.136      4.063
REMARK INTER + INTRA:          -4.954
REMARK INTER:                  -5.735
REMARK INTRA:                   0.781
REMARK UNBOUND:                 0.287
REMARK SMILES CC1=CCC(=C(C)C)C(=O)CC(C)=CCC1
REMARK SMILES IDX 12 1 14 2 13 3 15 4 16 5 2 6 1 7 3 8 11 10 9 11 10 12 5 13
REMARK SMILES IDX 6 14 7 15 8 16 4 17
REMARK H PARENT
REMARK Flexibility Score: 60.00
ROOT
ATOM      1  C   UNL     1      13.271  18.876  57.541  1.00  0.00    -0.070 C 
ATOM      2  C   UNL     1      14.241  18.442  56.704  1.00  0.00    -0.027 C 
ATOM      3  C   UNL     1      13.443  18.625  59.018  1.00  0.00     0.039 C 
ENDROOT
BRANCH   2   4
ATOM      4  C   UNL     1      14.205  18.556  55.196  1.00  0.00     0.032 C 
BRANCH   4   5
ATOM      5  C   UNL     1      13.536  17.331  54.553  1.00  0.00     0.034 C 
BRANCH   5   6
ATOM      6  C   UNL     1      12.279  17.669  53.764  1.00  0.00    -0.077 C 
ATOM      7  C   UNL     1      12.420  18.137  52.337  1.00  0.00     0.039 C 
ATOM      8  C   UNL     1      11.032  17.593  54.282  1.00  0.00    -0.023 CG0
ATOM      9  G   UNL     1      10.686  17.083  55.661  1.00  0.00     0.000 G0
ENDBRANCH   5   6
ENDBRANCH   4   5
ENDBRANCH   2   4
BRANCH   1  10
ATOM     10  C   UNL     1      12.028  19.600  57.060  1.00  0.00     0.111 C 
BRANCH  10  11
ATOM     11  C   UNL     1      10.780  18.888  57.501  1.00  0.00     0.163 C 
ATOM     12  O   UNL     1      10.425  18.954  58.709  1.00  0.00    -0.294 OA
BRANCH  11  13
ATOM     13  C   UNL     1       9.971  18.088  56.547  1.00  0.00    -0.002 C 
ATOM     14  C   UNL     1       8.623  18.263  56.474  1.00  0.00    -0.069 C 
ATOM     15  C   UNL     1       7.790  17.495  55.474  1.00  0.00     0.039 C 
ATOM     16  C   UNL     1       7.904  19.201  57.418  1.00  0.00     0.039 C 
BRANCH  13  17
ATOM     17  C   UNL     1      10.671  17.068  55.654  1.00  0.00     0.066 CG0
ATOM     18  G   UNL     1      11.026  17.600  54.286  1.00  0.00     0.000 G0
ENDBRANCH  13  17
ENDBRANCH  11  13
ENDBRANCH  10  11
ENDBRANCH   1  10
TORSDOF 0
ENDMDL
MODEL 9
REMARK VINA RESULT:    -3.639      3.242      5.456
REMARK INTER + INTRA:          -4.841
REMARK INTER:                  -5.324
REMARK INTRA:                   0.483
REMARK UNBOUND:                 0.287
REMARK SMILES CC1=CCC(=C(C)C)C(=O)CC(C)=CCC1
REMARK SMILES IDX 12 1 14 2 13 3 15 4 16 5 2 6 1 7 3 8 11 10 9 11 10 12 5 13
REMARK SMILES IDX 6 14 7 15 8 16 4 17
REMARK H PARENT
REMARK Flexibility Score: 60.00
ROOT
ATOM      1  C   UNL     1       9.629  19.464  58.609  1.00  0.00    -0.070 C 
ATOM      2  C   UNL     1      10.743  18.792  58.235  1.00  0.00    -0.027 C 
ATOM      3  C   UNL     1       8.601  18.732  59.433  1.00  0.00     0.039 C 
ENDROOT
BRANCH   2   4
ATOM      4  C   UNL     1      11.844  19.349  57.361  1.00  0.00     0.032 C 
BRANCH   4   5
ATOM      5  C   UNL     1      11.972  18.566  56.045  1.00  0.00     0.034 C 
BRANCH   5   6
ATOM      6  C   UNL     1      10.643  18.342  55.339  1.00  0.00    -0.077 C 
ATOM      7  C   UNL     1      10.142  16.930  55.163  1.00  0.00     0.039 C 
ATOM      8  C   UNL     1       9.887  19.346  54.839  1.00  0.00    -0.023 CG0
ATOM      9  G   UNL     1      10.186  20.820  54.977  1.00  0.00     0.000 G0
ENDBRANCH   5   6
ENDBRANCH   4   5
ENDBRANCH   2   4
BRANCH   1  10
ATOM     10  C   UNL     1       9.375  20.912  58.236  1.00  0.00     0.111 C 
BRANCH  10  11
ATOM     11  C   UNL     1       8.557  21.013  56.980  1.00  0.00     0.163 C 
ATOM     12  O   UNL     1       7.377  20.572  56.973  1.00  0.00    -0.294 OA
BRANCH  11  13
ATOM     13  C   UNL     1       9.121  21.602  55.738  1.00  0.00    -0.002 C 
ATOM     14  C   UNL     1       8.703  22.823  55.305  1.00  0.00    -0.069 C 
ATOM     15  C   UNL     1       9.302  23.462  54.074  1.00  0.00     0.039 C 
ATOM     16  C   UNL     1       7.595  23.568  56.017  1.00  0.00     0.039 C 
BRANCH  13  17
ATOM     17  C   UNL     1      10.172  20.820  54.957  1.00  0.00     0.066 CG0
ATOM     18  G   UNL     1       9.879  19.342  54.854  1.00  0.00     0.000 G0
ENDBRANCH  13  17
ENDBRANCH  11  13
ENDBRANCH  10  11
ENDBRANCH   1  10
TORSDOF 0
ENDMDL
