MODEL 1
REMARK VINA RESULT:    -4.557      0.000      0.000
REMARK INTER + INTRA:          -5.305
REMARK INTER:                  -5.223
REMARK INTRA:                  -0.082
REMARK UNBOUND:                -0.082
REMARK SMILES COc1cc(C(=O)[O-])ccc1O
REMARK SMILES IDX 5 1 9 2 4 3 10 4 3 5 11 6 6 7 7 8 8 9 2 10 1 11 12 12
REMARK H PARENT 12 13
REMARK Flexibility Score: inf
ROOT
ATOM      1  C   UNL     1      -9.337   3.798 -19.086  1.00  0.00     0.001 A 
ATOM      2  C   UNL     1     -10.499   4.587 -19.112  1.00  0.00     0.014 A 
ATOM      3  C   UNL     1      -8.569   3.750 -17.910  1.00  0.00     0.060 A 
ATOM      4  C   UNL     1     -10.886   5.313 -17.983  1.00  0.00     0.051 A 
ATOM      5  C   UNL     1      -8.956   4.481 -16.767  1.00  0.00     0.161 A 
ATOM      6  C   UNL     1     -10.119   5.262 -16.813  1.00  0.00     0.157 A 
ENDROOT
BRANCH   1   7
ATOM      7  C   UNL     1      -8.925   3.028 -20.280  1.00  0.00     0.072 C 
ATOM      8  O   UNL     1      -7.865   3.319 -20.897  1.00  0.00    -0.545 OA
ATOM      9  O   UNL     1      -9.701   1.969 -20.740  1.00  0.00    -0.545 OA
ENDBRANCH   1   7
BRANCH   5  10
ATOM     10  O   UNL     1      -8.214   4.457 -15.577  1.00  0.00    -0.493 OA
ATOM     11  C   UNL     1      -6.793   4.506 -15.509  1.00  0.00     0.278 C 
ENDBRANCH   5  10
BRANCH   6  12
ATOM     12  O   UNL     1     -10.505   5.987 -15.687  1.00  0.00    -0.504 OA
ATOM     13  H   UNL     1     -11.461   6.300 -15.560  1.00  0.00     0.293 HD
ENDBRANCH   6  12
TORSDOF 3
ENDMDL
MODEL 2
REMARK VINA RESULT:    -4.528      2.372      2.941
REMARK INTER + INTRA:          -5.272
REMARK INTER:                  -5.178
REMARK INTRA:                  -0.094
REMARK UNBOUND:                -0.082
REMARK SMILES COc1cc(C(=O)[O-])ccc1O
REMARK SMILES IDX 5 1 9 2 4 3 10 4 3 5 11 6 6 7 7 8 8 9 2 10 1 11 12 12
REMARK H PARENT 12 13
REMARK Flexibility Score: inf
ROOT
ATOM      1  C   UNL     1      -9.714   2.753 -19.602  1.00  0.00     0.001 A 
ATOM      2  C   UNL     1      -9.747   4.152 -19.489  1.00  0.00     0.014 A 
ATOM      3  C   UNL     1     -10.367   1.972 -18.633  1.00  0.00     0.060 A 
ATOM      4  C   UNL     1     -10.421   4.760 -18.428  1.00  0.00     0.051 A 
ATOM      5  C   UNL     1     -11.049   2.581 -17.559  1.00  0.00     0.161 A 
ATOM      6  C   UNL     1     -11.071   3.980 -17.464  1.00  0.00     0.157 A 
ENDROOT
BRANCH   1   7
ATOM      7  C   UNL     1      -9.001   2.106 -20.726  1.00  0.00     0.072 C 
ATOM      8  O   UNL     1      -8.089   1.263 -20.507  1.00  0.00    -0.545 OA
ATOM      9  O   UNL     1      -9.326   2.418 -22.042  1.00  0.00    -0.545 OA
ENDBRANCH   1   7
BRANCH   5  10
ATOM     10  O   UNL     1     -11.712   1.834 -16.573  1.00  0.00    -0.493 OA
ATOM     11  C   UNL     1     -13.029   1.311 -16.705  1.00  0.00     0.278 C 
ENDBRANCH   5  10
BRANCH   6  12
ATOM     12  O   UNL     1     -11.743   4.587 -16.405  1.00  0.00    -0.504 OA
ATOM     13  H   UNL     1     -11.496   5.516 -16.083  1.00  0.00     0.293 HD
ENDBRANCH   6  12
TORSDOF 3
ENDMDL
MODEL 3
REMARK VINA RESULT:    -4.510      1.642      2.370
REMARK INTER + INTRA:          -5.252
REMARK INTER:                  -5.168
REMARK INTRA:                  -0.083
REMARK UNBOUND:                -0.082
REMARK SMILES COc1cc(C(=O)[O-])ccc1O
REMARK SMILES IDX 5 1 9 2 4 3 10 4 3 5 11 6 6 7 7 8 8 9 2 10 1 11 12 12
REMARK H PARENT 12 13
REMARK Flexibility Score: inf
ROOT
ATOM      1  C   UNL     1      -8.957   3.559 -19.591  1.00  0.00     0.001 A 
ATOM      2  C   UNL     1      -8.217   4.689 -19.207  1.00  0.00     0.014 A 
ATOM      3  C   UNL     1     -10.031   3.138 -18.787  1.00  0.00     0.060 A 
ATOM      4  C   UNL     1      -8.545   5.386 -18.041  1.00  0.00     0.051 A 
ATOM      5  C   UNL     1     -10.365   3.838 -17.610  1.00  0.00     0.161 A 
ATOM      6  C   UNL     1      -9.615   4.964 -17.243  1.00  0.00     0.157 A 
ENDROOT
BRANCH   1   7
ATOM      7  C   UNL     1      -8.613   2.819 -20.826  1.00  0.00     0.072 C 
ATOM      8  O   UNL     1      -7.620   3.161 -21.523  1.00  0.00    -0.545 OA
ATOM      9  O   UNL     1      -9.381   1.735 -21.236  1.00  0.00    -0.545 OA
ENDBRANCH   1   7
BRANCH   5  10
ATOM     10  O   UNL     1     -11.430   3.447 -16.783  1.00  0.00    -0.493 OA
ATOM     11  C   UNL     1     -12.027   2.155 -16.792  1.00  0.00     0.278 C 
ENDBRANCH   5  10
BRANCH   6  12
ATOM     12  O   UNL     1      -9.940   5.660 -16.080  1.00  0.00    -0.504 OA
ATOM     13  H   UNL     1      -9.253   5.833 -15.356  1.00  0.00     0.293 HD
ENDBRANCH   6  12
TORSDOF 3
ENDMDL
MODEL 4
REMARK VINA RESULT:    -4.488      2.220      2.861
REMARK INTER + INTRA:          -5.226
REMARK INTER:                  -5.149
REMARK INTRA:                  -0.077
REMARK UNBOUND:                -0.082
REMARK SMILES COc1cc(C(=O)[O-])ccc1O
REMARK SMILES IDX 5 1 9 2 4 3 10 4 3 5 11 6 6 7 7 8 8 9 2 10 1 11 12 12
REMARK H PARENT 12 13
REMARK Flexibility Score: inf
ROOT
ATOM      1  C   UNL     1      -9.870   2.619 -19.515  1.00  0.00     0.001 A 
ATOM      2  C   UNL     1     -10.367   1.339 -19.216  1.00  0.00     0.014 A 
ATOM      3  C   UNL     1     -10.154   3.684 -18.642  1.00  0.00     0.060 A 
ATOM      4  C   UNL     1     -11.133   1.129 -18.067  1.00  0.00     0.051 A 
ATOM      5  C   UNL     1     -10.927   3.476 -17.481  1.00  0.00     0.161 A 
ATOM      6  C   UNL     1     -11.414   2.192 -17.200  1.00  0.00     0.157 A 
ENDROOT
BRANCH   1   7
ATOM      7  C   UNL     1      -9.058   2.845 -20.731  1.00  0.00     0.072 C 
ATOM      8  O   UNL     1      -7.875   3.272 -20.642  1.00  0.00    -0.545 OA
ATOM      9  O   UNL     1      -9.588   2.591 -21.991  1.00  0.00    -0.545 OA
ENDBRANCH   1   7
BRANCH   5  10
ATOM     10  O   UNL     1     -11.230   4.515 -16.588  1.00  0.00    -0.493 OA
ATOM     11  C   UNL     1     -10.580   5.781 -16.571  1.00  0.00     0.278 C 
ENDBRANCH   5  10
BRANCH   6  12
ATOM     12  O   UNL     1     -12.179   1.981 -16.055  1.00  0.00    -0.504 OA
ATOM     13  H   UNL     1     -13.109   2.373 -15.958  1.00  0.00     0.293 HD
ENDBRANCH   6  12
TORSDOF 3
ENDMDL
MODEL 5
REMARK VINA RESULT:    -4.456      2.961      3.915
REMARK INTER + INTRA:          -5.190
REMARK INTER:                  -5.092
REMARK INTRA:                  -0.098
REMARK UNBOUND:                -0.082
REMARK SMILES COc1cc(C(=O)[O-])ccc1O
REMARK SMILES IDX 5 1 9 2 4 3 10 4 3 5 11 6 6 7 7 8 8 9 2 10 1 11 12 12
REMARK H PARENT 12 13
REMARK Flexibility Score: inf
ROOT
ATOM      1  C   UNL     1     -11.422   2.793 -17.128  1.00  0.00     0.001 A 
ATOM      2  C   UNL     1     -11.798   4.146 -17.094  1.00  0.00     0.014 A 
ATOM      3  C   UNL     1     -10.202   2.437 -17.730  1.00  0.00     0.060 A 
ATOM      4  C   UNL     1     -10.972   5.124 -17.650  1.00  0.00     0.051 A 
ATOM      5  C   UNL     1      -9.364   3.422 -18.293  1.00  0.00     0.161 A 
ATOM      6  C   UNL     1      -9.758   4.767 -18.249  1.00  0.00     0.157 A 
ENDROOT
BRANCH   1   7
ATOM      7  C   UNL     1     -12.295   1.754 -16.538  1.00  0.00     0.072 C 
ATOM      8  O   UNL     1     -11.865   0.996 -15.628  1.00  0.00    -0.545 OA
ATOM      9  O   UNL     1     -13.605   1.599 -16.980  1.00  0.00    -0.545 OA
ENDBRANCH   1   7
BRANCH   5  10
ATOM     10  O   UNL     1      -8.141   3.103 -18.903  1.00  0.00    -0.493 OA
ATOM     11  C   UNL     1      -8.009   2.525 -20.197  1.00  0.00     0.278 C 
ENDBRANCH   5  10
BRANCH   6  12
ATOM     12  O   UNL     1      -8.934   5.743 -18.805  1.00  0.00    -0.504 OA
ATOM     13  H   UNL     1      -8.598   6.528 -18.258  1.00  0.00     0.293 HD
ENDBRANCH   6  12
TORSDOF 3
ENDMDL
MODEL 6
REMARK VINA RESULT:    -4.312      1.593      4.800
REMARK INTER + INTRA:          -5.025
REMARK INTER:                  -4.941
REMARK INTRA:                  -0.084
REMARK UNBOUND:                -0.082
REMARK SMILES COc1cc(C(=O)[O-])ccc1O
REMARK SMILES IDX 5 1 9 2 4 3 10 4 3 5 11 6 6 7 7 8 8 9 2 10 1 11 12 12
REMARK H PARENT 12 13
REMARK Flexibility Score: inf
ROOT
ATOM      1  C   UNL     1      -9.846   4.560 -18.197  1.00  0.00     0.001 A 
ATOM      2  C   UNL     1      -8.584   5.161 -18.339  1.00  0.00     0.014 A 
ATOM      3  C   UNL     1     -10.181   3.470 -19.020  1.00  0.00     0.060 A 
ATOM      4  C   UNL     1      -7.675   4.682 -19.284  1.00  0.00     0.051 A 
ATOM      5  C   UNL     1      -9.265   2.983 -19.976  1.00  0.00     0.161 A 
ATOM      6  C   UNL     1      -8.011   3.596 -20.102  1.00  0.00     0.157 A 
ENDROOT
BRANCH   1   7
ATOM      7  C   UNL     1     -10.812   5.065 -17.196  1.00  0.00     0.072 C 
ATOM      8  O   UNL     1     -11.927   4.500 -17.039  1.00  0.00    -0.545 OA
ATOM      9  O   UNL     1     -10.503   6.173 -16.414  1.00  0.00    -0.545 OA
ENDBRANCH   1   7
BRANCH   5  10
ATOM     10  O   UNL     1      -9.565   1.898 -20.814  1.00  0.00    -0.493 OA
ATOM     11  C   UNL     1     -10.507   0.876 -20.506  1.00  0.00     0.278 C 
ENDBRANCH   5  10
BRANCH   6  12
ATOM     12  O   UNL     1      -7.103   3.119 -21.045  1.00  0.00    -0.504 OA
ATOM     13  H   UNL     1      -6.569   3.749 -21.633  1.00  0.00     0.293 HD
ENDBRANCH   6  12
TORSDOF 3
ENDMDL
MODEL 7
REMARK VINA RESULT:    -4.289      2.282      2.615
REMARK INTER + INTRA:          -4.999
REMARK INTER:                  -4.916
REMARK INTRA:                  -0.083
REMARK UNBOUND:                -0.082
REMARK SMILES COc1cc(C(=O)[O-])ccc1O
REMARK SMILES IDX 5 1 9 2 4 3 10 4 3 5 11 6 6 7 7 8 8 9 2 10 1 11 12 12
REMARK H PARENT 12 13
REMARK Flexibility Score: inf
ROOT
ATOM      1  C   UNL     1      -8.680   4.158 -18.364  1.00  0.00     0.001 A 
ATOM      2  C   UNL     1      -9.740   5.017 -18.698  1.00  0.00     0.014 A 
ATOM      3  C   UNL     1      -8.907   3.113 -17.451  1.00  0.00     0.060 A 
ATOM      4  C   UNL     1     -11.004   4.834 -18.131  1.00  0.00     0.051 A 
ATOM      5  C   UNL     1     -10.181   2.926 -16.876  1.00  0.00     0.161 A 
ATOM      6  C   UNL     1     -11.226   3.793 -17.222  1.00  0.00     0.157 A 
ENDROOT
BRANCH   1   7
ATOM      7  C   UNL     1      -7.341   4.348 -18.964  1.00  0.00     0.072 C 
ATOM      8  O   UNL     1      -7.221   4.797 -20.136  1.00  0.00    -0.545 OA
ATOM      9  O   UNL     1      -6.194   4.033 -18.244  1.00  0.00    -0.545 OA
ENDBRANCH   1   7
BRANCH   5  10
ATOM     10  O   UNL     1     -10.444   1.895 -15.961  1.00  0.00    -0.493 OA
ATOM     11  C   UNL     1      -9.488   1.355 -15.055  1.00  0.00     0.278 C 
ENDBRANCH   5  10
BRANCH   6  12
ATOM     12  O   UNL     1     -12.487   3.612 -16.656  1.00  0.00    -0.504 OA
ATOM     13  H   UNL     1     -12.693   2.816 -16.064  1.00  0.00     0.293 HD
ENDBRANCH   6  12
TORSDOF 3
ENDMDL
MODEL 8
REMARK VINA RESULT:    -4.068      1.464      2.886
REMARK INTER + INTRA:          -4.745
REMARK INTER:                  -4.652
REMARK INTRA:                  -0.093
REMARK UNBOUND:                -0.082
REMARK SMILES COc1cc(C(=O)[O-])ccc1O
REMARK SMILES IDX 5 1 9 2 4 3 10 4 3 5 11 6 6 7 7 8 8 9 2 10 1 11 12 12
REMARK H PARENT 12 13
REMARK Flexibility Score: inf
ROOT
ATOM      1  C   UNL     1      -7.499   4.173 -19.336  1.00  0.00     0.001 A 
ATOM      2  C   UNL     1      -6.586   3.870 -18.313  1.00  0.00     0.014 A 
ATOM      3  C   UNL     1      -8.743   4.734 -18.999  1.00  0.00     0.060 A 
ATOM      4  C   UNL     1      -6.910   4.123 -16.979  1.00  0.00     0.051 A 
ATOM      5  C   UNL     1      -9.074   4.992 -17.653  1.00  0.00     0.161 A 
ATOM      6  C   UNL     1      -8.149   4.683 -16.646  1.00  0.00     0.157 A 
ENDROOT
BRANCH   1   7
ATOM      7  C   UNL     1      -7.159   3.906 -20.752  1.00  0.00     0.072 C 
ATOM      8  O   UNL     1      -6.321   4.627 -21.357  1.00  0.00    -0.545 OA
ATOM      9  O   UNL     1      -7.761   2.855 -21.436  1.00  0.00    -0.545 OA
ENDBRANCH   1   7
BRANCH   5  10
ATOM     10  O   UNL     1     -10.306   5.551 -17.279  1.00  0.00    -0.493 OA
ATOM     11  C   UNL     1     -11.570   4.925 -17.475  1.00  0.00     0.278 C 
ENDBRANCH   5  10
BRANCH   6  12
ATOM     12  O   UNL     1      -8.472   4.935 -15.314  1.00  0.00    -0.504 OA
ATOM     13  H   UNL     1      -9.433   5.057 -15.015  1.00  0.00     0.293 HD
ENDBRANCH   6  12
TORSDOF 3
ENDMDL
