MODEL 1
REMARK VINA RESULT:    -4.328      0.000      0.000
REMARK INTER + INTRA:          -5.549
REMARK INTER:                  -5.340
REMARK INTRA:                  -0.209
REMARK UNBOUND:                -0.209
REMARK SMILES C=CCc1ccc(OC)c(OC)c1
REMARK SMILES IDX 7 1 10 2 13 3 4 4 5 5 6 6 8 7 9 8 11 9 12 10 3 11 2 12 1 13
REMARK H PARENT
REMARK Flexibility Score: inf
ROOT
ATOM      1  C   UNL     1      75.086  35.303  52.732  1.00  0.00     0.160 A 
ATOM      2  C   UNL     1      75.017  33.901  52.774  1.00  0.00     0.160 A 
ATOM      3  C   UNL     1      73.986  33.276  53.502  1.00  0.00     0.054 A 
ATOM      4  C   UNL     1      73.025  34.042  54.181  1.00  0.00    -0.040 A 
ATOM      5  C   UNL     1      73.108  35.439  54.143  1.00  0.00     0.008 A 
ATOM      6  C   UNL     1      74.125  36.067  53.422  1.00  0.00     0.051 A 
ENDROOT
BRANCH   1   7
ATOM      7  O   UNL     1      76.123  35.898  51.997  1.00  0.00    -0.493 OA
ATOM      8  C   UNL     1      77.438  36.124  52.495  1.00  0.00     0.278 C 
ENDBRANCH   1   7
BRANCH   2   9
ATOM      9  O   UNL     1      75.992  33.166  52.082  1.00  0.00    -0.493 OA
ATOM     10  C   UNL     1      76.570  31.951  52.549  1.00  0.00     0.278 C 
ENDBRANCH   2   9
BRANCH   4  11
ATOM     11  C   UNL     1      71.943  33.370  54.984  1.00  0.00     0.062 C 
BRANCH  11  12
ATOM     12  C   UNL     1      71.680  34.124  56.258  1.00  0.00    -0.030 C 
ATOM     13  C   UNL     1      71.191  33.519  57.344  1.00  0.00     0.004 C 
ENDBRANCH  11  12
ENDBRANCH   4  11
TORSDOF 4
ENDMDL
MODEL 2
REMARK VINA RESULT:    -4.115      0.928      1.163
REMARK INTER + INTRA:          -5.286
REMARK INTER:                  -5.053
REMARK INTRA:                  -0.232
REMARK UNBOUND:                -0.209
REMARK SMILES C=CCc1ccc(OC)c(OC)c1
REMARK SMILES IDX 7 1 10 2 13 3 4 4 5 5 6 6 8 7 9 8 11 9 12 10 3 11 2 12 1 13
REMARK H PARENT
REMARK Flexibility Score: inf
ROOT
ATOM      1  C   UNL     1      76.043  35.173  52.025  1.00  0.00     0.160 A 
ATOM      2  C   UNL     1      75.818  33.818  52.316  1.00  0.00     0.160 A 
ATOM      3  C   UNL     1      74.606  33.426  52.916  1.00  0.00     0.054 A 
ATOM      4  C   UNL     1      73.619  34.377  53.220  1.00  0.00    -0.040 A 
ATOM      5  C   UNL     1      73.857  35.728  52.937  1.00  0.00     0.008 A 
ATOM      6  C   UNL     1      75.055  36.125  52.341  1.00  0.00     0.051 A 
ENDROOT
BRANCH   1   7
ATOM      7  O   UNL     1      77.260  35.534  51.426  1.00  0.00    -0.493 OA
ATOM      8  C   UNL     1      78.382  36.058  52.130  1.00  0.00     0.278 C 
ENDBRANCH   1   7
BRANCH   2   9
ATOM      9  O   UNL     1      76.825  32.892  51.996  1.00  0.00    -0.493 OA
ATOM     10  C   UNL     1      76.875  31.555  52.480  1.00  0.00     0.278 C 
ENDBRANCH   2   9
BRANCH   4  11
ATOM     11  C   UNL     1      72.338  33.958  53.891  1.00  0.00     0.062 C 
BRANCH  11  12
ATOM     12  C   UNL     1      72.594  33.526  55.307  1.00  0.00    -0.030 C 
ATOM     13  C   UNL     1      71.634  33.555  56.236  1.00  0.00     0.004 C 
ENDBRANCH  11  12
ENDBRANCH   4  11
TORSDOF 4
ENDMDL
MODEL 3
REMARK VINA RESULT:    -3.837     16.444     17.747
REMARK INTER + INTRA:          -4.943
REMARK INTER:                  -4.733
REMARK INTRA:                  -0.210
REMARK UNBOUND:                -0.209
REMARK SMILES C=CCc1ccc(OC)c(OC)c1
REMARK SMILES IDX 7 1 10 2 13 3 4 4 5 5 6 6 8 7 9 8 11 9 12 10 3 11 2 12 1 13
REMARK H PARENT
REMARK Flexibility Score: inf
ROOT
ATOM      1  C   UNL     1      85.430  31.479  66.470  1.00  0.00     0.160 A 
ATOM      2  C   UNL     1      84.969  30.715  65.386  1.00  0.00     0.160 A 
ATOM      3  C   UNL     1      85.849  29.828  64.734  1.00  0.00     0.054 A 
ATOM      4  C   UNL     1      87.179  29.698  65.162  1.00  0.00    -0.040 A 
ATOM      5  C   UNL     1      87.633  30.473  66.237  1.00  0.00     0.008 A 
ATOM      6  C   UNL     1      86.768  31.352  66.890  1.00  0.00     0.051 A 
ENDROOT
BRANCH   1   7
ATOM      7  O   UNL     1      84.531  32.352  67.101  1.00  0.00    -0.493 OA
ATOM      8  C   UNL     1      83.612  31.967  68.117  1.00  0.00     0.278 C 
ENDBRANCH   1   7
BRANCH   2   9
ATOM      9  O   UNL     1      83.632  30.867  64.985  1.00  0.00    -0.493 OA
ATOM     10  C   UNL     1      82.868  29.863  64.325  1.00  0.00     0.278 C 
ENDBRANCH   2   9
BRANCH   4  11
ATOM     11  C   UNL     1      88.125  28.774  64.442  1.00  0.00     0.062 C 
BRANCH  11  12
ATOM     12  C   UNL     1      87.540  27.394  64.332  1.00  0.00    -0.030 C 
ATOM     13  C   UNL     1      88.023  26.367  65.039  1.00  0.00     0.004 C 
ENDBRANCH  11  12
ENDBRANCH   4  11
TORSDOF 4
ENDMDL
MODEL 4
REMARK VINA RESULT:    -3.548      3.328      4.698
REMARK INTER + INTRA:          -4.586
REMARK INTER:                  -4.426
REMARK INTRA:                  -0.160
REMARK UNBOUND:                -0.209
REMARK SMILES C=CCc1ccc(OC)c(OC)c1
REMARK SMILES IDX 7 1 10 2 13 3 4 4 5 5 6 6 8 7 9 8 11 9 12 10 3 11 2 12 1 13
REMARK H PARENT
REMARK Flexibility Score: inf
ROOT
ATOM      1  C   UNL     1      79.058  35.060  50.480  1.00  0.00     0.160 A 
ATOM      2  C   UNL     1      78.785  34.189  51.547  1.00  0.00     0.160 A 
ATOM      3  C   UNL     1      77.560  34.291  52.235  1.00  0.00     0.054 A 
ATOM      4  C   UNL     1      76.608  35.252  51.860  1.00  0.00    -0.040 A 
ATOM      5  C   UNL     1      76.893  36.125  50.802  1.00  0.00     0.008 A 
ATOM      6  C   UNL     1      78.103  36.029  50.113  1.00  0.00     0.051 A 
ENDROOT
BRANCH   1   7
ATOM      7  O   UNL     1      80.285  34.934  49.812  1.00  0.00    -0.493 OA
ATOM      8  C   UNL     1      80.583  33.922  48.856  1.00  0.00     0.278 C 
ENDBRANCH   1   7
BRANCH   2   9
ATOM      9  O   UNL     1      79.758  33.237  51.894  1.00  0.00    -0.493 OA
ATOM     10  C   UNL     1      79.475  31.891  52.260  1.00  0.00     0.278 C 
ENDBRANCH   2   9
BRANCH   4  11
ATOM     11  C   UNL     1      75.314  35.380  52.618  1.00  0.00     0.062 C 
BRANCH  11  12
ATOM     12  C   UNL     1      74.280  36.092  51.792  1.00  0.00    -0.030 C 
ATOM     13  C   UNL     1      72.993  36.121  52.149  1.00  0.00     0.004 C 
ENDBRANCH  11  12
ENDBRANCH   4  11
TORSDOF 4
ENDMDL
MODEL 5
REMARK VINA RESULT:    -3.310      1.959      3.839
REMARK INTER + INTRA:          -4.293
REMARK INTER:                  -4.028
REMARK INTRA:                  -0.265
REMARK UNBOUND:                -0.209
REMARK SMILES C=CCc1ccc(OC)c(OC)c1
REMARK SMILES IDX 7 1 10 2 13 3 4 4 5 5 6 6 8 7 9 8 11 9 12 10 3 11 2 12 1 13
REMARK H PARENT
REMARK Flexibility Score: inf
ROOT
ATOM      1  C   UNL     1      77.791  33.737  51.951  1.00  0.00     0.160 A 
ATOM      2  C   UNL     1      77.624  35.123  51.803  1.00  0.00     0.160 A 
ATOM      3  C   UNL     1      76.356  35.698  52.017  1.00  0.00     0.054 A 
ATOM      4  C   UNL     1      75.261  34.899  52.382  1.00  0.00    -0.040 A 
ATOM      5  C   UNL     1      75.435  33.516  52.517  1.00  0.00     0.008 A 
ATOM      6  C   UNL     1      76.688  32.938  52.309  1.00  0.00     0.051 A 
ENDROOT
BRANCH   1   7
ATOM      7  O   UNL     1      79.066  33.191  51.733  1.00  0.00    -0.493 OA
ATOM      8  C   UNL     1      79.528  31.969  52.298  1.00  0.00     0.278 C 
ENDBRANCH   1   7
BRANCH   2   9
ATOM      9  O   UNL     1      78.740  35.893  51.439  1.00  0.00    -0.493 OA
ATOM     10  C   UNL     1      79.160  36.123  50.099  1.00  0.00     0.278 C 
ENDBRANCH   2   9
BRANCH   4  11
ATOM     11  C   UNL     1      73.901  35.513  52.579  1.00  0.00     0.062 C 
BRANCH  11  12
ATOM     12  C   UNL     1      73.182  34.860  53.725  1.00  0.00    -0.030 C 
ATOM     13  C   UNL     1      73.296  35.314  54.977  1.00  0.00     0.004 C 
ENDBRANCH  11  12
ENDBRANCH   4  11
TORSDOF 4
ENDMDL
MODEL 6
REMARK VINA RESULT:    -3.249     15.745     17.063
REMARK INTER + INTRA:          -4.218
REMARK INTER:                  -3.935
REMARK INTRA:                  -0.283
REMARK UNBOUND:                -0.209
REMARK SMILES C=CCc1ccc(OC)c(OC)c1
REMARK SMILES IDX 7 1 10 2 13 3 4 4 5 5 6 6 8 7 9 8 11 9 12 10 3 11 2 12 1 13
REMARK H PARENT
REMARK Flexibility Score: inf
ROOT
ATOM      1  C   UNL     1      85.900  31.979  64.479  1.00  0.00     0.160 A 
ATOM      2  C   UNL     1      85.230  30.826  64.916  1.00  0.00     0.160 A 
ATOM      3  C   UNL     1      85.960  29.647  65.165  1.00  0.00     0.054 A 
ATOM      4  C   UNL     1      87.351  29.617  64.985  1.00  0.00    -0.040 A 
ATOM      5  C   UNL     1      88.011  30.769  64.538  1.00  0.00     0.008 A 
ATOM      6  C   UNL     1      87.295  31.942  64.291  1.00  0.00     0.051 A 
ENDROOT
BRANCH   1   7
ATOM      7  O   UNL     1      85.147  33.139  64.241  1.00  0.00    -0.493 OA
ATOM      8  C   UNL     1      84.846  33.654  62.948  1.00  0.00     0.278 C 
ENDBRANCH   1   7
BRANCH   2   9
ATOM      9  O   UNL     1      83.837  30.890  65.089  1.00  0.00    -0.493 OA
ATOM     10  C   UNL     1      82.899  30.084  64.385  1.00  0.00     0.278 C 
ENDBRANCH   2   9
BRANCH   4  11
ATOM     11  C   UNL     1      88.124  28.347  65.221  1.00  0.00     0.062 C 
BRANCH  11  12
ATOM     12  C   UNL     1      87.876  27.359  64.114  1.00  0.00    -0.030 C 
ATOM     13  C   UNL     1      87.561  26.086  64.366  1.00  0.00     0.004 C 
ENDBRANCH  11  12
ENDBRANCH   4  11
TORSDOF 4
ENDMDL
MODEL 7
REMARK VINA RESULT:    -3.249     16.799     18.166
REMARK INTER + INTRA:          -4.218
REMARK INTER:                  -3.940
REMARK INTRA:                  -0.278
REMARK UNBOUND:                -0.209
REMARK SMILES C=CCc1ccc(OC)c(OC)c1
REMARK SMILES IDX 7 1 10 2 13 3 4 4 5 5 6 6 8 7 9 8 11 9 12 10 3 11 2 12 1 13
REMARK H PARENT
REMARK Flexibility Score: inf
ROOT
ATOM      1  C   UNL     1      85.465  31.189  65.943  1.00  0.00     0.160 A 
ATOM      2  C   UNL     1      86.831  31.244  66.263  1.00  0.00     0.160 A 
ATOM      3  C   UNL     1      87.695  30.230  65.806  1.00  0.00     0.054 A 
ATOM      4  C   UNL     1      87.204  29.169  65.029  1.00  0.00    -0.040 A 
ATOM      5  C   UNL     1      85.838  29.116  64.724  1.00  0.00     0.008 A 
ATOM      6  C   UNL     1      84.975  30.118  65.171  1.00  0.00     0.051 A 
ENDROOT
BRANCH   1   7
ATOM      7  O   UNL     1      84.628  32.214  66.411  1.00  0.00    -0.493 OA
ATOM      8  C   UNL     1      83.426  32.002  67.144  1.00  0.00     0.278 C 
ENDBRANCH   1   7
BRANCH   2   9
ATOM      9  O   UNL     1      87.290  32.320  67.040  1.00  0.00    -0.493 OA
ATOM     10  C   UNL     1      88.099  33.383  66.548  1.00  0.00     0.278 C 
ENDBRANCH   2   9
BRANCH   4  11
ATOM     11  C   UNL     1      88.125  28.070  64.570  1.00  0.00     0.062 C 
BRANCH  11  12
ATOM     12  C   UNL     1      87.365  26.789  64.364  1.00  0.00    -0.030 C 
ATOM     13  C   UNL     1      87.823  25.821  63.565  1.00  0.00     0.004 C 
ENDBRANCH  11  12
ENDBRANCH   4  11
TORSDOF 4
ENDMDL
MODEL 8
REMARK VINA RESULT:    -2.421     15.950     16.646
REMARK INTER + INTRA:          -3.196
REMARK INTER:                  -3.138
REMARK INTRA:                  -0.058
REMARK UNBOUND:                -0.209
REMARK SMILES C=CCc1ccc(OC)c(OC)c1
REMARK SMILES IDX 7 1 10 2 13 3 4 4 5 5 6 6 8 7 9 8 11 9 12 10 3 11 2 12 1 13
REMARK H PARENT
REMARK Flexibility Score: inf
ROOT
ATOM      1  C   UNL     1      86.333  31.977  66.498  1.00  0.00     0.160 A 
ATOM      2  C   UNL     1      86.368  31.743  65.114  1.00  0.00     0.160 A 
ATOM      3  C   UNL     1      85.168  31.505  64.417  1.00  0.00     0.054 A 
ATOM      4  C   UNL     1      83.937  31.504  65.092  1.00  0.00    -0.040 A 
ATOM      5  C   UNL     1      83.913  31.727  66.475  1.00  0.00     0.008 A 
ATOM      6  C   UNL     1      85.098  31.967  67.173  1.00  0.00     0.051 A 
ENDROOT
BRANCH   1   7
ATOM      7  O   UNL     1      87.545  32.213  67.166  1.00  0.00    -0.493 OA
ATOM      8  C   UNL     1      88.125  33.500  67.353  1.00  0.00     0.278 C 
ENDBRANCH   1   7
BRANCH   2   9
ATOM      9  O   UNL     1      87.615  31.753  64.468  1.00  0.00    -0.493 OA
ATOM     10  C   UNL     1      88.119  30.688  63.669  1.00  0.00     0.278 C 
ENDBRANCH   2   9
BRANCH   4  11
ATOM     11  C   UNL     1      82.660  31.217  64.350  1.00  0.00     0.062 C 
BRANCH  11  12
ATOM     12  C   UNL     1      82.333  29.751  64.398  1.00  0.00    -0.030 C 
ATOM     13  C   UNL     1      83.285  28.816  64.335  1.00  0.00     0.004 C 
ENDBRANCH  11  12
ENDBRANCH   4  11
TORSDOF 4
ENDMDL
