MODEL 1
REMARK VINA RESULT:    -2.580      0.000      0.000
REMARK INTER + INTRA:          -4.235
REMARK INTER:                  -3.787
REMARK INTRA:                  -0.449
REMARK UNBOUND:                -0.449
REMARK SMILES CCCCCCCCCC=O
REMARK SMILES IDX 6 1 5 2 4 3 3 4 2 5 1 6 7 7 8 8 9 9 10 10 11 11
REMARK H PARENT
REMARK Flexibility Score: inf
ROOT
ATOM      1  C   UNL     1     127.198 111.912 117.815  1.00  0.00     0.000 C 
ENDROOT
BRANCH   1   2
ATOM      2  C   UNL     1     128.641 111.725 118.299  1.00  0.00     0.000 C 
BRANCH   2   3
ATOM      3  C   UNL     1     129.334 113.077 118.504  1.00  0.00    -0.000 C 
BRANCH   3   4
ATOM      4  C   UNL     1     128.310 114.218 118.561  1.00  0.00    -0.000 C 
BRANCH   4   5
ATOM      5  C   UNL     1     128.229 114.813 119.971  1.00  0.00    -0.003 C 
ATOM      6  C   UNL     1     129.405 114.358 120.830  1.00  0.00     0.004 C 
ENDBRANCH   4   5
ENDBRANCH   3   4
ENDBRANCH   2   3
ENDBRANCH   1   2
BRANCH   1   7
ATOM      7  C   UNL     1     126.731 110.701 116.994  1.00  0.00     0.000 C 
BRANCH   7   8
ATOM      8  C   UNL     1     126.702 110.987 115.483  1.00  0.00     0.008 C 
BRANCH   8   9
ATOM      9  C   UNL     1     125.277 111.174 114.945  1.00  0.00     0.072 C 
BRANCH   9  10
ATOM     10  C   UNL     1     124.290 110.406 115.771  1.00  0.00     0.224 C 
ATOM     11  O   UNL     1     123.164 110.842 115.956  1.00  0.00    -0.303 OA
ENDBRANCH   9  10
ENDBRANCH   8   9
ENDBRANCH   7   8
ENDBRANCH   1   7
TORSDOF 8
ENDMDL
MODEL 2
REMARK VINA RESULT:    -2.536     20.337     21.233
REMARK INTER + INTRA:          -4.170
REMARK INTER:                  -3.571
REMARK INTRA:                  -0.599
REMARK UNBOUND:                -0.449
REMARK SMILES CCCCCCCCCC=O
REMARK SMILES IDX 6 1 5 2 4 3 3 4 2 5 1 6 7 7 8 8 9 9 10 10 11 11
REMARK H PARENT
REMARK Flexibility Score: inf
ROOT
ATOM      1  C   UNL     1     112.119 127.783 115.886  1.00  0.00     0.000 C 
ENDROOT
BRANCH   1   2
ATOM      2  C   UNL     1     112.210 129.155 115.207  1.00  0.00     0.000 C 
BRANCH   2   3
ATOM      3  C   UNL     1     113.666 129.525 114.903  1.00  0.00    -0.000 C 
BRANCH   3   4
ATOM      4  C   UNL     1     114.619 128.395 115.316  1.00  0.00    -0.000 C 
BRANCH   4   5
ATOM      5  C   UNL     1     115.686 128.905 116.291  1.00  0.00    -0.003 C 
ATOM      6  C   UNL     1     115.073 129.261 117.642  1.00  0.00     0.004 C 
ENDBRANCH   4   5
ENDBRANCH   3   4
ENDBRANCH   2   3
ENDBRANCH   1   2
BRANCH   1   7
ATOM      7  C   UNL     1     111.430 127.892 117.254  1.00  0.00     0.000 C 
BRANCH   7   8
ATOM      8  C   UNL     1     111.684 126.663 118.143  1.00  0.00     0.008 C 
BRANCH   8   9
ATOM      9  C   UNL     1     110.435 125.786 118.309  1.00  0.00     0.072 C 
BRANCH   9  10
ATOM     10  C   UNL     1     110.742 124.573 119.134  1.00  0.00     0.224 C 
ATOM     11  O   UNL     1     111.518 123.724 118.723  1.00  0.00    -0.303 OA
ENDBRANCH   9  10
ENDBRANCH   8   9
ENDBRANCH   7   8
ENDBRANCH   1   7
TORSDOF 8
ENDMDL
MODEL 3
REMARK VINA RESULT:    -2.519     11.561     13.403
REMARK INTER + INTRA:          -4.145
REMARK INTER:                  -3.599
REMARK INTRA:                  -0.546
REMARK UNBOUND:                -0.449
REMARK SMILES CCCCCCCCCC=O
REMARK SMILES IDX 6 1 5 2 4 3 3 4 2 5 1 6 7 7 8 8 9 9 10 10 11 11
REMARK H PARENT
REMARK Flexibility Score: inf
ROOT
ATOM      1  C   UNL     1     128.367 125.297 114.984  1.00  0.00     0.000 C 
ENDROOT
BRANCH   1   2
ATOM      2  C   UNL     1     128.649 126.784 115.228  1.00  0.00     0.000 C 
BRANCH   2   3
ATOM      3  C   UNL     1     128.940 127.055 116.708  1.00  0.00    -0.000 C 
BRANCH   3   4
ATOM      4  C   UNL     1     127.667 126.918 117.554  1.00  0.00    -0.000 C 
BRANCH   4   5
ATOM      5  C   UNL     1     127.108 128.294 117.931  1.00  0.00    -0.003 C 
ATOM      6  C   UNL     1     125.619 128.215 118.254  1.00  0.00     0.004 C 
ENDBRANCH   4   5
ENDBRANCH   3   4
ENDBRANCH   2   3
ENDBRANCH   1   2
BRANCH   1   7
ATOM      7  C   UNL     1     129.676 124.500 114.875  1.00  0.00     0.000 C 
BRANCH   7   8
ATOM      8  C   UNL     1     129.886 123.544 116.061  1.00  0.00     0.008 C 
BRANCH   8   9
ATOM      9  C   UNL     1     128.587 122.854 116.500  1.00  0.00     0.072 C 
BRANCH   9  10
ATOM     10  C   UNL     1     128.538 121.441 116.001  1.00  0.00     0.224 C 
ATOM     11  O   UNL     1     127.807 121.138 115.071  1.00  0.00    -0.303 OA
ENDBRANCH   9  10
ENDBRANCH   8   9
ENDBRANCH   7   8
ENDBRANCH   1   7
TORSDOF 8
ENDMDL
MODEL 4
REMARK VINA RESULT:    -2.515     13.336     15.360
REMARK INTER + INTRA:          -4.140
REMARK INTER:                  -3.729
REMARK INTRA:                  -0.410
REMARK UNBOUND:                -0.449
REMARK SMILES CCCCCCCCCC=O
REMARK SMILES IDX 6 1 5 2 4 3 3 4 2 5 1 6 7 7 8 8 9 9 10 10 11 11
REMARK H PARENT
REMARK Flexibility Score: inf
ROOT
ATOM      1  C   UNL     1     127.001 127.436 117.467  1.00  0.00     0.000 C 
ENDROOT
BRANCH   1   2
ATOM      2  C   UNL     1     127.251 128.727 118.256  1.00  0.00     0.000 C 
BRANCH   2   3
ATOM      3  C   UNL     1     125.931 129.411 118.627  1.00  0.00    -0.000 C 
BRANCH   3   4
ATOM      4  C   UNL     1     124.760 128.421 118.565  1.00  0.00    -0.000 C 
BRANCH   4   5
ATOM      5  C   UNL     1     124.239 128.098 119.969  1.00  0.00    -0.003 C 
ATOM      6  C   UNL     1     124.604 129.199 120.960  1.00  0.00     0.004 C 
ENDBRANCH   4   5
ENDBRANCH   3   4
ENDBRANCH   2   3
ENDBRANCH   1   2
BRANCH   1   7
ATOM      7  C   UNL     1     128.254 127.019 116.684  1.00  0.00     0.000 C 
BRANCH   7   8
ATOM      8  C   UNL     1     127.925 126.489 115.278  1.00  0.00     0.008 C 
BRANCH   8   9
ATOM      9  C   UNL     1     128.610 125.149 114.976  1.00  0.00     0.072 C 
BRANCH   9  10
ATOM     10  C   UNL     1     128.716 124.314 116.216  1.00  0.00     0.224 C 
ATOM     11  O   UNL     1     129.667 123.564 116.379  1.00  0.00    -0.303 OA
ENDBRANCH   9  10
ENDBRANCH   8   9
ENDBRANCH   7   8
ENDBRANCH   1   7
TORSDOF 8
ENDMDL
MODEL 5
REMARK VINA RESULT:    -2.497     12.615     14.557
REMARK INTER + INTRA:          -4.113
REMARK INTER:                  -3.668
REMARK INTRA:                  -0.444
REMARK UNBOUND:                -0.449
REMARK SMILES CCCCCCCCCC=O
REMARK SMILES IDX 6 1 5 2 4 3 3 4 2 5 1 6 7 7 8 8 9 9 10 10 11 11
REMARK H PARENT
REMARK Flexibility Score: inf
ROOT
ATOM      1  C   UNL     1     128.993 127.564 116.256  1.00  0.00     0.000 C 
ENDROOT
BRANCH   1   2
ATOM      2  C   UNL     1     127.642 127.053 116.770  1.00  0.00     0.000 C 
BRANCH   2   3
ATOM      3  C   UNL     1     127.479 127.337 118.268  1.00  0.00    -0.000 C 
BRANCH   3   4
ATOM      4  C   UNL     1     125.999 127.327 118.673  1.00  0.00    -0.000 C 
BRANCH   4   5
ATOM      5  C   UNL     1     125.327 128.661 118.331  1.00  0.00    -0.003 C 
ATOM      6  C   UNL     1     126.207 129.841 118.733  1.00  0.00     0.004 C 
ENDBRANCH   4   5
ENDBRANCH   3   4
ENDBRANCH   2   3
ENDBRANCH   1   2
BRANCH   1   7
ATOM      7  C   UNL     1     129.562 126.627 115.180  1.00  0.00     0.000 C 
BRANCH   7   8
ATOM      8  C   UNL     1     128.631 125.442 114.876  1.00  0.00     0.008 C 
BRANCH   8   9
ATOM      9  C   UNL     1     129.299 124.084 115.134  1.00  0.00     0.072 C 
BRANCH   9  10
ATOM     10  C   UNL     1     128.550 123.312 116.178  1.00  0.00     0.224 C 
ATOM     11  O   UNL     1     127.806 122.398 115.857  1.00  0.00    -0.303 OA
ENDBRANCH   9  10
ENDBRANCH   8   9
ENDBRANCH   7   8
ENDBRANCH   1   7
TORSDOF 8
ENDMDL
MODEL 6
REMARK VINA RESULT:    -2.486     12.969     15.101
REMARK INTER + INTRA:          -4.097
REMARK INTER:                  -3.700
REMARK INTRA:                  -0.397
REMARK UNBOUND:                -0.449
REMARK SMILES CCCCCCCCCC=O
REMARK SMILES IDX 6 1 5 2 4 3 3 4 2 5 1 6 7 7 8 8 9 9 10 10 11 11
REMARK H PARENT
REMARK Flexibility Score: inf
ROOT
ATOM      1  C   UNL     1     127.926 127.911 118.132  1.00  0.00     0.000 C 
ENDROOT
BRANCH   1   2
ATOM      2  C   UNL     1     126.425 127.884 117.817  1.00  0.00     0.000 C 
BRANCH   2   3
ATOM      3  C   UNL     1     125.685 128.999 118.564  1.00  0.00    -0.000 C 
BRANCH   3   4
ATOM      4  C   UNL     1     124.689 128.418 119.576  1.00  0.00    -0.000 C 
BRANCH   4   5
ATOM      5  C   UNL     1     123.786 127.369 118.918  1.00  0.00    -0.003 C 
ATOM      6  C   UNL     1     123.722 126.095 119.754  1.00  0.00     0.004 C 
ENDBRANCH   4   5
ENDBRANCH   3   4
ENDBRANCH   2   3
ENDBRANCH   1   2
BRANCH   1   7
ATOM      7  C   UNL     1     128.738 127.290 116.986  1.00  0.00     0.000 C 
BRANCH   7   8
ATOM      8  C   UNL     1     127.848 126.727 115.866  1.00  0.00     0.008 C 
BRANCH   8   9
ATOM      9  C   UNL     1     128.577 125.698 114.992  1.00  0.00     0.072 C 
BRANCH   9  10
ATOM     10  C   UNL     1     128.880 124.455 115.773  1.00  0.00     0.224 C 
ATOM     11  O   UNL     1     128.153 123.477 115.686  1.00  0.00    -0.303 OA
ENDBRANCH   9  10
ENDBRANCH   8   9
ENDBRANCH   7   8
ENDBRANCH   1   7
TORSDOF 8
ENDMDL
MODEL 7
REMARK VINA RESULT:    -2.475     20.367     21.419
REMARK INTER + INTRA:          -4.081
REMARK INTER:                  -3.600
REMARK INTRA:                  -0.481
REMARK UNBOUND:                -0.449
REMARK SMILES CCCCCCCCCC=O
REMARK SMILES IDX 6 1 5 2 4 3 3 4 2 5 1 6 7 7 8 8 9 9 10 10 11 11
REMARK H PARENT
REMARK Flexibility Score: inf
ROOT
ATOM      1  C   UNL     1     112.415 127.807 117.180  1.00  0.00     0.000 C 
ENDROOT
BRANCH   1   2
ATOM      2  C   UNL     1     111.070 128.091 117.860  1.00  0.00     0.000 C 
BRANCH   2   3
ATOM      3  C   UNL     1     110.760 127.038 118.930  1.00  0.00    -0.000 C 
BRANCH   3   4
ATOM      4  C   UNL     1     110.159 125.774 118.302  1.00  0.00    -0.000 C 
BRANCH   4   5
ATOM      5  C   UNL     1     110.959 124.529 118.701  1.00  0.00    -0.003 C 
ATOM      6  C   UNL     1     112.144 124.897 119.589  1.00  0.00     0.004 C 
ENDBRANCH   4   5
ENDBRANCH   3   4
ENDBRANCH   2   3
ENDBRANCH   1   2
BRANCH   1   7
ATOM      7  C   UNL     1     112.278 127.847 115.651  1.00  0.00     0.000 C 
BRANCH   7   8
ATOM      8  C   UNL     1     113.639 127.861 114.935  1.00  0.00     0.008 C 
BRANCH   8   9
ATOM      9  C   UNL     1     114.451 129.128 115.235  1.00  0.00     0.072 C 
BRANCH   9  10
ATOM     10  C   UNL     1     115.832 128.778 115.701  1.00  0.00     0.224 C 
ATOM     11  O   UNL     1     116.810 129.284 115.173  1.00  0.00    -0.303 OA
ENDBRANCH   9  10
ENDBRANCH   8   9
ENDBRANCH   7   8
ENDBRANCH   1   7
TORSDOF 8
ENDMDL
MODEL 8
REMARK VINA RESULT:    -2.459     12.875     15.580
REMARK INTER + INTRA:          -4.058
REMARK INTER:                  -3.628
REMARK INTRA:                  -0.430
REMARK UNBOUND:                -0.449
REMARK SMILES CCCCCCCCCC=O
REMARK SMILES IDX 6 1 5 2 4 3 3 4 2 5 1 6 7 7 8 8 9 9 10 10 11 11
REMARK H PARENT
REMARK Flexibility Score: inf
ROOT
ATOM      1  C   UNL     1     111.653 112.024 117.056  1.00  0.00     0.000 C 
ENDROOT
BRANCH   1   2
ATOM      2  C   UNL     1     110.977 111.045 118.024  1.00  0.00     0.000 C 
BRANCH   2   3
ATOM      3  C   UNL     1     111.991 110.047 118.596  1.00  0.00    -0.000 C 
BRANCH   3   4
ATOM      4  C   UNL     1     113.421 110.419 118.186  1.00  0.00    -0.000 C 
BRANCH   4   5
ATOM      5  C   UNL     1     114.297 110.673 119.418  1.00  0.00    -0.003 C 
ATOM      6  C   UNL     1     115.217 111.871 119.203  1.00  0.00     0.004 C 
ENDBRANCH   4   5
ENDBRANCH   3   4
ENDBRANCH   2   3
ENDBRANCH   1   2
BRANCH   1   7
ATOM      7  C   UNL     1     110.907 112.072 115.714  1.00  0.00     0.000 C 
BRANCH   7   8
ATOM      8  C   UNL     1     110.807 113.497 115.145  1.00  0.00     0.008 C 
BRANCH   8   9
ATOM      9  C   UNL     1     110.301 114.512 116.179  1.00  0.00     0.072 C 
BRANCH   9  10
ATOM     10  C   UNL     1     110.649 115.911 115.767  1.00  0.00     0.224 C 
ATOM     11  O   UNL     1     111.067 116.712 116.589  1.00  0.00    -0.303 OA
ENDBRANCH   9  10
ENDBRANCH   8   9
ENDBRANCH   7   8
ENDBRANCH   1   7
TORSDOF 8
ENDMDL
MODEL 9
REMARK VINA RESULT:    -2.453     19.826     20.974
REMARK INTER + INTRA:          -4.048
REMARK INTER:                  -3.140
REMARK INTRA:                  -0.909
REMARK UNBOUND:                -0.449
REMARK SMILES CCCCCCCCCC=O
REMARK SMILES IDX 6 1 5 2 4 3 3 4 2 5 1 6 7 7 8 8 9 9 10 10 11 11
REMARK H PARENT
REMARK Flexibility Score: inf
ROOT
ATOM      1  C   UNL     1     113.960 128.413 114.879  1.00  0.00     0.000 C 
ENDROOT
BRANCH   1   2
ATOM      2  C   UNL     1     112.479 128.615 115.223  1.00  0.00     0.000 C 
BRANCH   2   3
ATOM      3  C   UNL     1     112.075 127.771 116.437  1.00  0.00    -0.000 C 
BRANCH   3   4
ATOM      4  C   UNL     1     112.020 128.627 117.709  1.00  0.00    -0.000 C 
BRANCH   4   5
ATOM      5  C   UNL     1     113.256 128.391 118.584  1.00  0.00    -0.003 C 
ATOM      6  C   UNL     1     114.117 129.647 118.673  1.00  0.00     0.004 C 
ENDBRANCH   4   5
ENDBRANCH   3   4
ENDBRANCH   2   3
ENDBRANCH   1   2
BRANCH   1   7
ATOM      7  C   UNL     1     114.721 129.746 114.921  1.00  0.00     0.000 C 
BRANCH   7   8
ATOM      8  C   UNL     1     116.132 129.603 115.515  1.00  0.00     0.008 C 
BRANCH   8   9
ATOM      9  C   UNL     1     116.388 128.208 116.100  1.00  0.00     0.072 C 
BRANCH   9  10
ATOM     10  C   UNL     1     117.694 127.656 115.612  1.00  0.00     0.224 C 
ATOM     11  O   UNL     1     117.926 126.459 115.683  1.00  0.00    -0.303 OA
ENDBRANCH   9  10
ENDBRANCH   8   9
ENDBRANCH   7   8
ENDBRANCH   1   7
TORSDOF 8
ENDMDL
