MODEL 1
REMARK VINA RESULT:    -5.448      0.000      0.000
REMARK INTER + INTRA:          -7.028
REMARK INTER:                  -6.722
REMARK INTRA:                  -0.306
REMARK UNBOUND:                -0.306
REMARK SMILES CCOC(=O)c1ccc(O)c(O)c1
REMARK SMILES IDX 4 1 5 2 3 3 2 4 1 5 6 6 13 7 7 8 11 9 8 10 9 11 12 12 10 14
REMARK H PARENT 12 13 10 15
REMARK Flexibility Score: inf
ROOT
ATOM      1  C   UNL     1      12.602  11.527  13.039  1.00  0.00     0.338 C 
ATOM      2  O   UNL     1      12.528  12.659  12.486  1.00  0.00    -0.246 OA
ENDROOT
BRANCH   1   3
ATOM      3  O   UNL     1      13.842  10.892  13.166  1.00  0.00    -0.462 OA
BRANCH   3   4
ATOM      4  C   UNL     1      14.239  10.205  14.349  1.00  0.00     0.230 C 
ATOM      5  C   UNL     1      14.565   8.759  14.013  1.00  0.00     0.049 C 
ENDBRANCH   3   4
ENDBRANCH   1   3
BRANCH   1   6
ATOM      6  C   UNL     1      11.382  10.871  13.556  1.00  0.00     0.064 A 
ATOM      7  C   UNL     1      10.697  11.411  14.659  1.00  0.00     0.065 A 
ATOM      8  C   UNL     1      10.888   9.699  12.955  1.00  0.00     0.020 A 
ATOM      9  C   UNL     1       9.539  10.792  15.153  1.00  0.00     0.158 A 
ATOM     10  C   UNL     1       9.734   9.083  13.446  1.00  0.00     0.051 A 
ATOM     11  C   UNL     1       9.057   9.624  14.543  1.00  0.00     0.157 A 
BRANCH   9  12
ATOM     12  O   UNL     1       8.868  11.338  16.248  1.00  0.00    -0.504 OA
ATOM     13  H   UNL     1       8.163  10.814  16.753  1.00  0.00     0.293 HD
ENDBRANCH   9  12
BRANCH  11  14
ATOM     14  O   UNL     1       7.908   8.986  15.012  1.00  0.00    -0.504 OA
ATOM     15  H   UNL     1       7.116   8.796  14.411  1.00  0.00     0.293 HD
ENDBRANCH  11  14
ENDBRANCH   1   6
TORSDOF 5
ENDMDL
MODEL 2
REMARK VINA RESULT:    -5.377      1.508      2.157
REMARK INTER + INTRA:          -6.941
REMARK INTER:                  -6.659
REMARK INTRA:                  -0.282
REMARK UNBOUND:                -0.306
REMARK SMILES CCOC(=O)c1ccc(O)c(O)c1
REMARK SMILES IDX 4 1 5 2 3 3 2 4 1 5 6 6 13 7 7 8 11 9 8 10 9 11 12 12 10 14
REMARK H PARENT 12 13 10 15
REMARK Flexibility Score: inf
ROOT
ATOM      1  C   UNL     1      12.331   9.781  13.098  1.00  0.00     0.338 C 
ATOM      2  O   UNL     1      13.233   9.325  13.854  1.00  0.00    -0.246 OA
ENDROOT
BRANCH   1   3
ATOM      3  O   UNL     1      12.666  10.294  11.840  1.00  0.00    -0.462 OA
BRANCH   3   4
ATOM      4  C   UNL     1      13.424  11.488  11.672  1.00  0.00     0.230 C 
ATOM      5  C   UNL     1      12.562  12.692  12.015  1.00  0.00     0.049 C 
ENDBRANCH   3   4
ENDBRANCH   1   3
BRANCH   1   6
ATOM      6  C   UNL     1      10.919   9.772  13.537  1.00  0.00     0.064 A 
ATOM      7  C   UNL     1      10.517  10.530  14.652  1.00  0.00     0.065 A 
ATOM      8  C   UNL     1       9.958   9.008  12.851  1.00  0.00     0.020 A 
ATOM      9  C   UNL     1       9.178  10.525  15.073  1.00  0.00     0.158 A 
ATOM     10  C   UNL     1       8.625   9.004  13.269  1.00  0.00     0.051 A 
ATOM     11  C   UNL     1       8.230   9.759  14.378  1.00  0.00     0.157 A 
BRANCH   9  12
ATOM     12  O   UNL     1       8.791  11.281  16.179  1.00  0.00    -0.504 OA
ATOM     13  H   UNL     1       8.142  10.920  16.868  1.00  0.00     0.293 HD
ENDBRANCH   9  12
BRANCH  11  14
ATOM     14  O   UNL     1       6.892   9.734  14.772  1.00  0.00    -0.504 OA
ATOM     15  H   UNL     1       6.619   9.589  15.736  1.00  0.00     0.293 HD
ENDBRANCH  11  14
ENDBRANCH   1   6
TORSDOF 5
ENDMDL
MODEL 3
REMARK VINA RESULT:    -5.156      2.084      2.975
REMARK INTER + INTRA:          -6.668
REMARK INTER:                  -6.353
REMARK INTRA:                  -0.315
REMARK UNBOUND:                -0.306
REMARK SMILES CCOC(=O)c1ccc(O)c(O)c1
REMARK SMILES IDX 4 1 5 2 3 3 2 4 1 5 6 6 13 7 7 8 11 9 8 10 9 11 12 12 10 14
REMARK H PARENT 12 13 10 15
REMARK Flexibility Score: inf
ROOT
ATOM      1  C   UNL     1      14.178   9.052  13.325  1.00  0.00     0.338 C 
ATOM      2  O   UNL     1      14.851   8.275  14.058  1.00  0.00    -0.246 OA
ENDROOT
BRANCH   1   3
ATOM      3  O   UNL     1      14.513   9.206  11.976  1.00  0.00    -0.462 OA
BRANCH   3   4
ATOM      4  C   UNL     1      14.982  10.436  11.433  1.00  0.00     0.230 C 
ATOM      5  C   UNL     1      16.292  10.820  12.102  1.00  0.00     0.049 C 
ENDBRANCH   3   4
ENDBRANCH   1   3
BRANCH   1   6
ATOM      6  C   UNL     1      13.034   9.800  13.890  1.00  0.00     0.064 A 
ATOM      7  C   UNL     1      13.253  10.905  14.732  1.00  0.00     0.065 A 
ATOM      8  C   UNL     1      11.712   9.421  13.594  1.00  0.00     0.020 A 
ATOM      9  C   UNL     1      12.172  11.618  15.270  1.00  0.00     0.158 A 
ATOM     10  C   UNL     1      10.635  10.131  14.130  1.00  0.00     0.051 A 
ATOM     11  C   UNL     1      10.858  11.229  14.967  1.00  0.00     0.157 A 
BRANCH   9  12
ATOM     12  O   UNL     1      12.401  12.713  16.104  1.00  0.00    -0.504 OA
ATOM     13  H   UNL     1      12.009  13.625  15.903  1.00  0.00     0.293 HD
ENDBRANCH   9  12
BRANCH  11  14
ATOM     14  O   UNL     1       9.762  11.918  15.486  1.00  0.00    -0.504 OA
ATOM     15  H   UNL     1       9.849  12.845  15.885  1.00  0.00     0.293 HD
ENDBRANCH  11  14
ENDBRANCH   1   6
TORSDOF 5
ENDMDL
MODEL 4
REMARK VINA RESULT:    -5.035      1.515      2.297
REMARK INTER + INTRA:          -6.518
REMARK INTER:                  -6.298
REMARK INTRA:                  -0.220
REMARK UNBOUND:                -0.306
REMARK SMILES CCOC(=O)c1ccc(O)c(O)c1
REMARK SMILES IDX 4 1 5 2 3 3 2 4 1 5 6 6 13 7 7 8 11 9 8 10 9 11 12 12 10 14
REMARK H PARENT 12 13 10 15
REMARK Flexibility Score: inf
ROOT
ATOM      1  C   UNL     1      12.737  10.297  13.999  1.00  0.00     0.338 C 
ATOM      2  O   UNL     1      13.399  10.836  14.929  1.00  0.00    -0.246 OA
ENDROOT
BRANCH   1   3
ATOM      3  O   UNL     1      13.376   9.919  12.813  1.00  0.00    -0.462 OA
BRANCH   3   4
ATOM      4  C   UNL     1      14.770   9.639  12.745  1.00  0.00     0.230 C 
ATOM      5  C   UNL     1      15.011   8.171  13.058  1.00  0.00     0.049 C 
ENDBRANCH   3   4
ENDBRANCH   1   3
BRANCH   1   6
ATOM      6  C   UNL     1      11.285  10.064  14.160  1.00  0.00     0.064 A 
ATOM      7  C   UNL     1      10.549   9.437  13.139  1.00  0.00     0.065 A 
ATOM      8  C   UNL     1      10.619  10.463  15.333  1.00  0.00     0.020 A 
ATOM      9  C   UNL     1       9.172   9.212  13.286  1.00  0.00     0.158 A 
ATOM     10  C   UNL     1       9.248  10.239  15.480  1.00  0.00     0.051 A 
ATOM     11  C   UNL     1       8.520   9.616  14.462  1.00  0.00     0.157 A 
BRANCH   9  12
ATOM     12  O   UNL     1       8.452   8.590  12.267  1.00  0.00    -0.504 OA
ATOM     13  H   UNL     1       7.863   7.785  12.447  1.00  0.00     0.293 HD
ENDBRANCH   9  12
BRANCH  11  14
ATOM     14  O   UNL     1       7.153   9.406  14.638  1.00  0.00    -0.504 OA
ATOM     15  H   UNL     1       6.686   8.579  14.288  1.00  0.00     0.293 HD
ENDBRANCH  11  14
ENDBRANCH   1   6
TORSDOF 5
ENDMDL
MODEL 5
REMARK VINA RESULT:    -5.016      1.635      2.817
REMARK INTER + INTRA:          -6.495
REMARK INTER:                  -6.192
REMARK INTRA:                  -0.303
REMARK UNBOUND:                -0.306
REMARK SMILES CCOC(=O)c1ccc(O)c(O)c1
REMARK SMILES IDX 4 1 5 2 3 3 2 4 1 5 6 6 13 7 7 8 11 9 8 10 9 11 12 12 10 14
REMARK H PARENT 12 13 10 15
REMARK Flexibility Score: inf
ROOT
ATOM      1  C   UNL     1      13.678  10.056  13.088  1.00  0.00     0.338 C 
ATOM      2  O   UNL     1      14.802  10.413  13.537  1.00  0.00    -0.246 OA
ENDROOT
BRANCH   1   3
ATOM      3  O   UNL     1      13.603   9.301  11.913  1.00  0.00    -0.462 OA
BRANCH   3   4
ATOM      4  C   UNL     1      13.284   9.872  10.649  1.00  0.00     0.230 C 
ATOM      5  C   UNL     1      11.907   9.400  10.209  1.00  0.00     0.049 C 
ENDBRANCH   3   4
ENDBRANCH   1   3
BRANCH   1   6
ATOM      6  C   UNL     1      12.439  10.433  13.802  1.00  0.00     0.064 A 
ATOM      7  C   UNL     1      11.487   9.453  14.139  1.00  0.00     0.065 A 
ATOM      8  C   UNL     1      12.192  11.772  14.156  1.00  0.00     0.020 A 
ATOM      9  C   UNL     1      10.310   9.805  14.816  1.00  0.00     0.158 A 
ATOM     10  C   UNL     1      11.020  12.122  14.831  1.00  0.00     0.051 A 
ATOM     11  C   UNL     1      10.077  11.145  15.162  1.00  0.00     0.157 A 
BRANCH   9  12
ATOM     12  O   UNL     1       9.373   8.825  15.145  1.00  0.00    -0.504 OA
ATOM     13  H   UNL     1       9.248   8.508  16.099  1.00  0.00     0.293 HD
ENDBRANCH   9  12
BRANCH  11  14
ATOM     14  O   UNL     1       8.916  11.526  15.836  1.00  0.00    -0.504 OA
ATOM     15  H   UNL     1       8.086  10.945  15.847  1.00  0.00     0.293 HD
ENDBRANCH  11  14
ENDBRANCH   1   6
TORSDOF 5
ENDMDL
MODEL 6
REMARK VINA RESULT:    -5.014      1.275      2.243
REMARK INTER + INTRA:          -6.493
REMARK INTER:                  -6.213
REMARK INTRA:                  -0.280
REMARK UNBOUND:                -0.306
REMARK SMILES CCOC(=O)c1ccc(O)c(O)c1
REMARK SMILES IDX 4 1 5 2 3 3 2 4 1 5 6 6 13 7 7 8 11 9 8 10 9 11 12 12 10 14
REMARK H PARENT 12 13 10 15
REMARK Flexibility Score: inf
ROOT
ATOM      1  C   UNL     1      12.296   9.864  11.924  1.00  0.00     0.338 C 
ATOM      2  O   UNL     1      11.822   9.426  10.839  1.00  0.00    -0.246 OA
ENDROOT
BRANCH   1   3
ATOM      3  O   UNL     1      13.678  10.020  12.071  1.00  0.00    -0.462 OA
BRANCH   3   4
ATOM      4  C   UNL     1      14.532   8.962  12.495  1.00  0.00     0.230 C 
ATOM      5  C   UNL     1      14.547   8.897  14.014  1.00  0.00     0.049 C 
ENDBRANCH   3   4
ENDBRANCH   1   3
BRANCH   1   6
ATOM      6  C   UNL     1      11.392  10.215  13.041  1.00  0.00     0.064 A 
ATOM      7  C   UNL     1      10.341   9.353  13.403  1.00  0.00     0.065 A 
ATOM      8  C   UNL     1      11.569  11.411  13.759  1.00  0.00     0.020 A 
ATOM      9  C   UNL     1       9.481   9.681  14.462  1.00  0.00     0.158 A 
ATOM     10  C   UNL     1      10.713  11.738  14.814  1.00  0.00     0.051 A 
ATOM     11  C   UNL     1       9.669  10.878  15.169  1.00  0.00     0.157 A 
BRANCH   9  12
ATOM     12  O   UNL     1       8.442   8.818  14.811  1.00  0.00    -0.504 OA
ATOM     13  H   UNL     1       7.501   8.949  14.458  1.00  0.00     0.293 HD
ENDBRANCH   9  12
BRANCH  11  14
ATOM     14  O   UNL     1       8.831  11.232  16.226  1.00  0.00    -0.504 OA
ATOM     15  H   UNL     1       7.862  10.940  16.265  1.00  0.00     0.293 HD
ENDBRANCH  11  14
ENDBRANCH   1   6
TORSDOF 5
ENDMDL
MODEL 7
REMARK VINA RESULT:    -4.748     11.244     13.048
REMARK INTER + INTRA:          -6.164
REMARK INTER:                  -5.984
REMARK INTRA:                  -0.181
REMARK UNBOUND:                -0.306
REMARK SMILES CCOC(=O)c1ccc(O)c(O)c1
REMARK SMILES IDX 4 1 5 2 3 3 2 4 1 5 6 6 13 7 7 8 11 9 8 10 9 11 12 12 10 14
REMARK H PARENT 12 13 10 15
REMARK Flexibility Score: inf
ROOT
ATOM      1  C   UNL     1       5.152   2.090  23.420  1.00  0.00     0.338 C 
ATOM      2  O   UNL     1       4.772   1.493  24.465  1.00  0.00    -0.246 OA
ENDROOT
BRANCH   1   3
ATOM      3  O   UNL     1       5.914   1.409  22.464  1.00  0.00    -0.462 OA
BRANCH   3   4
ATOM      4  C   UNL     1       7.320   1.222  22.590  1.00  0.00     0.230 C 
ATOM      5  C   UNL     1       7.840   0.444  21.392  1.00  0.00     0.049 C 
ENDBRANCH   3   4
ENDBRANCH   1   3
BRANCH   1   6
ATOM      6  C   UNL     1       4.792   3.508  23.201  1.00  0.00     0.064 A 
ATOM      7  C   UNL     1       4.959   4.096  21.935  1.00  0.00     0.065 A 
ATOM      8  C   UNL     1       4.278   4.289  24.252  1.00  0.00     0.020 A 
ATOM      9  C   UNL     1       4.619   5.440  21.721  1.00  0.00     0.158 A 
ATOM     10  C   UNL     1       3.939   5.627  24.040  1.00  0.00     0.051 A 
ATOM     11  C   UNL     1       4.107   6.208  22.779  1.00  0.00     0.157 A 
BRANCH   9  12
ATOM     12  O   UNL     1       4.789   6.013  20.461  1.00  0.00    -0.504 OA
ATOM     13  H   UNL     1       4.097   5.902  19.729  1.00  0.00     0.293 HD
ENDBRANCH   9  12
BRANCH  11  14
ATOM     14  O   UNL     1       3.760   7.546  22.599  1.00  0.00    -0.504 OA
ATOM     15  H   UNL     1       2.797   7.858  22.605  1.00  0.00     0.293 HD
ENDBRANCH  11  14
ENDBRANCH   1   6
TORSDOF 5
ENDMDL
MODEL 8
REMARK VINA RESULT:    -4.726      1.937      2.540
REMARK INTER + INTRA:          -6.137
REMARK INTER:                  -5.920
REMARK INTRA:                  -0.217
REMARK UNBOUND:                -0.306
REMARK SMILES CCOC(=O)c1ccc(O)c(O)c1
REMARK SMILES IDX 4 1 5 2 3 3 2 4 1 5 6 6 13 7 7 8 11 9 8 10 9 11 12 12 10 14
REMARK H PARENT 12 13 10 15
REMARK Flexibility Score: inf
ROOT
ATOM      1  C   UNL     1      12.158   9.992  11.319  1.00  0.00     0.338 C 
ATOM      2  O   UNL     1      11.886   9.572  10.160  1.00  0.00    -0.246 OA
ENDROOT
BRANCH   1   3
ATOM      3  O   UNL     1      13.354  10.679  11.550  1.00  0.00    -0.462 OA
BRANCH   3   4
ATOM      4  C   UNL     1      13.929  11.569  10.599  1.00  0.00     0.230 C 
ATOM      5  C   UNL     1      13.730  13.004  11.059  1.00  0.00     0.049 C 
ENDBRANCH   3   4
ENDBRANCH   1   3
BRANCH   1   6
ATOM      6  C   UNL     1      11.214   9.761  12.434  1.00  0.00     0.064 A 
ATOM      7  C   UNL     1      11.554  10.144  13.744  1.00  0.00     0.065 A 
ATOM      8  C   UNL     1       9.964   9.159  12.204  1.00  0.00     0.020 A 
ATOM      9  C   UNL     1      10.663   9.927  14.805  1.00  0.00     0.158 A 
ATOM     10  C   UNL     1       9.076   8.944  13.260  1.00  0.00     0.051 A 
ATOM     11  C   UNL     1       9.419   9.325  14.561  1.00  0.00     0.157 A 
BRANCH   9  12
ATOM     12  O   UNL     1      11.011  10.311  16.100  1.00  0.00    -0.504 OA
ATOM     13  H   UNL     1      10.377  10.183  16.881  1.00  0.00     0.293 HD
ENDBRANCH   9  12
BRANCH  11  14
ATOM     14  O   UNL     1       8.511   9.097  15.595  1.00  0.00    -0.504 OA
ATOM     15  H   UNL     1       8.804   8.755  16.502  1.00  0.00     0.293 HD
ENDBRANCH  11  14
ENDBRANCH   1   6
TORSDOF 5
ENDMDL
MODEL 9
REMARK VINA RESULT:    -4.666      1.733      2.174
REMARK INTER + INTRA:          -6.062
REMARK INTER:                  -5.863
REMARK INTRA:                  -0.200
REMARK UNBOUND:                -0.306
REMARK SMILES CCOC(=O)c1ccc(O)c(O)c1
REMARK SMILES IDX 4 1 5 2 3 3 2 4 1 5 6 6 13 7 7 8 11 9 8 10 9 11 12 12 10 14
REMARK H PARENT 12 13 10 15
REMARK Flexibility Score: inf
ROOT
ATOM      1  C   UNL     1      12.330   9.726  11.753  1.00  0.00     0.338 C 
ATOM      2  O   UNL     1      11.822   9.259  10.697  1.00  0.00    -0.246 OA
ENDROOT
BRANCH   1   3
ATOM      3  O   UNL     1      13.718   9.870  11.856  1.00  0.00    -0.462 OA
BRANCH   3   4
ATOM      4  C   UNL     1      14.544   8.924  12.528  1.00  0.00     0.230 C 
ATOM      5  C   UNL     1      15.211   8.015  11.509  1.00  0.00     0.049 C 
ENDBRANCH   3   4
ENDBRANCH   1   3
BRANCH   1   6
ATOM      6  C   UNL     1      11.463  10.124  12.883  1.00  0.00     0.064 A 
ATOM      7  C   UNL     1      11.849  11.168  13.742  1.00  0.00     0.065 A 
ATOM      8  C   UNL     1      10.242   9.466  13.117  1.00  0.00     0.020 A 
ATOM      9  C   UNL     1      11.030  11.550  14.815  1.00  0.00     0.158 A 
ATOM     10  C   UNL     1       9.425   9.846  14.185  1.00  0.00     0.051 A 
ATOM     11  C   UNL     1       9.814  10.885  15.036  1.00  0.00     0.157 A 
BRANCH   9  12
ATOM     12  O   UNL     1      11.423  12.587  15.660  1.00  0.00    -0.504 OA
ATOM     13  H   UNL     1      11.806  12.407  16.581  1.00  0.00     0.293 HD
ENDBRANCH   9  12
BRANCH  11  14
ATOM     14  O   UNL     1       8.978  11.241  16.095  1.00  0.00    -0.504 OA
ATOM     15  H   UNL     1       9.334  11.672  16.939  1.00  0.00     0.293 HD
ENDBRANCH  11  14
ENDBRANCH   1   6
TORSDOF 5
ENDMDL
