MODEL 1
REMARK VINA RESULT:    -4.420      0.000      0.000
REMARK INTER + INTRA:          -8.889
REMARK INTER:                  -7.780
REMARK INTRA:                  -1.109
REMARK UNBOUND:                -1.109
REMARK SMILES CCCCCCCCCCCCCCC(=O)[O-]
REMARK SMILES IDX 9 1 10 2 11 3 12 4 13 5 14 6 15 7 16 8 17 9 8 10 7 11 6 12
REMARK SMILES IDX 5 13 4 14 3 15 2 16 1 17
REMARK H PARENT
REMARK Flexibility Score: inf
ROOT
ATOM      1  C   UNL     1      18.705  11.852 -13.352  1.00  0.00     0.000 C 
ENDROOT
BRANCH   1   2
ATOM      2  C   UNL     1      18.602  10.343 -13.616  1.00  0.00     0.000 C 
BRANCH   2   3
ATOM      3  C   UNL     1      18.212  10.023 -15.068  1.00  0.00     0.000 C 
BRANCH   3   4
ATOM      4  C   UNL     1      17.028   9.046 -15.160  1.00  0.00     0.000 C 
BRANCH   4   5
ATOM      5  C   UNL     1      15.826   9.473 -14.297  1.00  0.00     0.006 C 
BRANCH   5   6
ATOM      6  C   UNL     1      14.862  10.440 -15.007  1.00  0.00     0.053 C 
BRANCH   6   7
ATOM      7  C   UNL     1      15.160  11.878 -14.707  1.00  0.00     0.041 C 
ATOM      8  O   UNL     1      15.285  12.711 -15.644  1.00  0.00    -0.550 OA
ATOM      9  O   UNL     1      15.269  12.305 -13.390  1.00  0.00    -0.550 OA
ENDBRANCH   6   7
ENDBRANCH   5   6
ENDBRANCH   4   5
ENDBRANCH   3   4
ENDBRANCH   2   3
ENDBRANCH   1   2
BRANCH   1  10
ATOM     10  C   UNL     1      18.883  12.628 -14.663  1.00  0.00     0.000 C 
BRANCH  10  11
ATOM     11  C   UNL     1      20.124  13.531 -14.604  1.00  0.00    -0.000 C 
BRANCH  11  12
ATOM     12  C   UNL     1      21.076  13.163 -13.453  1.00  0.00    -0.000 C 
BRANCH  12  13
ATOM     13  C   UNL     1      22.344  14.036 -13.347  1.00  0.00    -0.000 C 
BRANCH  13  14
ATOM     14  C   UNL     1      22.531  15.062 -14.479  1.00  0.00    -0.000 C 
BRANCH  14  15
ATOM     15  C   UNL     1      22.839  16.476 -13.959  1.00  0.00    -0.000 C 
BRANCH  15  16
ATOM     16  C   UNL     1      22.675  17.551 -15.043  1.00  0.00    -0.003 C 
ATOM     17  C   UNL     1      21.894  18.772 -14.556  1.00  0.00     0.004 C 
ENDBRANCH  15  16
ENDBRANCH  14  15
ENDBRANCH  13  14
ENDBRANCH  12  13
ENDBRANCH  11  12
ENDBRANCH  10  11
ENDBRANCH   1  10
TORSDOF 13
ENDMDL
MODEL 2
REMARK VINA RESULT:    -4.408      1.858      3.039
REMARK INTER + INTRA:          -8.868
REMARK INTER:                  -7.666
REMARK INTRA:                  -1.202
REMARK UNBOUND:                -1.109
REMARK SMILES CCCCCCCCCCCCCCC(=O)[O-]
REMARK SMILES IDX 9 1 10 2 11 3 12 4 13 5 14 6 15 7 16 8 17 9 8 10 7 11 6 12
REMARK SMILES IDX 5 13 4 14 3 15 2 16 1 17
REMARK H PARENT
REMARK Flexibility Score: inf
ROOT
ATOM      1  C   UNL     1      15.961  12.619 -15.311  1.00  0.00     0.000 C 
ENDROOT
BRANCH   1   2
ATOM      2  C   UNL     1      15.594  12.226 -13.873  1.00  0.00     0.000 C 
BRANCH   2   3
ATOM      3  C   UNL     1      14.338  11.344 -13.804  1.00  0.00     0.000 C 
BRANCH   3   4
ATOM      4  C   UNL     1      14.137  10.502 -15.075  1.00  0.00     0.000 C 
BRANCH   4   5
ATOM      5  C   UNL     1      14.735   9.088 -14.962  1.00  0.00     0.006 C 
BRANCH   5   6
ATOM      6  C   UNL     1      15.868   8.808 -15.966  1.00  0.00     0.053 C 
BRANCH   6   7
ATOM      7  C   UNL     1      17.224   8.828 -15.328  1.00  0.00     0.041 C 
ATOM      8  O   UNL     1      18.254   8.595 -16.015  1.00  0.00    -0.550 OA
ATOM      9  O   UNL     1      17.353   9.136 -13.980  1.00  0.00    -0.550 OA
ENDBRANCH   6   7
ENDBRANCH   5   6
ENDBRANCH   4   5
ENDBRANCH   3   4
ENDBRANCH   2   3
ENDBRANCH   1   2
BRANCH   1  10
ATOM     10  C   UNL     1      17.477  12.542 -15.532  1.00  0.00     0.000 C 
BRANCH  10  11
ATOM     11  C   UNL     1      18.212  12.273 -14.212  1.00  0.00    -0.000 C 
BRANCH  11  12
ATOM     12  C   UNL     1      19.733  12.125 -14.394  1.00  0.00    -0.000 C 
BRANCH  12  13
ATOM     13  C   UNL     1      20.578  13.280 -13.818  1.00  0.00    -0.000 C 
BRANCH  13  14
ATOM     14  C   UNL     1      21.963  12.876 -13.280  1.00  0.00    -0.000 C 
BRANCH  14  15
ATOM     15  C   UNL     1      22.903  14.078 -13.088  1.00  0.00    -0.000 C 
BRANCH  15  16
ATOM     16  C   UNL     1      22.742  15.133 -14.193  1.00  0.00    -0.003 C 
ATOM     17  C   UNL     1      23.115  16.541 -13.727  1.00  0.00     0.004 C 
ENDBRANCH  15  16
ENDBRANCH  14  15
ENDBRANCH  13  14
ENDBRANCH  12  13
ENDBRANCH  11  12
ENDBRANCH  10  11
ENDBRANCH   1  10
TORSDOF 13
ENDMDL
MODEL 3
REMARK VINA RESULT:    -4.304      3.077      7.293
REMARK INTER + INTRA:          -8.684
REMARK INTER:                  -7.137
REMARK INTRA:                  -1.547
REMARK UNBOUND:                -1.109
REMARK SMILES CCCCCCCCCCCCCCC(=O)[O-]
REMARK SMILES IDX 9 1 10 2 11 3 12 4 13 5 14 6 15 7 16 8 17 9 8 10 7 11 6 12
REMARK SMILES IDX 5 13 4 14 3 15 2 16 1 17
REMARK H PARENT
REMARK Flexibility Score: inf
ROOT
ATOM      1  C   UNL     1      18.640  10.763 -13.718  1.00  0.00     0.000 C 
ENDROOT
BRANCH   1   2
ATOM      2  C   UNL     1      19.467  12.034 -13.477  1.00  0.00     0.000 C 
BRANCH   2   3
ATOM      3  C   UNL     1      19.383  13.024 -14.649  1.00  0.00     0.000 C 
BRANCH   3   4
ATOM      4  C   UNL     1      20.763  13.363 -15.237  1.00  0.00     0.000 C 
BRANCH   4   5
ATOM      5  C   UNL     1      21.618  14.238 -14.301  1.00  0.00     0.006 C 
BRANCH   5   6
ATOM      6  C   UNL     1      22.557  15.207 -15.041  1.00  0.00     0.053 C 
BRANCH   6   7
ATOM      7  C   UNL     1      22.524  16.593 -14.470  1.00  0.00     0.041 C 
ATOM      8  O   UNL     1      23.124  16.852 -13.394  1.00  0.00    -0.550 OA
ATOM      9  O   UNL     1      21.856  17.606 -15.145  1.00  0.00    -0.550 OA
ENDBRANCH   6   7
ENDBRANCH   5   6
ENDBRANCH   4   5
ENDBRANCH   3   4
ENDBRANCH   2   3
ENDBRANCH   1   2
BRANCH   1  10
ATOM     10  C   UNL     1      18.507  10.470 -15.218  1.00  0.00     0.000 C 
BRANCH  10  11
ATOM     11  C   UNL     1      17.541   9.302 -15.467  1.00  0.00    -0.000 C 
BRANCH  11  12
ATOM     12  C   UNL     1      16.627   9.016 -14.264  1.00  0.00    -0.000 C 
BRANCH  12  13
ATOM     13  C   UNL     1      15.117   8.979 -14.582  1.00  0.00    -0.000 C 
BRANCH  13  14
ATOM     14  C   UNL     1      14.485  10.340 -14.923  1.00  0.00    -0.000 C 
BRANCH  14  15
ATOM     15  C   UNL     1      14.534  11.333 -13.750  1.00  0.00    -0.000 C 
BRANCH  15  16
ATOM     16  C   UNL     1      15.506  12.496 -14.003  1.00  0.00    -0.003 C 
ATOM     17  C   UNL     1      15.679  12.812 -15.489  1.00  0.00     0.004 C 
ENDBRANCH  15  16
ENDBRANCH  14  15
ENDBRANCH  13  14
ENDBRANCH  12  13
ENDBRANCH  11  12
ENDBRANCH  10  11
ENDBRANCH   1  10
TORSDOF 13
ENDMDL
MODEL 4
REMARK VINA RESULT:    -4.205      1.845      2.480
REMARK INTER + INTRA:          -8.511
REMARK INTER:                  -7.528
REMARK INTRA:                  -0.983
REMARK UNBOUND:                -1.109
REMARK SMILES CCCCCCCCCCCCCCC(=O)[O-]
REMARK SMILES IDX 9 1 10 2 11 3 12 4 13 5 14 6 15 7 16 8 17 9 8 10 7 11 6 12
REMARK SMILES IDX 5 13 4 14 3 15 2 16 1 17
REMARK H PARENT
REMARK Flexibility Score: inf
ROOT
ATOM      1  C   UNL     1      18.085  11.627 -13.798  1.00  0.00     0.000 C 
ENDROOT
BRANCH   1   2
ATOM      2  C   UNL     1      17.674  12.212 -15.157  1.00  0.00     0.000 C 
BRANCH   2   3
ATOM      3  C   UNL     1      16.159  12.441 -15.267  1.00  0.00     0.000 C 
BRANCH   3   4
ATOM      4  C   UNL     1      15.451  12.381 -13.903  1.00  0.00     0.000 C 
BRANCH   4   5
ATOM      5  C   UNL     1      14.493  11.183 -13.773  1.00  0.00     0.006 C 
BRANCH   5   6
ATOM      6  C   UNL     1      14.458  10.275 -15.016  1.00  0.00     0.053 C 
BRANCH   6   7
ATOM      7  C   UNL     1      15.285   9.036 -14.850  1.00  0.00     0.041 C 
ATOM      8  O   UNL     1      15.016   8.208 -13.940  1.00  0.00    -0.550 OA
ATOM      9  O   UNL     1      16.335   8.780 -15.722  1.00  0.00    -0.550 OA
ENDBRANCH   6   7
ENDBRANCH   5   6
ENDBRANCH   4   5
ENDBRANCH   3   4
ENDBRANCH   2   3
ENDBRANCH   1   2
BRANCH   1  10
ATOM     10  C   UNL     1      19.489  12.099 -13.398  1.00  0.00     0.000 C 
BRANCH  10  11
ATOM     11  C   UNL     1      20.525  11.701 -14.458  1.00  0.00    -0.000 C 
BRANCH  11  12
ATOM     12  C   UNL     1      21.939  12.215 -14.135  1.00  0.00    -0.000 C 
BRANCH  12  13
ATOM     13  C   UNL     1      21.993  13.435 -13.192  1.00  0.00    -0.000 C 
BRANCH  13  14
ATOM     14  C   UNL     1      22.599  14.711 -13.803  1.00  0.00    -0.000 C 
BRANCH  14  15
ATOM     15  C   UNL     1      21.735  15.303 -14.929  1.00  0.00    -0.000 C 
BRANCH  15  16
ATOM     16  C   UNL     1      22.091  16.766 -15.236  1.00  0.00    -0.003 C 
ATOM     17  C   UNL     1      22.839  17.448 -14.090  1.00  0.00     0.004 C 
ENDBRANCH  15  16
ENDBRANCH  14  15
ENDBRANCH  13  14
ENDBRANCH  12  13
ENDBRANCH  11  12
ENDBRANCH  10  11
ENDBRANCH   1  10
TORSDOF 13
ENDMDL
MODEL 5
REMARK VINA RESULT:    -4.148      2.261      3.087
REMARK INTER + INTRA:          -8.410
REMARK INTER:                  -6.584
REMARK INTRA:                  -1.826
REMARK UNBOUND:                -1.109
REMARK SMILES CCCCCCCCCCCCCCC(=O)[O-]
REMARK SMILES IDX 9 1 10 2 11 3 12 4 13 5 14 6 15 7 16 8 17 9 8 10 7 11 6 12
REMARK SMILES IDX 5 13 4 14 3 15 2 16 1 17
REMARK H PARENT
REMARK Flexibility Score: inf
ROOT
ATOM      1  C   UNL     1      18.114  12.351 -14.457  1.00  0.00     0.000 C 
ENDROOT
BRANCH   1   2
ATOM      2  C   UNL     1      16.589  12.322 -14.288  1.00  0.00     0.000 C 
BRANCH   2   3
ATOM      3  C   UNL     1      15.844  12.432 -15.628  1.00  0.00     0.000 C 
BRANCH   3   4
ATOM      4  C   UNL     1      14.874  11.262 -15.864  1.00  0.00     0.000 C 
BRANCH   4   5
ATOM      5  C   UNL     1      14.559  10.473 -14.580  1.00  0.00     0.006 C 
BRANCH   5   6
ATOM      6  C   UNL     1      14.902   8.975 -14.670  1.00  0.00     0.053 C 
BRANCH   6   7
ATOM      7  C   UNL     1      16.352   8.729 -14.959  1.00  0.00     0.041 C 
ATOM      8  O   UNL     1      16.717   8.350 -16.104  1.00  0.00    -0.550 OA
ATOM      9  O   UNL     1      17.304   8.950 -13.973  1.00  0.00    -0.550 OA
ENDBRANCH   6   7
ENDBRANCH   5   6
ENDBRANCH   4   5
ENDBRANCH   3   4
ENDBRANCH   2   3
ENDBRANCH   1   2
BRANCH   1  10
ATOM     10  C   UNL     1      18.523  11.843 -15.845  1.00  0.00     0.000 C 
BRANCH  10  11
ATOM     11  C   UNL     1      19.574  10.728 -15.736  1.00  0.00    -0.000 C 
BRANCH  11  12
ATOM     12  C   UNL     1      20.386  10.798 -14.431  1.00  0.00    -0.000 C 
BRANCH  12  13
ATOM     13  C   UNL     1      21.885  11.120 -14.609  1.00  0.00    -0.000 C 
BRANCH  13  14
ATOM     14  C   UNL     1      22.419  12.264 -13.729  1.00  0.00    -0.000 C 
BRANCH  14  15
ATOM     15  C   UNL     1      21.410  13.411 -13.561  1.00  0.00    -0.000 C 
BRANCH  15  16
ATOM     16  C   UNL     1      21.740  14.620 -14.450  1.00  0.00    -0.003 C 
ATOM     17  C   UNL     1      20.710  14.841 -15.558  1.00  0.00     0.004 C 
ENDBRANCH  15  16
ENDBRANCH  14  15
ENDBRANCH  13  14
ENDBRANCH  12  13
ENDBRANCH  11  12
ENDBRANCH  10  11
ENDBRANCH   1  10
TORSDOF 13
ENDMDL
MODEL 6
REMARK VINA RESULT:    -4.102      1.826      3.201
REMARK INTER + INTRA:          -8.328
REMARK INTER:                  -6.480
REMARK INTRA:                  -1.849
REMARK UNBOUND:                -1.109
REMARK SMILES CCCCCCCCCCCCCCC(=O)[O-]
REMARK SMILES IDX 9 1 10 2 11 3 12 4 13 5 14 6 15 7 16 8 17 9 8 10 7 11 6 12
REMARK SMILES IDX 5 13 4 14 3 15 2 16 1 17
REMARK H PARENT
REMARK Flexibility Score: inf
ROOT
ATOM      1  C   UNL     1      17.682  12.531 -14.826  1.00  0.00     0.000 C 
ENDROOT
BRANCH   1   2
ATOM      2  C   UNL     1      18.739  11.978 -13.859  1.00  0.00     0.000 C 
BRANCH   2   3
ATOM      3  C   UNL     1      18.655  10.451 -13.704  1.00  0.00     0.000 C 
BRANCH   3   4
ATOM      4  C   UNL     1      18.680   9.717 -15.055  1.00  0.00     0.000 C 
BRANCH   4   5
ATOM      5  C   UNL     1      17.320   9.103 -15.433  1.00  0.00     0.006 C 
BRANCH   5   6
ATOM      6  C   UNL     1      16.336   8.995 -14.254  1.00  0.00     0.053 C 
BRANCH   6   7
ATOM      7  C   UNL     1      15.052   9.727 -14.503  1.00  0.00     0.041 C 
ATOM      8  O   UNL     1      14.770  10.761 -13.842  1.00  0.00    -0.550 OA
ATOM      9  O   UNL     1      14.180   9.284 -15.489  1.00  0.00    -0.550 OA
ENDBRANCH   6   7
ENDBRANCH   5   6
ENDBRANCH   4   5
ENDBRANCH   3   4
ENDBRANCH   2   3
ENDBRANCH   1   2
BRANCH   1  10
ATOM     10  C   UNL     1      18.302  13.540 -15.800  1.00  0.00     0.000 C 
BRANCH  10  11
ATOM     11  C   UNL     1      19.824  13.354 -15.889  1.00  0.00    -0.000 C 
BRANCH  11  12
ATOM     12  C   UNL     1      20.600  14.660 -15.645  1.00  0.00    -0.000 C 
BRANCH  12  13
ATOM     13  C   UNL     1      21.987  14.485 -14.992  1.00  0.00    -0.000 C 
BRANCH  13  14
ATOM     14  C   UNL     1      21.968  14.110 -13.499  1.00  0.00    -0.000 C 
BRANCH  14  15
ATOM     15  C   UNL     1      22.484  12.686 -13.234  1.00  0.00    -0.000 C 
BRANCH  15  16
ATOM     16  C   UNL     1      23.050  12.021 -14.498  1.00  0.00    -0.003 C 
ATOM     17  C   UNL     1      22.281  10.763 -14.902  1.00  0.00     0.004 C 
ENDBRANCH  15  16
ENDBRANCH  14  15
ENDBRANCH  13  14
ENDBRANCH  12  13
ENDBRANCH  11  12
ENDBRANCH  10  11
ENDBRANCH   1  10
TORSDOF 13
ENDMDL
MODEL 7
REMARK VINA RESULT:    -4.075      1.095      2.274
REMARK INTER + INTRA:          -8.280
REMARK INTER:                  -7.100
REMARK INTRA:                  -1.180
REMARK UNBOUND:                -1.109
REMARK SMILES CCCCCCCCCCCCCCC(=O)[O-]
REMARK SMILES IDX 9 1 10 2 11 3 12 4 13 5 14 6 15 7 16 8 17 9 8 10 7 11 6 12
REMARK SMILES IDX 5 13 4 14 3 15 2 16 1 17
REMARK H PARENT
REMARK Flexibility Score: inf
ROOT
ATOM      1  C   UNL     1      17.873   9.594 -15.834  1.00  0.00     0.000 C 
ENDROOT
BRANCH   1   2
ATOM      2  C   UNL     1      17.464   9.301 -14.384  1.00  0.00     0.000 C 
BRANCH   2   3
ATOM      3  C   UNL     1      16.013   8.806 -14.268  1.00  0.00     0.000 C 
BRANCH   3   4
ATOM      4  C   UNL     1      15.275   8.820 -15.617  1.00  0.00     0.000 C 
BRANCH   4   5
ATOM      5  C   UNL     1      14.375  10.056 -15.799  1.00  0.00     0.006 C 
BRANCH   5   6
ATOM      6  C   UNL     1      14.212  10.901 -14.523  1.00  0.00     0.053 C 
BRANCH   6   7
ATOM      7  C   UNL     1      15.091  12.115 -14.517  1.00  0.00     0.041 C 
ATOM      8  O   UNL     1      15.285  12.766 -15.577  1.00  0.00    -0.550 OA
ATOM      9  O   UNL     1      15.672  12.546 -13.331  1.00  0.00    -0.550 OA
ENDBRANCH   6   7
ENDBRANCH   5   6
ENDBRANCH   4   5
ENDBRANCH   3   4
ENDBRANCH   2   3
ENDBRANCH   1   2
BRANCH   1  10
ATOM     10  C   UNL     1      19.108  10.502 -15.884  1.00  0.00     0.000 C 
BRANCH  10  11
ATOM     11  C   UNL     1      18.702  11.977 -16.016  1.00  0.00    -0.000 C 
BRANCH  11  12
ATOM     12  C   UNL     1      18.835  12.754 -14.695  1.00  0.00    -0.000 C 
BRANCH  12  13
ATOM     13  C   UNL     1      19.866  12.183 -13.699  1.00  0.00    -0.000 C 
BRANCH  13  14
ATOM     14  C   UNL     1      21.065  13.100 -13.397  1.00  0.00    -0.000 C 
BRANCH  14  15
ATOM     15  C   UNL     1      21.387  14.063 -14.552  1.00  0.00    -0.000 C 
BRANCH  15  16
ATOM     16  C   UNL     1      22.411  15.137 -14.155  1.00  0.00    -0.003 C 
ATOM     17  C   UNL     1      22.250  16.433 -14.948  1.00  0.00     0.004 C 
ENDBRANCH  15  16
ENDBRANCH  14  15
ENDBRANCH  13  14
ENDBRANCH  12  13
ENDBRANCH  11  12
ENDBRANCH  10  11
ENDBRANCH   1  10
TORSDOF 13
ENDMDL
MODEL 8
REMARK VINA RESULT:    -4.068      1.661      2.536
REMARK INTER + INTRA:          -8.268
REMARK INTER:                  -6.636
REMARK INTRA:                  -1.632
REMARK UNBOUND:                -1.109
REMARK SMILES CCCCCCCCCCCCCCC(=O)[O-]
REMARK SMILES IDX 9 1 10 2 11 3 12 4 13 5 14 6 15 7 16 8 17 9 8 10 7 11 6 12
REMARK SMILES IDX 5 13 4 14 3 15 2 16 1 17
REMARK H PARENT
REMARK Flexibility Score: inf
ROOT
ATOM      1  C   UNL     1      18.827  10.774 -13.865  1.00  0.00     0.000 C 
ENDROOT
BRANCH   1   2
ATOM      2  C   UNL     1      18.861   9.987 -15.183  1.00  0.00     0.000 C 
BRANCH   2   3
ATOM      3  C   UNL     1      17.547   9.238 -15.457  1.00  0.00     0.000 C 
BRANCH   3   4
ATOM      4  C   UNL     1      16.719   9.010 -14.181  1.00  0.00     0.000 C 
BRANCH   4   5
ATOM      5  C   UNL     1      15.207   9.197 -14.403  1.00  0.00     0.006 C 
BRANCH   5   6
ATOM      6  C   UNL     1      14.857  10.331 -15.383  1.00  0.00     0.053 C 
BRANCH   6   7
ATOM      7  C   UNL     1      14.983  11.690 -14.764  1.00  0.00     0.041 C 
ATOM      8  O   UNL     1      15.292  12.686 -15.471  1.00  0.00    -0.550 OA
ATOM      9  O   UNL     1      14.728  11.863 -13.409  1.00  0.00    -0.550 OA
ENDBRANCH   6   7
ENDBRANCH   5   6
ENDBRANCH   4   5
ENDBRANCH   3   4
ENDBRANCH   2   3
ENDBRANCH   1   2
BRANCH   1  10
ATOM     10  C   UNL     1      18.578  12.265 -14.121  1.00  0.00     0.000 C 
BRANCH  10  11
ATOM     11  C   UNL     1      18.842  12.623 -15.591  1.00  0.00    -0.000 C 
BRANCH  11  12
ATOM     12  C   UNL     1      18.955  14.139 -15.826  1.00  0.00    -0.000 C 
BRANCH  12  13
ATOM     13  C   UNL     1      20.381  14.653 -16.116  1.00  0.00    -0.000 C 
BRANCH  13  14
ATOM     14  C   UNL     1      21.358  14.583 -14.929  1.00  0.00    -0.000 C 
BRANCH  14  15
ATOM     15  C   UNL     1      22.330  13.396 -15.024  1.00  0.00    -0.000 C 
BRANCH  15  16
ATOM     16  C   UNL     1      22.317  12.522 -13.761  1.00  0.00    -0.003 C 
ATOM     17  C   UNL     1      22.754  13.282 -12.508  1.00  0.00     0.004 C 
ENDBRANCH  15  16
ENDBRANCH  14  15
ENDBRANCH  13  14
ENDBRANCH  12  13
ENDBRANCH  11  12
ENDBRANCH  10  11
ENDBRANCH   1  10
TORSDOF 13
ENDMDL
MODEL 9
REMARK VINA RESULT:    -3.948      3.244      8.027
REMARK INTER + INTRA:          -8.058
REMARK INTER:                  -7.299
REMARK INTRA:                  -0.759
REMARK UNBOUND:                -1.109
REMARK SMILES CCCCCCCCCCCCCCC(=O)[O-]
REMARK SMILES IDX 9 1 10 2 11 3 12 4 13 5 14 6 15 7 16 8 17 9 8 10 7 11 6 12
REMARK SMILES IDX 5 13 4 14 3 15 2 16 1 17
REMARK H PARENT
REMARK Flexibility Score: inf
ROOT
ATOM      1  C   UNL     1      20.065  11.471 -14.343  1.00  0.00     0.000 C 
ENDROOT
BRANCH   1   2
ATOM      2  C   UNL     1      20.226  12.886 -13.768  1.00  0.00     0.000 C 
BRANCH   2   3
ATOM      3  C   UNL     1      21.628  13.132 -13.190  1.00  0.00     0.000 C 
BRANCH   3   4
ATOM      4  C   UNL     1      22.423  14.176 -13.993  1.00  0.00     0.000 C 
BRANCH   4   5
ATOM      5  C   UNL     1      21.536  15.027 -14.920  1.00  0.00     0.006 C 
BRANCH   5   6
ATOM      6  C   UNL     1      22.295  16.151 -15.649  1.00  0.00     0.053 C 
BRANCH   6   7
ATOM      7  C   UNL     1      22.177  17.474 -14.954  1.00  0.00     0.041 C 
ATOM      8  O   UNL     1      21.378  18.348 -15.381  1.00  0.00    -0.550 OA
ATOM      9  O   UNL     1      22.929  17.728 -13.814  1.00  0.00    -0.550 OA
ENDBRANCH   6   7
ENDBRANCH   5   6
ENDBRANCH   4   5
ENDBRANCH   3   4
ENDBRANCH   2   3
ENDBRANCH   1   2
BRANCH   1  10
ATOM     10  C   UNL     1      18.917  10.725 -13.652  1.00  0.00     0.000 C 
BRANCH  10  11
ATOM     11  C   UNL     1      17.606  10.886 -14.436  1.00  0.00    -0.000 C 
BRANCH  11  12
ATOM     12  C   UNL     1      16.710  12.006 -13.880  1.00  0.00    -0.000 C 
BRANCH  12  13
ATOM     13  C   UNL     1      15.320  12.122 -14.537  1.00  0.00    -0.000 C 
BRANCH  13  14
ATOM     14  C   UNL     1      14.474  10.836 -14.514  1.00  0.00    -0.000 C 
BRANCH  14  15
ATOM     15  C   UNL     1      14.268  10.230 -15.912  1.00  0.00    -0.000 C 
BRANCH  15  16
ATOM     16  C   UNL     1      14.024   8.714 -15.866  1.00  0.00    -0.003 C 
ATOM     17  C   UNL     1      14.810   8.019 -14.754  1.00  0.00     0.004 C 
ENDBRANCH  15  16
ENDBRANCH  14  15
ENDBRANCH  13  14
ENDBRANCH  12  13
ENDBRANCH  11  12
ENDBRANCH  10  11
ENDBRANCH   1  10
TORSDOF 13
ENDMDL
