MODEL 1
REMARK VINA RESULT:    -3.972      0.000      0.000
REMARK INTER + INTRA:          -5.844
REMARK INTER:                  -5.598
REMARK INTRA:                  -0.247
REMARK UNBOUND:                -0.247
REMARK SMILES CCCCCCCCC(=O)[O-]
REMARK SMILES IDX 6 1 7 2 8 3 9 4 10 5 11 6 5 7 4 8 3 9 2 10 1 11
REMARK H PARENT
REMARK Flexibility Score: inf
ROOT
ATOM      1  C   UNL     1       7.783  34.028  -0.978  1.00  0.00     0.000 C 
ENDROOT
BRANCH   1   2
ATOM      2  C   UNL     1       9.028  33.570  -0.209  1.00  0.00     0.006 C 
BRANCH   2   3
ATOM      3  C   UNL     1      10.133  33.120  -1.170  1.00  0.00     0.053 C 
BRANCH   3   4
ATOM      4  C   UNL     1      10.384  31.652  -1.029  1.00  0.00     0.041 C 
ATOM      5  O   UNL     1       9.946  31.028  -0.027  1.00  0.00    -0.550 OA
ATOM      6  O   UNL     1      11.144  30.982  -1.979  1.00  0.00    -0.550 OA
ENDBRANCH   3   4
ENDBRANCH   2   3
ENDBRANCH   1   2
BRANCH   1   7
ATOM      7  C   UNL     1       7.753  33.425  -2.387  1.00  0.00     0.000 C 
BRANCH   7   8
ATOM      8  C   UNL     1       6.319  33.349  -2.923  1.00  0.00    -0.000 C 
BRANCH   8   9
ATOM      9  C   UNL     1       5.374  34.233  -2.099  1.00  0.00    -0.000 C 
BRANCH   9  10
ATOM     10  C   UNL     1       3.922  33.762  -2.235  1.00  0.00    -0.003 C 
ATOM     11  C   UNL     1       2.971  34.945  -2.388  1.00  0.00     0.004 C 
ENDBRANCH   9  10
ENDBRANCH   8   9
ENDBRANCH   7   8
ENDBRANCH   1   7
TORSDOF 7
ENDMDL
MODEL 2
REMARK VINA RESULT:    -3.921      2.079      2.470
REMARK INTER + INTRA:          -5.772
REMARK INTER:                  -5.455
REMARK INTRA:                  -0.317
REMARK UNBOUND:                -0.247
REMARK SMILES CCCCCCCCC(=O)[O-]
REMARK SMILES IDX 6 1 7 2 8 3 9 4 10 5 11 6 5 7 4 8 3 9 2 10 1 11
REMARK H PARENT
REMARK Flexibility Score: inf
ROOT
ATOM      1  C   UNL     1       7.946  33.354  -2.123  1.00  0.00     0.000 C 
ENDROOT
BRANCH   1   2
ATOM      2  C   UNL     1       7.834  34.209  -0.855  1.00  0.00     0.006 C 
BRANCH   2   3
ATOM      3  C   UNL     1       8.926  33.839   0.155  1.00  0.00     0.053 C 
BRANCH   3   4
ATOM      4  C   UNL     1      10.010  34.870   0.154  1.00  0.00     0.041 C 
ATOM      5  O   UNL     1      10.112  35.683   1.109  1.00  0.00    -0.550 OA
ATOM      6  O   UNL     1      10.877  34.965  -0.927  1.00  0.00    -0.550 OA
ENDBRANCH   3   4
ENDBRANCH   2   3
ENDBRANCH   1   2
BRANCH   1   7
ATOM      7  C   UNL     1       6.638  33.378  -2.921  1.00  0.00     0.000 C 
BRANCH   7   8
ATOM      8  C   UNL     1       5.526  34.082  -2.135  1.00  0.00    -0.000 C 
BRANCH   8   9
ATOM      9  C   UNL     1       4.162  33.437  -2.413  1.00  0.00    -0.000 C 
BRANCH   9  10
ATOM     10  C   UNL     1       3.019  34.346  -1.948  1.00  0.00    -0.003 C 
ATOM     11  C   UNL     1       3.110  35.723  -2.598  1.00  0.00     0.004 C 
ENDBRANCH   9  10
ENDBRANCH   8   9
ENDBRANCH   7   8
ENDBRANCH   1   7
TORSDOF 7
ENDMDL
MODEL 3
REMARK VINA RESULT:    -3.910      1.379      1.921
REMARK INTER + INTRA:          -5.756
REMARK INTER:                  -5.378
REMARK INTRA:                  -0.378
REMARK UNBOUND:                -0.247
REMARK SMILES CCCCCCCCC(=O)[O-]
REMARK SMILES IDX 6 1 7 2 8 3 9 4 10 5 11 6 5 7 4 8 3 9 2 10 1 11
REMARK H PARENT
REMARK Flexibility Score: inf
ROOT
ATOM      1  C   UNL     1       7.894  33.335  -2.502  1.00  0.00     0.000 C 
ENDROOT
BRANCH   1   2
ATOM      2  C   UNL     1       8.090  33.808  -1.057  1.00  0.00     0.006 C 
BRANCH   2   3
ATOM      3  C   UNL     1       9.231  33.044  -0.379  1.00  0.00     0.053 C 
BRANCH   3   4
ATOM      4  C   UNL     1      10.515  33.255  -1.118  1.00  0.00     0.041 C 
ATOM      5  O   UNL     1      11.158  32.269  -1.565  1.00  0.00    -0.550 OA
ATOM      6  O   UNL     1      11.026  34.537  -1.270  1.00  0.00    -0.550 OA
ENDBRANCH   3   4
ENDBRANCH   2   3
ENDBRANCH   1   2
BRANCH   1   7
ATOM      7  C   UNL     1       6.412  33.343  -2.889  1.00  0.00     0.000 C 
BRANCH   7   8
ATOM      8  C   UNL     1       5.631  34.368  -2.058  1.00  0.00    -0.000 C 
BRANCH   8   9
ATOM      9  C   UNL     1       4.120  34.119  -2.153  1.00  0.00    -0.000 C 
BRANCH   9  10
ATOM     10  C   UNL     1       3.377  35.395  -2.562  1.00  0.00    -0.003 C 
ATOM     11  C   UNL     1       4.315  36.597  -2.583  1.00  0.00     0.004 C 
ENDBRANCH   9  10
ENDBRANCH   8   9
ENDBRANCH   7   8
ENDBRANCH   1   7
TORSDOF 7
ENDMDL
MODEL 4
REMARK VINA RESULT:    -3.816      2.386      4.518
REMARK INTER + INTRA:          -5.624
REMARK INTER:                  -4.858
REMARK INTRA:                  -0.766
REMARK UNBOUND:                -0.247
REMARK SMILES CCCCCCCCC(=O)[O-]
REMARK SMILES IDX 6 1 7 2 8 3 9 4 10 5 11 6 5 7 4 8 3 9 2 10 1 11
REMARK H PARENT
REMARK Flexibility Score: inf
ROOT
ATOM      1  C   UNL     1       7.447  34.831  -0.338  1.00  0.00     0.000 C 
ENDROOT
BRANCH   1   2
ATOM      2  C   UNL     1       8.172  33.740  -1.136  1.00  0.00     0.006 C 
BRANCH   2   3
ATOM      3  C   UNL     1       9.129  32.947  -0.240  1.00  0.00     0.053 C 
BRANCH   3   4
ATOM      4  C   UNL     1      10.316  32.484  -1.024  1.00  0.00     0.041 C 
ATOM      5  O   UNL     1      11.198  33.306  -1.383  1.00  0.00    -0.550 OA
ATOM      6  O   UNL     1      10.422  31.151  -1.400  1.00  0.00    -0.550 OA
ENDBRANCH   3   4
ENDBRANCH   2   3
ENDBRANCH   1   2
BRANCH   1   7
ATOM      7  C   UNL     1       8.050  34.980   1.063  1.00  0.00     0.000 C 
BRANCH   7   8
ATOM      8  C   UNL     1       8.753  36.333   1.220  1.00  0.00    -0.000 C 
BRANCH   8   9
ATOM      9  C   UNL     1      10.264  36.151   1.405  1.00  0.00    -0.000 C 
BRANCH   9  10
ATOM     10  C   UNL     1      11.018  36.452   0.104  1.00  0.00    -0.003 C 
ATOM     11  C   UNL     1      10.192  37.343  -0.818  1.00  0.00     0.004 C 
ENDBRANCH   9  10
ENDBRANCH   8   9
ENDBRANCH   7   8
ENDBRANCH   1   7
TORSDOF 7
ENDMDL
MODEL 5
REMARK VINA RESULT:    -3.812      3.166      5.163
REMARK INTER + INTRA:          -5.618
REMARK INTER:                  -4.901
REMARK INTRA:                  -0.717
REMARK UNBOUND:                -0.247
REMARK SMILES CCCCCCCCC(=O)[O-]
REMARK SMILES IDX 6 1 7 2 8 3 9 4 10 5 11 6 5 7 4 8 3 9 2 10 1 11
REMARK H PARENT
REMARK Flexibility Score: inf
ROOT
ATOM      1  C   UNL     1       8.523  33.359  -0.936  1.00  0.00     0.000 C 
ENDROOT
BRANCH   1   2
ATOM      2  C   UNL     1       7.877  33.321  -2.326  1.00  0.00     0.006 C 
BRANCH   2   3
ATOM      3  C   UNL     1       7.012  34.564  -2.564  1.00  0.00     0.053 C 
BRANCH   3   4
ATOM      4  C   UNL     1       5.696  34.428  -1.865  1.00  0.00     0.041 C 
ATOM      5  O   UNL     1       4.790  33.706  -2.356  1.00  0.00    -0.550 OA
ATOM      6  O   UNL     1       5.454  35.141  -0.698  1.00  0.00    -0.550 OA
ENDBRANCH   3   4
ENDBRANCH   2   3
ENDBRANCH   1   2
BRANCH   1   7
ATOM      7  C   UNL     1      10.012  33.009  -1.010  1.00  0.00     0.000 C 
BRANCH   7   8
ATOM      8  C   UNL     1      10.862  34.263  -1.248  1.00  0.00    -0.000 C 
BRANCH   8   9
ATOM      9  C   UNL     1      10.426  35.408  -0.326  1.00  0.00    -0.000 C 
BRANCH   9  10
ATOM     10  C   UNL     1      10.137  36.681  -1.129  1.00  0.00    -0.003 C 
ATOM     11  C   UNL     1       8.784  37.276  -0.753  1.00  0.00     0.004 C 
ENDBRANCH   9  10
ENDBRANCH   8   9
ENDBRANCH   7   8
ENDBRANCH   1   7
TORSDOF 7
ENDMDL
MODEL 6
REMARK VINA RESULT:    -3.783      1.907      2.691
REMARK INTER + INTRA:          -5.578
REMARK INTER:                  -4.741
REMARK INTRA:                  -0.837
REMARK UNBOUND:                -0.247
REMARK SMILES CCCCCCCCC(=O)[O-]
REMARK SMILES IDX 6 1 7 2 8 3 9 4 10 5 11 6 5 7 4 8 3 9 2 10 1 11
REMARK H PARENT
REMARK Flexibility Score: inf
ROOT
ATOM      1  C   UNL     1      10.050  36.294  -0.995  1.00  0.00     0.000 C 
ENDROOT
BRANCH   1   2
ATOM      2  C   UNL     1      10.381  34.955  -0.326  1.00  0.00     0.006 C 
BRANCH   2   3
ATOM      3  C   UNL     1      10.952  33.960  -1.341  1.00  0.00     0.053 C 
BRANCH   3   4
ATOM      4  C   UNL     1      10.339  32.608  -1.151  1.00  0.00     0.041 C 
ATOM      5  O   UNL     1       9.436  32.438  -0.291  1.00  0.00    -0.550 OA
ATOM      6  O   UNL     1      10.802  31.526  -1.888  1.00  0.00    -0.550 OA
ENDBRANCH   3   4
ENDBRANCH   2   3
ENDBRANCH   1   2
BRANCH   1   7
ATOM      7  C   UNL     1       8.535  36.496  -1.103  1.00  0.00     0.000 C 
BRANCH   7   8
ATOM      8  C   UNL     1       7.780  35.492  -0.224  1.00  0.00    -0.000 C 
BRANCH   8   9
ATOM      9  C   UNL     1       6.721  34.736  -1.035  1.00  0.00    -0.000 C 
BRANCH   9  10
ATOM     10  C   UNL     1       7.099  34.683  -2.520  1.00  0.00    -0.003 C 
ATOM     11  C   UNL     1       7.134  33.246  -3.029  1.00  0.00     0.004 C 
ENDBRANCH   9  10
ENDBRANCH   8   9
ENDBRANCH   7   8
ENDBRANCH   1   7
TORSDOF 7
ENDMDL
MODEL 7
REMARK VINA RESULT:    -3.768      4.001      4.855
REMARK INTER + INTRA:          -5.556
REMARK INTER:                  -4.967
REMARK INTRA:                  -0.589
REMARK UNBOUND:                -0.247
REMARK SMILES CCCCCCCCC(=O)[O-]
REMARK SMILES IDX 6 1 7 2 8 3 9 4 10 5 11 6 5 7 4 8 3 9 2 10 1 11
REMARK H PARENT
REMARK Flexibility Score: inf
ROOT
ATOM      1  C   UNL     1      11.125  34.722  -1.375  1.00  0.00     0.000 C 
ENDROOT
BRANCH   1   2
ATOM      2  C   UNL     1      10.719  35.630  -0.208  1.00  0.00     0.006 C 
BRANCH   2   3
ATOM      3  C   UNL     1      11.495  36.951  -0.245  1.00  0.00     0.053 C 
BRANCH   3   4
ATOM      4  C   UNL     1      10.589  38.080  -0.625  1.00  0.00     0.041 C 
ATOM      5  O   UNL     1       9.341  37.914  -0.636  1.00  0.00    -0.550 OA
ATOM      6  O   UNL     1      11.125  39.299  -1.016  1.00  0.00    -0.550 OA
ENDBRANCH   3   4
ENDBRANCH   2   3
ENDBRANCH   1   2
BRANCH   1   7
ATOM      7  C   UNL     1      10.626  33.290  -1.157  1.00  0.00     0.000 C 
BRANCH   7   8
ATOM      8  C   UNL     1       9.214  33.282  -0.558  1.00  0.00    -0.000 C 
BRANCH   8   9
ATOM      9  C   UNL     1       8.149  33.375  -1.657  1.00  0.00    -0.000 C 
BRANCH   9  10
ATOM     10  C   UNL     1       7.162  34.513  -1.372  1.00  0.00    -0.003 C 
ATOM     11  C   UNL     1       7.277  35.617  -2.417  1.00  0.00     0.004 C 
ENDBRANCH   9  10
ENDBRANCH   8   9
ENDBRANCH   7   8
ENDBRANCH   1   7
TORSDOF 7
ENDMDL
MODEL 8
REMARK VINA RESULT:    -3.764      3.151      4.967
REMARK INTER + INTRA:          -5.550
REMARK INTER:                  -5.123
REMARK INTRA:                  -0.428
REMARK UNBOUND:                -0.247
REMARK SMILES CCCCCCCCC(=O)[O-]
REMARK SMILES IDX 6 1 7 2 8 3 9 4 10 5 11 6 5 7 4 8 3 9 2 10 1 11
REMARK H PARENT
REMARK Flexibility Score: inf
ROOT
ATOM      1  C   UNL     1       8.093  35.744  -1.747  1.00  0.00     0.000 C 
ENDROOT
BRANCH   1   2
ATOM      2  C   UNL     1       8.552  36.655  -0.602  1.00  0.00     0.006 C 
BRANCH   2   3
ATOM      3  C   UNL     1       9.953  37.214  -0.873  1.00  0.00     0.053 C 
BRANCH   3   4
ATOM      4  C   UNL     1      10.970  36.509  -0.033  1.00  0.00     0.041 C 
ATOM      5  O   UNL     1      12.190  36.564  -0.337  1.00  0.00    -0.550 OA
ATOM      6  O   UNL     1      10.565  35.750   1.057  1.00  0.00    -0.550 OA
ENDBRANCH   3   4
ENDBRANCH   2   3
ENDBRANCH   1   2
BRANCH   1   7
ATOM      7  C   UNL     1       7.587  34.400  -1.214  1.00  0.00     0.000 C 
BRANCH   7   8
ATOM      8  C   UNL     1       8.541  33.261  -1.594  1.00  0.00    -0.000 C 
BRANCH   8   9
ATOM      9  C   UNL     1       9.357  32.798  -0.381  1.00  0.00    -0.000 C 
BRANCH   9  10
ATOM     10  C   UNL     1      10.029  31.448  -0.654  1.00  0.00    -0.003 C 
ATOM     11  C   UNL     1      10.749  31.451  -1.998  1.00  0.00     0.004 C 
ENDBRANCH   9  10
ENDBRANCH   8   9
ENDBRANCH   7   8
ENDBRANCH   1   7
TORSDOF 7
ENDMDL
MODEL 9
REMARK VINA RESULT:    -3.733      3.537      5.180
REMARK INTER + INTRA:          -5.507
REMARK INTER:                  -4.925
REMARK INTRA:                  -0.582
REMARK UNBOUND:                -0.247
REMARK SMILES CCCCCCCCC(=O)[O-]
REMARK SMILES IDX 6 1 7 2 8 3 9 4 10 5 11 6 5 7 4 8 3 9 2 10 1 11
REMARK H PARENT
REMARK Flexibility Score: inf
ROOT
ATOM      1  C   UNL     1       8.895  36.005   0.921  1.00  0.00     0.000 C 
ENDROOT
BRANCH   1   2
ATOM      2  C   UNL     1       8.512  34.521   0.895  1.00  0.00     0.006 C 
BRANCH   2   3
ATOM      3  C   UNL     1       8.551  33.968  -0.534  1.00  0.00     0.053 C 
BRANCH   3   4
ATOM      4  C   UNL     1       9.702  33.028  -0.701  1.00  0.00     0.041 C 
ATOM      5  O   UNL     1       9.635  31.856  -0.246  1.00  0.00    -0.550 OA
ATOM      6  O   UNL     1      10.870  33.462  -1.315  1.00  0.00    -0.550 OA
ENDBRANCH   3   4
ENDBRANCH   2   3
ENDBRANCH   1   2
BRANCH   1   7
ATOM      7  C   UNL     1      10.374  36.186   1.277  1.00  0.00     0.000 C 
BRANCH   7   8
ATOM      8  C   UNL     1      11.177  36.676   0.066  1.00  0.00    -0.000 C 
BRANCH   8   9
ATOM      9  C   UNL     1      10.330  37.597  -0.821  1.00  0.00    -0.000 C 
BRANCH   9  10
ATOM     10  C   UNL     1      10.982  38.977  -0.962  1.00  0.00    -0.003 C 
ATOM     11  C   UNL     1      10.186  40.041  -0.214  1.00  0.00     0.004 C 
ENDBRANCH   9  10
ENDBRANCH   8   9
ENDBRANCH   7   8
ENDBRANCH   1   7
TORSDOF 7
ENDMDL
