MODEL 1
REMARK VINA RESULT:    -3.950      0.000      0.000
REMARK INTER + INTRA:          -7.075
REMARK INTER:                  -6.029
REMARK INTRA:                  -1.046
REMARK UNBOUND:                -1.046
REMARK SMILES O=C([O-])CCCCCCCCC(=O)[O-]
REMARK SMILES IDX 7 1 6 2 5 3 4 4 2 5 1 6 3 7 8 8 9 9 10 10 11 11 12 12 13 13
REMARK SMILES IDX 14 14
REMARK H PARENT
REMARK Flexibility Score: inf
ROOT
ATOM      1  C   UNL     1      19.342   8.325   6.326  1.00  0.00     0.000 C 
ENDROOT
BRANCH   1   2
ATOM      2  C   UNL     1      19.466   9.786   6.783  1.00  0.00     0.000 C 
BRANCH   2   3
ATOM      3  C   UNL     1      18.879  10.741   5.733  1.00  0.00     0.006 C 
BRANCH   3   4
ATOM      4  C   UNL     1      18.504  10.019   4.433  1.00  0.00     0.053 C 
BRANCH   4   5
ATOM      5  C   UNL     1      17.027  10.053   4.187  1.00  0.00     0.041 C 
ATOM      6  O   UNL     1      16.580  10.125   3.011  1.00  0.00    -0.550 OA
ATOM      7  O   UNL     1      16.143  10.039   5.259  1.00  0.00    -0.550 OA
ENDBRANCH   4   5
ENDBRANCH   3   4
ENDBRANCH   2   3
ENDBRANCH   1   2
BRANCH   1   8
ATOM      8  C   UNL     1      18.502   7.471   7.290  1.00  0.00     0.000 C 
BRANCH   8   9
ATOM      9  C   UNL     1      17.171   7.017   6.673  1.00  0.00     0.000 C 
BRANCH   9  10
ATOM     10  C   UNL     1      17.406   6.250   5.364  1.00  0.00     0.006 C 
BRANCH  10  11
ATOM     11  C   UNL     1      16.231   6.390   4.388  1.00  0.00     0.053 C 
BRANCH  11  12
ATOM     12  C   UNL     1      16.699   6.627   2.986  1.00  0.00     0.041 C 
ATOM     13  O   UNL     1      15.876   6.627   2.033  1.00  0.00    -0.550 OA
ATOM     14  O   UNL     1      18.042   6.883   2.735  1.00  0.00    -0.550 OA
ENDBRANCH  11  12
ENDBRANCH  10  11
ENDBRANCH   9  10
ENDBRANCH   8   9
ENDBRANCH   1   8
TORSDOF 9
ENDMDL
MODEL 2
REMARK VINA RESULT:    -3.921      1.887      3.241
REMARK INTER + INTRA:          -7.030
REMARK INTER:                  -5.944
REMARK INTRA:                  -1.086
REMARK UNBOUND:                -1.046
REMARK SMILES O=C([O-])CCCCCCCCC(=O)[O-]
REMARK SMILES IDX 7 1 6 2 5 3 4 4 2 5 1 6 3 7 8 8 9 9 10 10 11 11 12 12 13 13
REMARK SMILES IDX 14 14
REMARK H PARENT
REMARK Flexibility Score: inf
ROOT
ATOM      1  C   UNL     1      18.877  10.396   5.289  1.00  0.00     0.000 C 
ENDROOT
BRANCH   1   2
ATOM      2  C   UNL     1      19.500  10.690   6.661  1.00  0.00     0.000 C 
BRANCH   2   3
ATOM      3  C   UNL     1      19.990   9.398   7.331  1.00  0.00     0.006 C 
BRANCH   3   4
ATOM      4  C   UNL     1      19.481   8.141   6.613  1.00  0.00     0.053 C 
BRANCH   4   5
ATOM      5  C   UNL     1      18.396   7.460   7.390  1.00  0.00     0.041 C 
ATOM      6  O   UNL     1      18.285   6.206   7.360  1.00  0.00    -0.550 OA
ATOM      7  O   UNL     1      17.486   8.215   8.121  1.00  0.00    -0.550 OA
ENDBRANCH   4   5
ENDBRANCH   3   4
ENDBRANCH   2   3
ENDBRANCH   1   2
BRANCH   1   8
ATOM      8  C   UNL     1      17.503  11.061   5.106  1.00  0.00     0.000 C 
BRANCH   8   9
ATOM      9  C   UNL     1      16.337  10.096   5.372  1.00  0.00     0.000 C 
BRANCH   9  10
ATOM     10  C   UNL     1      16.026   9.255   4.126  1.00  0.00     0.006 C 
BRANCH  10  11
ATOM     11  C   UNL     1      16.251   7.756   4.366  1.00  0.00     0.053 C 
BRANCH  11  12
ATOM     12  C   UNL     1      17.505   7.271   3.707  1.00  0.00     0.041 C 
ATOM     13  O   UNL     1      17.991   6.151   4.014  1.00  0.00    -0.550 OA
ATOM     14  O   UNL     1      18.120   8.042   2.728  1.00  0.00    -0.550 OA
ENDBRANCH  11  12
ENDBRANCH  10  11
ENDBRANCH   9  10
ENDBRANCH   8   9
ENDBRANCH   1   8
TORSDOF 9
ENDMDL
MODEL 3
REMARK VINA RESULT:    -3.909      1.972      4.348
REMARK INTER + INTRA:          -7.012
REMARK INTER:                  -5.929
REMARK INTRA:                  -1.083
REMARK UNBOUND:                -1.046
REMARK SMILES O=C([O-])CCCCCCCCC(=O)[O-]
REMARK SMILES IDX 7 1 6 2 5 3 4 4 2 5 1 6 3 7 8 8 9 9 10 10 11 11 12 12 13 13
REMARK SMILES IDX 14 14
REMARK H PARENT
REMARK Flexibility Score: inf
ROOT
ATOM      1  C   UNL     1      17.420  10.408   3.869  1.00  0.00     0.000 C 
ENDROOT
BRANCH   1   2
ATOM      2  C   UNL     1      16.283  10.110   4.858  1.00  0.00     0.000 C 
BRANCH   2   3
ATOM      3  C   UNL     1      16.007   8.601   4.939  1.00  0.00     0.006 C 
BRANCH   3   4
ATOM      4  C   UNL     1      16.456   7.858   3.674  1.00  0.00     0.053 C 
BRANCH   4   5
ATOM      5  C   UNL     1      17.514   6.841   3.975  1.00  0.00     0.041 C 
ATOM      6  O   UNL     1      18.646   6.921   3.427  1.00  0.00    -0.550 OA
ATOM      7  O   UNL     1      17.239   5.785   4.836  1.00  0.00    -0.550 OA
ENDBRANCH   4   5
ENDBRANCH   3   4
ENDBRANCH   2   3
ENDBRANCH   1   2
BRANCH   1   8
ATOM      8  C   UNL     1      18.805  10.398   4.536  1.00  0.00     0.000 C 
BRANCH   8   9
ATOM      9  C   UNL     1      18.777  10.956   5.967  1.00  0.00     0.000 C 
BRANCH   9  10
ATOM     10  C   UNL     1      19.598  10.071   6.916  1.00  0.00     0.006 C 
BRANCH  10  11
ATOM     11  C   UNL     1      19.538   8.589   6.525  1.00  0.00     0.053 C 
BRANCH  11  12
ATOM     12  C   UNL     1      18.647   7.809   7.443  1.00  0.00     0.041 C 
ATOM     13  O   UNL     1      17.673   8.369   8.009  1.00  0.00    -0.550 OA
ATOM     14  O   UNL     1      18.875   6.453   7.647  1.00  0.00    -0.550 OA
ENDBRANCH  11  12
ENDBRANCH  10  11
ENDBRANCH   9  10
ENDBRANCH   8   9
ENDBRANCH   1   8
TORSDOF 9
ENDMDL
MODEL 4
REMARK VINA RESULT:    -3.885      2.085      3.815
REMARK INTER + INTRA:          -6.975
REMARK INTER:                  -5.938
REMARK INTRA:                  -1.037
REMARK UNBOUND:                -1.046
REMARK SMILES O=C([O-])CCCCCCCCC(=O)[O-]
REMARK SMILES IDX 7 1 6 2 5 3 4 4 2 5 1 6 3 7 8 8 9 9 10 10 11 11 12 12 13 13
REMARK SMILES IDX 14 14
REMARK H PARENT
REMARK Flexibility Score: inf
ROOT
ATOM      1  C   UNL     1      18.538  10.073   4.533  1.00  0.00     0.000 C 
ENDROOT
BRANCH   1   2
ATOM      2  C   UNL     1      18.444  10.022   3.001  1.00  0.00     0.000 C 
BRANCH   2   3
ATOM      3  C   UNL     1      18.491   8.572   2.496  1.00  0.00     0.006 C 
BRANCH   3   4
ATOM      4  C   UNL     1      17.156   8.123   1.888  1.00  0.00     0.053 C 
BRANCH   4   5
ATOM      5  C   UNL     1      16.992   6.636   1.949  1.00  0.00     0.041 C 
ATOM      6  O   UNL     1      16.082   6.125   2.654  1.00  0.00    -0.550 OA
ATOM      7  O   UNL     1      17.867   5.811   1.252  1.00  0.00    -0.550 OA
ENDBRANCH   4   5
ENDBRANCH   3   4
ENDBRANCH   2   3
ENDBRANCH   1   2
BRANCH   1   8
ATOM      8  C   UNL     1      17.238  10.562   5.192  1.00  0.00     0.000 C 
BRANCH   8   9
ATOM      9  C   UNL     1      16.639   9.531   6.160  1.00  0.00     0.000 C 
BRANCH   9  10
ATOM     10  C   UNL     1      16.003   8.363   5.391  1.00  0.00     0.006 C 
BRANCH  10  11
ATOM     11  C   UNL     1      16.198   7.021   6.109  1.00  0.00     0.053 C 
BRANCH  11  12
ATOM     12  C   UNL     1      17.648   6.691   6.283  1.00  0.00     0.041 C 
ATOM     13  O   UNL     1      18.397   6.571   5.279  1.00  0.00    -0.550 OA
ATOM     14  O   UNL     1      18.181   6.548   7.559  1.00  0.00    -0.550 OA
ENDBRANCH  11  12
ENDBRANCH  10  11
ENDBRANCH   9  10
ENDBRANCH   8   9
ENDBRANCH   1   8
TORSDOF 9
ENDMDL
MODEL 5
REMARK VINA RESULT:    -3.865      1.893      3.744
REMARK INTER + INTRA:          -6.944
REMARK INTER:                  -6.088
REMARK INTRA:                  -0.857
REMARK UNBOUND:                -1.046
REMARK SMILES O=C([O-])CCCCCCCCC(=O)[O-]
REMARK SMILES IDX 7 1 6 2 5 3 4 4 2 5 1 6 3 7 8 8 9 9 10 10 11 11 12 12 13 13
REMARK SMILES IDX 14 14
REMARK H PARENT
REMARK Flexibility Score: inf
ROOT
ATOM      1  C   UNL     1      18.873  10.134   5.445  1.00  0.00     0.000 C 
ENDROOT
BRANCH   1   2
ATOM      2  C   UNL     1      17.385  10.487   5.313  1.00  0.00     0.000 C 
BRANCH   2   3
ATOM      3  C   UNL     1      16.510   9.230   5.422  1.00  0.00     0.006 C 
BRANCH   3   4
ATOM      4  C   UNL     1      15.967   8.779   4.060  1.00  0.00     0.053 C 
BRANCH   4   5
ATOM      5  C   UNL     1      16.607   7.503   3.603  1.00  0.00     0.041 C 
ATOM      6  O   UNL     1      17.798   7.501   3.194  1.00  0.00    -0.550 OA
ATOM      7  O   UNL     1      15.875   6.322   3.599  1.00  0.00    -0.550 OA
ENDBRANCH   4   5
ENDBRANCH   3   4
ENDBRANCH   2   3
ENDBRANCH   1   2
BRANCH   1   8
ATOM      8  C   UNL     1      19.440  10.463   6.836  1.00  0.00     0.000 C 
BRANCH   8   9
ATOM      9  C   UNL     1      20.241   9.299   7.440  1.00  0.00     0.000 C 
BRANCH   9  10
ATOM     10  C   UNL     1      19.999   8.002   6.654  1.00  0.00     0.006 C 
BRANCH  10  11
ATOM     11  C   UNL     1      19.529   6.854   7.557  1.00  0.00     0.053 C 
BRANCH  11  12
ATOM     12  C   UNL     1      18.046   6.660   7.479  1.00  0.00     0.041 C 
ATOM     13  O   UNL     1      17.287   7.227   8.308  1.00  0.00    -0.550 OA
ATOM     14  O   UNL     1      17.499   5.877   6.469  1.00  0.00    -0.550 OA
ENDBRANCH  11  12
ENDBRANCH  10  11
ENDBRANCH   9  10
ENDBRANCH   8   9
ENDBRANCH   1   8
TORSDOF 9
ENDMDL
MODEL 6
REMARK VINA RESULT:    -3.834      3.176      4.261
REMARK INTER + INTRA:          -6.897
REMARK INTER:                  -6.036
REMARK INTRA:                  -0.861
REMARK UNBOUND:                -1.046
REMARK SMILES O=C([O-])CCCCCCCCC(=O)[O-]
REMARK SMILES IDX 7 1 6 2 5 3 4 4 2 5 1 6 3 7 8 8 9 9 10 10 11 11 12 12 13 13
REMARK SMILES IDX 14 14
REMARK H PARENT
REMARK Flexibility Score: inf
ROOT
ATOM      1  C   UNL     1      19.152  10.405   6.098  1.00  0.00     0.000 C 
ENDROOT
BRANCH   1   2
ATOM      2  C   UNL     1      19.859  11.125   7.255  1.00  0.00     0.000 C 
BRANCH   2   3
ATOM      3  C   UNL     1      20.700  10.141   8.082  1.00  0.00     0.006 C 
BRANCH   3   4
ATOM      4  C   UNL     1      20.255   8.686   7.886  1.00  0.00     0.053 C 
BRANCH   4   5
ATOM      5  C   UNL     1      21.425   7.755   7.804  1.00  0.00     0.041 C 
ATOM      6  O   UNL     1      21.507   6.919   6.865  1.00  0.00    -0.550 OA
ATOM      7  O   UNL     1      22.410   7.789   8.784  1.00  0.00    -0.550 OA
ENDBRANCH   4   5
ENDBRANCH   3   4
ENDBRANCH   2   3
ENDBRANCH   1   2
BRANCH   1   8
ATOM      8  C   UNL     1      17.659  10.758   6.003  1.00  0.00     0.000 C 
BRANCH   8   9
ATOM      9  C   UNL     1      16.749   9.629   6.512  1.00  0.00     0.000 C 
BRANCH   9  10
ATOM     10  C   UNL     1      16.282   8.737   5.353  1.00  0.00     0.006 C 
BRANCH  10  11
ATOM     11  C   UNL     1      16.257   7.252   5.738  1.00  0.00     0.053 C 
BRANCH  11  12
ATOM     12  C   UNL     1      17.623   6.745   6.083  1.00  0.00     0.041 C 
ATOM     13  O   UNL     1      17.845   6.239   7.214  1.00  0.00    -0.550 OA
ATOM     14  O   UNL     1      18.644   6.801   5.142  1.00  0.00    -0.550 OA
ENDBRANCH  11  12
ENDBRANCH  10  11
ENDBRANCH   9  10
ENDBRANCH   8   9
ENDBRANCH   1   8
TORSDOF 9
ENDMDL
MODEL 7
REMARK VINA RESULT:    -3.833      1.438      1.993
REMARK INTER + INTRA:          -6.895
REMARK INTER:                  -5.769
REMARK INTRA:                  -1.126
REMARK UNBOUND:                -1.046
REMARK SMILES O=C([O-])CCCCCCCCC(=O)[O-]
REMARK SMILES IDX 7 1 6 2 5 3 4 4 2 5 1 6 3 7 8 8 9 9 10 10 11 11 12 12 13 13
REMARK SMILES IDX 14 14
REMARK H PARENT
REMARK Flexibility Score: inf
ROOT
ATOM      1  C   UNL     1      19.256   9.852   6.120  1.00  0.00     0.000 C 
ENDROOT
BRANCH   1   2
ATOM      2  C   UNL     1      18.097  10.817   5.829  1.00  0.00     0.000 C 
BRANCH   2   3
ATOM      3  C   UNL     1      17.684  10.749   4.351  1.00  0.00     0.006 C 
BRANCH   3   4
ATOM      4  C   UNL     1      18.480   9.693   3.572  1.00  0.00     0.053 C 
BRANCH   4   5
ATOM      5  C   UNL     1      17.753   9.250   2.340  1.00  0.00     0.041 C 
ATOM      6  O   UNL     1      18.395   8.923   1.307  1.00  0.00    -0.550 OA
ATOM      7  O   UNL     1      16.363   9.231   2.321  1.00  0.00    -0.550 OA
ENDBRANCH   4   5
ENDBRANCH   3   4
ENDBRANCH   2   3
ENDBRANCH   1   2
BRANCH   1   8
ATOM      8  C   UNL     1      19.011   8.990   7.369  1.00  0.00     0.000 C 
BRANCH   8   9
ATOM      9  C   UNL     1      17.520   8.707   7.610  1.00  0.00     0.000 C 
BRANCH   9  10
ATOM     10  C   UNL     1      17.120   7.344   7.028  1.00  0.00     0.006 C 
BRANCH  10  11
ATOM     11  C   UNL     1      16.266   7.481   5.760  1.00  0.00     0.053 C 
BRANCH  11  12
ATOM     12  C   UNL     1      16.739   6.567   4.672  1.00  0.00     0.041 C 
ATOM     13  O   UNL     1      15.920   6.094   3.841  1.00  0.00    -0.550 OA
ATOM     14  O   UNL     1      18.090   6.263   4.557  1.00  0.00    -0.550 OA
ENDBRANCH  11  12
ENDBRANCH  10  11
ENDBRANCH   9  10
ENDBRANCH   8   9
ENDBRANCH   1   8
TORSDOF 9
ENDMDL
MODEL 8
REMARK VINA RESULT:    -3.801      1.630      3.392
REMARK INTER + INTRA:          -6.848
REMARK INTER:                  -5.766
REMARK INTRA:                  -1.081
REMARK UNBOUND:                -1.046
REMARK SMILES O=C([O-])CCCCCCCCC(=O)[O-]
REMARK SMILES IDX 7 1 6 2 5 3 4 4 2 5 1 6 3 7 8 8 9 9 10 10 11 11 12 12 13 13
REMARK SMILES IDX 14 14
REMARK H PARENT
REMARK Flexibility Score: inf
ROOT
ATOM      1  C   UNL     1      19.402   9.595   7.459  1.00  0.00     0.000 C 
ENDROOT
BRANCH   1   2
ATOM      2  C   UNL     1      20.402   8.438   7.312  1.00  0.00     0.000 C 
BRANCH   2   3
ATOM      3  C   UNL     1      19.790   7.284   6.505  1.00  0.00     0.006 C 
BRANCH   3   4
ATOM      4  C   UNL     1      18.479   6.775   7.117  1.00  0.00     0.053 C 
BRANCH   4   5
ATOM      5  C   UNL     1      17.411   6.610   6.080  1.00  0.00     0.041 C 
ATOM      6  O   UNL     1      17.649   5.976   5.018  1.00  0.00    -0.550 OA
ATOM      7  O   UNL     1      16.160   7.186   6.273  1.00  0.00    -0.550 OA
ENDBRANCH   4   5
ENDBRANCH   3   4
ENDBRANCH   2   3
ENDBRANCH   1   2
BRANCH   1   8
ATOM      8  C   UNL     1      19.224  10.394   6.157  1.00  0.00     0.000 C 
BRANCH   8   9
ATOM      9  C   UNL     1      17.756  10.748   5.876  1.00  0.00     0.000 C 
BRANCH   9  10
ATOM     10  C   UNL     1      17.266  10.068   4.589  1.00  0.00     0.006 C 
BRANCH  10  11
ATOM     11  C   UNL     1      18.414   9.432   3.794  1.00  0.00     0.053 C 
BRANCH  11  12
ATOM     12  C   UNL     1      17.925   8.790   2.533  1.00  0.00     0.041 C 
ATOM     13  O   UNL     1      18.565   8.935   1.458  1.00  0.00    -0.550 OA
ATOM     14  O   UNL     1      16.780   8.004   2.550  1.00  0.00    -0.550 OA
ENDBRANCH  11  12
ENDBRANCH  10  11
ENDBRANCH   9  10
ENDBRANCH   8   9
ENDBRANCH   1   8
TORSDOF 9
ENDMDL
