MODEL 1
REMARK VINA RESULT:    -4.009      0.000      0.000
REMARK INTER + INTRA:          -5.540
REMARK INTER:                  -5.416
REMARK INTRA:                  -0.124
REMARK UNBOUND:                -0.124
REMARK SMILES C=C1C(=O)O[C@H]2[C@H]1CCC(C)=CCC[C@@]1(C)O[C@@H]21
REMARK SMILES IDX 6 1 7 2 2 3 1 4 3 5 4 6 5 7 8 8 9 9 10 10 11 11 12 12 18 14
REMARK SMILES IDX 15 15 17 16 16 17 14 18 13 19
REMARK H PARENT
REMARK Flexibility Score: 70.00
ROOT
ATOM      1  C   UNL     1      17.221  -5.737 -31.038  1.00  0.00     0.216 C 
ATOM      2  C   UNL     1      15.792  -5.462 -30.434  1.00  0.00     0.070 C 
ATOM      3  C   UNL     1      16.104  -4.799 -29.123  1.00  0.00     0.037 C 
ATOM      4  C   UNL     1      15.215  -4.373 -28.223  1.00  0.00     0.021 C 
ATOM      5  C   UNL     1      17.514  -4.503 -29.104  1.00  0.00     0.334 C 
ATOM      6  O   UNL     1      18.119  -3.870 -28.199  1.00  0.00    -0.247 OA
ATOM      7  O   UNL     1      18.124  -4.972 -30.245  1.00  0.00    -0.455 OA
ENDROOT
BRANCH   2   8
ATOM      8  C   UNL     1      14.933  -6.751 -30.278  1.00  0.00     0.017 C 
BRANCH   8   9
ATOM      9  C   UNL     1      13.901  -6.913 -31.416  1.00  0.00     0.031 C 
BRANCH   9  10
ATOM     10  C   UNL     1      13.760  -8.356 -31.869  1.00  0.00    -0.077 C 
ATOM     11  C   UNL     1      12.965  -9.301 -31.008  1.00  0.00     0.039 C 
ATOM     12  C   UNL     1      14.330  -8.837 -33.000  1.00  0.00    -0.028 CG0
ATOM     13  G   UNL     1      15.204  -8.035 -33.939  1.00  0.00     0.000 G0
ENDBRANCH   9  10
ENDBRANCH   8   9
ENDBRANCH   2   8
BRANCH   1  14
ATOM     14  C   UNL     1      17.396  -5.352 -32.526  1.00  0.00     0.192 C 
ATOM     15  C   UNL     1      17.114  -6.346 -33.619  1.00  0.00     0.096 C 
ATOM     16  O   UNL     1      16.178  -5.365 -33.239  1.00  0.00    -0.362 OA
ATOM     17  C   UNL     1      17.686  -6.051 -35.006  1.00  0.00     0.045 C 
BRANCH  15  18
ATOM     18  C   UNL     1      16.597  -7.778 -33.348  1.00  0.00     0.042 C 
BRANCH  18  19
ATOM     19  C   UNL     1      15.199  -8.045 -33.945  1.00  0.00     0.030 CG0
ATOM     20  G   UNL     1      14.327  -8.826 -32.986  1.00  0.00     0.000 G0
ENDBRANCH  18  19
ENDBRANCH  15  18
ENDBRANCH   1  14
TORSDOF 0
ENDMDL
MODEL 2
REMARK VINA RESULT:    -3.872      3.040      5.556
REMARK INTER + INTRA:          -5.355
REMARK INTER:                  -5.264
REMARK INTRA:                  -0.091
REMARK UNBOUND:                -0.124
REMARK SMILES C=C1C(=O)O[C@H]2[C@H]1CCC(C)=CCC[C@@]1(C)O[C@@H]21
REMARK SMILES IDX 6 1 7 2 2 3 1 4 3 5 4 6 5 7 8 8 9 9 10 10 11 11 12 12 18 14
REMARK SMILES IDX 15 15 17 16 16 17 14 18 13 19
REMARK H PARENT
REMARK Flexibility Score: 70.00
ROOT
ATOM      1  C   UNL     1      13.846  -6.204 -35.684  1.00  0.00     0.216 C 
ATOM      2  C   UNL     1      13.134  -6.991 -34.520  1.00  0.00     0.070 C 
ATOM      3  C   UNL     1      11.722  -7.120 -35.015  1.00  0.00     0.037 C 
ATOM      4  C   UNL     1      10.712  -7.713 -34.376  1.00  0.00     0.021 C 
ATOM      5  C   UNL     1      11.699  -6.692 -36.391  1.00  0.00     0.334 C 
ATOM      6  O   UNL     1      10.702  -6.743 -37.159  1.00  0.00    -0.247 OA
ATOM      7  O   UNL     1      12.941  -6.249 -36.784  1.00  0.00    -0.455 OA
ENDROOT
BRANCH   2   8
ATOM      8  C   UNL     1      13.235  -6.273 -33.142  1.00  0.00     0.017 C 
BRANCH   8   9
ATOM      9  C   UNL     1      14.169  -7.012 -32.158  1.00  0.00     0.031 C 
BRANCH   9  10
ATOM     10  C   UNL     1      15.009  -6.057 -31.329  1.00  0.00    -0.077 C 
ATOM     11  C   UNL     1      14.393  -5.445 -30.099  1.00  0.00     0.039 C 
ATOM     12  C   UNL     1      16.280  -5.714 -31.653  1.00  0.00    -0.028 CG0
ATOM     13  G   UNL     1      17.020  -6.194 -32.882  1.00  0.00     0.000 G0
ENDBRANCH   9  10
ENDBRANCH   8   9
ENDBRANCH   2   8
BRANCH   1  14
ATOM     14  C   UNL     1      15.216  -6.771 -36.126  1.00  0.00     0.192 C 
ATOM     15  C   UNL     1      16.477  -6.398 -35.397  1.00  0.00     0.096 C 
ATOM     16  O   UNL     1      15.799  -7.608 -35.151  1.00  0.00    -0.362 OA
ATOM     17  C   UNL     1      17.805  -6.649 -36.112  1.00  0.00     0.045 C 
BRANCH  15  18
ATOM     18  C   UNL     1      16.497  -5.479 -34.153  1.00  0.00     0.042 C 
BRANCH  18  19
ATOM     19  C   UNL     1      17.028  -6.180 -32.885  1.00  0.00     0.030 CG0
ATOM     20  G   UNL     1      16.289  -5.720 -31.647  1.00  0.00     0.000 G0
ENDBRANCH  18  19
ENDBRANCH  15  18
ENDBRANCH   1  14
TORSDOF 0
ENDMDL
MODEL 3
REMARK VINA RESULT:    -3.866      3.821      6.226
REMARK INTER + INTRA:          -5.346
REMARK INTER:                  -5.248
REMARK INTRA:                  -0.098
REMARK UNBOUND:                -0.124
REMARK SMILES C=C1C(=O)O[C@H]2[C@H]1CCC(C)=CCC[C@@]1(C)O[C@@H]21
REMARK SMILES IDX 6 1 7 2 2 3 1 4 3 5 4 6 5 7 8 8 9 9 10 10 11 11 12 12 18 14
REMARK SMILES IDX 15 15 17 16 16 17 14 18 13 19
REMARK H PARENT
REMARK Flexibility Score: 70.00
ROOT
ATOM      1  C   UNL     1      12.048  -6.960 -35.738  1.00  0.00     0.216 C 
ATOM      2  C   UNL     1      11.364  -7.513 -34.431  1.00  0.00     0.070 C 
ATOM      3  C   UNL     1       9.900  -7.361 -34.729  1.00  0.00     0.037 C 
ATOM      4  C   UNL     1       8.891  -7.688 -33.917  1.00  0.00     0.021 C 
ATOM      5  C   UNL     1       9.768  -7.013 -36.121  1.00  0.00     0.334 C 
ATOM      6  O   UNL     1       8.682  -6.890 -36.747  1.00  0.00    -0.247 OA
ATOM      7  O   UNL     1      11.005  -6.869 -36.705  1.00  0.00    -0.455 OA
ENDROOT
BRANCH   2   8
ATOM      8  C   UNL     1      11.806  -6.760 -33.143  1.00  0.00     0.017 C 
BRANCH   8   9
ATOM      9  C   UNL     1      12.915  -7.512 -32.372  1.00  0.00     0.031 C 
BRANCH   9  10
ATOM     10  C   UNL     1      13.962  -6.571 -31.800  1.00  0.00    -0.077 C 
ATOM     11  C   UNL     1      13.606  -5.761 -30.581  1.00  0.00     0.039 C 
ATOM     12  C   UNL     1      15.193  -6.413 -32.344  1.00  0.00    -0.028 CG0
ATOM     13  G   UNL     1      15.683  -7.106 -33.596  1.00  0.00     0.000 G0
ENDBRANCH   9  10
ENDBRANCH   8   9
ENDBRANCH   2   8
BRANCH   1  14
ATOM     14  C   UNL     1      13.194  -7.832 -36.305  1.00  0.00     0.192 C 
ATOM     15  C   UNL     1      14.620  -7.596 -35.890  1.00  0.00     0.096 C 
ATOM     16  O   UNL     1      13.829  -8.609 -35.313  1.00  0.00    -0.362 OA
ATOM     17  C   UNL     1      15.719  -8.193 -36.770  1.00  0.00     0.045 C 
BRANCH  15  18
ATOM     18  C   UNL     1      15.036  -6.523 -34.856  1.00  0.00     0.042 C 
BRANCH  18  19
ATOM     19  C   UNL     1      15.685  -7.116 -33.589  1.00  0.00     0.030 CG0
ATOM     20  G   UNL     1      15.206  -6.410 -32.339  1.00  0.00     0.000 G0
ENDBRANCH  18  19
ENDBRANCH  15  18
ENDBRANCH   1  14
TORSDOF 0
ENDMDL
MODEL 4
REMARK VINA RESULT:    -3.866      4.020      5.876
REMARK INTER + INTRA:          -5.346
REMARK INTER:                  -5.232
REMARK INTRA:                  -0.113
REMARK UNBOUND:                -0.124
REMARK SMILES C=C1C(=O)O[C@H]2[C@H]1CCC(C)=CCC[C@@]1(C)O[C@@H]21
REMARK SMILES IDX 6 1 7 2 2 3 1 4 3 5 4 6 5 7 8 8 9 9 10 10 11 11 12 12 18 14
REMARK SMILES IDX 15 15 17 16 16 17 14 18 13 19
REMARK H PARENT
REMARK Flexibility Score: 70.00
ROOT
ATOM      1  C   UNL     1      12.808  -6.785 -35.634  1.00  0.00     0.216 C 
ATOM      2  C   UNL     1      13.952  -6.165 -34.745  1.00  0.00     0.070 C 
ATOM      3  C   UNL     1      14.694  -5.291 -35.715  1.00  0.00     0.037 C 
ATOM      4  C   UNL     1      15.768  -4.546 -35.444  1.00  0.00     0.021 C 
ATOM      5  C   UNL     1      13.918  -5.222 -36.927  1.00  0.00     0.334 C 
ATOM      6  O   UNL     1      14.186  -4.510 -37.931  1.00  0.00    -0.247 OA
ATOM      7  O   UNL     1      12.799  -6.017 -36.834  1.00  0.00    -0.455 OA
ENDROOT
BRANCH   2   8
ATOM      8  C   UNL     1      14.858  -7.239 -34.075  1.00  0.00     0.017 C 
BRANCH   8   9
ATOM      9  C   UNL     1      14.481  -7.489 -32.597  1.00  0.00     0.031 C 
BRANCH   9  10
ATOM     10  C   UNL     1      14.576  -8.957 -32.216  1.00  0.00    -0.077 C 
ATOM     11  C   UNL     1      15.941  -9.552 -31.993  1.00  0.00     0.039 C 
ATOM     12  C   UNL     1      13.492  -9.761 -32.086  1.00  0.00    -0.028 CG0
ATOM     13  G   UNL     1      12.062  -9.333 -32.331  1.00  0.00     0.000 G0
ENDBRANCH   9  10
ENDBRANCH   8   9
ENDBRANCH   2   8
BRANCH   1  14
ATOM     14  C   UNL     1      11.395  -6.764 -35.003  1.00  0.00     0.192 C 
ATOM     15  C   UNL     1      10.906  -7.916 -34.168  1.00  0.00     0.096 C 
ATOM     16  O   UNL     1      11.428  -6.741 -33.593  1.00  0.00    -0.362 OA
ATOM     17  C   UNL     1       9.401  -8.022 -33.926  1.00  0.00     0.045 C 
BRANCH  15  18
ATOM     18  C   UNL     1      11.772  -9.156 -33.845  1.00  0.00     0.042 C 
BRANCH  18  19
ATOM     19  C   UNL     1      12.048  -9.331 -32.337  1.00  0.00     0.030 CG0
ATOM     20  G   UNL     1      13.479  -9.752 -32.081  1.00  0.00     0.000 G0
ENDBRANCH  18  19
ENDBRANCH  15  18
ENDBRANCH   1  14
TORSDOF 0
ENDMDL
MODEL 5
REMARK VINA RESULT:    -3.859      3.015      4.780
REMARK INTER + INTRA:          -5.336
REMARK INTER:                  -5.231
REMARK INTRA:                  -0.106
REMARK UNBOUND:                -0.124
REMARK SMILES C=C1C(=O)O[C@H]2[C@H]1CCC(C)=CCC[C@@]1(C)O[C@@H]21
REMARK SMILES IDX 6 1 7 2 2 3 1 4 3 5 4 6 5 7 8 8 9 9 10 10 11 11 12 12 18 14
REMARK SMILES IDX 15 15 17 16 16 17 14 18 13 19
REMARK H PARENT
REMARK Flexibility Score: 70.00
ROOT
ATOM      1  C   UNL     1      13.408  -6.893 -31.905  1.00  0.00     0.216 C 
ATOM      2  C   UNL     1      14.761  -6.718 -32.692  1.00  0.00     0.070 C 
ATOM      3  C   UNL     1      15.676  -6.126 -31.658  1.00  0.00     0.037 C 
ATOM      4  C   UNL     1      16.953  -5.783 -31.837  1.00  0.00     0.021 C 
ATOM      5  C   UNL     1      15.005  -6.199 -30.384  1.00  0.00     0.334 C 
ATOM      6  O   UNL     1      15.502  -5.875 -29.274  1.00  0.00    -0.247 OA
ATOM      7  O   UNL     1      13.740  -6.717 -30.530  1.00  0.00    -0.455 OA
ENDROOT
BRANCH   2   8
ATOM      8  C   UNL     1      14.621  -5.831 -33.963  1.00  0.00     0.017 C 
BRANCH   8   9
ATOM      9  C   UNL     1      14.615  -6.663 -35.265  1.00  0.00     0.031 C 
BRANCH   9  10
ATOM     10  C   UNL     1      13.633  -6.125 -36.292  1.00  0.00    -0.077 C 
ATOM     11  C   UNL     1      14.041  -4.931 -37.114  1.00  0.00     0.039 C 
ATOM     12  C   UNL     1      12.402  -6.655 -36.489  1.00  0.00    -0.028 CG0
ATOM     13  G   UNL     1      11.822  -7.813 -35.707  1.00  0.00     0.000 G0
ENDBRANCH   9  10
ENDBRANCH   8   9
ENDBRANCH   2   8
BRANCH   1  14
ATOM     14  C   UNL     1      12.707  -8.260 -32.090  1.00  0.00     0.192 C 
ATOM     15  C   UNL     1      11.742  -8.486 -33.223  1.00  0.00     0.096 C 
ATOM     16  O   UNL     1      13.084  -8.908 -33.285  1.00  0.00    -0.362 OA
ATOM     17  C   UNL     1      10.795  -9.681 -33.114  1.00  0.00     0.045 C 
BRANCH  15  18
ATOM     18  C   UNL     1      11.421  -7.412 -34.288  1.00  0.00     0.042 C 
BRANCH  18  19
ATOM     19  C   UNL     1      11.827  -7.829 -35.717  1.00  0.00     0.030 CG0
ATOM     20  G   UNL     1      12.396  -6.662 -36.494  1.00  0.00     0.000 G0
ENDBRANCH  18  19
ENDBRANCH  15  18
ENDBRANCH   1  14
TORSDOF 0
ENDMDL
MODEL 6
REMARK VINA RESULT:    -3.809      1.875      2.367
REMARK INTER + INTRA:          -5.270
REMARK INTER:                  -5.157
REMARK INTRA:                  -0.113
REMARK UNBOUND:                -0.124
REMARK SMILES C=C1C(=O)O[C@H]2[C@H]1CCC(C)=CCC[C@@]1(C)O[C@@H]21
REMARK SMILES IDX 6 1 7 2 2 3 1 4 3 5 4 6 5 7 8 8 9 9 10 10 11 11 12 12 18 14
REMARK SMILES IDX 15 15 17 16 16 17 14 18 13 19
REMARK H PARENT
REMARK Flexibility Score: 70.00
ROOT
ATOM      1  C   UNL     1      15.930  -6.175 -33.007  1.00  0.00     0.216 C 
ATOM      2  C   UNL     1      14.943  -6.126 -31.780  1.00  0.00     0.070 C 
ATOM      3  C   UNL     1      15.850  -5.778 -30.633  1.00  0.00     0.037 C 
ATOM      4  C   UNL     1      15.487  -5.625 -29.358  1.00  0.00     0.021 C 
ATOM      5  C   UNL     1      17.134  -5.421 -31.181  1.00  0.00     0.334 C 
ATOM      6  O   UNL     1      18.118  -4.991 -30.524  1.00  0.00    -0.247 OA
ATOM      7  O   UNL     1      17.139  -5.573 -32.548  1.00  0.00    -0.455 OA
ENDROOT
BRANCH   2   8
ATOM      8  C   UNL     1      14.168  -7.458 -31.563  1.00  0.00     0.017 C 
BRANCH   8   9
ATOM      9  C   UNL     1      12.770  -7.440 -32.220  1.00  0.00     0.031 C 
BRANCH   9  10
ATOM     10  C   UNL     1      12.418  -8.768 -32.869  1.00  0.00    -0.077 C 
ATOM     11  C   UNL     1      12.069  -9.930 -31.977  1.00  0.00     0.039 C 
ATOM     12  C   UNL     1      12.420  -8.961 -34.210  1.00  0.00    -0.028 CG0
ATOM     13  G   UNL     1      12.802  -7.916 -35.236  1.00  0.00     0.000 G0
ENDBRANCH   9  10
ENDBRANCH   8   9
ENDBRANCH   2   8
BRANCH   1  14
ATOM     14  C   UNL     1      15.443  -5.438 -34.277  1.00  0.00     0.192 C 
ATOM     15  C   UNL     1      14.695  -6.172 -35.356  1.00  0.00     0.096 C 
ATOM     16  O   UNL     1      14.037  -5.399 -34.380  1.00  0.00    -0.362 OA
ATOM     17  C   UNL     1      14.608  -5.509 -36.730  1.00  0.00     0.045 C 
BRANCH  15  18
ATOM     18  C   UNL     1      14.324  -7.670 -35.260  1.00  0.00     0.042 C 
BRANCH  18  19
ATOM     19  C   UNL     1      12.801  -7.922 -35.249  1.00  0.00     0.030 CG0
ATOM     20  G   UNL     1      12.420  -8.967 -34.223  1.00  0.00     0.000 G0
ENDBRANCH  18  19
ENDBRANCH  15  18
ENDBRANCH   1  14
TORSDOF 0
ENDMDL
MODEL 7
REMARK VINA RESULT:    -3.705      2.624      4.967
REMARK INTER + INTRA:          -5.128
REMARK INTER:                  -4.990
REMARK INTRA:                  -0.138
REMARK UNBOUND:                -0.124
REMARK SMILES C=C1C(=O)O[C@H]2[C@H]1CCC(C)=CCC[C@@]1(C)O[C@@H]21
REMARK SMILES IDX 6 1 7 2 2 3 1 4 3 5 4 6 5 7 8 8 9 9 10 10 11 11 12 12 18 14
REMARK SMILES IDX 15 15 17 16 16 17 14 18 13 19
REMARK H PARENT
REMARK Flexibility Score: 70.00
ROOT
ATOM      1  C   UNL     1      14.186  -7.481 -33.595  1.00  0.00     0.216 C 
ATOM      2  C   UNL     1      14.442  -8.102 -32.171  1.00  0.00     0.070 C 
ATOM      3  C   UNL     1      13.157  -8.825 -31.884  1.00  0.00     0.037 C 
ATOM      4  C   UNL     1      12.870  -9.516 -30.779  1.00  0.00     0.021 C 
ATOM      5  C   UNL     1      12.376  -8.830 -33.095  1.00  0.00     0.334 C 
ATOM      6  O   UNL     1      11.275  -9.421 -33.255  1.00  0.00    -0.247 OA
ATOM      7  O   UNL     1      13.016  -8.128 -34.089  1.00  0.00    -0.455 OA
ENDROOT
BRANCH   2   8
ATOM      8  C   UNL     1      14.798  -7.038 -31.093  1.00  0.00     0.017 C 
BRANCH   8   9
ATOM      9  C   UNL     1      16.321  -6.932 -30.849  1.00  0.00     0.031 C 
BRANCH   9  10
ATOM     10  C   UNL     1      16.776  -5.496 -30.648  1.00  0.00    -0.077 C 
ATOM     11  C   UNL     1      16.492  -4.834 -29.326  1.00  0.00     0.039 C 
ATOM     12  C   UNL     1      17.409  -4.778 -31.607  1.00  0.00    -0.028 CG0
ATOM     13  G   UNL     1      17.715  -5.277 -33.003  1.00  0.00     0.000 G0
ENDBRANCH   9  10
ENDBRANCH   8   9
ENDBRANCH   2   8
BRANCH   1  14
ATOM     14  C   UNL     1      15.338  -7.661 -34.613  1.00  0.00     0.192 C 
ATOM     15  C   UNL     1      16.412  -6.618 -34.755  1.00  0.00     0.096 C 
ATOM     16  O   UNL     1      16.598  -7.788 -33.993  1.00  0.00    -0.362 OA
ATOM     17  C   UNL     1      17.263  -6.651 -36.025  1.00  0.00     0.045 C 
BRANCH  15  18
ATOM     18  C   UNL     1      16.473  -5.341 -33.885  1.00  0.00     0.042 C 
BRANCH  18  19
ATOM     19  C   UNL     1      17.739  -5.263 -33.005  1.00  0.00     0.030 CG0
ATOM     20  G   UNL     1      17.414  -4.767 -31.613  1.00  0.00     0.000 G0
ENDBRANCH  18  19
ENDBRANCH  15  18
ENDBRANCH   1  14
TORSDOF 0
ENDMDL
MODEL 8
REMARK VINA RESULT:    -3.670      1.906      3.704
REMARK INTER + INTRA:          -5.081
REMARK INTER:                  -5.093
REMARK INTRA:                   0.012
REMARK UNBOUND:                -0.124
REMARK SMILES C=C1C(=O)O[C@H]2[C@H]1CCC(C)=CCC[C@@]1(C)O[C@@H]21
REMARK SMILES IDX 6 1 7 2 2 3 1 4 3 5 4 6 5 7 8 8 9 9 10 10 11 11 12 12 18 14
REMARK SMILES IDX 15 15 17 16 16 17 14 18 13 19
REMARK H PARENT
REMARK Flexibility Score: 70.00
ROOT
ATOM      1  C   UNL     1      14.425  -5.868 -31.265  1.00  0.00     0.216 C 
ATOM      2  C   UNL     1      15.876  -6.379 -30.923  1.00  0.00     0.070 C 
ATOM      3  C   UNL     1      16.242  -5.565 -29.715  1.00  0.00     0.037 C 
ATOM      4  C   UNL     1      17.394  -5.624 -29.043  1.00  0.00     0.021 C 
ATOM      5  C   UNL     1      15.057  -4.874 -29.275  1.00  0.00     0.334 C 
ATOM      6  O   UNL     1      14.963  -4.165 -28.238  1.00  0.00    -0.247 OA
ATOM      7  O   UNL     1      14.005  -5.124 -30.125  1.00  0.00    -0.455 OA
ENDROOT
BRANCH   2   8
ATOM      8  C   UNL     1      16.879  -6.209 -32.101  1.00  0.00     0.017 C 
BRANCH   8   9
ATOM      9  C   UNL     1      16.752  -7.335 -33.151  1.00  0.00     0.031 C 
BRANCH   9  10
ATOM     10  C   UNL     1      16.802  -6.807 -34.575  1.00  0.00    -0.077 C 
ATOM     11  C   UNL     1      18.059  -6.121 -35.040  1.00  0.00     0.039 C 
ATOM     12  C   UNL     1      15.763  -6.908 -35.440  1.00  0.00    -0.028 CG0
ATOM     13  G   UNL     1      14.416  -7.514 -35.110  1.00  0.00     0.000 G0
ENDBRANCH   9  10
ENDBRANCH   8   9
ENDBRANCH   2   8
BRANCH   1  14
ATOM     14  C   UNL     1      13.387  -6.976 -31.563  1.00  0.00     0.192 C 
ATOM     15  C   UNL     1      12.973  -7.285 -32.975  1.00  0.00     0.096 C 
ATOM     16  O   UNL     1      13.934  -8.054 -32.290  1.00  0.00    -0.362 OA
ATOM     17  C   UNL     1      11.679  -8.075 -33.174  1.00  0.00     0.045 C 
BRANCH  15  18
ATOM     18  C   UNL     1      13.571  -6.571 -34.210  1.00  0.00     0.042 C 
BRANCH  18  19
ATOM     19  C   UNL     1      14.404  -7.506 -35.111  1.00  0.00     0.030 CG0
ATOM     20  G   UNL     1      15.753  -6.903 -35.437  1.00  0.00     0.000 G0
ENDBRANCH  18  19
ENDBRANCH  15  18
ENDBRANCH   1  14
TORSDOF 0
ENDMDL
MODEL 9
REMARK VINA RESULT:    -3.648      4.269      7.009
REMARK INTER + INTRA:          -5.052
REMARK INTER:                  -4.919
REMARK INTRA:                  -0.133
REMARK UNBOUND:                -0.124
REMARK SMILES C=C1C(=O)O[C@H]2[C@H]1CCC(C)=CCC[C@@]1(C)O[C@@H]21
REMARK SMILES IDX 6 1 7 2 2 3 1 4 3 5 4 6 5 7 8 8 9 9 10 10 11 11 12 12 18 14
REMARK SMILES IDX 15 15 17 16 16 17 14 18 13 19
REMARK H PARENT
REMARK Flexibility Score: 70.00
ROOT
ATOM      1  C   UNL     1      10.997  -7.668 -34.330  1.00  0.00     0.216 C 
ATOM      2  C   UNL     1      11.225  -7.199 -35.817  1.00  0.00     0.070 C 
ATOM      3  C   UNL     1       9.827  -7.110 -36.359  1.00  0.00     0.037 C 
ATOM      4  C   UNL     1       9.482  -6.755 -37.598  1.00  0.00     0.021 C 
ATOM      5  C   UNL     1       8.916  -7.256 -35.252  1.00  0.00     0.334 C 
ATOM      6  O   UNL     1       7.663  -7.149 -35.313  1.00  0.00    -0.247 OA
ATOM      7  O   UNL     1       9.604  -7.492 -34.084  1.00  0.00    -0.455 OA
ENDROOT
BRANCH   2   8
ATOM      8  C   UNL     1      12.135  -8.164 -36.631  1.00  0.00     0.017 C 
BRANCH   8   9
ATOM      9  C   UNL     1      13.568  -7.612 -36.811  1.00  0.00     0.031 C 
BRANCH   9  10
ATOM     10  C   UNL     1      14.624  -8.698 -36.703  1.00  0.00    -0.077 C 
ATOM     11  C   UNL     1      14.859  -9.589 -37.894  1.00  0.00     0.039 C 
ATOM     12  C   UNL     1      15.353  -8.915 -35.581  1.00  0.00    -0.028 CG0
ATOM     13  G   UNL     1      15.198  -8.148 -34.286  1.00  0.00     0.000 G0
ENDBRANCH   9  10
ENDBRANCH   8   9
ENDBRANCH   2   8
BRANCH   1  14
ATOM     14  C   UNL     1      11.806  -6.895 -33.261  1.00  0.00     0.192 C 
ATOM     15  C   UNL     1      13.189  -7.339 -32.870  1.00  0.00     0.096 C 
ATOM     16  O   UNL     1      12.968  -6.293 -33.787  1.00  0.00    -0.362 OA
ATOM     17  C   UNL     1      13.756  -6.805 -31.555  1.00  0.00     0.045 C 
BRANCH  15  18
ATOM     18  C   UNL     1      13.909  -8.542 -33.523  1.00  0.00     0.042 C 
BRANCH  18  19
ATOM     19  C   UNL     1      15.202  -8.149 -34.267  1.00  0.00     0.030 CG0
ATOM     20  G   UNL     1      15.338  -8.899 -35.575  1.00  0.00     0.000 G0
ENDBRANCH  18  19
ENDBRANCH  15  18
ENDBRANCH   1  14
TORSDOF 0
ENDMDL
