MODEL 1
REMARK VINA RESULT:    -6.352      0.000      0.000
REMARK INTER + INTRA:         -17.431
REMARK INTER:                 -14.521
REMARK INTRA:                  -2.910
REMARK UNBOUND:                -2.910
REMARK SMILES CCCCCCCCCCCCCCCCCCCCCCCC(=O)[O-]
REMARK SMILES IDX 13 1 14 2 15 3 16 4 17 5 18 6 19 7 20 8 21 9 22 10 23 11
REMARK SMILES IDX 24 12 25 13 26 14 12 15 11 16 10 17 9 18 8 19 7 20 6 21 5 22
REMARK SMILES IDX 4 23 3 24 2 25 1 26
REMARK H PARENT
REMARK Flexibility Score: inf
ROOT
ATOM      1  C   UNL     1      -2.843  39.521 101.683  1.00  0.00     0.000 C 
ENDROOT
BRANCH   1   2
ATOM      2  C   UNL     1      -2.241  40.029 103.003  1.00  0.00     0.000 C 
BRANCH   2   3
ATOM      3  C   UNL     1      -0.768  40.474 102.845  1.00  0.00     0.000 C 
BRANCH   3   4
ATOM      4  C   UNL     1      -0.547  41.956 103.200  1.00  0.00     0.000 C 
BRANCH   4   5
ATOM      5  C   UNL     1      -1.853  42.691 103.581  1.00  0.00     0.000 C 
BRANCH   5   6
ATOM      6  C   UNL     1      -1.811  44.201 103.294  1.00  0.00     0.000 C 
BRANCH   6   7
ATOM      7  C   UNL     1      -2.588  44.585 102.026  1.00  0.00     0.000 C 
BRANCH   7   8
ATOM      8  C   UNL     1      -3.846  43.727 101.816  1.00  0.00     0.000 C 
BRANCH   8   9
ATOM      9  C   UNL     1      -3.913  43.074 100.419  1.00  0.00     0.000 C 
BRANCH   9  10
ATOM     10  C   UNL     1      -4.629  43.970  99.395  1.00  0.00     0.006 C 
BRANCH  10  11
ATOM     11  C   UNL     1      -4.590  43.386  97.977  1.00  0.00     0.053 C 
BRANCH  11  12
ATOM     12  C   UNL     1      -5.272  44.274  96.982  1.00  0.00     0.041 C 
ATOM     13  O   UNL     1      -5.815  43.781  95.960  1.00  0.00    -0.550 OA
ATOM     14  O   UNL     1      -5.294  45.649  97.181  1.00  0.00    -0.550 OA
ENDBRANCH  11  12
ENDBRANCH  10  11
ENDBRANCH   9  10
ENDBRANCH   8   9
ENDBRANCH   7   8
ENDBRANCH   6   7
ENDBRANCH   5   6
ENDBRANCH   4   5
ENDBRANCH   3   4
ENDBRANCH   2   3
ENDBRANCH   1   2
BRANCH   1  15
ATOM     15  C   UNL     1      -2.046  38.356 101.065  1.00  0.00     0.000 C 
BRANCH  15  16
ATOM     16  C   UNL     1      -2.575  36.951 101.404  1.00  0.00     0.000 C 
BRANCH  16  17
ATOM     17  C   UNL     1      -3.947  36.977 102.099  1.00  0.00     0.000 C 
BRANCH  17  18
ATOM     18  C   UNL     1      -5.095  36.647 101.129  1.00  0.00    -0.000 C 
BRANCH  18  19
ATOM     19  C   UNL     1      -5.028  35.200 100.613  1.00  0.00    -0.000 C 
BRANCH  19  20
ATOM     20  C   UNL     1      -5.772  35.008  99.281  1.00  0.00    -0.000 C 
BRANCH  20  21
ATOM     21  C   UNL     1      -4.841  34.687  98.091  1.00  0.00    -0.000 C 
BRANCH  21  22
ATOM     22  C   UNL     1      -3.424  35.245  98.294  1.00  0.00    -0.000 C 
BRANCH  22  23
ATOM     23  C   UNL     1      -3.269  36.609  97.602  1.00  0.00    -0.000 C 
BRANCH  23  24
ATOM     24  C   UNL     1      -4.476  36.972  96.724  1.00  0.00    -0.000 C 
BRANCH  24  25
ATOM     25  C   UNL     1      -5.184  38.255  97.188  1.00  0.00    -0.003 C 
ATOM     26  C   UNL     1      -4.463  38.878  98.380  1.00  0.00     0.004 C 
ENDBRANCH  24  25
ENDBRANCH  23  24
ENDBRANCH  22  23
ENDBRANCH  21  22
ENDBRANCH  20  21
ENDBRANCH  19  20
ENDBRANCH  18  19
ENDBRANCH  17  18
ENDBRANCH  16  17
ENDBRANCH  15  16
ENDBRANCH   1  15
TORSDOF 22
ENDMDL
MODEL 2
REMARK VINA RESULT:    -6.199      2.816      3.163
REMARK INTER + INTRA:         -17.080
REMARK INTER:                 -14.460
REMARK INTRA:                  -2.621
REMARK UNBOUND:                -2.910
REMARK SMILES CCCCCCCCCCCCCCCCCCCCCCCC(=O)[O-]
REMARK SMILES IDX 13 1 14 2 15 3 16 4 17 5 18 6 19 7 20 8 21 9 22 10 23 11
REMARK SMILES IDX 24 12 25 13 26 14 12 15 11 16 10 17 9 18 8 19 7 20 6 21 5 22
REMARK SMILES IDX 4 23 3 24 2 25 1 26
REMARK H PARENT
REMARK Flexibility Score: inf
ROOT
ATOM      1  C   UNL     1      -2.808  39.600 101.838  1.00  0.00     0.000 C 
ENDROOT
BRANCH   1   2
ATOM      2  C   UNL     1      -2.304  40.300 103.111  1.00  0.00     0.000 C 
BRANCH   2   3
ATOM      3  C   UNL     1      -0.836  40.771 102.983  1.00  0.00     0.000 C 
BRANCH   3   4
ATOM      4  C   UNL     1      -0.660  42.274 103.268  1.00  0.00     0.000 C 
BRANCH   4   5
ATOM      5  C   UNL     1      -1.995  42.998 103.558  1.00  0.00     0.000 C 
BRANCH   5   6
ATOM      6  C   UNL     1      -1.827  44.282 104.387  1.00  0.00     0.000 C 
BRANCH   6   7
ATOM      7  C   UNL     1      -3.137  45.071 104.527  1.00  0.00     0.000 C 
BRANCH   7   8
ATOM      8  C   UNL     1      -4.127  44.414 105.503  1.00  0.00     0.000 C 
BRANCH   8   9
ATOM      9  C   UNL     1      -5.425  43.931 104.821  1.00  0.00     0.000 C 
BRANCH   9  10
ATOM     10  C   UNL     1      -5.488  44.344 103.341  1.00  0.00     0.006 C 
BRANCH  10  11
ATOM     11  C   UNL     1      -6.906  44.240 102.764  1.00  0.00     0.053 C 
BRANCH  11  12
ATOM     12  C   UNL     1      -7.857  45.185 103.433  1.00  0.00     0.041 C 
ATOM     13  O   UNL     1      -8.905  44.751 103.977  1.00  0.00    -0.550 OA
ATOM     14  O   UNL     1      -7.589  46.549 103.440  1.00  0.00    -0.550 OA
ENDBRANCH  11  12
ENDBRANCH  10  11
ENDBRANCH   9  10
ENDBRANCH   8   9
ENDBRANCH   7   8
ENDBRANCH   6   7
ENDBRANCH   5   6
ENDBRANCH   4   5
ENDBRANCH   3   4
ENDBRANCH   2   3
ENDBRANCH   1   2
BRANCH   1  15
ATOM     15  C   UNL     1      -1.921  38.414 101.412  1.00  0.00     0.000 C 
BRANCH  15  16
ATOM     16  C   UNL     1      -2.654  37.067 101.276  1.00  0.00     0.000 C 
BRANCH  16  17
ATOM     17  C   UNL     1      -3.967  37.015 102.076  1.00  0.00     0.000 C 
BRANCH  17  18
ATOM     18  C   UNL     1      -5.144  36.503 101.228  1.00  0.00    -0.000 C 
BRANCH  18  19
ATOM     19  C   UNL     1      -4.811  35.195 100.491  1.00  0.00    -0.000 C 
BRANCH  19  20
ATOM     20  C   UNL     1      -5.709  34.957  99.266  1.00  0.00    -0.000 C 
BRANCH  20  21
ATOM     21  C   UNL     1      -4.930  34.861  97.935  1.00  0.00    -0.000 C 
BRANCH  21  22
ATOM     22  C   UNL     1      -3.469  35.311  98.082  1.00  0.00    -0.000 C 
BRANCH  22  23
ATOM     23  C   UNL     1      -3.251  36.687  97.431  1.00  0.00    -0.000 C 
BRANCH  23  24
ATOM     24  C   UNL     1      -4.490  37.190  96.674  1.00  0.00    -0.000 C 
BRANCH  24  25
ATOM     25  C   UNL     1      -5.184  38.362  97.386  1.00  0.00    -0.003 C 
ATOM     26  C   UNL     1      -4.309  38.921  98.504  1.00  0.00     0.004 C 
ENDBRANCH  24  25
ENDBRANCH  23  24
ENDBRANCH  22  23
ENDBRANCH  21  22
ENDBRANCH  20  21
ENDBRANCH  19  20
ENDBRANCH  18  19
ENDBRANCH  17  18
ENDBRANCH  16  17
ENDBRANCH  15  16
ENDBRANCH   1  15
TORSDOF 22
ENDMDL
MODEL 3
REMARK VINA RESULT:    -6.010      2.830      4.081
REMARK INTER + INTRA:         -16.649
REMARK INTER:                 -13.981
REMARK INTRA:                  -2.668
REMARK UNBOUND:                -2.910
REMARK SMILES CCCCCCCCCCCCCCCCCCCCCCCC(=O)[O-]
REMARK SMILES IDX 13 1 14 2 15 3 16 4 17 5 18 6 19 7 20 8 21 9 22 10 23 11
REMARK SMILES IDX 24 12 25 13 26 14 12 15 11 16 10 17 9 18 8 19 7 20 6 21 5 22
REMARK SMILES IDX 4 23 3 24 2 25 1 26
REMARK H PARENT
REMARK Flexibility Score: inf
ROOT
ATOM      1  C   UNL     1      -2.243  41.114 102.832  1.00  0.00     0.000 C 
ENDROOT
BRANCH   1   2
ATOM      2  C   UNL     1      -3.201  42.123 103.485  1.00  0.00     0.000 C 
BRANCH   2   3
ATOM      3  C   UNL     1      -3.369  43.408 102.640  1.00  0.00     0.000 C 
BRANCH   3   4
ATOM      4  C   UNL     1      -3.986  43.138 101.254  1.00  0.00     0.000 C 
BRANCH   4   5
ATOM      5  C   UNL     1      -4.107  44.412 100.386  1.00  0.00     0.000 C 
BRANCH   5   6
ATOM      6  C   UNL     1      -4.987  44.221  99.139  1.00  0.00     0.000 C 
BRANCH   6   7
ATOM      7  C   UNL     1      -6.287  45.035  99.202  1.00  0.00     0.000 C 
BRANCH   7   8
ATOM      8  C   UNL     1      -6.617  45.522 100.623  1.00  0.00     0.000 C 
BRANCH   8   9
ATOM      9  C   UNL     1      -8.048  45.157 101.074  1.00  0.00     0.000 C 
BRANCH   9  10
ATOM     10  C   UNL     1      -8.149  44.999 102.601  1.00  0.00     0.006 C 
BRANCH  10  11
ATOM     11  C   UNL     1      -7.118  44.009 103.157  1.00  0.00     0.053 C 
BRANCH  11  12
ATOM     12  C   UNL     1      -6.361  44.576 104.319  1.00  0.00     0.041 C 
ATOM     13  O   UNL     1      -5.864  43.812 105.186  1.00  0.00    -0.550 OA
ATOM     14  O   UNL     1      -6.218  45.952 104.448  1.00  0.00    -0.550 OA
ENDBRANCH  11  12
ENDBRANCH  10  11
ENDBRANCH   9  10
ENDBRANCH   8   9
ENDBRANCH   7   8
ENDBRANCH   6   7
ENDBRANCH   5   6
ENDBRANCH   4   5
ENDBRANCH   3   4
ENDBRANCH   2   3
ENDBRANCH   1   2
BRANCH   1  15
ATOM     15  C   UNL     1      -2.864  39.714 102.662  1.00  0.00     0.000 C 
BRANCH  15  16
ATOM     16  C   UNL     1      -2.794  39.138 101.236  1.00  0.00     0.000 C 
BRANCH  16  17
ATOM     17  C   UNL     1      -2.430  37.643 101.211  1.00  0.00     0.000 C 
BRANCH  17  18
ATOM     18  C   UNL     1      -3.529  36.768 101.838  1.00  0.00    -0.000 C 
BRANCH  18  19
ATOM     19  C   UNL     1      -4.852  36.838 101.057  1.00  0.00    -0.000 C 
BRANCH  19  20
ATOM     20  C   UNL     1      -5.320  35.462 100.554  1.00  0.00    -0.000 C 
BRANCH  20  21
ATOM     21  C   UNL     1      -4.169  34.553 100.068  1.00  0.00    -0.000 C 
BRANCH  21  22
ATOM     22  C   UNL     1      -4.030  34.559  98.539  1.00  0.00    -0.000 C 
BRANCH  22  23
ATOM     23  C   UNL     1      -2.862  35.456  98.097  1.00  0.00    -0.000 C 
BRANCH  23  24
ATOM     24  C   UNL     1      -3.305  36.890  97.767  1.00  0.00    -0.000 C 
BRANCH  24  25
ATOM     25  C   UNL     1      -4.408  36.939  96.699  1.00  0.00    -0.003 C 
ATOM     26  C   UNL     1      -5.671  37.600  97.245  1.00  0.00     0.004 C 
ENDBRANCH  24  25
ENDBRANCH  23  24
ENDBRANCH  22  23
ENDBRANCH  21  22
ENDBRANCH  20  21
ENDBRANCH  19  20
ENDBRANCH  18  19
ENDBRANCH  17  18
ENDBRANCH  16  17
ENDBRANCH  15  16
ENDBRANCH   1  15
TORSDOF 22
ENDMDL
MODEL 4
REMARK VINA RESULT:    -5.997      1.908      2.771
REMARK INTER + INTRA:         -16.618
REMARK INTER:                 -13.846
REMARK INTRA:                  -2.773
REMARK UNBOUND:                -2.910
REMARK SMILES CCCCCCCCCCCCCCCCCCCCCCCC(=O)[O-]
REMARK SMILES IDX 13 1 14 2 15 3 16 4 17 5 18 6 19 7 20 8 21 9 22 10 23 11
REMARK SMILES IDX 24 12 25 13 26 14 12 15 11 16 10 17 9 18 8 19 7 20 6 21 5 22
REMARK SMILES IDX 4 23 3 24 2 25 1 26
REMARK H PARENT
REMARK Flexibility Score: inf
ROOT
ATOM      1  C   UNL     1      -1.489  40.388 102.795  1.00  0.00     0.000 C 
ENDROOT
BRANCH   1   2
ATOM      2  C   UNL     1      -1.014  41.803 103.161  1.00  0.00     0.000 C 
BRANCH   2   3
ATOM      3  C   UNL     1      -2.112  42.869 102.938  1.00  0.00     0.000 C 
BRANCH   3   4
ATOM      4  C   UNL     1      -2.191  43.899 104.080  1.00  0.00     0.000 C 
BRANCH   4   5
ATOM      5  C   UNL     1      -3.620  44.073 104.644  1.00  0.00     0.000 C 
BRANCH   5   6
ATOM      6  C   UNL     1      -4.446  42.776 104.630  1.00  0.00     0.000 C 
BRANCH   6   7
ATOM      7  C   UNL     1      -5.951  43.030 104.801  1.00  0.00     0.000 C 
BRANCH   7   8
ATOM      8  C   UNL     1      -6.384  44.413 104.286  1.00  0.00     0.000 C 
BRANCH   8   9
ATOM      9  C   UNL     1      -7.016  44.368 102.879  1.00  0.00     0.000 C 
BRANCH   9  10
ATOM     10  C   UNL     1      -6.136  45.066 101.828  1.00  0.00     0.006 C 
BRANCH  10  11
ATOM     11  C   UNL     1      -6.761  45.035 100.427  1.00  0.00     0.053 C 
BRANCH  11  12
ATOM     12  C   UNL     1      -6.300  46.180  99.578  1.00  0.00     0.041 C 
ATOM     13  O   UNL     1      -6.666  47.354  99.843  1.00  0.00    -0.550 OA
ATOM     14  O   UNL     1      -5.476  45.944  98.484  1.00  0.00    -0.550 OA
ENDBRANCH  11  12
ENDBRANCH  10  11
ENDBRANCH   9  10
ENDBRANCH   8   9
ENDBRANCH   7   8
ENDBRANCH   6   7
ENDBRANCH   5   6
ENDBRANCH   4   5
ENDBRANCH   3   4
ENDBRANCH   2   3
ENDBRANCH   1   2
BRANCH   1  15
ATOM     15  C   UNL     1      -2.845  40.377 102.064  1.00  0.00     0.000 C 
BRANCH  15  16
ATOM     16  C   UNL     1      -3.055  39.201 101.093  1.00  0.00     0.000 C 
BRANCH  16  17
ATOM     17  C   UNL     1      -2.115  38.016 101.375  1.00  0.00     0.000 C 
BRANCH  17  18
ATOM     18  C   UNL     1      -2.884  36.697 101.564  1.00  0.00    -0.000 C 
BRANCH  18  19
ATOM     19  C   UNL     1      -4.407  36.893 101.501  1.00  0.00    -0.000 C 
BRANCH  19  20
ATOM     20  C   UNL     1      -5.122  35.761 100.743  1.00  0.00    -0.000 C 
BRANCH  20  21
ATOM     21  C   UNL     1      -4.171  34.654 100.239  1.00  0.00    -0.000 C 
BRANCH  21  22
ATOM     22  C   UNL     1      -4.109  34.594  98.706  1.00  0.00    -0.000 C 
BRANCH  22  23
ATOM     23  C   UNL     1      -2.870  35.335  98.178  1.00  0.00    -0.000 C 
BRANCH  23  24
ATOM     24  C   UNL     1      -3.175  36.782  97.761  1.00  0.00    -0.000 C 
BRANCH  24  25
ATOM     25  C   UNL     1      -4.594  36.950  97.197  1.00  0.00    -0.003 C 
ATOM     26  C   UNL     1      -5.320  38.109  97.874  1.00  0.00     0.004 C 
ENDBRANCH  24  25
ENDBRANCH  23  24
ENDBRANCH  22  23
ENDBRANCH  21  22
ENDBRANCH  20  21
ENDBRANCH  19  20
ENDBRANCH  18  19
ENDBRANCH  17  18
ENDBRANCH  16  17
ENDBRANCH  15  16
ENDBRANCH   1  15
TORSDOF 22
ENDMDL
MODEL 5
REMARK VINA RESULT:    -5.976      1.932      7.178
REMARK INTER + INTRA:         -16.572
REMARK INTER:                 -14.241
REMARK INTRA:                  -2.331
REMARK UNBOUND:                -2.910
REMARK SMILES CCCCCCCCCCCCCCCCCCCCCCCC(=O)[O-]
REMARK SMILES IDX 13 1 14 2 15 3 16 4 17 5 18 6 19 7 20 8 21 9 22 10 23 11
REMARK SMILES IDX 24 12 25 13 26 14 12 15 11 16 10 17 9 18 8 19 7 20 6 21 5 22
REMARK SMILES IDX 4 23 3 24 2 25 1 26
REMARK H PARENT
REMARK Flexibility Score: inf
ROOT
ATOM      1  C   UNL     1      -2.328  40.333 102.227  1.00  0.00     0.000 C 
ENDROOT
BRANCH   1   2
ATOM      2  C   UNL     1      -2.863  38.909 102.448  1.00  0.00     0.000 C 
BRANCH   2   3
ATOM      3  C   UNL     1      -2.096  37.857 101.613  1.00  0.00     0.000 C 
BRANCH   3   4
ATOM      4  C   UNL     1      -2.871  36.535 101.453  1.00  0.00     0.000 C 
BRANCH   4   5
ATOM      5  C   UNL     1      -4.404  36.730 101.427  1.00  0.00     0.000 C 
BRANCH   5   6
ATOM      6  C   UNL     1      -5.146  35.641 100.634  1.00  0.00     0.000 C 
BRANCH   6   7
ATOM      7  C   UNL     1      -4.214  34.520 100.153  1.00  0.00     0.000 C 
BRANCH   7   8
ATOM      8  C   UNL     1      -4.058  34.488  98.624  1.00  0.00     0.000 C 
BRANCH   8   9
ATOM      9  C   UNL     1      -2.848  35.301  98.117  1.00  0.00     0.000 C 
BRANCH   9  10
ATOM     10  C   UNL     1      -3.278  36.590  97.397  1.00  0.00     0.006 C 
BRANCH  10  11
ATOM     11  C   UNL     1      -4.786  36.628  97.114  1.00  0.00     0.053 C 
BRANCH  11  12
ATOM     12  C   UNL     1      -5.401  37.936  97.507  1.00  0.00     0.041 C 
ATOM     13  O   UNL     1      -6.336  38.428  96.824  1.00  0.00    -0.550 OA
ATOM     14  O   UNL     1      -4.930  38.616  98.623  1.00  0.00    -0.550 OA
ENDBRANCH  11  12
ENDBRANCH  10  11
ENDBRANCH   9  10
ENDBRANCH   8   9
ENDBRANCH   7   8
ENDBRANCH   6   7
ENDBRANCH   5   6
ENDBRANCH   4   5
ENDBRANCH   3   4
ENDBRANCH   2   3
ENDBRANCH   1   2
BRANCH   1  15
ATOM     15  C   UNL     1      -0.910  40.540 102.794  1.00  0.00     0.000 C 
BRANCH  15  16
ATOM     16  C   UNL     1      -0.571  41.987 103.194  1.00  0.00     0.000 C 
BRANCH  16  17
ATOM     17  C   UNL     1      -1.807  42.793 103.633  1.00  0.00     0.000 C 
BRANCH  17  18
ATOM     18  C   UNL     1      -1.709  44.273 103.225  1.00  0.00    -0.000 C 
BRANCH  18  19
ATOM     19  C   UNL     1      -2.599  44.608 102.017  1.00  0.00    -0.000 C 
BRANCH  19  20
ATOM     20  C   UNL     1      -3.815  43.673 101.895  1.00  0.00    -0.000 C 
BRANCH  20  21
ATOM     21  C   UNL     1      -4.731  43.999 100.695  1.00  0.00    -0.000 C 
BRANCH  21  22
ATOM     22  C   UNL     1      -4.152  43.491  99.366  1.00  0.00    -0.000 C 
BRANCH  22  23
ATOM     23  C   UNL     1      -4.528  44.431  98.209  1.00  0.00    -0.000 C 
BRANCH  23  24
ATOM     24  C   UNL     1      -4.069  43.904  96.841  1.00  0.00    -0.000 C 
BRANCH  24  25
ATOM     25  C   UNL     1      -5.197  43.208  96.064  1.00  0.00    -0.003 C 
ATOM     26  C   UNL     1      -5.117  41.692  96.220  1.00  0.00     0.004 C 
ENDBRANCH  24  25
ENDBRANCH  23  24
ENDBRANCH  22  23
ENDBRANCH  21  22
ENDBRANCH  20  21
ENDBRANCH  19  20
ENDBRANCH  18  19
ENDBRANCH  17  18
ENDBRANCH  16  17
ENDBRANCH  15  16
ENDBRANCH   1  15
TORSDOF 22
ENDMDL
MODEL 6
REMARK VINA RESULT:    -5.895      3.198      4.256
REMARK INTER + INTRA:         -16.386
REMARK INTER:                 -13.292
REMARK INTRA:                  -3.094
REMARK UNBOUND:                -2.910
REMARK SMILES CCCCCCCCCCCCCCCCCCCCCCCC(=O)[O-]
REMARK SMILES IDX 13 1 14 2 15 3 16 4 17 5 18 6 19 7 20 8 21 9 22 10 23 11
REMARK SMILES IDX 24 12 25 13 26 14 12 15 11 16 10 17 9 18 8 19 7 20 6 21 5 22
REMARK SMILES IDX 4 23 3 24 2 25 1 26
REMARK H PARENT
REMARK Flexibility Score: inf
ROOT
ATOM      1  C   UNL     1      -2.868  39.697 102.712  1.00  0.00     0.000 C 
ENDROOT
BRANCH   1   2
ATOM      2  C   UNL     1      -1.961  40.937 102.773  1.00  0.00     0.000 C 
BRANCH   2   3
ATOM      3  C   UNL     1      -2.653  42.140 103.457  1.00  0.00     0.000 C 
BRANCH   3   4
ATOM      4  C   UNL     1      -2.002  43.489 103.101  1.00  0.00     0.000 C 
BRANCH   4   5
ATOM      5  C   UNL     1      -2.825  44.312 102.084  1.00  0.00     0.000 C 
BRANCH   5   6
ATOM      6  C   UNL     1      -4.141  43.632 101.670  1.00  0.00     0.000 C 
BRANCH   6   7
ATOM      7  C   UNL     1      -5.381  44.392 102.163  1.00  0.00     0.000 C 
BRANCH   7   8
ATOM      8  C   UNL     1      -6.119  43.659 103.295  1.00  0.00     0.000 C 
BRANCH   8   9
ATOM      9  C   UNL     1      -6.240  44.496 104.586  1.00  0.00     0.000 C 
BRANCH   9  10
ATOM     10  C   UNL     1      -5.062  45.471 104.756  1.00  0.00     0.006 C 
BRANCH  10  11
ATOM     11  C   UNL     1      -4.050  44.988 105.802  1.00  0.00     0.053 C 
BRANCH  11  12
ATOM     12  C   UNL     1      -2.887  45.924 105.936  1.00  0.00     0.041 C 
ATOM     13  O   UNL     1      -1.711  45.479 105.926  1.00  0.00    -0.550 OA
ATOM     14  O   UNL     1      -3.109  47.287 106.087  1.00  0.00    -0.550 OA
ENDBRANCH  11  12
ENDBRANCH  10  11
ENDBRANCH   9  10
ENDBRANCH   8   9
ENDBRANCH   7   8
ENDBRANCH   6   7
ENDBRANCH   5   6
ENDBRANCH   4   5
ENDBRANCH   3   4
ENDBRANCH   2   3
ENDBRANCH   1   2
BRANCH   1  15
ATOM     15  C   UNL     1      -2.867  39.016 101.330  1.00  0.00     0.000 C 
BRANCH  15  16
ATOM     16  C   UNL     1      -2.360  37.563 101.318  1.00  0.00     0.000 C 
BRANCH  16  17
ATOM     17  C   UNL     1      -3.405  36.558 101.832  1.00  0.00     0.000 C 
BRANCH  17  18
ATOM     18  C   UNL     1      -4.784  36.774 101.185  1.00  0.00    -0.000 C 
BRANCH  18  19
ATOM     19  C   UNL     1      -5.487  35.450 100.846  1.00  0.00    -0.000 C 
BRANCH  19  20
ATOM     20  C   UNL     1      -5.285  35.027  99.381  1.00  0.00    -0.000 C 
BRANCH  20  21
ATOM     21  C   UNL     1      -3.917  34.364  99.109  1.00  0.00    -0.000 C 
BRANCH  21  22
ATOM     22  C   UNL     1      -2.968  35.287  98.330  1.00  0.00    -0.000 C 
BRANCH  22  23
ATOM     23  C   UNL     1      -3.758  36.319  97.509  1.00  0.00    -0.000 C 
BRANCH  23  24
ATOM     24  C   UNL     1      -3.495  37.765  97.957  1.00  0.00    -0.000 C 
BRANCH  24  25
ATOM     25  C   UNL     1      -4.782  38.598  98.061  1.00  0.00    -0.003 C 
ATOM     26  C   UNL     1      -5.918  37.953  97.271  1.00  0.00     0.004 C 
ENDBRANCH  24  25
ENDBRANCH  23  24
ENDBRANCH  22  23
ENDBRANCH  21  22
ENDBRANCH  20  21
ENDBRANCH  19  20
ENDBRANCH  18  19
ENDBRANCH  17  18
ENDBRANCH  16  17
ENDBRANCH  15  16
ENDBRANCH   1  15
TORSDOF 22
ENDMDL
MODEL 7
REMARK VINA RESULT:    -5.892      3.568      4.245
REMARK INTER + INTRA:         -16.379
REMARK INTER:                 -14.069
REMARK INTRA:                  -2.311
REMARK UNBOUND:                -2.910
REMARK SMILES CCCCCCCCCCCCCCCCCCCCCCCC(=O)[O-]
REMARK SMILES IDX 13 1 14 2 15 3 16 4 17 5 18 6 19 7 20 8 21 9 22 10 23 11
REMARK SMILES IDX 24 12 25 13 26 14 12 15 11 16 10 17 9 18 8 19 7 20 6 21 5 22
REMARK SMILES IDX 4 23 3 24 2 25 1 26
REMARK H PARENT
REMARK Flexibility Score: inf
ROOT
ATOM      1  C   UNL     1      -2.022  41.015 103.025  1.00  0.00     0.000 C 
ENDROOT
BRANCH   1   2
ATOM      2  C   UNL     1      -3.245  41.939 102.899  1.00  0.00     0.000 C 
BRANCH   2   3
ATOM      3  C   UNL     1      -3.553  42.691 104.215  1.00  0.00     0.000 C 
BRANCH   3   4
ATOM      4  C   UNL     1      -5.048  42.666 104.585  1.00  0.00     0.000 C 
BRANCH   4   5
ATOM      5  C   UNL     1      -5.532  43.977 105.247  1.00  0.00     0.000 C 
BRANCH   5   6
ATOM      6  C   UNL     1      -6.278  44.911 104.280  1.00  0.00     0.000 C 
BRANCH   6   7
ATOM      7  C   UNL     1      -6.770  44.187 103.018  1.00  0.00     0.000 C 
BRANCH   7   8
ATOM      8  C   UNL     1      -6.336  44.889 101.721  1.00  0.00     0.000 C 
BRANCH   8   9
ATOM      9  C   UNL     1      -7.438  45.783 101.113  1.00  0.00     0.000 C 
BRANCH   9  10
ATOM     10  C   UNL     1      -8.832  45.144 101.233  1.00  0.00     0.006 C 
BRANCH  10  11
ATOM     11  C   UNL     1      -9.866  46.103 101.834  1.00  0.00     0.053 C 
BRANCH  11  12
ATOM     12  C   UNL     1      -9.998  45.935 103.317  1.00  0.00     0.041 C 
ATOM     13  O   UNL     1      -9.296  46.627 104.099  1.00  0.00    -0.550 OA
ATOM     14  O   UNL     1     -10.888  45.000 103.832  1.00  0.00    -0.550 OA
ENDBRANCH  11  12
ENDBRANCH  10  11
ENDBRANCH   9  10
ENDBRANCH   8   9
ENDBRANCH   7   8
ENDBRANCH   6   7
ENDBRANCH   5   6
ENDBRANCH   4   5
ENDBRANCH   3   4
ENDBRANCH   2   3
ENDBRANCH   1   2
BRANCH   1  15
ATOM     15  C   UNL     1      -2.353  39.535 102.753  1.00  0.00     0.000 C 
BRANCH  15  16
ATOM     16  C   UNL     1      -2.912  39.239 101.350  1.00  0.00     0.000 C 
BRANCH  16  17
ATOM     17  C   UNL     1      -2.620  37.804 100.879  1.00  0.00     0.000 C 
BRANCH  17  18
ATOM     18  C   UNL     1      -3.341  36.752 101.739  1.00  0.00    -0.000 C 
BRANCH  18  19
ATOM     19  C   UNL     1      -4.842  36.661 101.418  1.00  0.00    -0.000 C 
BRANCH  19  20
ATOM     20  C   UNL     1      -5.172  35.532 100.427  1.00  0.00    -0.000 C 
BRANCH  20  21
ATOM     21  C   UNL     1      -3.971  34.613 100.111  1.00  0.00    -0.000 C 
BRANCH  21  22
ATOM     22  C   UNL     1      -3.427  34.834  98.692  1.00  0.00    -0.000 C 
BRANCH  22  23
ATOM     23  C   UNL     1      -4.390  35.702  97.865  1.00  0.00    -0.000 C 
BRANCH  23  24
ATOM     24  C   UNL     1      -3.795  37.072  97.505  1.00  0.00    -0.000 C 
BRANCH  24  25
ATOM     25  C   UNL     1      -4.764  38.231  97.783  1.00  0.00    -0.003 C 
ATOM     26  C   UNL     1      -6.173  37.897  97.302  1.00  0.00     0.004 C 
ENDBRANCH  24  25
ENDBRANCH  23  24
ENDBRANCH  22  23
ENDBRANCH  21  22
ENDBRANCH  20  21
ENDBRANCH  19  20
ENDBRANCH  18  19
ENDBRANCH  17  18
ENDBRANCH  16  17
ENDBRANCH  15  16
ENDBRANCH   1  15
TORSDOF 22
ENDMDL
MODEL 8
REMARK VINA RESULT:    -5.885      3.437      4.318
REMARK INTER + INTRA:         -16.364
REMARK INTER:                 -14.018
REMARK INTRA:                  -2.346
REMARK UNBOUND:                -2.910
REMARK SMILES CCCCCCCCCCCCCCCCCCCCCCCC(=O)[O-]
REMARK SMILES IDX 13 1 14 2 15 3 16 4 17 5 18 6 19 7 20 8 21 9 22 10 23 11
REMARK SMILES IDX 24 12 25 13 26 14 12 15 11 16 10 17 9 18 8 19 7 20 6 21 5 22
REMARK SMILES IDX 4 23 3 24 2 25 1 26
REMARK H PARENT
REMARK Flexibility Score: inf
ROOT
ATOM      1  C   UNL     1      -1.438  39.852 102.606  1.00  0.00     0.000 C 
ENDROOT
BRANCH   1   2
ATOM      2  C   UNL     1      -1.529  41.309 103.090  1.00  0.00     0.000 C 
BRANCH   2   3
ATOM      3  C   UNL     1      -2.992  41.773 103.286  1.00  0.00     0.000 C 
BRANCH   3   4
ATOM      4  C   UNL     1      -3.621  42.338 101.999  1.00  0.00     0.000 C 
BRANCH   4   5
ATOM      5  C   UNL     1      -3.634  43.884 101.958  1.00  0.00     0.000 C 
BRANCH   5   6
ATOM      6  C   UNL     1      -4.619  44.514 102.957  1.00  0.00     0.000 C 
BRANCH   6   7
ATOM      7  C   UNL     1      -5.904  43.690 103.121  1.00  0.00     0.000 C 
BRANCH   7   8
ATOM      8  C   UNL     1      -7.179  44.528 102.930  1.00  0.00     0.000 C 
BRANCH   8   9
ATOM      9  C   UNL     1      -7.402  44.973 101.469  1.00  0.00     0.000 C 
BRANCH   9  10
ATOM     10  C   UNL     1      -8.869  45.346 101.196  1.00  0.00     0.006 C 
BRANCH  10  11
ATOM     11  C   UNL     1      -9.338  46.537 102.041  1.00  0.00     0.053 C 
BRANCH  11  12
ATOM     12  C   UNL     1     -10.546  46.206 102.862  1.00  0.00     0.041 C 
ATOM     13  O   UNL     1     -10.667  45.067 103.382  1.00  0.00    -0.550 OA
ATOM     14  O   UNL     1     -11.545  47.156 103.039  1.00  0.00    -0.550 OA
ENDBRANCH  11  12
ENDBRANCH  10  11
ENDBRANCH   9  10
ENDBRANCH   8   9
ENDBRANCH   7   8
ENDBRANCH   6   7
ENDBRANCH   5   6
ENDBRANCH   4   5
ENDBRANCH   3   4
ENDBRANCH   2   3
ENDBRANCH   1   2
BRANCH   1  15
ATOM     15  C   UNL     1      -2.583  38.967 103.135  1.00  0.00     0.000 C 
BRANCH  15  16
ATOM     16  C   UNL     1      -2.980  37.796 102.219  1.00  0.00     0.000 C 
BRANCH  16  17
ATOM     17  C   UNL     1      -2.721  38.085 100.730  1.00  0.00     0.000 C 
BRANCH  17  18
ATOM     18  C   UNL     1      -3.787  39.014 100.124  1.00  0.00    -0.000 C 
BRANCH  18  19
ATOM     19  C   UNL     1      -3.941  38.819  98.607  1.00  0.00    -0.000 C 
BRANCH  19  20
ATOM     20  C   UNL     1      -5.140  37.929  98.239  1.00  0.00    -0.000 C 
BRANCH  20  21
ATOM     21  C   UNL     1      -4.809  36.843  97.192  1.00  0.00    -0.000 C 
BRANCH  21  22
ATOM     22  C   UNL     1      -3.301  36.563  97.102  1.00  0.00    -0.000 C 
BRANCH  22  23
ATOM     23  C   UNL     1      -2.857  35.591  98.206  1.00  0.00    -0.000 C 
BRANCH  23  24
ATOM     24  C   UNL     1      -3.967  34.613  98.620  1.00  0.00    -0.000 C 
BRANCH  24  25
ATOM     25  C   UNL     1      -4.183  34.570 100.141  1.00  0.00    -0.003 C 
ATOM     26  C   UNL     1      -5.482  35.269 100.530  1.00  0.00     0.004 C 
ENDBRANCH  24  25
ENDBRANCH  23  24
ENDBRANCH  22  23
ENDBRANCH  21  22
ENDBRANCH  20  21
ENDBRANCH  19  20
ENDBRANCH  18  19
ENDBRANCH  17  18
ENDBRANCH  16  17
ENDBRANCH  15  16
ENDBRANCH   1  15
TORSDOF 22
ENDMDL
MODEL 9
REMARK VINA RESULT:    -5.759      1.847      3.035
REMARK INTER + INTRA:         -16.075
REMARK INTER:                 -13.337
REMARK INTRA:                  -2.738
REMARK UNBOUND:                -2.910
REMARK SMILES CCCCCCCCCCCCCCCCCCCCCCCC(=O)[O-]
REMARK SMILES IDX 13 1 14 2 15 3 16 4 17 5 18 6 19 7 20 8 21 9 22 10 23 11
REMARK SMILES IDX 24 12 25 13 26 14 12 15 11 16 10 17 9 18 8 19 7 20 6 21 5 22
REMARK SMILES IDX 4 23 3 24 2 25 1 26
REMARK H PARENT
REMARK Flexibility Score: inf
ROOT
ATOM      1  C   UNL     1      -0.881  42.002 103.542  1.00  0.00     0.000 C 
ENDROOT
BRANCH   1   2
ATOM      2  C   UNL     1      -1.772  43.105 102.947  1.00  0.00     0.000 C 
BRANCH   2   3
ATOM      3  C   UNL     1      -2.865  43.576 103.935  1.00  0.00     0.000 C 
BRANCH   3   4
ATOM      4  C   UNL     1      -4.126  42.692 103.902  1.00  0.00     0.000 C 
BRANCH   4   5
ATOM      5  C   UNL     1      -5.158  43.066 104.991  1.00  0.00     0.000 C 
BRANCH   5   6
ATOM      6  C   UNL     1      -6.075  44.234 104.590  1.00  0.00     0.000 C 
BRANCH   6   7
ATOM      7  C   UNL     1      -7.137  43.825 103.559  1.00  0.00     0.000 C 
BRANCH   7   8
ATOM      8  C   UNL     1      -6.836  44.358 102.149  1.00  0.00     0.000 C 
BRANCH   8   9
ATOM      9  C   UNL     1      -5.969  45.635 102.152  1.00  0.00     0.000 C 
BRANCH   9  10
ATOM     10  C   UNL     1      -4.646  45.438 101.393  1.00  0.00     0.006 C 
BRANCH  10  11
ATOM     11  C   UNL     1      -4.605  44.113 100.622  1.00  0.00     0.053 C 
BRANCH  11  12
ATOM     12  C   UNL     1      -4.269  44.312  99.175  1.00  0.00     0.041 C 
ATOM     13  O   UNL     1      -4.964  43.764  98.282  1.00  0.00    -0.550 OA
ATOM     14  O   UNL     1      -3.177  45.093  98.819  1.00  0.00    -0.550 OA
ENDBRANCH  11  12
ENDBRANCH  10  11
ENDBRANCH   9  10
ENDBRANCH   8   9
ENDBRANCH   7   8
ENDBRANCH   6   7
ENDBRANCH   5   6
ENDBRANCH   4   5
ENDBRANCH   3   4
ENDBRANCH   2   3
ENDBRANCH   1   2
BRANCH   1  15
ATOM     15  C   UNL     1      -0.946  40.681 102.752  1.00  0.00     0.000 C 
BRANCH  15  16
ATOM     16  C   UNL     1      -2.189  39.816 103.026  1.00  0.00     0.000 C 
BRANCH  16  17
ATOM     17  C   UNL     1      -2.863  39.311 101.739  1.00  0.00     0.000 C 
BRANCH  17  18
ATOM     18  C   UNL     1      -2.316  37.943 101.296  1.00  0.00    -0.000 C 
BRANCH  18  19
ATOM     19  C   UNL     1      -3.153  36.773 101.838  1.00  0.00    -0.000 C 
BRANCH  19  20
ATOM     20  C   UNL     1      -4.579  36.743 101.262  1.00  0.00    -0.000 C 
BRANCH  20  21
ATOM     21  C   UNL     1      -4.933  35.418 100.551  1.00  0.00    -0.000 C 
BRANCH  21  22
ATOM     22  C   UNL     1      -3.684  34.607 100.177  1.00  0.00    -0.000 C 
BRANCH  22  23
ATOM     23  C   UNL     1      -3.069  35.123  98.866  1.00  0.00    -0.000 C 
BRANCH  23  24
ATOM     24  C   UNL     1      -4.115  35.717  97.910  1.00  0.00    -0.000 C 
BRANCH  24  25
ATOM     25  C   UNL     1      -3.675  37.062  97.311  1.00  0.00    -0.003 C 
ATOM     26  C   UNL     1      -4.384  38.226  97.996  1.00  0.00     0.004 C 
ENDBRANCH  24  25
ENDBRANCH  23  24
ENDBRANCH  22  23
ENDBRANCH  21  22
ENDBRANCH  20  21
ENDBRANCH  19  20
ENDBRANCH  18  19
ENDBRANCH  17  18
ENDBRANCH  16  17
ENDBRANCH  15  16
ENDBRANCH   1  15
TORSDOF 22
ENDMDL
