MODEL 1
REMARK VINA RESULT:    -3.653      0.000      0.000
REMARK INTER + INTRA:          -5.566
REMARK INTER:                  -5.148
REMARK INTRA:                  -0.418
REMARK UNBOUND:                -0.418
REMARK SMILES CCCCCCCCC(=O)[O-]
REMARK SMILES IDX 6 1 7 2 8 3 9 4 10 5 11 6 5 7 4 8 3 9 2 10 1 11
REMARK H PARENT
REMARK Flexibility Score: inf
ROOT
ATOM      1  C   UNL     1      20.369   0.060  42.203  1.00  0.00     0.000 C 
ENDROOT
BRANCH   1   2
ATOM      2  C   UNL     1      21.829  -0.097  41.738  1.00  0.00     0.006 C 
BRANCH   2   3
ATOM      3  C   UNL     1      21.988  -0.743  40.352  1.00  0.00     0.053 C 
BRANCH   3   4
ATOM      4  C   UNL     1      22.957  -1.885  40.370  1.00  0.00     0.041 C 
ATOM      5  O   UNL     1      23.277  -2.428  41.460  1.00  0.00    -0.550 OA
ATOM      6  O   UNL     1      23.482  -2.372  39.179  1.00  0.00    -0.550 OA
ENDBRANCH   3   4
ENDBRANCH   2   3
ENDBRANCH   1   2
BRANCH   1   7
ATOM      7  C   UNL     1      20.199  -0.169  43.715  1.00  0.00     0.000 C 
BRANCH   7   8
ATOM      8  C   UNL     1      20.734  -1.536  44.179  1.00  0.00    -0.000 C 
BRANCH   8   9
ATOM      9  C   UNL     1      20.759  -1.745  45.704  1.00  0.00    -0.000 C 
BRANCH   9  10
ATOM     10  C   UNL     1      22.020  -2.473  46.190  1.00  0.00    -0.003 C 
ATOM     11  C   UNL     1      22.980  -2.743  45.034  1.00  0.00     0.004 C 
ENDBRANCH   9  10
ENDBRANCH   8   9
ENDBRANCH   7   8
ENDBRANCH   1   7
TORSDOF 7
ENDMDL
MODEL 2
REMARK VINA RESULT:    -3.612      0.954      1.816
REMARK INTER + INTRA:          -5.507
REMARK INTER:                  -5.052
REMARK INTRA:                  -0.455
REMARK UNBOUND:                -0.418
REMARK SMILES CCCCCCCCC(=O)[O-]
REMARK SMILES IDX 6 1 7 2 8 3 9 4 10 5 11 6 5 7 4 8 3 9 2 10 1 11
REMARK H PARENT
REMARK Flexibility Score: inf
ROOT
ATOM      1  C   UNL     1      21.890  -0.073  41.654  1.00  0.00     0.000 C 
ENDROOT
BRANCH   1   2
ATOM      2  C   UNL     1      22.127  -0.383  40.165  1.00  0.00     0.006 C 
BRANCH   2   3
ATOM      3  C   UNL     1      22.081  -1.880  39.812  1.00  0.00     0.053 C 
BRANCH   3   4
ATOM      4  C   UNL     1      23.451  -2.460  39.641  1.00  0.00     0.041 C 
ATOM      5  O   UNL     1      24.036  -2.387  38.529  1.00  0.00    -0.550 OA
ATOM      6  O   UNL     1      24.096  -3.053  40.720  1.00  0.00    -0.550 OA
ENDBRANCH   3   4
ENDBRANCH   2   3
ENDBRANCH   1   2
BRANCH   1   7
ATOM      7  C   UNL     1      20.759  -0.919  42.265  1.00  0.00     0.000 C 
BRANCH   7   8
ATOM      8  C   UNL     1      21.149  -1.563  43.608  1.00  0.00    -0.000 C 
BRANCH   8   9
ATOM      9  C   UNL     1      22.446  -2.392  43.584  1.00  0.00    -0.000 C 
BRANCH   9  10
ATOM     10  C   UNL     1      22.934  -2.784  44.985  1.00  0.00    -0.003 C 
ATOM     11  C   UNL     1      21.905  -2.414  46.051  1.00  0.00     0.004 C 
ENDBRANCH   9  10
ENDBRANCH   8   9
ENDBRANCH   7   8
ENDBRANCH   1   7
TORSDOF 7
ENDMDL
MODEL 3
REMARK VINA RESULT:    -3.534     14.993     16.062
REMARK INTER + INTRA:          -5.398
REMARK INTER:                  -5.017
REMARK INTRA:                  -0.381
REMARK UNBOUND:                -0.418
REMARK SMILES CCCCCCCCC(=O)[O-]
REMARK SMILES IDX 6 1 7 2 8 3 9 4 10 5 11 6 5 7 4 8 3 9 2 10 1 11
REMARK H PARENT
REMARK Flexibility Score: inf
ROOT
ATOM      1  C   UNL     1      30.607 -10.002  31.128  1.00  0.00     0.000 C 
ENDROOT
BRANCH   1   2
ATOM      2  C   UNL     1      29.184  -9.412  31.135  1.00  0.00     0.006 C 
BRANCH   2   3
ATOM      3  C   UNL     1      28.100 -10.362  30.598  1.00  0.00     0.053 C 
BRANCH   3   4
ATOM      4  C   UNL     1      27.224  -9.698  29.580  1.00  0.00     0.041 C 
ATOM      5  O   UNL     1      26.179  -9.094  29.939  1.00  0.00    -0.550 OA
ATOM      6  O   UNL     1      27.579  -9.718  28.236  1.00  0.00    -0.550 OA
ENDBRANCH   3   4
ENDBRANCH   2   3
ENDBRANCH   1   2
BRANCH   1   7
ATOM      7  C   UNL     1      31.685  -8.957  31.461  1.00  0.00     0.000 C 
BRANCH   7   8
ATOM      8  C   UNL     1      31.104  -7.554  31.714  1.00  0.00    -0.000 C 
BRANCH   8   9
ATOM      9  C   UNL     1      31.470  -6.929  33.072  1.00  0.00    -0.000 C 
BRANCH   9  10
ATOM     10  C   UNL     1      31.981  -7.960  34.089  1.00  0.00    -0.003 C 
ATOM     11  C   UNL     1      33.060  -7.360  34.986  1.00  0.00     0.004 C 
ENDBRANCH   9  10
ENDBRANCH   8   9
ENDBRANCH   7   8
ENDBRANCH   1   7
TORSDOF 7
ENDMDL
MODEL 4
REMARK VINA RESULT:    -3.412     15.002     16.582
REMARK INTER + INTRA:          -5.225
REMARK INTER:                  -4.726
REMARK INTRA:                  -0.499
REMARK UNBOUND:                -0.418
REMARK SMILES CCCCCCCCC(=O)[O-]
REMARK SMILES IDX 6 1 7 2 8 3 9 4 10 5 11 6 5 7 4 8 3 9 2 10 1 11
REMARK H PARENT
REMARK Flexibility Score: inf
ROOT
ATOM      1  C   UNL     1      30.935 -10.170  31.618  1.00  0.00     0.000 C 
ENDROOT
BRANCH   1   2
ATOM      2  C   UNL     1      31.998  -9.160  31.145  1.00  0.00     0.006 C 
BRANCH   2   3
ATOM      3  C   UNL     1      31.561  -7.689  31.234  1.00  0.00     0.053 C 
BRANCH   3   4
ATOM      4  C   UNL     1      31.092  -7.322  32.609  1.00  0.00     0.041 C 
ATOM      5  O   UNL     1      29.934  -6.862  32.782  1.00  0.00    -0.550 OA
ATOM      6  O   UNL     1      31.925  -7.521  33.704  1.00  0.00    -0.550 OA
ENDBRANCH   3   4
ENDBRANCH   2   3
ENDBRANCH   1   2
BRANCH   1   7
ATOM      7  C   UNL     1      30.473 -11.115  30.496  1.00  0.00     0.000 C 
BRANCH   7   8
ATOM      8  C   UNL     1      28.966 -11.004  30.200  1.00  0.00    -0.000 C 
BRANCH   8   9
ATOM      9  C   UNL     1      28.242  -9.849  30.915  1.00  0.00    -0.000 C 
BRANCH   9  10
ATOM     10  C   UNL     1      26.943  -9.430  30.215  1.00  0.00    -0.003 C 
ATOM     11  C   UNL     1      26.994  -9.745  28.722  1.00  0.00     0.004 C 
ENDBRANCH   9  10
ENDBRANCH   8   9
ENDBRANCH   7   8
ENDBRANCH   1   7
TORSDOF 7
ENDMDL
MODEL 5
REMARK VINA RESULT:    -3.392     15.560     16.785
REMARK INTER + INTRA:          -5.198
REMARK INTER:                  -4.781
REMARK INTRA:                  -0.416
REMARK UNBOUND:                -0.418
REMARK SMILES CCCCCCCCC(=O)[O-]
REMARK SMILES IDX 6 1 7 2 8 3 9 4 10 5 11 6 5 7 4 8 3 9 2 10 1 11
REMARK H PARENT
REMARK Flexibility Score: inf
ROOT
ATOM      1  C   UNL     1      35.896   7.193  40.226  1.00  0.00     0.000 C 
ENDROOT
BRANCH   1   2
ATOM      2  C   UNL     1      34.918   6.286  40.995  1.00  0.00     0.006 C 
BRANCH   2   3
ATOM      3  C   UNL     1      35.073   6.337  42.524  1.00  0.00     0.053 C 
BRANCH   3   4
ATOM      4  C   UNL     1      33.755   6.230  43.228  1.00  0.00     0.041 C 
ATOM      5  O   UNL     1      33.058   5.188  43.113  1.00  0.00    -0.550 OA
ATOM      6  O   UNL     1      33.311   7.268  44.038  1.00  0.00    -0.550 OA
ENDBRANCH   3   4
ENDBRANCH   2   3
ENDBRANCH   1   2
BRANCH   1   7
ATOM      7  C   UNL     1      37.283   7.266  40.886  1.00  0.00     0.000 C 
BRANCH   7   8
ATOM      8  C   UNL     1      38.338   6.406  40.166  1.00  0.00    -0.000 C 
BRANCH   8   9
ATOM      9  C   UNL     1      38.502   4.977  40.715  1.00  0.00    -0.000 C 
BRANCH   9  10
ATOM     10  C   UNL     1      38.254   3.895  39.655  1.00  0.00    -0.003 C 
ATOM     11  C   UNL     1      39.367   2.850  39.664  1.00  0.00     0.004 C 
ENDBRANCH   9  10
ENDBRANCH   8   9
ENDBRANCH   7   8
ENDBRANCH   1   7
TORSDOF 7
ENDMDL
MODEL 6
REMARK VINA RESULT:    -3.366     14.948     16.572
REMARK INTER + INTRA:          -5.161
REMARK INTER:                  -4.714
REMARK INTRA:                  -0.448
REMARK UNBOUND:                -0.418
REMARK SMILES CCCCCCCCC(=O)[O-]
REMARK SMILES IDX 6 1 7 2 8 3 9 4 10 5 11 6 5 7 4 8 3 9 2 10 1 11
REMARK H PARENT
REMARK Flexibility Score: inf
ROOT
ATOM      1  C   UNL     1      30.386 -10.332  31.624  1.00  0.00     0.000 C 
ENDROOT
BRANCH   1   2
ATOM      2  C   UNL     1      31.688  -9.559  31.344  1.00  0.00     0.006 C 
BRANCH   2   3
ATOM      3  C   UNL     1      31.559  -8.031  31.465  1.00  0.00     0.053 C 
BRANCH   3   4
ATOM      4  C   UNL     1      31.007  -7.616  32.795  1.00  0.00     0.041 C 
ATOM      5  O   UNL     1      29.961  -6.919  32.858  1.00  0.00    -0.550 OA
ATOM      6  O   UNL     1      31.630  -8.029  33.967  1.00  0.00    -0.550 OA
ENDBRANCH   3   4
ENDBRANCH   2   3
ENDBRANCH   1   2
BRANCH   1   7
ATOM      7  C   UNL     1      29.342 -10.161  30.507  1.00  0.00     0.000 C 
BRANCH   7   8
ATOM      8  C   UNL     1      27.994  -9.624  31.023  1.00  0.00    -0.000 C 
BRANCH   8   9
ATOM      9  C   UNL     1      26.885  -9.514  29.961  1.00  0.00    -0.000 C 
BRANCH   9  10
ATOM     10  C   UNL     1      27.384  -9.803  28.539  1.00  0.00    -0.003 C 
ATOM     11  C   UNL     1      26.645 -10.990  27.927  1.00  0.00     0.004 C 
ENDBRANCH   9  10
ENDBRANCH   8   9
ENDBRANCH   7   8
ENDBRANCH   1   7
TORSDOF 7
ENDMDL
MODEL 7
REMARK VINA RESULT:    -3.355     14.898     16.259
REMARK INTER + INTRA:          -5.146
REMARK INTER:                  -4.575
REMARK INTRA:                  -0.572
REMARK UNBOUND:                -0.418
REMARK SMILES CCCCCCCCC(=O)[O-]
REMARK SMILES IDX 6 1 7 2 8 3 9 4 10 5 11 6 5 7 4 8 3 9 2 10 1 11
REMARK H PARENT
REMARK Flexibility Score: inf
ROOT
ATOM      1  C   UNL     1      31.439  -8.247  30.890  1.00  0.00     0.000 C 
ENDROOT
BRANCH   1   2
ATOM      2  C   UNL     1      30.693  -7.608  32.076  1.00  0.00     0.006 C 
BRANCH   2   3
ATOM      3  C   UNL     1      31.594  -6.824  33.044  1.00  0.00     0.053 C 
BRANCH   3   4
ATOM      4  C   UNL     1      32.066  -7.671  34.186  1.00  0.00     0.041 C 
ATOM      5  O   UNL     1      31.528  -8.787  34.412  1.00  0.00    -0.550 OA
ATOM      6  O   UNL     1      33.123  -7.243  34.980  1.00  0.00    -0.550 OA
ENDBRANCH   3   4
ENDBRANCH   2   3
ENDBRANCH   1   2
BRANCH   1   7
ATOM      7  C   UNL     1      31.851  -9.704  31.163  1.00  0.00     0.000 C 
BRANCH   7   8
ATOM      8  C   UNL     1      30.658 -10.609  31.520  1.00  0.00    -0.000 C 
BRANCH   8   9
ATOM      9  C   UNL     1      29.649 -10.841  30.381  1.00  0.00    -0.000 C 
BRANCH   9  10
ATOM     10  C   UNL     1      28.195 -10.893  30.869  1.00  0.00    -0.003 C 
ATOM     11  C   UNL     1      27.597  -9.492  30.971  1.00  0.00     0.004 C 
ENDBRANCH   9  10
ENDBRANCH   8   9
ENDBRANCH   7   8
ENDBRANCH   1   7
TORSDOF 7
ENDMDL
MODEL 8
REMARK VINA RESULT:    -3.323      2.404      5.209
REMARK INTER + INTRA:          -5.101
REMARK INTER:                  -4.884
REMARK INTRA:                  -0.218
REMARK UNBOUND:                -0.418
REMARK SMILES CCCCCCCCC(=O)[O-]
REMARK SMILES IDX 6 1 7 2 8 3 9 4 10 5 11 6 5 7 4 8 3 9 2 10 1 11
REMARK H PARENT
REMARK Flexibility Score: inf
ROOT
ATOM      1  C   UNL     1      21.267  -0.680  42.173  1.00  0.00     0.000 C 
ENDROOT
BRANCH   1   2
ATOM      2  C   UNL     1      20.909  -1.824  43.139  1.00  0.00     0.006 C 
BRANCH   2   3
ATOM      3  C   UNL     1      20.788  -1.398  44.612  1.00  0.00     0.053 C 
BRANCH   3   4
ATOM      4  C   UNL     1      21.703  -2.181  45.502  1.00  0.00     0.041 C 
ATOM      5  O   UNL     1      21.385  -2.406  46.699  1.00  0.00    -0.550 OA
ATOM      6  O   UNL     1      22.894  -2.692  45.000  1.00  0.00    -0.550 OA
ENDBRANCH   3   4
ENDBRANCH   2   3
ENDBRANCH   1   2
BRANCH   1   7
ATOM      7  C   UNL     1      21.097  -1.074  40.696  1.00  0.00     0.000 C 
BRANCH   7   8
ATOM      8  C   UNL     1      22.420  -1.046  39.910  1.00  0.00    -0.000 C 
BRANCH   8   9
ATOM      9  C   UNL     1      23.213  -2.365  39.917  1.00  0.00    -0.000 C 
BRANCH   9  10
ATOM     10  C   UNL     1      23.986  -2.607  38.614  1.00  0.00    -0.003 C 
ATOM     11  C   UNL     1      24.870  -3.848  38.719  1.00  0.00     0.004 C 
ENDBRANCH   9  10
ENDBRANCH   8   9
ENDBRANCH   7   8
ENDBRANCH   1   7
TORSDOF 7
ENDMDL
MODEL 9
REMARK VINA RESULT:    -3.320     14.593     16.135
REMARK INTER + INTRA:          -5.096
REMARK INTER:                  -4.851
REMARK INTRA:                  -0.244
REMARK UNBOUND:                -0.418
REMARK SMILES CCCCCCCCC(=O)[O-]
REMARK SMILES IDX 6 1 7 2 8 3 9 4 10 5 11 6 5 7 4 8 3 9 2 10 1 11
REMARK H PARENT
REMARK Flexibility Score: inf
ROOT
ATOM      1  C   UNL     1      28.593  -9.787  30.919  1.00  0.00     0.000 C 
ENDROOT
BRANCH   1   2
ATOM      2  C   UNL     1      30.081  -9.973  31.267  1.00  0.00     0.006 C 
BRANCH   2   3
ATOM      3  C   UNL     1      30.890  -8.666  31.313  1.00  0.00     0.053 C 
BRANCH   3   4
ATOM      4  C   UNL     1      30.841  -8.020  32.664  1.00  0.00     0.041 C 
ATOM      5  O   UNL     1      31.550  -8.464  33.605  1.00  0.00    -0.550 OA
ATOM      6  O   UNL     1      30.036  -6.907  32.874  1.00  0.00    -0.550 OA
ENDBRANCH   3   4
ENDBRANCH   2   3
ENDBRANCH   1   2
BRANCH   1   7
ATOM      7  C   UNL     1      28.218 -10.407  29.561  1.00  0.00     0.000 C 
BRANCH   7   8
ATOM      8  C   UNL     1      27.078  -9.654  28.852  1.00  0.00    -0.000 C 
BRANCH   8   9
ATOM      9  C   UNL     1      26.016  -9.045  29.785  1.00  0.00    -0.000 C 
BRANCH   9  10
ATOM     10  C   UNL     1      24.713  -8.685  29.058  1.00  0.00    -0.003 C 
ATOM     11  C   UNL     1      24.074  -7.436  29.658  1.00  0.00     0.004 C 
ENDBRANCH   9  10
ENDBRANCH   8   9
ENDBRANCH   7   8
ENDBRANCH   1   7
TORSDOF 7
ENDMDL
