MODEL 1
REMARK VINA RESULT:    -5.031      0.000      0.000
REMARK INTER + INTRA:          -5.178
REMARK INTER:                  -5.178
REMARK INTRA:                   0.000
REMARK UNBOUND:                 0.000
REMARK SMILES Nc1ncnc2nc[nH]c12
REMARK SMILES IDX 8 1 7 2 6 3 5 4 4 5 3 6 2 7 10 8 9 9 1 11
REMARK H PARENT 9 10 1 12 1 13
REMARK Flexibility Score: inf
ROOT
ATOM      1  C   UNL     1      21.711 -25.615  25.613  1.00  0.00     0.199 A 
ATOM      2  N   UNL     1      22.416 -24.551  26.086  1.00  0.00    -0.217 NA
ATOM      3  C   UNL     1      23.239 -24.277  25.060  1.00  0.00     0.182 A 
ATOM      4  N   UNL     1      24.166 -23.290  25.010  1.00  0.00    -0.215 NA
ATOM      5  C   UNL     1      24.915 -23.165  23.873  1.00  0.00     0.226 A 
ATOM      6  N   UNL     1      24.725 -24.020  22.817  1.00  0.00    -0.217 NA
ATOM      7  C   UNL     1      23.791 -25.016  22.866  1.00  0.00     0.152 A 
ATOM      8  C   UNL     1      23.036 -25.130  24.030  1.00  0.00     0.127 A 
ATOM      9  N   UNL     1      22.067 -25.992  24.359  1.00  0.00    -0.340 N 
ATOM     10  H   UNL     1      21.670 -26.775  23.793  1.00  0.00     0.168 HD
ENDROOT
BRANCH   7  11
ATOM     11  N   UNL     1      23.611 -25.894  21.754  1.00  0.00    -0.382 N 
ATOM     12  H   UNL     1      24.426 -26.327  21.266  1.00  0.00     0.158 HD
ATOM     13  H   UNL     1      22.649 -26.112  21.411  1.00  0.00     0.158 HD
ENDBRANCH   7  11
TORSDOF 1
ENDMDL
MODEL 2
REMARK VINA RESULT:    -4.672      1.247      3.078
REMARK INTER + INTRA:          -4.808
REMARK INTER:                  -4.808
REMARK INTRA:                   0.000
REMARK UNBOUND:                 0.000
REMARK SMILES Nc1ncnc2nc[nH]c12
REMARK SMILES IDX 8 1 7 2 6 3 5 4 4 5 3 6 2 7 10 8 9 9 1 11
REMARK H PARENT 9 10 1 12 1 13
REMARK Flexibility Score: inf
ROOT
ATOM      1  C   UNL     1      23.949 -25.143  22.563  1.00  0.00     0.199 A 
ATOM      2  N   UNL     1      24.279 -23.856  22.862  1.00  0.00    -0.217 NA
ATOM      3  C   UNL     1      23.513 -23.609  23.938  1.00  0.00     0.182 A 
ATOM      4  N   UNL     1      23.456 -22.453  24.641  1.00  0.00    -0.215 NA
ATOM      5  C   UNL     1      22.611 -22.390  25.713  1.00  0.00     0.226 A 
ATOM      6  N   UNL     1      21.845 -23.475  26.061  1.00  0.00    -0.217 NA
ATOM      7  C   UNL     1      21.901 -24.642  25.353  1.00  0.00     0.152 A 
ATOM      8  C   UNL     1      22.767 -24.690  24.263  1.00  0.00     0.127 A 
ATOM      9  N   UNL     1      23.028 -25.680  23.401  1.00  0.00    -0.340 N 
ATOM     10  H   UNL     1      22.624 -26.642  23.371  1.00  0.00     0.168 HD
ENDROOT
BRANCH   7  11
ATOM     11  N   UNL     1      21.095 -25.757  25.733  1.00  0.00    -0.382 N 
ATOM     12  H   UNL     1      21.392 -26.737  25.531  1.00  0.00     0.158 HD
ATOM     13  H   UNL     1      20.186 -25.602  26.223  1.00  0.00     0.158 HD
ENDBRANCH   7  11
TORSDOF 1
ENDMDL
MODEL 3
REMARK VINA RESULT:    -4.543      1.920      2.965
REMARK INTER + INTRA:          -4.676
REMARK INTER:                  -4.676
REMARK INTRA:                   0.000
REMARK UNBOUND:                 0.000
REMARK SMILES Nc1ncnc2nc[nH]c12
REMARK SMILES IDX 8 1 7 2 6 3 5 4 4 5 3 6 2 7 10 8 9 9 1 11
REMARK H PARENT 9 10 1 12 1 13
REMARK Flexibility Score: inf
ROOT
ATOM      1  C   UNL     1      20.871 -25.132  24.926  1.00  0.00     0.199 A 
ATOM      2  N   UNL     1      21.779 -24.294  24.356  1.00  0.00    -0.217 NA
ATOM      3  C   UNL     1      22.898 -24.576  25.043  1.00  0.00     0.182 A 
ATOM      4  N   UNL     1      24.117 -24.012  24.869  1.00  0.00    -0.215 NA
ATOM      5  C   UNL     1      25.143 -24.431  25.670  1.00  0.00     0.226 A 
ATOM      6  N   UNL     1      24.933 -25.400  26.620  1.00  0.00    -0.217 NA
ATOM      7  C   UNL     1      23.704 -25.970  26.796  1.00  0.00     0.152 A 
ATOM      8  C   UNL     1      22.670 -25.532  25.974  1.00  0.00     0.127 A 
ATOM      9  N   UNL     1      21.385 -25.902  25.917  1.00  0.00    -0.340 N 
ATOM     10  H   UNL     1      20.885 -26.613  26.496  1.00  0.00     0.168 HD
ENDROOT
BRANCH   7  11
ATOM     11  N   UNL     1      23.510 -26.976  27.791  1.00  0.00    -0.382 N 
ATOM     12  H   UNL     1      23.584 -26.755  28.809  1.00  0.00     0.158 HD
ATOM     13  H   UNL     1      23.291 -27.956  27.507  1.00  0.00     0.158 HD
ENDBRANCH   7  11
TORSDOF 1
ENDMDL
MODEL 4
REMARK VINA RESULT:    -4.518      1.853      2.624
REMARK INTER + INTRA:          -4.650
REMARK INTER:                  -4.650
REMARK INTRA:                   0.000
REMARK UNBOUND:                 0.000
REMARK SMILES Nc1ncnc2nc[nH]c12
REMARK SMILES IDX 8 1 7 2 6 3 5 4 4 5 3 6 2 7 10 8 9 9 1 11
REMARK H PARENT 9 10 1 12 1 13
REMARK Flexibility Score: inf
ROOT
ATOM      1  C   UNL     1      22.980 -26.060  27.868  1.00  0.00     0.199 A 
ATOM      2  N   UNL     1      24.014 -25.358  27.329  1.00  0.00    -0.217 NA
ATOM      3  C   UNL     1      23.481 -24.899  26.184  1.00  0.00     0.182 A 
ATOM      4  N   UNL     1      24.098 -24.129  25.257  1.00  0.00    -0.215 NA
ATOM      5  C   UNL     1      23.389 -23.759  24.148  1.00  0.00     0.226 A 
ATOM      6  N   UNL     1      22.086 -24.161  23.990  1.00  0.00    -0.217 NA
ATOM      7  C   UNL     1      21.461 -24.937  24.925  1.00  0.00     0.152 A 
ATOM      8  C   UNL     1      22.198 -25.306  26.047  1.00  0.00     0.127 A 
ATOM      9  N   UNL     1      21.856 -26.047  27.108  1.00  0.00    -0.340 N 
ATOM     10  H   UNL     1      20.944 -26.511  27.314  1.00  0.00     0.168 HD
ENDROOT
BRANCH   7  11
ATOM     11  N   UNL     1      20.105 -25.343  24.738  1.00  0.00    -0.382 N 
ATOM     12  H   UNL     1      19.323 -24.878  25.250  1.00  0.00     0.158 HD
ATOM     13  H   UNL     1      19.878 -26.121  24.080  1.00  0.00     0.158 HD
ENDBRANCH   7  11
TORSDOF 1
ENDMDL
MODEL 5
REMARK VINA RESULT:    -4.514      1.464      3.915
REMARK INTER + INTRA:          -4.646
REMARK INTER:                  -4.646
REMARK INTRA:                   0.000
REMARK UNBOUND:                 0.000
REMARK SMILES Nc1ncnc2nc[nH]c12
REMARK SMILES IDX 8 1 7 2 6 3 5 4 4 5 3 6 2 7 10 8 9 9 1 11
REMARK H PARENT 9 10 1 12 1 13
REMARK Flexibility Score: inf
ROOT
ATOM      1  C   UNL     1      24.974 -23.007  23.956  1.00  0.00     0.199 A 
ATOM      2  N   UNL     1      24.661 -24.325  23.824  1.00  0.00    -0.217 NA
ATOM      3  C   UNL     1      23.425 -24.378  24.347  1.00  0.00     0.182 A 
ATOM      4  N   UNL     1      22.641 -25.477  24.461  1.00  0.00    -0.215 NA
ATOM      5  C   UNL     1      21.404 -25.333  25.024  1.00  0.00     0.226 A 
ATOM      6  N   UNL     1      20.976 -24.103  25.458  1.00  0.00    -0.217 NA
ATOM      7  C   UNL     1      21.764 -22.993  25.343  1.00  0.00     0.152 A 
ATOM      8  C   UNL     1      23.021 -23.157  24.768  1.00  0.00     0.127 A 
ATOM      9  N   UNL     1      23.992 -22.267  24.529  1.00  0.00    -0.340 N 
ATOM     10  H   UNL     1      24.004 -21.243  24.733  1.00  0.00     0.168 HD
ENDROOT
BRANCH   7  11
ATOM     11  N   UNL     1      21.297 -21.724  25.802  1.00  0.00    -0.382 N 
ATOM     12  H   UNL     1      20.474 -21.256  25.361  1.00  0.00     0.158 HD
ATOM     13  H   UNL     1      21.780 -21.244  26.593  1.00  0.00     0.158 HD
ENDBRANCH   7  11
TORSDOF 1
ENDMDL
MODEL 6
REMARK VINA RESULT:    -4.504      1.313      3.050
REMARK INTER + INTRA:          -4.635
REMARK INTER:                  -4.635
REMARK INTRA:                   0.000
REMARK UNBOUND:                 0.000
REMARK SMILES Nc1ncnc2nc[nH]c12
REMARK SMILES IDX 8 1 7 2 6 3 5 4 4 5 3 6 2 7 10 8 9 9 1 11
REMARK H PARENT 9 10 1 12 1 13
REMARK Flexibility Score: inf
ROOT
ATOM      1  C   UNL     1      25.069 -23.002  24.004  1.00  0.00     0.199 A 
ATOM      2  N   UNL     1      24.173 -22.269  24.722  1.00  0.00    -0.217 NA
ATOM      3  C   UNL     1      23.158 -23.135  24.878  1.00  0.00     0.182 A 
ATOM      4  N   UNL     1      21.994 -22.905  25.531  1.00  0.00    -0.215 NA
ATOM      5  C   UNL     1      21.073 -23.914  25.585  1.00  0.00     0.226 A 
ATOM      6  N   UNL     1      21.332 -25.124  24.992  1.00  0.00    -0.217 NA
ATOM      7  C   UNL     1      22.505 -25.358  24.332  1.00  0.00     0.152 A 
ATOM      8  C   UNL     1      23.432 -24.320  24.286  1.00  0.00     0.127 A 
ATOM      9  N   UNL     1      24.645 -24.259  23.723  1.00  0.00    -0.340 N 
ATOM     10  H   UNL     1      25.154 -24.999  23.190  1.00  0.00     0.168 HD
ENDROOT
BRANCH   7  11
ATOM     11  N   UNL     1      22.752 -26.626  23.723  1.00  0.00    -0.382 N 
ATOM     12  H   UNL     1      23.381 -26.717  22.895  1.00  0.00     0.158 HD
ATOM     13  H   UNL     1      22.298 -27.485  24.103  1.00  0.00     0.158 HD
ENDBRANCH   7  11
TORSDOF 1
ENDMDL
MODEL 7
REMARK VINA RESULT:    -4.494      1.912      2.599
REMARK INTER + INTRA:          -4.625
REMARK INTER:                  -4.625
REMARK INTRA:                   0.000
REMARK UNBOUND:                 0.000
REMARK SMILES Nc1ncnc2nc[nH]c12
REMARK SMILES IDX 8 1 7 2 6 3 5 4 4 5 3 6 2 7 10 8 9 9 1 11
REMARK H PARENT 9 10 1 12 1 13
REMARK Flexibility Score: inf
ROOT
ATOM      1  C   UNL     1      23.942 -25.969  26.729  1.00  0.00     0.199 A 
ATOM      2  N   UNL     1      22.959 -25.617  25.855  1.00  0.00    -0.217 NA
ATOM      3  C   UNL     1      23.627 -24.862  24.966  1.00  0.00     0.182 A 
ATOM      4  N   UNL     1      23.108 -24.254  23.872  1.00  0.00    -0.215 NA
ATOM      5  C   UNL     1      23.949 -23.522  23.080  1.00  0.00     0.226 A 
ATOM      6  N   UNL     1      25.281 -23.415  23.392  1.00  0.00    -0.217 NA
ATOM      7  C   UNL     1      25.806 -24.029  24.495  1.00  0.00     0.152 A 
ATOM      8  C   UNL     1      24.937 -24.769  25.291  1.00  0.00     0.127 A 
ATOM      9  N   UNL     1      25.161 -25.467  26.411  1.00  0.00    -0.340 N 
ATOM     10  H   UNL     1      26.059 -25.600  26.928  1.00  0.00     0.168 HD
ENDROOT
BRANCH   7  11
ATOM     11  N   UNL     1      27.196 -23.903  24.799  1.00  0.00    -0.382 N 
ATOM     12  H   UNL     1      27.624 -24.413  25.603  1.00  0.00     0.158 HD
ATOM     13  H   UNL     1      27.805 -23.291  24.213  1.00  0.00     0.158 HD
ENDBRANCH   7  11
TORSDOF 1
ENDMDL
MODEL 8
REMARK VINA RESULT:    -4.385      1.653      3.065
REMARK INTER + INTRA:          -4.513
REMARK INTER:                  -4.513
REMARK INTRA:                   0.000
REMARK UNBOUND:                 0.000
REMARK SMILES Nc1ncnc2nc[nH]c12
REMARK SMILES IDX 8 1 7 2 6 3 5 4 4 5 3 6 2 7 10 8 9 9 1 11
REMARK H PARENT 9 10 1 12 1 13
REMARK Flexibility Score: inf
ROOT
ATOM      1  C   UNL     1      22.304 -21.575  25.982  1.00  0.00     0.199 A 
ATOM      2  N   UNL     1      23.521 -21.921  25.480  1.00  0.00    -0.217 NA
ATOM      3  C   UNL     1      23.300 -23.168  25.033  1.00  0.00     0.182 A 
ATOM      4  N   UNL     1      24.201 -23.983  24.431  1.00  0.00    -0.215 NA
ATOM      5  C   UNL     1      23.788 -25.227  24.043  1.00  0.00     0.226 A 
ATOM      6  N   UNL     1      22.494 -25.630  24.259  1.00  0.00    -0.217 NA
ATOM      7  C   UNL     1      21.585 -24.810  24.865  1.00  0.00     0.152 A 
ATOM      8  C   UNL     1      22.021 -23.547  25.256  1.00  0.00     0.127 A 
ATOM      9  N   UNL     1      21.366 -22.548  25.860  1.00  0.00    -0.340 N 
ATOM     10  H   UNL     1      20.369 -22.513  26.169  1.00  0.00     0.168 HD
ENDROOT
BRANCH   7  11
ATOM     11  N   UNL     1      20.244 -25.252  25.080  1.00  0.00    -0.382 N 
ATOM     12  H   UNL     1      20.006 -25.911  25.854  1.00  0.00     0.158 HD
ATOM     13  H   UNL     1      19.477 -24.917  24.455  1.00  0.00     0.158 HD
ENDBRANCH   7  11
TORSDOF 1
ENDMDL
MODEL 9
REMARK VINA RESULT:    -4.360      1.337      3.087
REMARK INTER + INTRA:          -4.488
REMARK INTER:                  -4.488
REMARK INTRA:                   0.000
REMARK UNBOUND:                 0.000
REMARK SMILES Nc1ncnc2nc[nH]c12
REMARK SMILES IDX 8 1 7 2 6 3 5 4 4 5 3 6 2 7 10 8 9 9 1 11
REMARK H PARENT 9 10 1 12 1 13
REMARK Flexibility Score: inf
ROOT
ATOM      1  C   UNL     1      26.337 -22.998  24.632  1.00  0.00     0.199 A 
ATOM      2  N   UNL     1      25.815 -23.393  25.826  1.00  0.00    -0.217 NA
ATOM      3  C   UNL     1      24.825 -24.216  25.445  1.00  0.00     0.182 A 
ATOM      4  N   UNL     1      23.976 -24.890  26.258  1.00  0.00    -0.215 NA
ATOM      5  C   UNL     1      23.025 -25.685  25.682  1.00  0.00     0.226 A 
ATOM      6  N   UNL     1      22.940 -25.792  24.316  1.00  0.00    -0.217 NA
ATOM      7  C   UNL     1      23.795 -25.113  23.495  1.00  0.00     0.152 A 
ATOM      8  C   UNL     1      24.758 -24.307  24.096  1.00  0.00     0.127 A 
ATOM      9  N   UNL     1      25.713 -23.540  23.557  1.00  0.00    -0.340 N 
ATOM     10  H   UNL     1      25.934 -23.386  22.548  1.00  0.00     0.168 HD
ENDROOT
BRANCH   7  11
ATOM     11  N   UNL     1      23.688 -25.240  22.076  1.00  0.00    -0.382 N 
ATOM     12  H   UNL     1      22.859 -25.691  21.632  1.00  0.00     0.158 HD
ATOM     13  H   UNL     1      24.451 -24.880  21.461  1.00  0.00     0.158 HD
ENDBRANCH   7  11
TORSDOF 1
ENDMDL
