MODEL 1
REMARK VINA RESULT:    -3.325      0.000      0.000
REMARK INTER + INTRA:          -6.041
REMARK INTER:                  -5.074
REMARK INTRA:                  -0.967
REMARK UNBOUND:                -0.967
REMARK SMILES CCCCCCCCCCC(=O)[O-]
REMARK SMILES IDX 7 1 8 2 9 3 10 4 11 5 12 6 13 7 6 8 5 9 4 10 3 11 2 12 1 13
REMARK H PARENT
REMARK Flexibility Score: inf
ROOT
ATOM      1  C   UNL     1     -36.035   5.914  -1.331  1.00  0.00     0.000 C 
ENDROOT
BRANCH   1   2
ATOM      2  C   UNL     1     -36.205   7.370  -1.805  1.00  0.00     0.000 C 
BRANCH   2   3
ATOM      3  C   UNL     1     -35.653   7.608  -3.219  1.00  0.00     0.006 C 
BRANCH   3   4
ATOM      4  C   UNL     1     -35.110   9.034  -3.363  1.00  0.00     0.053 C 
BRANCH   4   5
ATOM      5  C   UNL     1     -36.041   9.867  -4.184  1.00  0.00     0.041 C 
ATOM      6  O   UNL     1     -36.319   9.530  -5.366  1.00  0.00    -0.550 OA
ATOM      7  O   UNL     1     -36.642  10.990  -3.630  1.00  0.00    -0.550 OA
ENDBRANCH   4   5
ENDBRANCH   3   4
ENDBRANCH   2   3
ENDBRANCH   1   2
BRANCH   1   8
ATOM      8  C   UNL     1     -34.719   5.242  -1.765  1.00  0.00     0.000 C 
BRANCH   8   9
ATOM      9  C   UNL     1     -33.999   4.536  -0.604  1.00  0.00    -0.000 C 
BRANCH   9  10
ATOM     10  C   UNL     1     -32.632   5.166  -0.289  1.00  0.00    -0.000 C 
BRANCH  10  11
ATOM     11  C   UNL     1     -32.577   6.660  -0.648  1.00  0.00    -0.000 C 
BRANCH  11  12
ATOM     12  C   UNL     1     -31.390   7.002  -1.563  1.00  0.00    -0.003 C 
ATOM     13  C   UNL     1     -31.812   7.241  -3.012  1.00  0.00     0.004 C 
ENDBRANCH  11  12
ENDBRANCH  10  11
ENDBRANCH   9  10
ENDBRANCH   8   9
ENDBRANCH   1   8
TORSDOF 9
ENDMDL
MODEL 2
REMARK VINA RESULT:    -3.308      3.216      5.040
REMARK INTER + INTRA:          -6.016
REMARK INTER:                  -5.081
REMARK INTRA:                  -0.935
REMARK UNBOUND:                -0.967
REMARK SMILES CCCCCCCCCCC(=O)[O-]
REMARK SMILES IDX 7 1 8 2 9 3 10 4 11 5 12 6 13 7 6 8 5 9 4 10 3 11 2 12 1 13
REMARK H PARENT
REMARK Flexibility Score: inf
ROOT
ATOM      1  C   UNL     1     -34.417   4.722  -0.641  1.00  0.00     0.000 C 
ENDROOT
BRANCH   1   2
ATOM      2  C   UNL     1     -32.931   5.123  -0.659  1.00  0.00     0.000 C 
BRANCH   2   3
ATOM      3  C   UNL     1     -32.719   6.642  -0.580  1.00  0.00     0.006 C 
BRANCH   3   4
ATOM      4  C   UNL     1     -31.776   7.124  -1.687  1.00  0.00     0.053 C 
BRANCH   4   5
ATOM      5  C   UNL     1     -30.437   7.472  -1.120  1.00  0.00     0.041 C 
ATOM      6  O   UNL     1     -30.153   8.670  -0.853  1.00  0.00    -0.550 OA
ATOM      7  O   UNL     1     -29.519   6.468  -0.840  1.00  0.00    -0.550 OA
ENDBRANCH   4   5
ENDBRANCH   3   4
ENDBRANCH   2   3
ENDBRANCH   1   2
BRANCH   1   8
ATOM      8  C   UNL     1     -35.237   5.219  -1.846  1.00  0.00     0.000 C 
BRANCH   8   9
ATOM      9  C   UNL     1     -36.339   6.216  -1.448  1.00  0.00    -0.000 C 
BRANCH   9  10
ATOM     10  C   UNL     1     -36.051   7.642  -1.945  1.00  0.00    -0.000 C 
BRANCH  10  11
ATOM     11  C   UNL     1     -35.210   7.657  -3.233  1.00  0.00    -0.000 C 
BRANCH  11  12
ATOM     12  C   UNL     1     -34.769   9.074  -3.632  1.00  0.00    -0.003 C 
ATOM     13  C   UNL     1     -35.945  10.041  -3.766  1.00  0.00     0.004 C 
ENDBRANCH  11  12
ENDBRANCH  10  11
ENDBRANCH   9  10
ENDBRANCH   8   9
ENDBRANCH   1   8
TORSDOF 9
ENDMDL
MODEL 3
REMARK VINA RESULT:    -3.269      3.378      5.074
REMARK INTER + INTRA:          -5.956
REMARK INTER:                  -5.139
REMARK INTRA:                  -0.817
REMARK UNBOUND:                -0.967
REMARK SMILES CCCCCCCCCCC(=O)[O-]
REMARK SMILES IDX 7 1 8 2 9 3 10 4 11 5 12 6 13 7 6 8 5 9 4 10 3 11 2 12 1 13
REMARK H PARENT
REMARK Flexibility Score: inf
ROOT
ATOM      1  C   UNL     1     -35.714   7.242  -1.376  1.00  0.00     0.000 C 
ENDROOT
BRANCH   1   2
ATOM      2  C   UNL     1     -36.568   6.011  -1.731  1.00  0.00     0.000 C 
BRANCH   2   3
ATOM      3  C   UNL     1     -36.442   5.599  -3.205  1.00  0.00     0.006 C 
BRANCH   3   4
ATOM      4  C   UNL     1     -37.125   4.251  -3.458  1.00  0.00     0.053 C 
BRANCH   4   5
ATOM      5  C   UNL     1     -36.171   3.292  -4.096  1.00  0.00     0.041 C 
ATOM      6  O   UNL     1     -35.215   2.813  -3.431  1.00  0.00    -0.550 OA
ATOM      7  O   UNL     1     -36.365   2.889  -5.411  1.00  0.00    -0.550 OA
ENDBRANCH   4   5
ENDBRANCH   3   4
ENDBRANCH   2   3
ENDBRANCH   1   2
BRANCH   1   8
ATOM      8  C   UNL     1     -34.193   7.002  -1.394  1.00  0.00     0.000 C 
BRANCH   8   9
ATOM      9  C   UNL     1     -33.495   7.685  -2.582  1.00  0.00    -0.000 C 
BRANCH   9  10
ATOM     10  C   UNL     1     -34.234   8.948  -3.054  1.00  0.00    -0.000 C 
BRANCH  10  11
ATOM     11  C   UNL     1     -34.736   8.827  -4.503  1.00  0.00    -0.000 C 
BRANCH  11  12
ATOM     12  C   UNL     1     -35.992   9.675  -4.763  1.00  0.00    -0.003 C 
ATOM     13  C   UNL     1     -36.261  10.687  -3.650  1.00  0.00     0.004 C 
ENDBRANCH  11  12
ENDBRANCH  10  11
ENDBRANCH   9  10
ENDBRANCH   8   9
ENDBRANCH   1   8
TORSDOF 9
ENDMDL
MODEL 4
REMARK VINA RESULT:    -3.259      8.154     10.300
REMARK INTER + INTRA:          -5.941
REMARK INTER:                  -5.175
REMARK INTRA:                  -0.765
REMARK UNBOUND:                -0.967
REMARK SMILES CCCCCCCCCCC(=O)[O-]
REMARK SMILES IDX 7 1 8 2 9 3 10 4 11 5 12 6 13 7 6 8 5 9 4 10 3 11 2 12 1 13
REMARK H PARENT
REMARK Flexibility Score: inf
ROOT
ATOM      1  C   UNL     1     -34.328  -3.137   2.356  1.00  0.00     0.000 C 
ENDROOT
BRANCH   1   2
ATOM      2  C   UNL     1     -34.418  -1.601   2.289  1.00  0.00     0.000 C 
BRANCH   2   3
ATOM      3  C   UNL     1     -33.607  -1.004   1.129  1.00  0.00     0.006 C 
BRANCH   3   4
ATOM      4  C   UNL     1     -34.528  -0.331   0.105  1.00  0.00     0.053 C 
BRANCH   4   5
ATOM      5  C   UNL     1     -33.963   0.986  -0.321  1.00  0.00     0.041 C 
ATOM      6  O   UNL     1     -34.559   1.680  -1.187  1.00  0.00    -0.550 OA
ATOM      7  O   UNL     1     -32.806   1.472   0.273  1.00  0.00    -0.550 OA
ENDBRANCH   4   5
ENDBRANCH   3   4
ENDBRANCH   2   3
ENDBRANCH   1   2
BRANCH   1   8
ATOM      8  C   UNL     1     -35.665  -3.873   2.153  1.00  0.00     0.000 C 
BRANCH   8   9
ATOM      9  C   UNL     1     -36.412  -3.415   0.889  1.00  0.00    -0.000 C 
BRANCH   9  10
ATOM     10  C   UNL     1     -36.129  -4.319  -0.323  1.00  0.00    -0.000 C 
BRANCH  10  11
ATOM     11  C   UNL     1     -34.878  -3.880  -1.103  1.00  0.00    -0.000 C 
BRANCH  11  12
ATOM     12  C   UNL     1     -34.316  -5.001  -1.993  1.00  0.00    -0.003 C 
ATOM     13  C   UNL     1     -33.232  -4.507  -2.949  1.00  0.00     0.004 C 
ENDBRANCH  11  12
ENDBRANCH  10  11
ENDBRANCH   9  10
ENDBRANCH   8   9
ENDBRANCH   1   8
TORSDOF 9
ENDMDL
MODEL 5
REMARK VINA RESULT:    -3.244      3.368      5.287
REMARK INTER + INTRA:          -5.918
REMARK INTER:                  -4.695
REMARK INTRA:                  -1.223
REMARK UNBOUND:                -0.967
REMARK SMILES CCCCCCCCCCC(=O)[O-]
REMARK SMILES IDX 7 1 8 2 9 3 10 4 11 5 12 6 13 7 6 8 5 9 4 10 3 11 2 12 1 13
REMARK H PARENT
REMARK Flexibility Score: inf
ROOT
ATOM      1  C   UNL     1     -32.784   4.927  -0.320  1.00  0.00     0.000 C 
ENDROOT
BRANCH   1   2
ATOM      2  C   UNL     1     -34.155   4.239  -0.450  1.00  0.00     0.000 C 
BRANCH   2   3
ATOM      3  C   UNL     1     -34.236   3.288  -1.653  1.00  0.00     0.006 C 
BRANCH   3   4
ATOM      4  C   UNL     1     -35.369   3.696  -2.600  1.00  0.00     0.053 C 
BRANCH   4   5
ATOM      5  C   UNL     1     -35.831   2.522  -3.402  1.00  0.00     0.041 C 
ATOM      6  O   UNL     1     -36.358   2.694  -4.533  1.00  0.00    -0.550 OA
ATOM      7  O   UNL     1     -35.635   1.233  -2.924  1.00  0.00    -0.550 OA
ENDBRANCH   4   5
ENDBRANCH   3   4
ENDBRANCH   2   3
ENDBRANCH   1   2
BRANCH   1   8
ATOM      8  C   UNL     1     -32.791   6.442  -0.597  1.00  0.00     0.000 C 
BRANCH   8   9
ATOM      9  C   UNL     1     -32.333   6.790  -2.023  1.00  0.00    -0.000 C 
BRANCH   9  10
ATOM     10  C   UNL     1     -33.504   6.866  -3.016  1.00  0.00    -0.000 C 
BRANCH  10  11
ATOM     11  C   UNL     1     -34.532   7.944  -2.631  1.00  0.00    -0.000 C 
BRANCH  11  12
ATOM     12  C   UNL     1     -35.972   7.408  -2.625  1.00  0.00    -0.003 C 
ATOM     13  C   UNL     1     -36.462   7.050  -1.222  1.00  0.00     0.004 C 
ENDBRANCH  11  12
ENDBRANCH  10  11
ENDBRANCH   9  10
ENDBRANCH   8   9
ENDBRANCH   1   8
TORSDOF 9
ENDMDL
MODEL 6
REMARK VINA RESULT:    -3.242      2.237      4.642
REMARK INTER + INTRA:          -5.915
REMARK INTER:                  -5.075
REMARK INTRA:                  -0.840
REMARK UNBOUND:                -0.967
REMARK SMILES CCCCCCCCCCC(=O)[O-]
REMARK SMILES IDX 7 1 8 2 9 3 10 4 11 5 12 6 13 7 6 8 5 9 4 10 3 11 2 12 1 13
REMARK H PARENT
REMARK Flexibility Score: inf
ROOT
ATOM      1  C   UNL     1     -33.995   7.255  -1.382  1.00  0.00     0.000 C 
ENDROOT
BRANCH   1   2
ATOM      2  C   UNL     1     -35.510   6.994  -1.475  1.00  0.00     0.000 C 
BRANCH   2   3
ATOM      3  C   UNL     1     -35.869   5.504  -1.384  1.00  0.00     0.006 C 
BRANCH   3   4
ATOM      4  C   UNL     1     -36.777   5.085  -2.545  1.00  0.00     0.053 C 
BRANCH   4   5
ATOM      5  C   UNL     1     -36.125   5.389  -3.856  1.00  0.00     0.041 C 
ATOM      6  O   UNL     1     -35.057   4.806  -4.183  1.00  0.00    -0.550 OA
ATOM      7  O   UNL     1     -36.721   6.280  -4.738  1.00  0.00    -0.550 OA
ENDBRANCH   4   5
ENDBRANCH   3   4
ENDBRANCH   2   3
ENDBRANCH   1   2
BRANCH   1   8
ATOM      8  C   UNL     1     -33.308   7.563  -2.725  1.00  0.00     0.000 C 
BRANCH   8   9
ATOM      9  C   UNL     1     -32.981   9.055  -2.901  1.00  0.00    -0.000 C 
BRANCH   9  10
ATOM     10  C   UNL     1     -34.225   9.895  -3.236  1.00  0.00    -0.000 C 
BRANCH  10  11
ATOM     11  C   UNL     1     -35.026   9.315  -4.414  1.00  0.00    -0.000 C 
BRANCH  11  12
ATOM     12  C   UNL     1     -36.377  10.020  -4.611  1.00  0.00    -0.003 C 
ATOM     13  C   UNL     1     -36.620  11.125  -3.585  1.00  0.00     0.004 C 
ENDBRANCH  11  12
ENDBRANCH  10  11
ENDBRANCH   9  10
ENDBRANCH   8   9
ENDBRANCH   1   8
TORSDOF 9
ENDMDL
MODEL 7
REMARK VINA RESULT:    -3.231      4.004      5.289
REMARK INTER + INTRA:          -5.899
REMARK INTER:                  -4.678
REMARK INTRA:                  -1.221
REMARK UNBOUND:                -0.967
REMARK SMILES CCCCCCCCCCC(=O)[O-]
REMARK SMILES IDX 7 1 8 2 9 3 10 4 11 5 12 6 13 7 6 8 5 9 4 10 3 11 2 12 1 13
REMARK H PARENT
REMARK Flexibility Score: inf
ROOT
ATOM      1  C   UNL     1     -36.342   5.895  -3.617  1.00  0.00     0.000 C 
ENDROOT
BRANCH   1   2
ATOM      2  C   UNL     1     -36.094   4.516  -4.257  1.00  0.00     0.000 C 
BRANCH   2   3
ATOM      3  C   UNL     1     -35.820   3.416  -3.221  1.00  0.00     0.006 C 
BRANCH   3   4
ATOM      4  C   UNL     1     -34.611   2.568  -3.627  1.00  0.00     0.053 C 
BRANCH   4   5
ATOM      5  C   UNL     1     -35.011   1.529  -4.625  1.00  0.00     0.041 C 
ATOM      6  O   UNL     1     -35.643   0.504  -4.254  1.00  0.00    -0.550 OA
ATOM      7  O   UNL     1     -34.730   1.714  -5.972  1.00  0.00    -0.550 OA
ENDBRANCH   4   5
ENDBRANCH   3   4
ENDBRANCH   2   3
ENDBRANCH   1   2
BRANCH   1   8
ATOM      8  C   UNL     1     -36.590   5.868  -2.097  1.00  0.00     0.000 C 
BRANCH   8   9
ATOM      9  C   UNL     1     -36.023   7.104  -1.378  1.00  0.00    -0.000 C 
BRANCH   9  10
ATOM     10  C   UNL     1     -34.588   7.436  -1.818  1.00  0.00    -0.000 C 
BRANCH  10  11
ATOM     11  C   UNL     1     -33.531   6.723  -0.956  1.00  0.00    -0.000 C 
BRANCH  11  12
ATOM     12  C   UNL     1     -32.961   5.470  -1.640  1.00  0.00    -0.003 C 
ATOM     13  C   UNL     1     -32.581   5.717  -3.099  1.00  0.00     0.004 C 
ENDBRANCH  11  12
ENDBRANCH  10  11
ENDBRANCH   9  10
ENDBRANCH   8   9
ENDBRANCH   1   8
TORSDOF 9
ENDMDL
MODEL 8
REMARK VINA RESULT:    -3.227      3.198      4.632
REMARK INTER + INTRA:          -5.892
REMARK INTER:                  -4.590
REMARK INTRA:                  -1.301
REMARK UNBOUND:                -0.967
REMARK SMILES CCCCCCCCCCC(=O)[O-]
REMARK SMILES IDX 7 1 8 2 9 3 10 4 11 5 12 6 13 7 6 8 5 9 4 10 3 11 2 12 1 13
REMARK H PARENT
REMARK Flexibility Score: inf
ROOT
ATOM      1  C   UNL     1     -35.916   7.518  -3.195  1.00  0.00     0.000 C 
ENDROOT
BRANCH   1   2
ATOM      2  C   UNL     1     -36.078   7.295  -1.680  1.00  0.00     0.000 C 
BRANCH   2   3
ATOM      3  C   UNL     1     -35.941   5.820  -1.274  1.00  0.00     0.006 C 
BRANCH   3   4
ATOM      4  C   UNL     1     -35.203   5.019  -2.352  1.00  0.00     0.053 C 
BRANCH   4   5
ATOM      5  C   UNL     1     -34.417   3.908  -1.732  1.00  0.00     0.041 C 
ATOM      6  O   UNL     1     -34.374   3.784  -0.480  1.00  0.00    -0.550 OA
ATOM      7  O   UNL     1     -33.772   2.980  -2.539  1.00  0.00    -0.550 OA
ENDBRANCH   4   5
ENDBRANCH   3   4
ENDBRANCH   2   3
ENDBRANCH   1   2
BRANCH   1   8
ATOM      8  C   UNL     1     -35.056   8.735  -3.582  1.00  0.00     0.000 C 
BRANCH   8   9
ATOM      9  C   UNL     1     -33.679   8.736  -2.896  1.00  0.00    -0.000 C 
BRANCH   9  10
ATOM     10  C   UNL     1     -32.743   7.650  -3.452  1.00  0.00    -0.000 C 
BRANCH  10  11
ATOM     11  C   UNL     1     -31.775   7.107  -2.387  1.00  0.00    -0.000 C 
BRANCH  11  12
ATOM     12  C   UNL     1     -32.416   7.034  -0.992  1.00  0.00    -0.003 C 
ATOM     13  C   UNL     1     -31.711   6.039  -0.071  1.00  0.00     0.004 C 
ENDBRANCH  11  12
ENDBRANCH  10  11
ENDBRANCH   9  10
ENDBRANCH   8   9
ENDBRANCH   1   8
TORSDOF 9
ENDMDL
MODEL 9
REMARK VINA RESULT:    -3.211      3.866      4.972
REMARK INTER + INTRA:          -5.867
REMARK INTER:                  -4.493
REMARK INTRA:                  -1.374
REMARK UNBOUND:                -0.967
REMARK SMILES CCCCCCCCCCC(=O)[O-]
REMARK SMILES IDX 7 1 8 2 9 3 10 4 11 5 12 6 13 7 6 8 5 9 4 10 3 11 2 12 1 13
REMARK H PARENT
REMARK Flexibility Score: inf
ROOT
ATOM      1  C   UNL     1     -36.425   6.475  -1.612  1.00  0.00     0.000 C 
ENDROOT
BRANCH   1   2
ATOM      2  C   UNL     1     -36.412   5.798  -2.996  1.00  0.00     0.000 C 
BRANCH   2   3
ATOM      3  C   UNL     1     -36.426   4.265  -2.913  1.00  0.00     0.006 C 
BRANCH   3   4
ATOM      4  C   UNL     1     -35.159   3.670  -3.537  1.00  0.00     0.053 C 
BRANCH   4   5
ATOM      5  C   UNL     1     -35.258   2.180  -3.602  1.00  0.00     0.041 C 
ATOM      6  O   UNL     1     -34.954   1.570  -4.662  1.00  0.00    -0.550 OA
ATOM      7  O   UNL     1     -35.637   1.458  -2.478  1.00  0.00    -0.550 OA
ENDBRANCH   4   5
ENDBRANCH   3   4
ENDBRANCH   2   3
ENDBRANCH   1   2
BRANCH   1   8
ATOM      8  C   UNL     1     -35.115   7.188  -1.229  1.00  0.00     0.000 C 
BRANCH   8   9
ATOM      9  C   UNL     1     -34.104   7.242  -2.386  1.00  0.00    -0.000 C 
BRANCH   9  10
ATOM     10  C   UNL     1     -32.867   6.365  -2.129  1.00  0.00    -0.000 C 
BRANCH  10  11
ATOM     11  C   UNL     1     -32.811   5.836  -0.686  1.00  0.00    -0.000 C 
BRANCH  11  12
ATOM     12  C   UNL     1     -32.834   4.301  -0.620  1.00  0.00    -0.003 C 
ATOM     13  C   UNL     1     -34.105   3.758   0.031  1.00  0.00     0.004 C 
ENDBRANCH  11  12
ENDBRANCH  10  11
ENDBRANCH   9  10
ENDBRANCH   8   9
ENDBRANCH   1   8
TORSDOF 9
ENDMDL
