MODEL 1
REMARK VINA RESULT:    -3.987      0.000      0.000
REMARK INTER + INTRA:          -7.357
REMARK INTER:                  -6.201
REMARK INTRA:                  -1.157
REMARK UNBOUND:                -1.157
REMARK SMILES COc1cc(CNC(=O)CCCCC=CC(C)C)ccc1O
REMARK SMILES IDX 11 1 12 2 13 3 14 4 15 5 16 6 17 7 18 8 10 9 8 10 9 11 7 12
REMARK SMILES IDX 6 14 5 15 4 16 19 17 3 18 20 19 21 20 2 21 1 22 22 23
REMARK H PARENT 7 13 22 24
REMARK Flexibility Score: inf
ROOT
ATOM      1  C   UNL     1     156.822 156.097 149.489  1.00  0.00     0.010 C 
ENDROOT
BRANCH   1   2
ATOM      2  C   UNL     1     155.447 155.746 148.891  1.00  0.00     0.005 C 
BRANCH   2   3
ATOM      3  C   UNL     1     154.292 156.371 149.684  1.00  0.00     0.027 C 
BRANCH   3   4
ATOM      4  C   UNL     1     154.737 157.566 150.491  1.00  0.00    -0.031 C 
ATOM      5  C   UNL     1     154.749 158.837 150.042  1.00  0.00    -0.028 C 
BRANCH   5   6
ATOM      6  C   UNL     1     154.267 159.272 148.673  1.00  0.00     0.005 C 
ATOM      7  C   UNL     1     155.468 159.631 147.791  1.00  0.00     0.012 C 
ATOM      8  C   UNL     1     153.328 160.479 148.800  1.00  0.00     0.012 C 
ENDBRANCH   5   6
ENDBRANCH   3   4
ENDBRANCH   2   3
ENDBRANCH   1   2
BRANCH   1   9
ATOM      9  C   UNL     1     157.875 156.372 148.409  1.00  0.00     0.100 C 
BRANCH   9  10
ATOM     10  C   UNL     1     158.340 155.113 147.742  1.00  0.00     0.220 C 
ATOM     11  O   UNL     1     158.111 154.940 146.513  1.00  0.00    -0.275 OA
ATOM     12  N   UNL     1     159.012 154.103 148.508  1.00  0.00    -0.352 N 
ATOM     13  H   UNL     1     159.098 154.223 149.544  1.00  0.00     0.163 HD
BRANCH  12  14
ATOM     14  C   UNL     1     159.486 152.855 147.921  1.00  0.00     0.151 C 
BRANCH  14  15
ATOM     15  C   UNL     1     158.693 151.697 148.461  1.00  0.00    -0.025 A 
ATOM     16  C   UNL     1     159.272 150.421 148.557  1.00  0.00     0.056 A 
ATOM     17  C   UNL     1     157.359 151.880 148.849  1.00  0.00     0.009 A 
ATOM     18  C   UNL     1     158.538 149.342 149.086  1.00  0.00     0.160 A 
ATOM     19  C   UNL     1     156.624 150.813 149.367  1.00  0.00     0.050 A 
ATOM     20  C   UNL     1     157.211 149.549 149.497  1.00  0.00     0.157 A 
BRANCH  18  21
ATOM     21  O   UNL     1     159.089 148.057 149.224  1.00  0.00    -0.493 OA
ATOM     22  C   UNL     1     160.038 147.484 148.325  1.00  0.00     0.278 C 
ENDBRANCH  18  21
BRANCH  20  23
ATOM     23  O   UNL     1     156.482 148.490 150.039  1.00  0.00    -0.504 OA
ATOM     24  H   UNL     1     155.614 148.173 149.618  1.00  0.00     0.293 HD
ENDBRANCH  20  23
ENDBRANCH  14  15
ENDBRANCH  12  14
ENDBRANCH   9  10
ENDBRANCH   1   9
TORSDOF 10
ENDMDL
MODEL 2
REMARK VINA RESULT:    -3.981      5.709      9.090
REMARK INTER + INTRA:          -7.349
REMARK INTER:                  -6.415
REMARK INTRA:                  -0.934
REMARK UNBOUND:                -1.157
REMARK SMILES COc1cc(CNC(=O)CCCCC=CC(C)C)ccc1O
REMARK SMILES IDX 11 1 12 2 13 3 14 4 15 5 16 6 17 7 18 8 10 9 8 10 9 11 7 12
REMARK SMILES IDX 6 14 5 15 4 16 19 17 3 18 20 19 21 20 2 21 1 22 22 23
REMARK H PARENT 7 13 22 24
REMARK Flexibility Score: inf
ROOT
ATOM      1  C   UNL     1     147.459 158.290 148.243  1.00  0.00     0.010 C 
ENDROOT
BRANCH   1   2
ATOM      2  C   UNL     1     146.232 157.461 148.664  1.00  0.00     0.005 C 
BRANCH   2   3
ATOM      3  C   UNL     1     146.379 155.979 148.294  1.00  0.00     0.027 C 
BRANCH   3   4
ATOM      4  C   UNL     1     145.613 155.079 149.233  1.00  0.00    -0.031 C 
ATOM      5  C   UNL     1     146.100 154.573 150.383  1.00  0.00    -0.028 C 
BRANCH   5   6
ATOM      6  C   UNL     1     147.477 154.870 150.941  1.00  0.00     0.005 C 
ATOM      7  C   UNL     1     148.523 154.008 150.224  1.00  0.00     0.012 C 
ATOM      8  C   UNL     1     147.510 154.591 152.449  1.00  0.00     0.012 C 
ENDBRANCH   5   6
ENDBRANCH   3   4
ENDBRANCH   2   3
ENDBRANCH   1   2
BRANCH   1   9
ATOM      9  C   UNL     1     148.770 157.709 148.786  1.00  0.00     0.100 C 
BRANCH   9  10
ATOM     10  C   UNL     1     149.958 158.156 147.989  1.00  0.00     0.220 C 
ATOM     11  O   UNL     1     149.930 158.067 146.730  1.00  0.00    -0.275 OA
ATOM     12  N   UNL     1     151.126 158.650 148.660  1.00  0.00    -0.352 N 
ATOM     13  H   UNL     1     151.165 158.618 149.705  1.00  0.00     0.163 HD
BRANCH  12  14
ATOM     14  C   UNL     1     152.315 159.098 147.943  1.00  0.00     0.151 C 
BRANCH  14  15
ATOM     15  C   UNL     1     153.530 158.378 148.460  1.00  0.00    -0.025 A 
ATOM     16  C   UNL     1     154.805 158.952 148.332  1.00  0.00     0.056 A 
ATOM     17  C   UNL     1     153.398 157.114 149.051  1.00  0.00     0.009 A 
ATOM     18  C   UNL     1     155.940 158.289 148.840  1.00  0.00     0.160 A 
ATOM     19  C   UNL     1     154.520 156.449 149.549  1.00  0.00     0.050 A 
ATOM     20  C   UNL     1     155.787 157.036 149.455  1.00  0.00     0.157 A 
BRANCH  18  21
ATOM     21  O   UNL     1     157.229 158.841 148.755  1.00  0.00    -0.493 OA
ATOM     22  C   UNL     1     157.556 160.023 148.026  1.00  0.00     0.278 C 
ENDBRANCH  18  21
BRANCH  20  23
ATOM     23  O   UNL     1     156.903 156.380 149.975  1.00  0.00    -0.504 OA
ATOM     24  H   UNL     1     157.053 156.300 150.976  1.00  0.00     0.293 HD
ENDBRANCH  20  23
ENDBRANCH  14  15
ENDBRANCH  12  14
ENDBRANCH   9  10
ENDBRANCH   1   9
TORSDOF 10
ENDMDL
MODEL 3
REMARK VINA RESULT:    -3.956      8.500     10.036
REMARK INTER + INTRA:          -7.310
REMARK INTER:                  -6.145
REMARK INTRA:                  -1.165
REMARK UNBOUND:                -1.157
REMARK SMILES COc1cc(CNC(=O)CCCCC=CC(C)C)ccc1O
REMARK SMILES IDX 11 1 12 2 13 3 14 4 15 5 16 6 17 7 18 8 10 9 8 10 9 11 7 12
REMARK SMILES IDX 6 14 5 15 4 16 19 17 3 18 20 19 21 20 2 21 1 22 22 23
REMARK H PARENT 7 13 22 24
REMARK Flexibility Score: inf
ROOT
ATOM      1  C   UNL     1     145.069 153.247 147.997  1.00  0.00     0.010 C 
ENDROOT
BRANCH   1   2
ATOM      2  C   UNL     1     144.900 153.503 149.505  1.00  0.00     0.005 C 
BRANCH   2   3
ATOM      3  C   UNL     1     145.462 154.867 149.929  1.00  0.00     0.027 C 
BRANCH   3   4
ATOM      4  C   UNL     1     146.566 154.735 150.950  1.00  0.00    -0.031 C 
ATOM      5  C   UNL     1     147.878 154.904 150.692  1.00  0.00    -0.028 C 
BRANCH   5   6
ATOM      6  C   UNL     1     148.447 155.306 149.346  1.00  0.00     0.005 C 
ATOM      7  C   UNL     1     149.465 154.258 148.882  1.00  0.00     0.012 C 
ATOM      8  C   UNL     1     149.117 156.683 149.442  1.00  0.00     0.012 C 
ENDBRANCH   5   6
ENDBRANCH   3   4
ENDBRANCH   2   3
ENDBRANCH   1   2
BRANCH   1   9
ATOM      9  C   UNL     1     146.395 152.551 147.667  1.00  0.00     0.100 C 
BRANCH   9  10
ATOM     10  C   UNL     1     146.215 151.083 147.423  1.00  0.00     0.220 C 
ATOM     11  O   UNL     1     145.590 150.696 146.397  1.00  0.00    -0.275 OA
ATOM     12  N   UNL     1     146.726 150.132 148.368  1.00  0.00    -0.352 N 
ATOM     13  H   UNL     1     147.148 150.478 149.260  1.00  0.00     0.163 HD
BRANCH  12  14
ATOM     14  C   UNL     1     146.582 148.691 148.191  1.00  0.00     0.151 C 
BRANCH  14  15
ATOM     15  C   UNL     1     147.783 147.981 148.751  1.00  0.00    -0.025 A 
ATOM     16  C   UNL     1     148.910 148.709 149.168  1.00  0.00     0.056 A 
ATOM     17  C   UNL     1     147.796 146.582 148.837  1.00  0.00     0.009 A 
ATOM     18  C   UNL     1     150.025 148.046 149.717  1.00  0.00     0.160 A 
ATOM     19  C   UNL     1     148.901 145.919 149.373  1.00  0.00     0.050 A 
ATOM     20  C   UNL     1     150.009 146.646 149.823  1.00  0.00     0.157 A 
BRANCH  18  21
ATOM     21  O   UNL     1     151.160 148.740 150.169  1.00  0.00    -0.493 OA
ATOM     22  C   UNL     1     152.146 149.322 149.317  1.00  0.00     0.278 C 
ENDBRANCH  18  21
BRANCH  20  23
ATOM     23  O   UNL     1     151.102 145.982 150.380  1.00  0.00    -0.504 OA
ATOM     24  H   UNL     1     151.088 145.646 151.338  1.00  0.00     0.293 HD
ENDBRANCH  20  23
ENDBRANCH  14  15
ENDBRANCH  12  14
ENDBRANCH   9  10
ENDBRANCH   1   9
TORSDOF 10
ENDMDL
MODEL 4
REMARK VINA RESULT:    -3.913      6.276      9.456
REMARK INTER + INTRA:          -7.242
REMARK INTER:                  -5.956
REMARK INTRA:                  -1.286
REMARK UNBOUND:                -1.157
REMARK SMILES COc1cc(CNC(=O)CCCCC=CC(C)C)ccc1O
REMARK SMILES IDX 11 1 12 2 13 3 14 4 15 5 16 6 17 7 18 8 10 9 8 10 9 11 7 12
REMARK SMILES IDX 6 14 5 15 4 16 19 17 3 18 20 19 21 20 2 21 1 22 22 23
REMARK H PARENT 7 13 22 24
REMARK Flexibility Score: inf
ROOT
ATOM      1  C   UNL     1     155.565 147.736 148.430  1.00  0.00     0.010 C 
ENDROOT
BRANCH   1   2
ATOM      2  C   UNL     1     155.129 149.115 147.903  1.00  0.00     0.005 C 
BRANCH   2   3
ATOM      3  C   UNL     1     154.717 150.066 149.035  1.00  0.00     0.027 C 
BRANCH   3   4
ATOM      4  C   UNL     1     155.562 151.316 149.064  1.00  0.00    -0.031 C 
ATOM      5  C   UNL     1     156.718 151.449 149.742  1.00  0.00    -0.028 C 
BRANCH   5   6
ATOM      6  C   UNL     1     157.381 150.345 150.541  1.00  0.00     0.005 C 
ATOM      7  C   UNL     1     157.550 150.790 151.998  1.00  0.00     0.012 C 
ATOM      8  C   UNL     1     158.747 149.998 149.935  1.00  0.00     0.012 C 
ENDBRANCH   5   6
ENDBRANCH   3   4
ENDBRANCH   2   3
ENDBRANCH   1   2
BRANCH   1   9
ATOM      9  C   UNL     1     155.379 146.627 147.387  1.00  0.00     0.100 C 
BRANCH   9  10
ATOM     10  C   UNL     1     153.985 146.077 147.393  1.00  0.00     0.220 C 
ATOM     11  O   UNL     1     153.422 145.799 146.298  1.00  0.00    -0.275 OA
ATOM     12  N   UNL     1     153.291 145.899 148.636  1.00  0.00    -0.352 N 
ATOM     13  H   UNL     1     153.739 146.232 149.521  1.00  0.00     0.163 HD
BRANCH  12  14
ATOM     14  C   UNL     1     151.933 145.371 148.711  1.00  0.00     0.151 C 
BRANCH  14  15
ATOM     15  C   UNL     1     150.954 146.493 148.917  1.00  0.00    -0.025 A 
ATOM     16  C   UNL     1     149.583 146.292 148.689  1.00  0.00     0.056 A 
ATOM     17  C   UNL     1     151.409 147.758 149.315  1.00  0.00     0.009 A 
ATOM     18  C   UNL     1     148.663 147.337 148.907  1.00  0.00     0.160 A 
ATOM     19  C   UNL     1     150.503 148.798 149.525  1.00  0.00     0.050 A 
ATOM     20  C   UNL     1     149.132 148.589 149.334  1.00  0.00     0.157 A 
BRANCH  18  21
ATOM     21  O   UNL     1     147.281 147.168 148.717  1.00  0.00    -0.493 OA
ATOM     22  C   UNL     1     146.622 145.904 148.652  1.00  0.00     0.278 C 
ENDBRANCH  18  21
BRANCH  20  23
ATOM     23  O   UNL     1     148.227 149.624 149.568  1.00  0.00    -0.504 OA
ATOM     24  H   UNL     1     148.531 150.590 149.640  1.00  0.00     0.293 HD
ENDBRANCH  20  23
ENDBRANCH  14  15
ENDBRANCH  12  14
ENDBRANCH   9  10
ENDBRANCH   1   9
TORSDOF 10
ENDMDL
MODEL 5
REMARK VINA RESULT:    -3.905      1.055      1.964
REMARK INTER + INTRA:          -7.230
REMARK INTER:                  -6.215
REMARK INTRA:                  -1.016
REMARK UNBOUND:                -1.157
REMARK SMILES COc1cc(CNC(=O)CCCCC=CC(C)C)ccc1O
REMARK SMILES IDX 11 1 12 2 13 3 14 4 15 5 16 6 17 7 18 8 10 9 8 10 9 11 7 12
REMARK SMILES IDX 6 14 5 15 4 16 19 17 3 18 20 19 21 20 2 21 1 22 22 23
REMARK H PARENT 7 13 22 24
REMARK Flexibility Score: inf
ROOT
ATOM      1  C   UNL     1     157.004 156.899 147.020  1.00  0.00     0.010 C 
ENDROOT
BRANCH   1   2
ATOM      2  C   UNL     1     156.847 158.387 147.381  1.00  0.00     0.005 C 
BRANCH   2   3
ATOM      3  C   UNL     1     157.132 158.658 148.864  1.00  0.00     0.027 C 
BRANCH   3   4
ATOM      4  C   UNL     1     156.074 159.529 149.497  1.00  0.00    -0.031 C 
ATOM      5  C   UNL     1     155.121 159.090 150.342  1.00  0.00    -0.028 C 
BRANCH   5   6
ATOM      6  C   UNL     1     154.994 157.662 150.832  1.00  0.00     0.005 C 
ATOM      7  C   UNL     1     153.999 156.899 149.950  1.00  0.00     0.012 C 
ATOM      8  C   UNL     1     154.524 157.641 152.293  1.00  0.00     0.012 C 
ENDBRANCH   5   6
ENDBRANCH   3   4
ENDBRANCH   2   3
ENDBRANCH   1   2
BRANCH   1   9
ATOM      9  C   UNL     1     157.611 156.082 148.167  1.00  0.00     0.100 C 
BRANCH   9  10
ATOM     10  C   UNL     1     158.241 154.811 147.682  1.00  0.00     0.220 C 
ATOM     11  O   UNL     1     158.105 154.472 146.475  1.00  0.00    -0.275 OA
ATOM     12  N   UNL     1     158.966 153.977 148.598  1.00  0.00    -0.352 N 
ATOM     13  H   UNL     1     158.978 154.226 149.614  1.00  0.00     0.163 HD
BRANCH  12  14
ATOM     14  C   UNL     1     159.601 152.728 148.191  1.00  0.00     0.151 C 
BRANCH  14  15
ATOM     15  C   UNL     1     158.759 151.559 148.622  1.00  0.00    -0.025 A 
ATOM     16  C   UNL     1     159.305 150.265 148.661  1.00  0.00     0.056 A 
ATOM     17  C   UNL     1     157.413 151.750 148.963  1.00  0.00     0.009 A 
ATOM     18  C   UNL     1     158.524 149.174 149.090  1.00  0.00     0.160 A 
ATOM     19  C   UNL     1     156.633 150.671 149.381  1.00  0.00     0.050 A 
ATOM     20  C   UNL     1     157.186 149.387 149.456  1.00  0.00     0.157 A 
BRANCH  18  21
ATOM     21  O   UNL     1     159.041 147.869 149.169  1.00  0.00    -0.493 OA
ATOM     22  C   UNL     1     159.059 146.940 148.086  1.00  0.00     0.278 C 
ENDBRANCH  18  21
BRANCH  20  23
ATOM     23  O   UNL     1     156.410 148.315 149.898  1.00  0.00    -0.504 OA
ATOM     24  H   UNL     1     156.384 148.045 150.876  1.00  0.00     0.293 HD
ENDBRANCH  20  23
ENDBRANCH  14  15
ENDBRANCH  12  14
ENDBRANCH   9  10
ENDBRANCH   1   9
TORSDOF 10
ENDMDL
MODEL 6
REMARK VINA RESULT:    -3.876      0.916      2.027
REMARK INTER + INTRA:          -7.185
REMARK INTER:                  -6.004
REMARK INTRA:                  -1.181
REMARK UNBOUND:                -1.157
REMARK SMILES COc1cc(CNC(=O)CCCCC=CC(C)C)ccc1O
REMARK SMILES IDX 11 1 12 2 13 3 14 4 15 5 16 6 17 7 18 8 10 9 8 10 9 11 7 12
REMARK SMILES IDX 6 14 5 15 4 16 19 17 3 18 20 19 21 20 2 21 1 22 22 23
REMARK H PARENT 7 13 22 24
REMARK Flexibility Score: inf
ROOT
ATOM      1  C   UNL     1     156.766 156.164 149.520  1.00  0.00     0.010 C 
ENDROOT
BRANCH   1   2
ATOM      2  C   UNL     1     155.374 155.786 148.983  1.00  0.00     0.005 C 
BRANCH   2   3
ATOM      3  C   UNL     1     154.244 156.445 149.785  1.00  0.00     0.027 C 
BRANCH   3   4
ATOM      4  C   UNL     1     154.724 157.646 150.564  1.00  0.00    -0.031 C 
ATOM      5  C   UNL     1     154.749 158.908 150.095  1.00  0.00    -0.028 C 
BRANCH   5   6
ATOM      6  C   UNL     1     154.247 159.330 148.729  1.00  0.00     0.005 C 
ATOM      7  C   UNL     1     155.438 159.643 147.815  1.00  0.00     0.012 C 
ATOM      8  C   UNL     1     153.342 160.563 148.853  1.00  0.00     0.012 C 
ENDBRANCH   5   6
ENDBRANCH   3   4
ENDBRANCH   2   3
ENDBRANCH   1   2
BRANCH   1   9
ATOM      9  C   UNL     1     157.770 156.440 148.394  1.00  0.00     0.100 C 
BRANCH   9  10
ATOM     10  C   UNL     1     158.225 155.180 147.724  1.00  0.00     0.220 C 
ATOM     11  O   UNL     1     157.926 154.975 146.515  1.00  0.00    -0.275 OA
ATOM     12  N   UNL     1     158.969 154.202 148.466  1.00  0.00    -0.352 N 
ATOM     13  H   UNL     1     159.116 154.347 149.492  1.00  0.00     0.163 HD
BRANCH  12  14
ATOM     14  C   UNL     1     159.439 152.955 147.875  1.00  0.00     0.151 C 
BRANCH  14  15
ATOM     15  C   UNL     1     158.694 151.791 148.468  1.00  0.00    -0.025 A 
ATOM     16  C   UNL     1     157.312 151.652 148.260  1.00  0.00     0.056 A 
ATOM     17  C   UNL     1     159.372 150.849 149.254  1.00  0.00     0.009 A 
ATOM     18  C   UNL     1     156.618 150.548 148.794  1.00  0.00     0.160 A 
ATOM     19  C   UNL     1     158.688 149.758 149.791  1.00  0.00     0.050 A 
ATOM     20  C   UNL     1     157.318 149.598 149.555  1.00  0.00     0.157 A 
BRANCH  18  21
ATOM     21  O   UNL     1     155.241 150.358 148.587  1.00  0.00    -0.493 OA
ATOM     22  C   UNL     1     154.312 151.407 148.317  1.00  0.00     0.278 C 
ENDBRANCH  18  21
BRANCH  20  23
ATOM     23  O   UNL     1     156.642 148.493 150.073  1.00  0.00    -0.504 OA
ATOM     24  H   UNL     1     156.611 148.309 151.071  1.00  0.00     0.293 HD
ENDBRANCH  20  23
ENDBRANCH  14  15
ENDBRANCH  12  14
ENDBRANCH   9  10
ENDBRANCH   1   9
TORSDOF 10
ENDMDL
MODEL 7
REMARK VINA RESULT:    -3.867      5.571      8.579
REMARK INTER + INTRA:          -7.172
REMARK INTER:                  -5.520
REMARK INTRA:                  -1.652
REMARK UNBOUND:                -1.157
REMARK SMILES COc1cc(CNC(=O)CCCCC=CC(C)C)ccc1O
REMARK SMILES IDX 11 1 12 2 13 3 14 4 15 5 16 6 17 7 18 8 10 9 8 10 9 11 7 12
REMARK SMILES IDX 6 14 5 15 4 16 19 17 3 18 20 19 21 20 2 21 1 22 22 23
REMARK H PARENT 7 13 22 24
REMARK Flexibility Score: inf
ROOT
ATOM      1  C   UNL     1     151.134 145.519 149.517  1.00  0.00     0.010 C 
ENDROOT
BRANCH   1   2
ATOM      2  C   UNL     1     149.679 145.886 149.859  1.00  0.00     0.005 C 
BRANCH   2   3
ATOM      3  C   UNL     1     148.979 146.621 148.708  1.00  0.00     0.027 C 
BRANCH   3   4
ATOM      4  C   UNL     1     148.473 147.980 149.124  1.00  0.00    -0.031 C 
ATOM      5  C   UNL     1     149.211 149.107 149.137  1.00  0.00    -0.028 C 
BRANCH   5   6
ATOM      6  C   UNL     1     150.655 149.196 148.685  1.00  0.00     0.005 C 
ATOM      7  C   UNL     1     151.575 149.298 149.907  1.00  0.00     0.012 C 
ATOM      8  C   UNL     1     150.852 150.416 147.776  1.00  0.00     0.012 C 
ENDBRANCH   5   6
ENDBRANCH   3   4
ENDBRANCH   2   3
ENDBRANCH   1   2
BRANCH   1   9
ATOM      9  C   UNL     1     151.456 145.735 148.033  1.00  0.00     0.100 C 
BRANCH   9  10
ATOM     10  C   UNL     1     152.929 145.863 147.789  1.00  0.00     0.220 C 
ATOM     11  O   UNL     1     153.500 145.064 146.998  1.00  0.00    -0.275 OA
ATOM     12  N   UNL     1     153.684 146.871 148.479  1.00  0.00    -0.352 N 
ATOM     13  H   UNL     1     153.208 147.453 149.207  1.00  0.00     0.163 HD
BRANCH  12  14
ATOM     14  C   UNL     1     155.119 147.048 148.289  1.00  0.00     0.151 C 
BRANCH  14  15
ATOM     15  C   UNL     1     155.518 148.451 148.654  1.00  0.00    -0.025 A 
ATOM     16  C   UNL     1     156.601 148.680 149.518  1.00  0.00     0.056 A 
ATOM     17  C   UNL     1     154.794 149.540 148.152  1.00  0.00     0.009 A 
ATOM     18  C   UNL     1     156.992 149.995 149.839  1.00  0.00     0.160 A 
ATOM     19  C   UNL     1     155.171 150.845 148.472  1.00  0.00     0.050 A 
ATOM     20  C   UNL     1     156.273 151.076 149.305  1.00  0.00     0.157 A 
BRANCH  18  21
ATOM     21  O   UNL     1     158.085 150.267 150.679  1.00  0.00    -0.493 OA
ATOM     22  C   UNL     1     159.452 150.191 150.276  1.00  0.00     0.278 C 
ENDBRANCH  18  21
BRANCH  20  23
ATOM     23  O   UNL     1     156.662 152.382 149.604  1.00  0.00    -0.504 OA
ATOM     24  H   UNL     1     156.696 152.720 150.560  1.00  0.00     0.293 HD
ENDBRANCH  20  23
ENDBRANCH  14  15
ENDBRANCH  12  14
ENDBRANCH   9  10
ENDBRANCH   1   9
TORSDOF 10
ENDMDL
MODEL 8
REMARK VINA RESULT:    -3.856      5.660      8.663
REMARK INTER + INTRA:          -7.154
REMARK INTER:                  -5.858
REMARK INTRA:                  -1.296
REMARK UNBOUND:                -1.157
REMARK SMILES COc1cc(CNC(=O)CCCCC=CC(C)C)ccc1O
REMARK SMILES IDX 11 1 12 2 13 3 14 4 15 5 16 6 17 7 18 8 10 9 8 10 9 11 7 12
REMARK SMILES IDX 6 14 5 15 4 16 19 17 3 18 20 19 21 20 2 21 1 22 22 23
REMARK H PARENT 7 13 22 24
REMARK Flexibility Score: inf
ROOT
ATOM      1  C   UNL     1     156.518 148.634 146.848  1.00  0.00     0.010 C 
ENDROOT
BRANCH   1   2
ATOM      2  C   UNL     1     155.476 149.732 147.129  1.00  0.00     0.005 C 
BRANCH   2   3
ATOM      3  C   UNL     1     155.232 149.931 148.631  1.00  0.00     0.027 C 
BRANCH   3   4
ATOM      4  C   UNL     1     155.702 151.283 149.110  1.00  0.00    -0.031 C 
ATOM      5  C   UNL     1     156.653 151.482 150.043  1.00  0.00    -0.028 C 
BRANCH   5   6
ATOM      6  C   UNL     1     157.441 150.378 150.720  1.00  0.00     0.005 C 
ATOM      7  C   UNL     1     157.677 150.738 152.191  1.00  0.00     0.012 C 
ATOM      8  C   UNL     1     158.784 150.170 150.007  1.00  0.00     0.012 C 
ENDBRANCH   5   6
ENDBRANCH   3   4
ENDBRANCH   2   3
ENDBRANCH   1   2
BRANCH   1   9
ATOM      9  C   UNL     1     156.319 147.401 147.738  1.00  0.00     0.100 C 
BRANCH   9  10
ATOM     10  C   UNL     1     155.066 146.654 147.394  1.00  0.00     0.220 C 
ATOM     11  O   UNL     1     154.861 146.302 146.200  1.00  0.00    -0.275 OA
ATOM     12  N   UNL     1     154.096 146.374 148.415  1.00  0.00    -0.352 N 
ATOM     13  H   UNL     1     154.240 146.766 149.374  1.00  0.00     0.163 HD
BRANCH  12  14
ATOM     14  C   UNL     1     152.856 145.655 148.146  1.00  0.00     0.151 C 
BRANCH  14  15
ATOM     15  C   UNL     1     151.681 146.453 148.640  1.00  0.00    -0.025 A 
ATOM     16  C   UNL     1     151.731 147.857 148.656  1.00  0.00     0.056 A 
ATOM     17  C   UNL     1     150.536 145.798 149.112  1.00  0.00     0.009 A 
ATOM     18  C   UNL     1     150.620 148.605 149.094  1.00  0.00     0.160 A 
ATOM     19  C   UNL     1     149.435 146.534 149.554  1.00  0.00     0.050 A 
ATOM     20  C   UNL     1     149.470 147.934 149.536  1.00  0.00     0.157 A 
BRANCH  18  21
ATOM     21  O   UNL     1     150.621 150.011 149.101  1.00  0.00    -0.493 OA
ATOM     22  C   UNL     1     151.789 150.819 148.973  1.00  0.00     0.278 C 
ENDBRANCH  18  21
BRANCH  20  23
ATOM     23  O   UNL     1     148.359 148.666 149.956  1.00  0.00    -0.504 OA
ATOM     24  H   UNL     1     147.824 149.237 149.310  1.00  0.00     0.293 HD
ENDBRANCH  20  23
ENDBRANCH  14  15
ENDBRANCH  12  14
ENDBRANCH   9  10
ENDBRANCH   1   9
TORSDOF 10
ENDMDL
MODEL 9
REMARK VINA RESULT:    -3.842      8.772     12.753
REMARK INTER + INTRA:          -7.132
REMARK INTER:                  -5.994
REMARK INTRA:                  -1.139
REMARK UNBOUND:                -1.157
REMARK SMILES COc1cc(CNC(=O)CCCCC=CC(C)C)ccc1O
REMARK SMILES IDX 11 1 12 2 13 3 14 4 15 5 16 6 17 7 18 8 10 9 8 10 9 11 7 12
REMARK SMILES IDX 6 14 5 15 4 16 19 17 3 18 20 19 21 20 2 21 1 22 22 23
REMARK H PARENT 7 13 22 24
REMARK Flexibility Score: inf
ROOT
ATOM      1  C   UNL     1     148.155 149.225 149.174  1.00  0.00     0.010 C 
ENDROOT
BRANCH   1   2
ATOM      2  C   UNL     1     149.540 149.773 148.784  1.00  0.00     0.005 C 
BRANCH   2   3
ATOM      3  C   UNL     1     150.681 148.993 149.450  1.00  0.00     0.027 C 
BRANCH   3   4
ATOM      4  C   UNL     1     150.175 147.821 150.256  1.00  0.00    -0.031 C 
ATOM      5  C   UNL     1     150.255 146.532 149.875  1.00  0.00    -0.028 C 
BRANCH   5   6
ATOM      6  C   UNL     1     150.915 146.050 148.598  1.00  0.00     0.005 C 
ATOM      7  C   UNL     1     149.844 145.574 147.610  1.00  0.00     0.012 C 
ATOM      8  C   UNL     1     151.893 144.907 148.905  1.00  0.00     0.012 C 
ENDBRANCH   5   6
ENDBRANCH   3   4
ENDBRANCH   2   3
ENDBRANCH   1   2
BRANCH   1   9
ATOM      9  C   UNL     1     147.248 149.012 147.956  1.00  0.00     0.100 C 
BRANCH   9  10
ATOM     10  C   UNL     1     146.604 150.287 147.503  1.00  0.00     0.220 C 
ATOM     11  O   UNL     1     146.378 150.467 146.275  1.00  0.00    -0.275 OA
ATOM     12  N   UNL     1     146.278 151.304 148.462  1.00  0.00    -0.352 N 
ATOM     13  H   UNL     1     146.569 151.175 149.459  1.00  0.00     0.163 HD
BRANCH  12  14
ATOM     14  C   UNL     1     145.653 152.567 148.087  1.00  0.00     0.151 C 
BRANCH  14  15
ATOM     15  C   UNL     1     146.500 153.719 148.553  1.00  0.00    -0.025 A 
ATOM     16  C   UNL     1     145.957 155.011 148.641  1.00  0.00     0.056 A 
ATOM     17  C   UNL     1     147.848 153.514 148.877  1.00  0.00     0.009 A 
ATOM     18  C   UNL     1     146.743 156.086 149.102  1.00  0.00     0.160 A 
ATOM     19  C   UNL     1     148.634 154.576 149.327  1.00  0.00     0.050 A 
ATOM     20  C   UNL     1     148.084 155.857 149.451  1.00  0.00     0.157 A 
BRANCH  18  21
ATOM     21  O   UNL     1     146.230 157.388 149.230  1.00  0.00    -0.493 OA
ATOM     22  C   UNL     1     146.112 158.320 148.156  1.00  0.00     0.278 C 
ENDBRANCH  18  21
BRANCH  20  23
ATOM     23  O   UNL     1     148.865 156.912 149.923  1.00  0.00    -0.504 OA
ATOM     24  H   UNL     1     148.454 157.699 150.414  1.00  0.00     0.293 HD
ENDBRANCH  20  23
ENDBRANCH  14  15
ENDBRANCH  12  14
ENDBRANCH   9  10
ENDBRANCH   1   9
TORSDOF 10
ENDMDL
