MODEL 1
REMARK VINA RESULT:    -4.030      0.000      0.000
REMARK INTER + INTRA:          -9.266
REMARK INTER:                  -7.328
REMARK INTRA:                  -1.939
REMARK UNBOUND:                -1.939
REMARK SMILES CCCCCCCCCCCCCCCC(=O)[O-]
REMARK SMILES IDX 9 1 10 2 11 3 12 4 13 5 14 6 15 7 16 8 17 9 18 10 8 11 7 12
REMARK SMILES IDX 6 13 5 14 4 15 3 16 2 17 1 18
REMARK H PARENT
REMARK Flexibility Score: inf
ROOT
ATOM      1  C   UNL     1      77.164  81.897  78.209  1.00  0.00     0.000 C 
ENDROOT
BRANCH   1   2
ATOM      2  C   UNL     1      76.104  80.921  78.741  1.00  0.00     0.000 C 
BRANCH   2   3
ATOM      3  C   UNL     1      75.228  80.387  77.599  1.00  0.00     0.000 C 
BRANCH   3   4
ATOM      4  C   UNL     1      74.293  81.460  77.020  1.00  0.00     0.000 C 
BRANCH   4   5
ATOM      5  C   UNL     1      74.242  81.430  75.482  1.00  0.00     0.000 C 
BRANCH   5   6
ATOM      6  C   UNL     1      74.323  82.836  74.858  1.00  0.00     0.006 C 
BRANCH   6   7
ATOM      7  C   UNL     1      75.215  83.820  75.633  1.00  0.00     0.053 C 
BRANCH   7   8
ATOM      8  C   UNL     1      76.505  84.090  74.921  1.00  0.00     0.041 C 
ATOM      9  O   UNL     1      76.959  85.261  74.854  1.00  0.00    -0.550 OA
ATOM     10  O   UNL     1      77.221  83.040  74.359  1.00  0.00    -0.550 OA
ENDBRANCH   7   8
ENDBRANCH   6   7
ENDBRANCH   5   6
ENDBRANCH   4   5
ENDBRANCH   3   4
ENDBRANCH   2   3
ENDBRANCH   1   2
BRANCH   1  11
ATOM     11  C   UNL     1      78.137  81.234  77.221  1.00  0.00     0.000 C 
BRANCH  11  12
ATOM     12  C   UNL     1      79.150  80.308  77.915  1.00  0.00    -0.000 C 
BRANCH  12  13
ATOM     13  C   UNL     1      80.177  81.096  78.755  1.00  0.00    -0.000 C 
BRANCH  13  14
ATOM     14  C   UNL     1      81.636  80.875  78.315  1.00  0.00    -0.000 C 
BRANCH  14  15
ATOM     15  C   UNL     1      81.779  80.705  76.793  1.00  0.00    -0.000 C 
BRANCH  15  16
ATOM     16  C   UNL     1      82.145  82.020  76.086  1.00  0.00    -0.000 C 
BRANCH  16  17
ATOM     17  C   UNL     1      81.033  82.519  75.151  1.00  0.00    -0.003 C 
ATOM     18  C   UNL     1      80.391  83.793  75.693  1.00  0.00     0.004 C 
ENDBRANCH  16  17
ENDBRANCH  15  16
ENDBRANCH  14  15
ENDBRANCH  13  14
ENDBRANCH  12  13
ENDBRANCH  11  12
ENDBRANCH   1  11
TORSDOF 14
ENDMDL
MODEL 2
REMARK VINA RESULT:    -3.840      1.411      2.330
REMARK INTER + INTRA:          -8.922
REMARK INTER:                  -6.749
REMARK INTRA:                  -2.173
REMARK UNBOUND:                -1.939
REMARK SMILES CCCCCCCCCCCCCCCC(=O)[O-]
REMARK SMILES IDX 9 1 10 2 11 3 12 4 13 5 14 6 15 7 16 8 17 9 18 10 8 11 7 12
REMARK SMILES IDX 6 13 5 14 4 15 3 16 2 17 1 18
REMARK H PARENT
REMARK Flexibility Score: inf
ROOT
ATOM      1  C   UNL     1      74.827  80.409  78.307  1.00  0.00     0.000 C 
ENDROOT
BRANCH   1   2
ATOM      2  C   UNL     1      74.006  80.513  77.012  1.00  0.00     0.000 C 
BRANCH   2   3
ATOM      3  C   UNL     1      74.421  79.425  76.012  1.00  0.00     0.000 C 
BRANCH   3   4
ATOM      4  C   UNL     1      75.926  79.447  75.704  1.00  0.00     0.000 C 
BRANCH   4   5
ATOM      5  C   UNL     1      76.267  80.326  74.488  1.00  0.00     0.000 C 
BRANCH   5   6
ATOM      6  C   UNL     1      77.060  81.589  74.873  1.00  0.00     0.006 C 
BRANCH   6   7
ATOM      7  C   UNL     1      76.220  82.877  74.899  1.00  0.00     0.053 C 
BRANCH   7   8
ATOM      8  C   UNL     1      77.072  84.106  74.812  1.00  0.00     0.041 C 
ATOM      9  O   UNL     1      76.547  85.247  74.883  1.00  0.00    -0.550 OA
ATOM     10  O   UNL     1      78.451  83.988  74.686  1.00  0.00    -0.550 OA
ENDBRANCH   7   8
ENDBRANCH   6   7
ENDBRANCH   5   6
ENDBRANCH   4   5
ENDBRANCH   3   4
ENDBRANCH   2   3
ENDBRANCH   1   2
BRANCH   1  11
ATOM     11  C   UNL     1      75.448  81.751  78.725  1.00  0.00     0.000 C 
BRANCH  11  12
ATOM     12  C   UNL     1      76.960  81.819  78.446  1.00  0.00    -0.000 C 
BRANCH  12  13
ATOM     13  C   UNL     1      77.675  80.497  78.799  1.00  0.00    -0.000 C 
BRANCH  13  14
ATOM     14  C   UNL     1      78.932  80.230  77.951  1.00  0.00    -0.000 C 
BRANCH  14  15
ATOM     15  C   UNL     1      79.656  81.521  77.537  1.00  0.00    -0.000 C 
BRANCH  15  16
ATOM     16  C   UNL     1      81.186  81.393  77.631  1.00  0.00    -0.000 C 
BRANCH  16  17
ATOM     17  C   UNL     1      81.893  81.756  76.317  1.00  0.00    -0.003 C 
ATOM     18  C   UNL     1      80.947  81.612  75.128  1.00  0.00     0.004 C 
ENDBRANCH  16  17
ENDBRANCH  15  16
ENDBRANCH  14  15
ENDBRANCH  13  14
ENDBRANCH  12  13
ENDBRANCH  11  12
ENDBRANCH   1  11
TORSDOF 14
ENDMDL
MODEL 3
REMARK VINA RESULT:    -3.830      1.415      2.437
REMARK INTER + INTRA:          -8.903
REMARK INTER:                  -7.745
REMARK INTRA:                  -1.157
REMARK UNBOUND:                -1.939
REMARK SMILES CCCCCCCCCCCCCCCC(=O)[O-]
REMARK SMILES IDX 9 1 10 2 11 3 12 4 13 5 14 6 15 7 16 8 17 9 18 10 8 11 7 12
REMARK SMILES IDX 6 13 5 14 4 15 3 16 2 17 1 18
REMARK H PARENT
REMARK Flexibility Score: inf
ROOT
ATOM      1  C   UNL     1      75.244  80.727  78.652  1.00  0.00     0.000 C 
ENDROOT
BRANCH   1   2
ATOM      2  C   UNL     1      74.421  79.712  77.846  1.00  0.00     0.000 C 
BRANCH   2   3
ATOM      3  C   UNL     1      73.313  80.414  77.048  1.00  0.00     0.000 C 
BRANCH   3   4
ATOM      4  C   UNL     1      73.452  81.944  77.064  1.00  0.00     0.000 C 
BRANCH   4   5
ATOM      5  C   UNL     1      73.475  82.549  75.650  1.00  0.00     0.000 C 
BRANCH   5   6
ATOM      6  C   UNL     1      74.610  83.575  75.461  1.00  0.00     0.006 C 
BRANCH   6   7
ATOM      7  C   UNL     1      76.021  82.965  75.492  1.00  0.00     0.053 C 
BRANCH   7   8
ATOM      8  C   UNL     1      77.031  83.853  74.831  1.00  0.00     0.041 C 
ATOM      9  O   UNL     1      78.053  83.357  74.291  1.00  0.00    -0.550 OA
ATOM     10  O   UNL     1      76.824  85.226  74.785  1.00  0.00    -0.550 OA
ENDBRANCH   7   8
ENDBRANCH   6   7
ENDBRANCH   5   6
ENDBRANCH   4   5
ENDBRANCH   3   4
ENDBRANCH   2   3
ENDBRANCH   1   2
BRANCH   1  11
ATOM     11  C   UNL     1      76.266  80.057  79.583  1.00  0.00     0.000 C 
BRANCH  11  12
ATOM     12  C   UNL     1      77.670  79.966  78.959  1.00  0.00    -0.000 C 
BRANCH  12  13
ATOM     13  C   UNL     1      78.274  81.360  78.683  1.00  0.00    -0.000 C 
BRANCH  13  14
ATOM     14  C   UNL     1      78.989  81.465  77.324  1.00  0.00    -0.000 C 
BRANCH  14  15
ATOM     15  C   UNL     1      80.515  81.316  77.440  1.00  0.00    -0.000 C 
BRANCH  15  16
ATOM     16  C   UNL     1      80.962  80.925  78.858  1.00  0.00    -0.000 C 
BRANCH  16  17
ATOM     17  C   UNL     1      82.481  81.045  79.055  1.00  0.00    -0.003 C 
ATOM     18  C   UNL     1      83.196  81.199  77.716  1.00  0.00     0.004 C 
ENDBRANCH  16  17
ENDBRANCH  15  16
ENDBRANCH  14  15
ENDBRANCH  13  14
ENDBRANCH  12  13
ENDBRANCH  11  12
ENDBRANCH   1  11
TORSDOF 14
ENDMDL
MODEL 4
REMARK VINA RESULT:    -3.815      2.160      5.437
REMARK INTER + INTRA:          -8.875
REMARK INTER:                  -6.700
REMARK INTRA:                  -2.176
REMARK UNBOUND:                -1.939
REMARK SMILES CCCCCCCCCCCCCCCC(=O)[O-]
REMARK SMILES IDX 9 1 10 2 11 3 12 4 13 5 14 6 15 7 16 8 17 9 18 10 8 11 7 12
REMARK SMILES IDX 6 13 5 14 4 15 3 16 2 17 1 18
REMARK H PARENT
REMARK Flexibility Score: inf
ROOT
ATOM      1  C   UNL     1      76.568  82.072  78.270  1.00  0.00     0.000 C 
ENDROOT
BRANCH   1   2
ATOM      2  C   UNL     1      77.587  81.083  78.855  1.00  0.00     0.000 C 
BRANCH   2   3
ATOM      3  C   UNL     1      78.559  80.594  77.772  1.00  0.00     0.000 C 
BRANCH   3   4
ATOM      4  C   UNL     1      77.838  79.969  76.568  1.00  0.00     0.000 C 
BRANCH   4   5
ATOM      5  C   UNL     1      78.293  80.572  75.228  1.00  0.00     0.000 C 
BRANCH   5   6
ATOM      6  C   UNL     1      77.241  81.515  74.613  1.00  0.00     0.006 C 
BRANCH   6   7
ATOM      7  C   UNL     1      77.643  82.999  74.622  1.00  0.00     0.053 C 
BRANCH   7   8
ATOM      8  C   UNL     1      76.479  83.894  74.916  1.00  0.00     0.041 C 
ATOM      9  O   UNL     1      76.641  85.140  74.993  1.00  0.00    -0.550 OA
ATOM     10  O   UNL     1      75.208  83.354  75.073  1.00  0.00    -0.550 OA
ENDBRANCH   7   8
ENDBRANCH   6   7
ENDBRANCH   5   6
ENDBRANCH   4   5
ENDBRANCH   3   4
ENDBRANCH   2   3
ENDBRANCH   1   2
BRANCH   1  11
ATOM     11  C   UNL     1      75.114  81.625  78.489  1.00  0.00     0.000 C 
BRANCH  11  12
ATOM     12  C   UNL     1      74.490  80.995  77.232  1.00  0.00    -0.000 C 
BRANCH  12  13
ATOM     13  C   UNL     1      73.722  79.695  77.553  1.00  0.00    -0.000 C 
BRANCH  13  14
ATOM     14  C   UNL     1      74.599  78.601  78.189  1.00  0.00    -0.000 C 
BRANCH  14  15
ATOM     15  C   UNL     1      73.816  77.696  79.154  1.00  0.00    -0.000 C 
BRANCH  15  16
ATOM     16  C   UNL     1      74.286  77.843  80.611  1.00  0.00    -0.000 C 
BRANCH  16  17
ATOM     17  C   UNL     1      75.600  78.628  80.733  1.00  0.00    -0.003 C 
ATOM     18  C   UNL     1      75.453  79.796  81.704  1.00  0.00     0.004 C 
ENDBRANCH  16  17
ENDBRANCH  15  16
ENDBRANCH  14  15
ENDBRANCH  13  14
ENDBRANCH  12  13
ENDBRANCH  11  12
ENDBRANCH   1  11
TORSDOF 14
ENDMDL
MODEL 5
REMARK VINA RESULT:    -3.782      1.937      5.487
REMARK INTER + INTRA:          -8.817
REMARK INTER:                  -7.489
REMARK INTRA:                  -1.328
REMARK UNBOUND:                -1.939
REMARK SMILES CCCCCCCCCCCCCCCC(=O)[O-]
REMARK SMILES IDX 9 1 10 2 11 3 12 4 13 5 14 6 15 7 16 8 17 9 18 10 8 11 7 12
REMARK SMILES IDX 6 13 5 14 4 15 3 16 2 17 1 18
REMARK H PARENT
REMARK Flexibility Score: inf
ROOT
ATOM      1  C   UNL     1      80.576  80.991  78.091  1.00  0.00     0.000 C 
ENDROOT
BRANCH   1   2
ATOM      2  C   UNL     1      81.553  81.677  77.125  1.00  0.00     0.000 C 
BRANCH   2   3
ATOM      3  C   UNL     1      80.800  82.550  76.112  1.00  0.00     0.000 C 
BRANCH   3   4
ATOM      4  C   UNL     1      80.813  81.956  74.695  1.00  0.00     0.000 C 
BRANCH   4   5
ATOM      5  C   UNL     1      79.454  82.092  73.985  1.00  0.00     0.000 C 
BRANCH   5   6
ATOM      6  C   UNL     1      78.614  83.263  74.529  1.00  0.00     0.006 C 
BRANCH   6   7
ATOM      7  C   UNL     1      77.220  82.856  75.035  1.00  0.00     0.053 C 
BRANCH   7   8
ATOM      8  C   UNL     1      76.238  83.983  74.943  1.00  0.00     0.041 C 
ATOM      9  O   UNL     1      75.002  83.750  74.971  1.00  0.00    -0.550 OA
ATOM     10  O   UNL     1      76.691  85.294  74.861  1.00  0.00    -0.550 OA
ENDBRANCH   7   8
ENDBRANCH   6   7
ENDBRANCH   5   6
ENDBRANCH   4   5
ENDBRANCH   3   4
ENDBRANCH   2   3
ENDBRANCH   1   2
BRANCH   1  11
ATOM     11  C   UNL     1      79.118  81.427  77.870  1.00  0.00     0.000 C 
BRANCH  11  12
ATOM     12  C   UNL     1      78.209  80.263  77.438  1.00  0.00    -0.000 C 
BRANCH  12  13
ATOM     13  C   UNL     1      77.939  79.277  78.595  1.00  0.00    -0.000 C 
BRANCH  13  14
ATOM     14  C   UNL     1      76.590  78.545  78.481  1.00  0.00    -0.000 C 
BRANCH  14  15
ATOM     15  C   UNL     1      75.406  79.401  78.961  1.00  0.00    -0.000 C 
BRANCH  15  16
ATOM     16  C   UNL     1      74.379  78.586  79.765  1.00  0.00    -0.000 C 
BRANCH  16  17
ATOM     17  C   UNL     1      74.722  78.513  81.261  1.00  0.00    -0.003 C 
ATOM     18  C   UNL     1      75.420  79.787  81.727  1.00  0.00     0.004 C 
ENDBRANCH  16  17
ENDBRANCH  15  16
ENDBRANCH  14  15
ENDBRANCH  13  14
ENDBRANCH  12  13
ENDBRANCH  11  12
ENDBRANCH   1  11
TORSDOF 14
ENDMDL
MODEL 6
REMARK VINA RESULT:    -3.751      1.682      3.006
REMARK INTER + INTRA:          -8.759
REMARK INTER:                  -7.085
REMARK INTRA:                  -1.674
REMARK UNBOUND:                -1.939
REMARK SMILES CCCCCCCCCCCCCCCC(=O)[O-]
REMARK SMILES IDX 9 1 10 2 11 3 12 4 13 5 14 6 15 7 16 8 17 9 18 10 8 11 7 12
REMARK SMILES IDX 6 13 5 14 4 15 3 16 2 17 1 18
REMARK H PARENT
REMARK Flexibility Score: inf
ROOT
ATOM      1  C   UNL     1      77.524  80.283  78.547  1.00  0.00     0.000 C 
ENDROOT
BRANCH   1   2
ATOM      2  C   UNL     1      76.197  80.268  79.320  1.00  0.00     0.000 C 
BRANCH   2   3
ATOM      3  C   UNL     1      75.008  80.090  78.365  1.00  0.00     0.000 C 
BRANCH   3   4
ATOM      4  C   UNL     1      74.401  81.430  77.921  1.00  0.00     0.000 C 
BRANCH   4   5
ATOM      5  C   UNL     1      74.134  81.483  76.406  1.00  0.00     0.000 C 
BRANCH   5   6
ATOM      6  C   UNL     1      75.339  82.019  75.610  1.00  0.00     0.006 C 
BRANCH   6   7
ATOM      7  C   UNL     1      75.822  83.409  76.056  1.00  0.00     0.053 C 
BRANCH   7   8
ATOM      8  C   UNL     1      76.702  84.055  75.031  1.00  0.00     0.041 C 
ATOM      9  O   UNL     1      76.666  85.301  74.858  1.00  0.00    -0.550 OA
ATOM     10  O   UNL     1      77.587  83.282  74.289  1.00  0.00    -0.550 OA
ENDBRANCH   7   8
ENDBRANCH   6   7
ENDBRANCH   5   6
ENDBRANCH   4   5
ENDBRANCH   3   4
ENDBRANCH   2   3
ENDBRANCH   1   2
BRANCH   1  11
ATOM     11  C   UNL     1      78.095  81.700  78.376  1.00  0.00     0.000 C 
BRANCH  11  12
ATOM     12  C   UNL     1      79.327  81.738  77.455  1.00  0.00    -0.000 C 
BRANCH  12  13
ATOM     13  C   UNL     1      80.332  80.613  77.783  1.00  0.00    -0.000 C 
BRANCH  13  14
ATOM     14  C   UNL     1      81.212  80.911  79.010  1.00  0.00    -0.000 C 
BRANCH  14  15
ATOM     15  C   UNL     1      81.833  79.643  79.620  1.00  0.00    -0.000 C 
BRANCH  15  16
ATOM     16  C   UNL     1      81.086  78.364  79.206  1.00  0.00    -0.000 C 
BRANCH  16  17
ATOM     17  C   UNL     1      80.391  77.675  80.389  1.00  0.00    -0.003 C 
ATOM     18  C   UNL     1      78.948  77.318  80.046  1.00  0.00     0.004 C 
ENDBRANCH  16  17
ENDBRANCH  15  16
ENDBRANCH  14  15
ENDBRANCH  13  14
ENDBRANCH  12  13
ENDBRANCH  11  12
ENDBRANCH   1  11
TORSDOF 14
ENDMDL
MODEL 7
REMARK VINA RESULT:    -3.744      1.403      2.066
REMARK INTER + INTRA:          -8.747
REMARK INTER:                  -6.801
REMARK INTRA:                  -1.946
REMARK UNBOUND:                -1.939
REMARK SMILES CCCCCCCCCCCCCCCC(=O)[O-]
REMARK SMILES IDX 9 1 10 2 11 3 12 4 13 5 14 6 15 7 16 8 17 9 18 10 8 11 7 12
REMARK SMILES IDX 6 13 5 14 4 15 3 16 2 17 1 18
REMARK H PARENT
REMARK Flexibility Score: inf
ROOT
ATOM      1  C   UNL     1      76.486  78.712  79.610  1.00  0.00     0.000 C 
ENDROOT
BRANCH   1   2
ATOM      2  C   UNL     1      75.954  80.000  80.256  1.00  0.00     0.000 C 
BRANCH   2   3
ATOM      3  C   UNL     1      75.481  80.994  79.186  1.00  0.00     0.000 C 
BRANCH   3   4
ATOM      4  C   UNL     1      74.804  80.302  77.993  1.00  0.00     0.000 C 
BRANCH   4   5
ATOM      5  C   UNL     1      74.307  81.302  76.934  1.00  0.00     0.000 C 
BRANCH   5   6
ATOM      6  C   UNL     1      75.301  81.477  75.770  1.00  0.00     0.006 C 
BRANCH   6   7
ATOM      7  C   UNL     1      76.217  82.705  75.903  1.00  0.00     0.053 C 
BRANCH   7   8
ATOM      8  C   UNL     1      75.734  83.858  75.078  1.00  0.00     0.041 C 
ATOM      9  O   UNL     1      74.625  83.794  74.487  1.00  0.00    -0.550 OA
ATOM     10  O   UNL     1      76.496  85.017  74.991  1.00  0.00    -0.550 OA
ENDBRANCH   7   8
ENDBRANCH   6   7
ENDBRANCH   5   6
ENDBRANCH   4   5
ENDBRANCH   3   4
ENDBRANCH   2   3
ENDBRANCH   1   2
BRANCH   1  11
ATOM     11  C   UNL     1      77.967  78.816  79.211  1.00  0.00     0.000 C 
BRANCH  11  12
ATOM     12  C   UNL     1      78.189  78.641  77.698  1.00  0.00    -0.000 C 
BRANCH  12  13
ATOM     13  C   UNL     1      78.465  79.986  76.993  1.00  0.00    -0.000 C 
BRANCH  13  14
ATOM     14  C   UNL     1      78.972  81.088  77.941  1.00  0.00    -0.000 C 
BRANCH  14  15
ATOM     15  C   UNL     1      80.482  81.343  77.804  1.00  0.00    -0.000 C 
BRANCH  15  16
ATOM     16  C   UNL     1      80.999  81.069  76.382  1.00  0.00    -0.000 C 
BRANCH  16  17
ATOM     17  C   UNL     1      81.532  82.333  75.691  1.00  0.00    -0.003 C 
ATOM     18  C   UNL     1      80.462  83.419  75.633  1.00  0.00     0.004 C 
ENDBRANCH  16  17
ENDBRANCH  15  16
ENDBRANCH  14  15
ENDBRANCH  13  14
ENDBRANCH  12  13
ENDBRANCH  11  12
ENDBRANCH   1  11
TORSDOF 14
ENDMDL
MODEL 8
REMARK VINA RESULT:    -3.722      1.415      5.785
REMARK INTER + INTRA:          -8.706
REMARK INTER:                  -7.203
REMARK INTRA:                  -1.504
REMARK UNBOUND:                -1.939
REMARK SMILES CCCCCCCCCCCCCCCC(=O)[O-]
REMARK SMILES IDX 9 1 10 2 11 3 12 4 13 5 14 6 15 7 16 8 17 9 18 10 8 11 7 12
REMARK SMILES IDX 6 13 5 14 4 15 3 16 2 17 1 18
REMARK H PARENT
REMARK Flexibility Score: inf
ROOT
ATOM      1  C   UNL     1      76.855  80.712  79.022  1.00  0.00     0.000 C 
ENDROOT
BRANCH   1   2
ATOM      2  C   UNL     1      78.082  81.596  78.751  1.00  0.00     0.000 C 
BRANCH   2   3
ATOM      3  C   UNL     1      79.019  80.935  77.731  1.00  0.00     0.000 C 
BRANCH   3   4
ATOM      4  C   UNL     1      80.496  81.286  77.970  1.00  0.00     0.000 C 
BRANCH   4   5
ATOM      5  C   UNL     1      81.234  81.649  76.670  1.00  0.00     0.000 C 
BRANCH   5   6
ATOM      6  C   UNL     1      80.557  82.803  75.905  1.00  0.00     0.006 C 
BRANCH   6   7
ATOM      7  C   UNL     1      80.044  82.416  74.508  1.00  0.00     0.053 C 
BRANCH   7   8
ATOM      8  C   UNL     1      78.725  83.055  74.198  1.00  0.00     0.041 C 
ATOM      9  O   UNL     1      77.918  82.494  73.412  1.00  0.00    -0.550 OA
ATOM     10  O   UNL     1      78.375  84.256  74.803  1.00  0.00    -0.550 OA
ENDBRANCH   7   8
ENDBRANCH   6   7
ENDBRANCH   5   6
ENDBRANCH   4   5
ENDBRANCH   3   4
ENDBRANCH   2   3
ENDBRANCH   1   2
BRANCH   1  11
ATOM     11  C   UNL     1      75.529  81.436  78.743  1.00  0.00     0.000 C 
BRANCH  11  12
ATOM     12  C   UNL     1      74.719  80.781  77.610  1.00  0.00    -0.000 C 
BRANCH  12  13
ATOM     13  C   UNL     1      75.257  81.165  76.215  1.00  0.00    -0.000 C 
BRANCH  13  14
ATOM     14  C   UNL     1      75.492  82.676  76.039  1.00  0.00    -0.000 C 
BRANCH  14  15
ATOM     15  C   UNL     1      74.583  83.300  74.967  1.00  0.00    -0.000 C 
BRANCH  15  16
ATOM     16  C   UNL     1      73.591  82.286  74.374  1.00  0.00    -0.000 C 
BRANCH  16  17
ATOM     17  C   UNL     1      72.137  82.777  74.430  1.00  0.00    -0.003 C 
ATOM     18  C   UNL     1      71.496  82.443  75.773  1.00  0.00     0.004 C 
ENDBRANCH  16  17
ENDBRANCH  15  16
ENDBRANCH  14  15
ENDBRANCH  13  14
ENDBRANCH  12  13
ENDBRANCH  11  12
ENDBRANCH   1  11
TORSDOF 14
ENDMDL
MODEL 9
REMARK VINA RESULT:    -3.716      1.902      3.303
REMARK INTER + INTRA:          -8.696
REMARK INTER:                  -6.289
REMARK INTRA:                  -2.407
REMARK UNBOUND:                -1.939
REMARK SMILES CCCCCCCCCCCCCCCC(=O)[O-]
REMARK SMILES IDX 9 1 10 2 11 3 12 4 13 5 14 6 15 7 16 8 17 9 18 10 8 11 7 12
REMARK SMILES IDX 6 13 5 14 4 15 3 16 2 17 1 18
REMARK H PARENT
REMARK Flexibility Score: inf
ROOT
ATOM      1  C   UNL     1      79.163  79.903  76.956  1.00  0.00     0.000 C 
ENDROOT
BRANCH   1   2
ATOM      2  C   UNL     1      78.982  81.082  77.924  1.00  0.00     0.000 C 
BRANCH   2   3
ATOM      3  C   UNL     1      77.621  81.007  78.630  1.00  0.00     0.000 C 
BRANCH   3   4
ATOM      4  C   UNL     1      76.681  82.152  78.225  1.00  0.00     0.000 C 
BRANCH   4   5
ATOM      5  C   UNL     1      75.196  81.760  78.324  1.00  0.00     0.000 C 
BRANCH   5   6
ATOM      6  C   UNL     1      74.557  81.500  76.946  1.00  0.00     0.006 C 
BRANCH   6   7
ATOM      7  C   UNL     1      73.494  82.534  76.540  1.00  0.00     0.053 C 
BRANCH   7   8
ATOM      8  C   UNL     1      73.834  83.212  75.248  1.00  0.00     0.041 C 
ATOM      9  O   UNL     1      74.948  83.780  75.104  1.00  0.00    -0.550 OA
ATOM     10  O   UNL     1      72.932  83.185  74.191  1.00  0.00    -0.550 OA
ENDBRANCH   7   8
ENDBRANCH   6   7
ENDBRANCH   5   6
ENDBRANCH   4   5
ENDBRANCH   3   4
ENDBRANCH   2   3
ENDBRANCH   1   2
BRANCH   1  11
ATOM     11  C   UNL     1      77.854  79.502  76.258  1.00  0.00     0.000 C 
BRANCH  11  12
ATOM     12  C   UNL     1      77.855  79.835  74.755  1.00  0.00    -0.000 C 
BRANCH  12  13
ATOM     13  C   UNL     1      77.266  81.233  74.469  1.00  0.00    -0.000 C 
BRANCH  13  14
ATOM     14  C   UNL     1      78.301  82.243  73.944  1.00  0.00    -0.000 C 
BRANCH  14  15
ATOM     15  C   UNL     1      78.518  83.426  74.901  1.00  0.00    -0.000 C 
BRANCH  15  16
ATOM     16  C   UNL     1      79.975  83.538  75.379  1.00  0.00    -0.000 C 
BRANCH  16  17
ATOM     17  C   UNL     1      80.864  82.410  74.835  1.00  0.00    -0.003 C 
ATOM     18  C   UNL     1      82.019  82.113  75.788  1.00  0.00     0.004 C 
ENDBRANCH  16  17
ENDBRANCH  15  16
ENDBRANCH  14  15
ENDBRANCH  13  14
ENDBRANCH  12  13
ENDBRANCH  11  12
ENDBRANCH   1  11
TORSDOF 14
ENDMDL
