MODEL 1
REMARK VINA RESULT:    -7.417      0.000      0.000
REMARK INTER + INTRA:         -11.217
REMARK INTER:                 -10.235
REMARK INTRA:                  -0.982
REMARK UNBOUND:                -0.982
REMARK SMILES O=C([O-])[C@@H]1O[C@H](Oc2cc3oc(-c4ccccc4)cc(=O)c3c(O)c2O)[C@@H](O)[C@@H](O)[C@@H]1O
REMARK SMILES IDX 7 1 6 2 4 3 31 4 5 5 29 6 27 7 2 8 1 9 3 10 32 11 30 13
REMARK SMILES IDX 28 15 8 17 25 18 9 19 23 20 10 21 22 22 11 23 20 24 12 25
REMARK SMILES IDX 19 26 21 27 26 28 24 30 13 32 14 33 18 34 15 35 17 36 16 37
REMARK H PARENT 32 12 30 14 28 16 26 29 24 31
REMARK Flexibility Score: inf
ROOT
ATOM      1  O   UNL     1      -5.448  51.339  31.853  1.00  0.00    -0.458 OA
ENDROOT
BRANCH   1   2
ATOM      2  C   UNL     1      -5.590  52.743  31.611  1.00  0.00     0.339 C 
ATOM      3  C   UNL     1      -7.596  53.924  30.771  1.00  0.00     0.199 C 
ATOM      4  C   UNL     1      -7.309  55.008  31.832  1.00  0.00     0.180 C 
ATOM      5  O   UNL     1      -6.572  52.954  30.586  1.00  0.00    -0.328 OA
ATOM      6  C   UNL     1      -6.966  54.331  33.145  1.00  0.00     0.181 C 
ATOM      7  C   UNL     1      -5.677  53.527  32.963  1.00  0.00     0.214 C 
BRANCH   3   8
ATOM      8  C   UNL     1      -8.929  53.234  30.967  1.00  0.00     0.073 C 
ATOM      9  O   UNL     1      -9.997  53.797  30.599  1.00  0.00    -0.547 OA
ATOM     10  O   UNL     1      -8.998  51.954  31.493  1.00  0.00    -0.547 OA
ENDBRANCH   3   8
BRANCH   4  11
ATOM     11  O   UNL     1      -8.416  55.856  32.015  1.00  0.00    -0.387 OA
ATOM     12  H   UNL     1      -8.706  56.147  31.110  1.00  0.00     0.211 HD
ENDBRANCH   4  11
BRANCH   6  13
ATOM     13  O   UNL     1      -6.804  55.300  34.151  1.00  0.00    -0.387 OA
ATOM     14  H   UNL     1      -7.090  54.877  35.003  1.00  0.00     0.211 HD
ENDBRANCH   6  13
BRANCH   7  15
ATOM     15  O   UNL     1      -4.544  54.348  33.138  1.00  0.00    -0.384 OA
ATOM     16  H   UNL     1      -4.198  54.597  32.243  1.00  0.00     0.211 HD
ENDBRANCH   7  15
ENDBRANCH   1   2
BRANCH   1  17
ATOM     17  C   UNL     1      -4.393  50.777  32.586  1.00  0.00     0.172 A 
ATOM     18  C   UNL     1      -3.298  50.245  31.897  1.00  0.00     0.201 A 
ATOM     19  C   UNL     1      -4.418  50.745  33.982  1.00  0.00     0.098 A 
ATOM     20  C   UNL     1      -2.230  49.649  32.599  1.00  0.00     0.176 A 
ATOM     21  C   UNL     1      -3.353  50.203  34.700  1.00  0.00     0.146 A 
ATOM     22  C   UNL     1      -2.227  49.664  34.026  1.00  0.00     0.111 A 
ATOM     23  O   UNL     1      -3.416  50.211  36.026  1.00  0.00    -0.456 OA
ATOM     24  C   UNL     1      -1.163  49.201  34.837  1.00  0.00     0.197 A 
ATOM     25  C   UNL     1      -2.453  49.741  36.810  1.00  0.00     0.138 A 
ATOM     26  C   UNL     1      -1.291  49.216  36.227  1.00  0.00     0.100 A 
ATOM     27  O   UNL     1      -0.077  48.797  34.347  1.00  0.00    -0.289 OA
BRANCH  18  28
ATOM     28  O   UNL     1      -3.301  50.286  30.504  1.00  0.00    -0.502 OA
ATOM     29  H   UNL     1      -4.154  50.257  29.960  1.00  0.00     0.293 HD
ENDBRANCH  18  28
BRANCH  20  30
ATOM     30  O   UNL     1      -1.232  49.032  31.838  1.00  0.00    -0.504 OA
ATOM     31  H   UNL     1      -1.405  48.419  31.058  1.00  0.00     0.293 HD
ENDBRANCH  20  30
BRANCH  25  32
ATOM     32  C   UNL     1      -2.646  49.791  38.282  1.00  0.00     0.017 A 
ATOM     33  C   UNL     1      -1.575  49.457  39.130  1.00  0.00     0.012 A 
ATOM     34  C   UNL     1      -3.885  50.134  38.859  1.00  0.00     0.012 A 
ATOM     35  C   UNL     1      -1.731  49.486  40.520  1.00  0.00     0.001 A 
ATOM     36  C   UNL     1      -4.036  50.162  40.249  1.00  0.00     0.001 A 
ATOM     37  C   UNL     1      -2.961  49.840  41.079  1.00  0.00     0.000 A 
ENDBRANCH  25  32
ENDBRANCH   1  17
TORSDOF 9
ENDMDL
MODEL 2
REMARK VINA RESULT:    -7.357      5.417     10.110
REMARK INTER + INTRA:         -11.135
REMARK INTER:                 -10.335
REMARK INTRA:                  -0.800
REMARK UNBOUND:                -0.982
REMARK SMILES O=C([O-])[C@@H]1O[C@H](Oc2cc3oc(-c4ccccc4)cc(=O)c3c(O)c2O)[C@@H](O)[C@@H](O)[C@@H]1O
REMARK SMILES IDX 7 1 6 2 4 3 31 4 5 5 29 6 27 7 2 8 1 9 3 10 32 11 30 13
REMARK SMILES IDX 28 15 8 17 25 18 9 19 23 20 10 21 22 22 11 23 20 24 12 25
REMARK SMILES IDX 19 26 21 27 26 28 24 30 13 32 14 33 18 34 15 35 17 36 16 37
REMARK H PARENT 32 12 30 14 28 16 26 29 24 31
REMARK Flexibility Score: inf
ROOT
ATOM      1  O   UNL     1      -7.979  53.208  29.183  1.00  0.00    -0.458 OA
ENDROOT
BRANCH   1   2
ATOM      2  C   UNL     1      -7.271  52.800  30.358  1.00  0.00     0.339 C 
ATOM      3  C   UNL     1      -4.918  53.301  30.941  1.00  0.00     0.199 C 
ATOM      4  C   UNL     1      -5.412  53.579  32.377  1.00  0.00     0.180 C 
ATOM      5  O   UNL     1      -5.870  52.709  30.063  1.00  0.00    -0.328 OA
ATOM      6  C   UNL     1      -6.675  54.416  32.308  1.00  0.00     0.181 C 
ATOM      7  C   UNL     1      -7.766  53.605  31.606  1.00  0.00     0.214 C 
BRANCH   3   8
ATOM      8  C   UNL     1      -4.292  54.511  30.280  1.00  0.00     0.073 C 
ATOM      9  O   UNL     1      -4.738  54.937  29.180  1.00  0.00    -0.547 OA
ATOM     10  O   UNL     1      -3.264  55.207  30.896  1.00  0.00    -0.547 OA
ENDBRANCH   3   8
BRANCH   4  11
ATOM     11  O   UNL     1      -4.441  54.255  33.136  1.00  0.00    -0.387 OA
ATOM     12  H   UNL     1      -3.847  53.559  33.525  1.00  0.00     0.211 HD
ENDBRANCH   4  11
BRANCH   6  13
ATOM     13  O   UNL     1      -7.083  54.768  33.607  1.00  0.00    -0.387 OA
ATOM     14  H   UNL     1      -6.475  55.493  33.910  1.00  0.00     0.211 HD
ENDBRANCH   6  13
BRANCH   7  15
ATOM     15  O   UNL     1      -8.427  52.757  32.517  1.00  0.00    -0.384 OA
ATOM     16  H   UNL     1      -8.579  53.260  33.358  1.00  0.00     0.211 HD
ENDBRANCH   7  15
ENDBRANCH   1   2
BRANCH   1  17
ATOM     17  C   UNL     1      -7.925  52.522  27.962  1.00  0.00     0.172 A 
ATOM     18  C   UNL     1      -9.112  52.034  27.405  1.00  0.00     0.201 A 
ATOM     19  C   UNL     1      -6.713  52.326  27.295  1.00  0.00     0.098 A 
ATOM     20  C   UNL     1      -9.093  51.317  26.191  1.00  0.00     0.176 A 
ATOM     21  C   UNL     1      -6.675  51.661  26.070  1.00  0.00     0.146 A 
ATOM     22  C   UNL     1      -7.865  51.163  25.481  1.00  0.00     0.111 A 
ATOM     23  O   UNL     1      -5.501  51.515  25.467  1.00  0.00    -0.456 OA
ATOM     24  C   UNL     1      -7.739  50.565  24.204  1.00  0.00     0.197 A 
ATOM     25  C   UNL     1      -5.349  50.917  24.292  1.00  0.00     0.138 A 
ATOM     26  C   UNL     1      -6.477  50.420  23.625  1.00  0.00     0.100 A 
ATOM     27  O   UNL     1      -8.740  50.180  23.546  1.00  0.00    -0.289 OA
BRANCH  18  28
ATOM     28  O   UNL     1     -10.306  52.240  28.094  1.00  0.00    -0.502 OA
ATOM     29  H   UNL     1     -10.351  52.753  28.965  1.00  0.00     0.293 HD
ENDBRANCH  18  28
BRANCH  20  30
ATOM     30  O   UNL     1     -10.301  50.756  25.763  1.00  0.00    -0.504 OA
ATOM     31  H   UNL     1     -10.378  49.916  25.214  1.00  0.00     0.293 HD
ENDBRANCH  20  30
BRANCH  25  32
ATOM     32  C   UNL     1      -3.981  50.800  23.725  1.00  0.00     0.017 A 
ATOM     33  C   UNL     1      -3.023  50.012  24.389  1.00  0.00     0.012 A 
ATOM     34  C   UNL     1      -3.599  51.485  22.553  1.00  0.00     0.012 A 
ATOM     35  C   UNL     1      -1.724  49.893  23.884  1.00  0.00     0.001 A 
ATOM     36  C   UNL     1      -2.299  51.361  22.052  1.00  0.00     0.001 A 
ATOM     37  C   UNL     1      -1.363  50.566  22.714  1.00  0.00     0.000 A 
ENDBRANCH  25  32
ENDBRANCH   1  17
TORSDOF 9
ENDMDL
MODEL 3
REMARK VINA RESULT:    -7.160      5.719     10.180
REMARK INTER + INTRA:         -10.863
REMARK INTER:                  -9.372
REMARK INTRA:                  -1.490
REMARK UNBOUND:                -0.982
REMARK SMILES O=C([O-])[C@@H]1O[C@H](Oc2cc3oc(-c4ccccc4)cc(=O)c3c(O)c2O)[C@@H](O)[C@@H](O)[C@@H]1O
REMARK SMILES IDX 7 1 6 2 4 3 31 4 5 5 29 6 27 7 2 8 1 9 3 10 32 11 30 13
REMARK SMILES IDX 28 15 8 17 25 18 9 19 23 20 10 21 22 22 11 23 20 24 12 25
REMARK SMILES IDX 19 26 21 27 26 28 24 30 13 32 14 33 18 34 15 35 17 36 16 37
REMARK H PARENT 32 12 30 14 28 16 26 29 24 31
REMARK Flexibility Score: inf
ROOT
ATOM      1  O   UNL     1      -5.979  52.239  29.688  1.00  0.00    -0.458 OA
ENDROOT
BRANCH   1   2
ATOM      2  C   UNL     1      -5.805  53.601  30.097  1.00  0.00     0.339 C 
ATOM      3  C   UNL     1      -7.299  54.932  31.553  1.00  0.00     0.199 C 
ATOM      4  C   UNL     1      -6.026  55.460  32.249  1.00  0.00     0.180 C 
ATOM      5  O   UNL     1      -7.087  54.189  30.358  1.00  0.00    -0.328 OA
ATOM      6  C   UNL     1      -5.085  54.296  32.499  1.00  0.00     0.181 C 
ATOM      7  C   UNL     1      -4.653  53.715  31.151  1.00  0.00     0.214 C 
BRANCH   3   8
ATOM      8  C   UNL     1      -8.213  54.163  32.483  1.00  0.00     0.073 C 
ATOM      9  O   UNL     1      -8.541  52.975  32.213  1.00  0.00    -0.547 OA
ATOM     10  O   UNL     1      -8.654  54.721  33.672  1.00  0.00    -0.547 OA
ENDBRANCH   3   8
BRANCH   4  11
ATOM     11  O   UNL     1      -6.328  56.090  33.469  1.00  0.00    -0.387 OA
ATOM     12  H   UNL     1      -6.464  55.367  34.138  1.00  0.00     0.211 HD
ENDBRANCH   4  11
BRANCH   6  13
ATOM     13  O   UNL     1      -3.966  54.738  33.225  1.00  0.00    -0.387 OA
ATOM     14  H   UNL     1      -3.371  53.951  33.338  1.00  0.00     0.211 HD
ENDBRANCH   6  13
BRANCH   7  15
ATOM     15  O   UNL     1      -3.561  54.431  30.622  1.00  0.00    -0.384 OA
ATOM     16  H   UNL     1      -3.908  55.096  29.974  1.00  0.00     0.211 HD
ENDBRANCH   7  15
ENDBRANCH   1   2
BRANCH   1  17
ATOM     17  C   UNL     1      -6.443  51.859  28.421  1.00  0.00     0.172 A 
ATOM     18  C   UNL     1      -7.818  51.699  28.222  1.00  0.00     0.201 A 
ATOM     19  C   UNL     1      -5.558  51.644  27.361  1.00  0.00     0.098 A 
ATOM     20  C   UNL     1      -8.319  51.294  26.969  1.00  0.00     0.176 A 
ATOM     21  C   UNL     1      -6.033  51.287  26.100  1.00  0.00     0.146 A 
ATOM     22  C   UNL     1      -7.424  51.127  25.871  1.00  0.00     0.111 A 
ATOM     23  O   UNL     1      -5.154  51.111  25.120  1.00  0.00    -0.456 OA
ATOM     24  C   UNL     1      -7.819  50.833  24.543  1.00  0.00     0.197 A 
ATOM     25  C   UNL     1      -5.494  50.790  23.878  1.00  0.00     0.138 A 
ATOM     26  C   UNL     1      -6.850  50.640  23.556  1.00  0.00     0.100 A 
ATOM     27  O   UNL     1      -9.029  50.769  24.205  1.00  0.00    -0.289 OA
BRANCH  18  28
ATOM     28  O   UNL     1      -8.677  51.916  29.299  1.00  0.00    -0.502 OA
ATOM     29  H   UNL     1      -9.197  52.776  29.416  1.00  0.00     0.293 HD
ENDBRANCH  18  28
BRANCH  20  30
ATOM     30  O   UNL     1      -9.692  51.037  26.884  1.00  0.00    -0.504 OA
ATOM     31  H   UNL     1     -10.335  51.551  26.304  1.00  0.00     0.293 HD
ENDBRANCH  20  30
BRANCH  25  32
ATOM     32  C   UNL     1      -4.418  50.604  22.872  1.00  0.00     0.017 A 
ATOM     33  C   UNL     1      -3.255  51.392  22.951  1.00  0.00     0.012 A 
ATOM     34  C   UNL     1      -4.539  49.681  21.813  1.00  0.00     0.012 A 
ATOM     35  C   UNL     1      -2.230  51.246  22.011  1.00  0.00     0.001 A 
ATOM     36  C   UNL     1      -3.511  49.539  20.876  1.00  0.00     0.001 A 
ATOM     37  C   UNL     1      -2.357  50.318  20.975  1.00  0.00     0.000 A 
ENDBRANCH  25  32
ENDBRANCH   1  17
TORSDOF 9
ENDMDL
MODEL 4
REMARK VINA RESULT:    -7.044      1.675      2.519
REMARK INTER + INTRA:         -10.702
REMARK INTER:                  -9.766
REMARK INTRA:                  -0.937
REMARK UNBOUND:                -0.982
REMARK SMILES O=C([O-])[C@@H]1O[C@H](Oc2cc3oc(-c4ccccc4)cc(=O)c3c(O)c2O)[C@@H](O)[C@@H](O)[C@@H]1O
REMARK SMILES IDX 7 1 6 2 4 3 31 4 5 5 29 6 27 7 2 8 1 9 3 10 32 11 30 13
REMARK SMILES IDX 28 15 8 17 25 18 9 19 23 20 10 21 22 22 11 23 20 24 12 25
REMARK SMILES IDX 19 26 21 27 26 28 24 30 13 32 14 33 18 34 15 35 17 36 16 37
REMARK H PARENT 32 12 30 14 28 16 26 29 24 31
REMARK Flexibility Score: inf
ROOT
ATOM      1  O   UNL     1      -5.726  52.239  29.599  1.00  0.00    -0.458 OA
ENDROOT
BRANCH   1   2
ATOM      2  C   UNL     1      -5.919  53.636  29.844  1.00  0.00     0.339 C 
ATOM      3  C   UNL     1      -7.508  54.675  31.432  1.00  0.00     0.199 C 
ATOM      4  C   UNL     1      -6.368  55.641  31.823  1.00  0.00     0.180 C 
ATOM      5  O   UNL     1      -7.264  53.861  30.290  1.00  0.00    -0.328 OA
ATOM      6  C   UNL     1      -5.088  54.845  31.992  1.00  0.00     0.181 C 
ATOM      7  C   UNL     1      -4.711  54.226  30.645  1.00  0.00     0.214 C 
BRANCH   3   8
ATOM      8  C   UNL     1      -7.985  53.816  32.584  1.00  0.00     0.073 C 
ATOM      9  O   UNL     1      -8.395  54.352  33.650  1.00  0.00    -0.547 OA
ATOM     10  O   UNL     1      -8.039  52.436  32.469  1.00  0.00    -0.547 OA
ENDBRANCH   3   8
BRANCH   4  11
ATOM     11  O   UNL     1      -6.658  56.324  33.017  1.00  0.00    -0.387 OA
ATOM     12  H   UNL     1      -6.567  57.294  32.819  1.00  0.00     0.211 HD
ENDBRANCH   4  11
BRANCH   6  13
ATOM     13  O   UNL     1      -4.061  55.690  32.451  1.00  0.00    -0.387 OA
ATOM     14  H   UNL     1      -4.207  55.812  33.425  1.00  0.00     0.211 HD
ENDBRANCH   6  13
BRANCH   7  15
ATOM     15  O   UNL     1      -3.988  55.143  29.855  1.00  0.00    -0.384 OA
ATOM     16  H   UNL     1      -4.326  56.055  30.048  1.00  0.00     0.211 HD
ENDBRANCH   7  15
ENDBRANCH   1   2
BRANCH   1  17
ATOM     17  C   UNL     1      -4.738  51.467  30.226  1.00  0.00     0.172 A 
ATOM     18  C   UNL     1      -3.807  50.786  29.435  1.00  0.00     0.201 A 
ATOM     19  C   UNL     1      -4.667  51.373  31.618  1.00  0.00     0.098 A 
ATOM     20  C   UNL     1      -2.814  49.980  30.029  1.00  0.00     0.176 A 
ATOM     21  C   UNL     1      -3.667  50.619  32.230  1.00  0.00     0.146 A 
ATOM     22  C   UNL     1      -2.706  49.925  31.451  1.00  0.00     0.111 A 
ATOM     23  O   UNL     1      -3.632  50.574  33.557  1.00  0.00    -0.456 OA
ATOM     24  C   UNL     1      -1.686  49.245  32.159  1.00  0.00     0.197 A 
ATOM     25  C   UNL     1      -2.714  49.906  34.245  1.00  0.00     0.138 A 
ATOM     26  C   UNL     1      -1.708  49.216  33.554  1.00  0.00     0.100 A 
ATOM     27  O   UNL     1      -0.727  48.682  31.570  1.00  0.00    -0.289 OA
BRANCH  18  28
ATOM     28  O   UNL     1      -3.903  50.893  28.048  1.00  0.00    -0.502 OA
ATOM     29  H   UNL     1      -3.113  50.741  27.434  1.00  0.00     0.293 HD
ENDBRANCH  18  28
BRANCH  20  30
ATOM     30  O   UNL     1      -1.999  49.235  29.170  1.00  0.00    -0.504 OA
ATOM     31  H   UNL     1      -1.220  48.671  29.466  1.00  0.00     0.293 HD
ENDBRANCH  20  30
BRANCH  25  32
ATOM     32  C   UNL     1      -2.788  49.919  35.728  1.00  0.00     0.017 A 
ATOM     33  C   UNL     1      -1.790  50.582  36.464  1.00  0.00     0.012 A 
ATOM     34  C   UNL     1      -3.816  49.255  36.428  1.00  0.00     0.012 A 
ATOM     35  C   UNL     1      -1.829  50.602  37.862  1.00  0.00     0.001 A 
ATOM     36  C   UNL     1      -3.851  49.278  37.826  1.00  0.00     0.001 A 
ATOM     37  C   UNL     1      -2.860  49.951  38.542  1.00  0.00     0.000 A 
ENDBRANCH  25  32
ENDBRANCH   1  17
TORSDOF 9
ENDMDL
MODEL 5
REMARK VINA RESULT:    -6.946      1.064      2.464
REMARK INTER + INTRA:         -10.568
REMARK INTER:                  -9.504
REMARK INTRA:                  -1.064
REMARK UNBOUND:                -0.982
REMARK SMILES O=C([O-])[C@@H]1O[C@H](Oc2cc3oc(-c4ccccc4)cc(=O)c3c(O)c2O)[C@@H](O)[C@@H](O)[C@@H]1O
REMARK SMILES IDX 7 1 6 2 4 3 31 4 5 5 29 6 27 7 2 8 1 9 3 10 32 11 30 13
REMARK SMILES IDX 28 15 8 17 25 18 9 19 23 20 10 21 22 22 11 23 20 24 12 25
REMARK SMILES IDX 19 26 21 27 26 28 24 30 13 32 14 33 18 34 15 35 17 36 16 37
REMARK H PARENT 32 12 30 14 28 16 26 29 24 31
REMARK Flexibility Score: inf
ROOT
ATOM      1  O   UNL     1      -5.514  51.071  32.067  1.00  0.00    -0.458 OA
ENDROOT
BRANCH   1   2
ATOM      2  C   UNL     1      -6.214  52.242  32.504  1.00  0.00     0.339 C 
ATOM      3  C   UNL     1      -5.428  54.586  32.395  1.00  0.00     0.199 C 
ATOM      4  C   UNL     1      -6.849  54.961  31.921  1.00  0.00     0.180 C 
ATOM      5  O   UNL     1      -5.266  53.255  32.871  1.00  0.00    -0.328 OA
ATOM      6  C   UNL     1      -7.298  53.957  30.876  1.00  0.00     0.181 C 
ATOM      7  C   UNL     1      -7.390  52.576  31.528  1.00  0.00     0.214 C 
BRANCH   3   8
ATOM      8  C   UNL     1      -4.355  54.902  31.375  1.00  0.00     0.073 C 
ATOM      9  O   UNL     1      -3.895  56.072  31.277  1.00  0.00    -0.547 OA
ATOM     10  O   UNL     1      -3.816  53.906  30.576  1.00  0.00    -0.547 OA
ENDBRANCH   3   8
BRANCH   4  11
ATOM     11  O   UNL     1      -6.886  56.256  31.376  1.00  0.00    -0.387 OA
ATOM     12  H   UNL     1      -7.206  56.162  30.439  1.00  0.00     0.211 HD
ENDBRANCH   4  11
BRANCH   6  13
ATOM     13  O   UNL     1      -8.546  54.341  30.356  1.00  0.00    -0.387 OA
ATOM     14  H   UNL     1      -8.997  53.508  30.055  1.00  0.00     0.211 HD
ENDBRANCH   6  13
BRANCH   7  15
ATOM     15  O   UNL     1      -8.635  52.404  32.167  1.00  0.00    -0.384 OA
ATOM     16  H   UNL     1      -8.951  51.482  31.991  1.00  0.00     0.211 HD
ENDBRANCH   7  15
ENDBRANCH   1   2
BRANCH   1  17
ATOM     17  C   UNL     1      -4.413  50.523  32.740  1.00  0.00     0.172 A 
ATOM     18  C   UNL     1      -3.368  49.972  31.992  1.00  0.00     0.201 A 
ATOM     19  C   UNL     1      -4.343  50.525  34.135  1.00  0.00     0.098 A 
ATOM     20  C   UNL     1      -2.256  49.390  32.634  1.00  0.00     0.176 A 
ATOM     21  C   UNL     1      -3.233  49.997  34.792  1.00  0.00     0.146 A 
ATOM     22  C   UNL     1      -2.156  49.439  34.057  1.00  0.00     0.111 A 
ATOM     23  O   UNL     1      -3.206  50.038  36.119  1.00  0.00    -0.456 OA
ATOM     24  C   UNL     1      -1.040  48.992  34.805  1.00  0.00     0.197 A 
ATOM     25  C   UNL     1      -2.193  49.583  36.847  1.00  0.00     0.138 A 
ATOM     26  C   UNL     1      -1.073  49.041  36.200  1.00  0.00     0.100 A 
ATOM     27  O   UNL     1       0.009  48.573  34.252  1.00  0.00    -0.289 OA
BRANCH  18  28
ATOM     28  O   UNL     1      -3.466  49.979  30.601  1.00  0.00    -0.502 OA
ATOM     29  H   UNL     1      -2.738  50.355  30.006  1.00  0.00     0.293 HD
ENDBRANCH  18  28
BRANCH  20  30
ATOM     30  O   UNL     1      -1.313  48.751  31.822  1.00  0.00    -0.504 OA
ATOM     31  H   UNL     1      -0.441  49.160  31.528  1.00  0.00     0.293 HD
ENDBRANCH  20  30
BRANCH  25  32
ATOM     32  C   UNL     1      -2.285  49.670  38.327  1.00  0.00     0.017 A 
ATOM     33  C   UNL     1      -3.454  50.181  38.917  1.00  0.00     0.012 A 
ATOM     34  C   UNL     1      -1.218  49.283  39.163  1.00  0.00     0.012 A 
ATOM     35  C   UNL     1      -3.565  50.285  40.308  1.00  0.00     0.001 A 
ATOM     36  C   UNL     1      -1.333  49.388  40.553  1.00  0.00     0.001 A 
ATOM     37  C   UNL     1      -2.505  49.886  41.125  1.00  0.00     0.000 A 
ENDBRANCH  25  32
ENDBRANCH   1  17
TORSDOF 9
ENDMDL
MODEL 6
REMARK VINA RESULT:    -6.939      3.200      6.486
REMARK INTER + INTRA:         -10.557
REMARK INTER:                  -9.381
REMARK INTRA:                  -1.176
REMARK UNBOUND:                -0.982
REMARK SMILES O=C([O-])[C@@H]1O[C@H](Oc2cc3oc(-c4ccccc4)cc(=O)c3c(O)c2O)[C@@H](O)[C@@H](O)[C@@H]1O
REMARK SMILES IDX 7 1 6 2 4 3 31 4 5 5 29 6 27 7 2 8 1 9 3 10 32 11 30 13
REMARK SMILES IDX 28 15 8 17 25 18 9 19 23 20 10 21 22 22 11 23 20 24 12 25
REMARK SMILES IDX 19 26 21 27 26 28 24 30 13 32 14 33 18 34 15 35 17 36 16 37
REMARK H PARENT 32 12 30 14 28 16 26 29 24 31
REMARK Flexibility Score: inf
ROOT
ATOM      1  O   UNL     1      -5.006  51.254  32.465  1.00  0.00    -0.458 OA
ENDROOT
BRANCH   1   2
ATOM      2  C   UNL     1      -5.247  52.557  31.922  1.00  0.00     0.339 C 
ATOM      3  C   UNL     1      -7.318  53.369  30.835  1.00  0.00     0.199 C 
ATOM      4  C   UNL     1      -7.134  54.677  31.635  1.00  0.00     0.180 C 
ATOM      5  O   UNL     1      -6.220  52.464  30.872  1.00  0.00    -0.328 OA
ATOM      6  C   UNL     1      -6.770  54.330  33.066  1.00  0.00     0.181 C 
ATOM      7  C   UNL     1      -5.421  53.608  33.069  1.00  0.00     0.214 C 
BRANCH   3   8
ATOM      8  C   UNL     1      -8.599  52.638  31.172  1.00  0.00     0.073 C 
ATOM      9  O   UNL     1      -9.688  52.982  30.635  1.00  0.00    -0.547 OA
ATOM     10  O   UNL     1      -8.593  51.543  32.022  1.00  0.00    -0.547 OA
ENDBRANCH   3   8
BRANCH   4  11
ATOM     11  O   UNL     1      -8.304  55.457  31.625  1.00  0.00    -0.387 OA
ATOM     12  H   UNL     1      -8.046  56.354  31.286  1.00  0.00     0.211 HD
ENDBRANCH   4  11
BRANCH   6  13
ATOM     13  O   UNL     1      -6.701  55.504  33.837  1.00  0.00    -0.387 OA
ATOM     14  H   UNL     1      -7.561  55.571  34.330  1.00  0.00     0.211 HD
ENDBRANCH   6  13
BRANCH   7  15
ATOM     15  O   UNL     1      -4.356  54.532  33.066  1.00  0.00    -0.384 OA
ATOM     16  H   UNL     1      -4.205  54.829  32.133  1.00  0.00     0.211 HD
ENDBRANCH   7  15
ENDBRANCH   1   2
BRANCH   1  17
ATOM     17  C   UNL     1      -3.811  50.544  32.287  1.00  0.00     0.172 A 
ATOM     18  C   UNL     1      -3.083  50.148  33.413  1.00  0.00     0.201 A 
ATOM     19  C   UNL     1      -3.343  50.223  31.010  1.00  0.00     0.098 A 
ATOM     20  C   UNL     1      -1.864  49.454  33.272  1.00  0.00     0.176 A 
ATOM     21  C   UNL     1      -2.165  49.498  30.846  1.00  0.00     0.146 A 
ATOM     22  C   UNL     1      -1.412  49.078  31.973  1.00  0.00     0.111 A 
ATOM     23  O   UNL     1      -1.770  49.202  29.612  1.00  0.00    -0.456 OA
ATOM     24  C   UNL     1      -0.268  48.285  31.712  1.00  0.00     0.197 A 
ATOM     25  C   UNL     1      -0.677  48.501  29.339  1.00  0.00     0.138 A 
ATOM     26  C   UNL     1       0.111  48.021  30.395  1.00  0.00     0.100 A 
ATOM     27  O   UNL     1       0.415  47.775  32.638  1.00  0.00    -0.289 OA
BRANCH  18  28
ATOM     28  O   UNL     1      -3.570  50.486  34.675  1.00  0.00    -0.502 OA
ATOM     29  H   UNL     1      -4.149  49.859  35.221  1.00  0.00     0.293 HD
ENDBRANCH  18  28
BRANCH  20  30
ATOM     30  O   UNL     1      -1.135  49.202  34.440  1.00  0.00    -0.504 OA
ATOM     31  H   UNL     1      -0.143  49.339  34.535  1.00  0.00     0.293 HD
ENDBRANCH  20  30
BRANCH  25  32
ATOM     32  C   UNL     1      -0.331  48.248  27.917  1.00  0.00     0.017 A 
ATOM     33  C   UNL     1       0.972  47.838  27.586  1.00  0.00     0.012 A 
ATOM     34  C   UNL     1      -1.265  48.439  26.878  1.00  0.00     0.012 A 
ATOM     35  C   UNL     1       1.329  47.603  26.253  1.00  0.00     0.001 A 
ATOM     36  C   UNL     1      -0.905  48.202  25.548  1.00  0.00     0.001 A 
ATOM     37  C   UNL     1       0.390  47.783  25.236  1.00  0.00     0.000 A 
ENDBRANCH  25  32
ENDBRANCH   1  17
TORSDOF 9
ENDMDL
MODEL 7
REMARK VINA RESULT:    -6.899      3.171      4.912
REMARK INTER + INTRA:         -10.502
REMARK INTER:                  -9.222
REMARK INTRA:                  -1.281
REMARK UNBOUND:                -0.982
REMARK SMILES O=C([O-])[C@@H]1O[C@H](Oc2cc3oc(-c4ccccc4)cc(=O)c3c(O)c2O)[C@@H](O)[C@@H](O)[C@@H]1O
REMARK SMILES IDX 7 1 6 2 4 3 31 4 5 5 29 6 27 7 2 8 1 9 3 10 32 11 30 13
REMARK SMILES IDX 28 15 8 17 25 18 9 19 23 20 10 21 22 22 11 23 20 24 12 25
REMARK SMILES IDX 19 26 21 27 26 28 24 30 13 32 14 33 18 34 15 35 17 36 16 37
REMARK H PARENT 32 12 30 14 28 16 26 29 24 31
REMARK Flexibility Score: inf
ROOT
ATOM      1  O   UNL     1      -4.744  53.356  28.765  1.00  0.00    -0.458 OA
ENDROOT
BRANCH   1   2
ATOM      2  C   UNL     1      -5.550  54.107  29.681  1.00  0.00     0.339 C 
ATOM      3  C   UNL     1      -6.673  53.274  31.723  1.00  0.00     0.199 C 
ATOM      4  C   UNL     1      -6.196  54.565  32.421  1.00  0.00     0.180 C 
ATOM      5  O   UNL     1      -6.497  53.233  30.311  1.00  0.00    -0.328 OA
ATOM      6  C   UNL     1      -4.746  54.815  32.052  1.00  0.00     0.181 C 
ATOM      7  C   UNL     1      -4.657  55.060  30.544  1.00  0.00     0.214 C 
BRANCH   3   8
ATOM      8  C   UNL     1      -6.112  52.014  32.347  1.00  0.00     0.073 C 
ATOM      9  O   UNL     1      -6.465  50.881  31.920  1.00  0.00    -0.547 OA
ATOM     10  O   UNL     1      -5.159  52.080  33.351  1.00  0.00    -0.547 OA
ENDBRANCH   3   8
BRANCH   4  11
ATOM     11  O   UNL     1      -6.315  54.470  33.819  1.00  0.00    -0.387 OA
ATOM     12  H   UNL     1      -7.183  54.890  34.060  1.00  0.00     0.211 HD
ENDBRANCH   4  11
BRANCH   6  13
ATOM     13  O   UNL     1      -4.261  55.929  32.760  1.00  0.00    -0.387 OA
ATOM     14  H   UNL     1      -3.630  56.399  32.155  1.00  0.00     0.211 HD
ENDBRANCH   6  13
BRANCH   7  15
ATOM     15  O   UNL     1      -4.925  56.410  30.237  1.00  0.00    -0.384 OA
ATOM     16  H   UNL     1      -5.395  56.817  31.009  1.00  0.00     0.211 HD
ENDBRANCH   7  15
ENDBRANCH   1   2
BRANCH   1  17
ATOM     17  C   UNL     1      -4.403  52.009  28.951  1.00  0.00     0.172 A 
ATOM     18  C   UNL     1      -4.951  51.047  28.097  1.00  0.00     0.201 A 
ATOM     19  C   UNL     1      -3.525  51.618  29.966  1.00  0.00     0.098 A 
ATOM     20  C   UNL     1      -4.650  49.680  28.269  1.00  0.00     0.176 A 
ATOM     21  C   UNL     1      -3.177  50.278  30.127  1.00  0.00     0.146 A 
ATOM     22  C   UNL     1      -3.713  49.284  29.269  1.00  0.00     0.111 A 
ATOM     23  O   UNL     1      -2.326  49.958  31.095  1.00  0.00    -0.456 OA
ATOM     24  C   UNL     1      -3.247  47.961  29.462  1.00  0.00     0.197 A 
ATOM     25  C   UNL     1      -1.909  48.720  31.327  1.00  0.00     0.138 A 
ATOM     26  C   UNL     1      -2.367  47.679  30.508  1.00  0.00     0.100 A 
ATOM     27  O   UNL     1      -3.578  47.019  28.696  1.00  0.00    -0.289 OA
BRANCH  18  28
ATOM     28  O   UNL     1      -5.827  51.464  27.096  1.00  0.00    -0.502 OA
ATOM     29  H   UNL     1      -6.686  51.961  27.297  1.00  0.00     0.293 HD
ENDBRANCH  18  28
BRANCH  20  30
ATOM     30  O   UNL     1      -5.333  48.770  27.455  1.00  0.00    -0.504 OA
ATOM     31  H   UNL     1      -5.690  48.980  26.538  1.00  0.00     0.293 HD
ENDBRANCH  20  30
BRANCH  25  32
ATOM     32  C   UNL     1      -0.967  48.485  32.451  1.00  0.00     0.017 A 
ATOM     33  C   UNL     1       0.305  47.946  32.184  1.00  0.00     0.012 A 
ATOM     34  C   UNL     1      -1.320  48.756  33.788  1.00  0.00     0.012 A 
ATOM     35  C   UNL     1       1.209  47.705  33.225  1.00  0.00     0.001 A 
ATOM     36  C   UNL     1      -0.413  48.514  34.824  1.00  0.00     0.001 A 
ATOM     37  C   UNL     1       0.850  47.991  34.544  1.00  0.00     0.000 A 
ENDBRANCH  25  32
ENDBRANCH   1  17
TORSDOF 9
ENDMDL
MODEL 8
REMARK VINA RESULT:    -6.815      1.261      2.465
REMARK INTER + INTRA:         -10.386
REMARK INTER:                  -9.468
REMARK INTRA:                  -0.918
REMARK UNBOUND:                -0.982
REMARK SMILES O=C([O-])[C@@H]1O[C@H](Oc2cc3oc(-c4ccccc4)cc(=O)c3c(O)c2O)[C@@H](O)[C@@H](O)[C@@H]1O
REMARK SMILES IDX 7 1 6 2 4 3 31 4 5 5 29 6 27 7 2 8 1 9 3 10 32 11 30 13
REMARK SMILES IDX 28 15 8 17 25 18 9 19 23 20 10 21 22 22 11 23 20 24 12 25
REMARK SMILES IDX 19 26 21 27 26 28 24 30 13 32 14 33 18 34 15 35 17 36 16 37
REMARK H PARENT 32 12 30 14 28 16 26 29 24 31
REMARK Flexibility Score: inf
ROOT
ATOM      1  O   UNL     1      -4.750  51.783  31.818  1.00  0.00    -0.458 OA
ENDROOT
BRANCH   1   2
ATOM      2  C   UNL     1      -6.174  51.926  31.863  1.00  0.00     0.339 C 
ATOM      3  C   UNL     1      -7.460  53.912  32.590  1.00  0.00     0.199 C 
ATOM      4  C   UNL     1      -8.382  53.664  31.377  1.00  0.00     0.180 C 
ATOM      5  O   UNL     1      -6.527  52.876  32.878  1.00  0.00    -0.328 OA
ATOM      6  C   UNL     1      -7.525  53.359  30.163  1.00  0.00     0.181 C 
ATOM      7  C   UNL     1      -6.758  52.060  30.416  1.00  0.00     0.214 C 
BRANCH   3   8
ATOM      8  C   UNL     1      -6.747  55.246  32.536  1.00  0.00     0.073 C 
ATOM      9  O   UNL     1      -7.342  56.299  32.894  1.00  0.00    -0.547 OA
ATOM     10  O   UNL     1      -5.417  55.329  32.155  1.00  0.00    -0.547 OA
ENDBRANCH   3   8
BRANCH   4  11
ATOM     11  O   UNL     1      -9.194  54.781  31.109  1.00  0.00    -0.387 OA
ATOM     12  H   UNL     1      -8.786  55.251  30.334  1.00  0.00     0.211 HD
ENDBRANCH   4  11
BRANCH   6  13
ATOM     13  O   UNL     1      -8.342  53.234  29.025  1.00  0.00    -0.387 OA
ATOM     14  H   UNL     1      -9.210  52.865  29.336  1.00  0.00     0.211 HD
ENDBRANCH   6  13
BRANCH   7  15
ATOM     15  O   UNL     1      -7.547  50.938  30.090  1.00  0.00    -0.384 OA
ATOM     16  H   UNL     1      -8.153  51.188  29.347  1.00  0.00     0.211 HD
ENDBRANCH   7  15
ENDBRANCH   1   2
BRANCH   1  17
ATOM     17  C   UNL     1      -4.018  50.986  32.710  1.00  0.00     0.172 A 
ATOM     18  C   UNL     1      -2.895  50.298  32.239  1.00  0.00     0.201 A 
ATOM     19  C   UNL     1      -4.388  50.875  34.053  1.00  0.00     0.098 A 
ATOM     20  C   UNL     1      -2.148  49.468  33.100  1.00  0.00     0.176 A 
ATOM     21  C   UNL     1      -3.639  50.097  34.934  1.00  0.00     0.146 A 
ATOM     22  C   UNL     1      -2.492  49.396  34.483  1.00  0.00     0.111 A 
ATOM     23  O   UNL     1      -4.021  50.037  36.205  1.00  0.00    -0.456 OA
ATOM     24  C   UNL     1      -1.753  48.689  35.463  1.00  0.00     0.197 A 
ATOM     25  C   UNL     1      -3.373  49.345  37.134  1.00  0.00     0.138 A 
ATOM     26  C   UNL     1      -2.211  48.645  36.781  1.00  0.00     0.100 A 
ATOM     27  O   UNL     1      -0.665  48.116  35.195  1.00  0.00    -0.289 OA
BRANCH  18  28
ATOM     28  O   UNL     1      -2.551  50.424  30.894  1.00  0.00    -0.502 OA
ATOM     29  H   UNL     1      -2.926  49.815  30.177  1.00  0.00     0.293 HD
ENDBRANCH  18  28
BRANCH  20  30
ATOM     30  O   UNL     1      -1.115  48.719  32.527  1.00  0.00    -0.504 OA
ATOM     31  H   UNL     1      -1.213  47.777  32.188  1.00  0.00     0.293 HD
ENDBRANCH  20  30
BRANCH  25  32
ATOM     32  C   UNL     1      -3.908  49.342  38.520  1.00  0.00     0.017 A 
ATOM     33  C   UNL     1      -4.779  48.313  38.922  1.00  0.00     0.012 A 
ATOM     34  C   UNL     1      -3.594  50.362  39.441  1.00  0.00     0.012 A 
ATOM     35  C   UNL     1      -5.306  48.291  40.218  1.00  0.00     0.001 A 
ATOM     36  C   UNL     1      -4.123  50.335  40.735  1.00  0.00     0.001 A 
ATOM     37  C   UNL     1      -4.976  49.301  41.124  1.00  0.00     0.000 A 
ENDBRANCH  25  32
ENDBRANCH   1  17
TORSDOF 9
ENDMDL
