MODEL 1
REMARK VINA RESULT:    -2.597      0.000      0.000
REMARK INTER + INTRA:          -2.597
REMARK INTER:                  -2.597
REMARK INTRA:                   0.000
REMARK UNBOUND:                 0.000
REMARK SMILES CC(=O)[O-]
REMARK SMILES IDX 1 1 2 2 3 3 4 4
REMARK H PARENT
REMARK Flexibility Score: inf
ROOT
ATOM      1  C   UNL     1       5.423   9.353   2.411  1.00  0.00     0.063 C 
ATOM      2  C   UNL     1       6.512   9.038   3.380  1.00  0.00     0.038 C 
ATOM      3  O   UNL     1       6.363   9.298   4.603  1.00  0.00    -0.550 OA
ATOM      4  O   UNL     1       7.670   8.408   2.945  1.00  0.00    -0.550 OA
ENDROOT
TORSDOF 0
ENDMDL
MODEL 2
REMARK VINA RESULT:    -2.555      1.451      1.842
REMARK INTER + INTRA:          -2.555
REMARK INTER:                  -2.555
REMARK INTRA:                   0.000
REMARK UNBOUND:                 0.000
REMARK SMILES CC(=O)[O-]
REMARK SMILES IDX 1 1 2 2 3 3 4 4
REMARK H PARENT
REMARK Flexibility Score: inf
ROOT
ATOM      1  C   UNL     1       7.176   9.157   2.586  1.00  0.00     0.063 C 
ATOM      2  C   UNL     1       6.086   9.422   3.568  1.00  0.00     0.038 C 
ATOM      3  O   UNL     1       6.327   9.392   4.803  1.00  0.00    -0.550 OA
ATOM      4  O   UNL     1       4.813   9.756   3.122  1.00  0.00    -0.550 OA
ENDROOT
TORSDOF 0
ENDMDL
MODEL 3
REMARK VINA RESULT:    -2.529      1.682      2.477
REMARK INTER + INTRA:          -2.529
REMARK INTER:                  -2.529
REMARK INTRA:                   0.000
REMARK UNBOUND:                 0.000
REMARK SMILES CC(=O)[O-]
REMARK SMILES IDX 1 1 2 2 3 3 4 4
REMARK H PARENT
REMARK Flexibility Score: inf
ROOT
ATOM      1  C   UNL     1       4.095   8.685   1.355  1.00  0.00     0.063 C 
ATOM      2  C   UNL     1       5.045   9.227   2.369  1.00  0.00     0.038 C 
ATOM      3  O   UNL     1       6.287   9.161   2.169  1.00  0.00    -0.550 OA
ATOM      4  O   UNL     1       4.563   9.852   3.512  1.00  0.00    -0.550 OA
ENDROOT
TORSDOF 0
ENDMDL
MODEL 4
REMARK VINA RESULT:    -2.517     23.623     23.646
REMARK INTER + INTRA:          -2.517
REMARK INTER:                  -2.517
REMARK INTRA:                   0.000
REMARK UNBOUND:                 0.000
REMARK SMILES CC(=O)[O-]
REMARK SMILES IDX 1 1 2 2 3 3 4 4
REMARK H PARENT
REMARK Flexibility Score: inf
ROOT
ATOM      1  C   UNL     1      -9.696  -5.993  -5.174  1.00  0.00     0.063 C 
ATOM      2  C   UNL     1      -9.204  -6.966  -4.157  1.00  0.00     0.038 C 
ATOM      3  O   UNL     1      -9.674  -6.950  -2.989  1.00  0.00    -0.550 OA
ATOM      4  O   UNL     1      -8.264  -7.925  -4.509  1.00  0.00    -0.550 OA
ENDROOT
TORSDOF 0
ENDMDL
MODEL 5
REMARK VINA RESULT:    -2.504     23.563     23.628
REMARK INTER + INTRA:          -2.504
REMARK INTER:                  -2.504
REMARK INTRA:                   0.000
REMARK UNBOUND:                 0.000
REMARK SMILES CC(=O)[O-]
REMARK SMILES IDX 1 1 2 2 3 3 4 4
REMARK H PARENT
REMARK Flexibility Score: inf
ROOT
ATOM      1  C   UNL     1      -9.660  -6.048  -5.234  1.00  0.00     0.063 C 
ATOM      2  C   UNL     1      -9.133  -6.956  -4.176  1.00  0.00     0.038 C 
ATOM      3  O   UNL     1      -8.154  -7.710  -4.419  1.00  0.00    -0.550 OA
ATOM      4  O   UNL     1      -9.687  -6.935  -2.902  1.00  0.00    -0.550 OA
ENDROOT
TORSDOF 0
ENDMDL
MODEL 6
REMARK VINA RESULT:    -2.487      2.376      2.558
REMARK INTER + INTRA:          -2.487
REMARK INTER:                  -2.487
REMARK INTRA:                   0.000
REMARK UNBOUND:                 0.000
REMARK SMILES CC(=O)[O-]
REMARK SMILES IDX 1 1 2 2 3 3 4 4
REMARK H PARENT
REMARK Flexibility Score: inf
ROOT
ATOM      1  C   UNL     1       6.394   9.034   2.460  1.00  0.00     0.063 C 
ATOM      2  C   UNL     1       4.914   9.101   2.293  1.00  0.00     0.038 C 
ATOM      3  O   UNL     1       4.214   9.746   3.117  1.00  0.00    -0.550 OA
ATOM      4  O   UNL     1       4.308   8.496   1.199  1.00  0.00    -0.550 OA
ENDROOT
TORSDOF 0
ENDMDL
MODEL 7
REMARK VINA RESULT:    -2.391      2.439      2.816
REMARK INTER + INTRA:          -2.391
REMARK INTER:                  -2.391
REMARK INTRA:                   0.000
REMARK UNBOUND:                 0.000
REMARK SMILES CC(=O)[O-]
REMARK SMILES IDX 1 1 2 2 3 3 4 4
REMARK H PARENT
REMARK Flexibility Score: inf
ROOT
ATOM      1  C   UNL     1       7.446   9.254   2.817  1.00  0.00     0.063 C 
ATOM      2  C   UNL     1       8.832   8.838   2.458  1.00  0.00     0.038 C 
ATOM      3  O   UNL     1       9.629   9.669   1.949  1.00  0.00    -0.550 OA
ATOM      4  O   UNL     1       9.264   7.547   2.734  1.00  0.00    -0.550 OA
ENDROOT
TORSDOF 0
ENDMDL
MODEL 8
REMARK VINA RESULT:    -2.252     22.944     23.213
REMARK INTER + INTRA:          -2.252
REMARK INTER:                  -2.252
REMARK INTRA:                   0.000
REMARK UNBOUND:                 0.000
REMARK SMILES CC(=O)[O-]
REMARK SMILES IDX 1 1 2 2 3 3 4 4
REMARK H PARENT
REMARK Flexibility Score: inf
ROOT
ATOM      1  C   UNL     1      -6.296  -7.501  -6.170  1.00  0.00     0.063 C 
ATOM      2  C   UNL     1      -6.789  -8.073  -4.884  1.00  0.00     0.038 C 
ATOM      3  O   UNL     1      -5.999  -8.693  -4.125  1.00  0.00    -0.550 OA
ATOM      4  O   UNL     1      -8.108  -7.879  -4.496  1.00  0.00    -0.550 OA
ENDROOT
TORSDOF 0
ENDMDL
MODEL 9
REMARK VINA RESULT:    -2.247      2.301      3.135
REMARK INTER + INTRA:          -2.247
REMARK INTER:                  -2.247
REMARK INTRA:                   0.000
REMARK UNBOUND:                 0.000
REMARK SMILES CC(=O)[O-]
REMARK SMILES IDX 1 1 2 2 3 3 4 4
REMARK H PARENT
REMARK Flexibility Score: inf
ROOT
ATOM      1  C   UNL     1       9.591  10.054   2.339  1.00  0.00     0.063 C 
ATOM      2  C   UNL     1       8.809   8.851   2.742  1.00  0.00     0.038 C 
ATOM      3  O   UNL     1       9.294   7.700   2.584  1.00  0.00    -0.550 OA
ATOM      4  O   UNL     1       7.565   8.998   3.342  1.00  0.00    -0.550 OA
ENDROOT
TORSDOF 0
ENDMDL
