MODEL 1
REMARK VINA RESULT:    -5.942      0.000      0.000
REMARK INTER + INTRA:          -6.329
REMARK INTER:                  -6.290
REMARK INTRA:                  -0.039
REMARK UNBOUND:                -0.039
REMARK SMILES C=C(C)[C@@H]1CC=C(C)C(=O)C1
REMARK SMILES IDX 8 1 7 2 6 3 5 4 4 5 11 6 9 7 10 8 2 9 1 10 3 11
REMARK H PARENT
REMARK Flexibility Score: inf
ROOT
ATOM      1  C   UNL     1       6.001  11.753  -8.002  1.00  0.00     0.048 C 
ATOM      2  C   UNL     1       5.525  13.164  -7.790  1.00  0.00    -0.012 C 
ATOM      3  C   UNL     1       4.935  13.825  -8.798  1.00  0.00    -0.019 C 
ATOM      4  C   UNL     1       4.465  15.248  -8.666  1.00  0.00     0.036 C 
ATOM      5  C   UNL     1       4.051  15.631  -7.229  1.00  0.00     0.025 C 
ATOM      6  C   UNL     1       5.093  15.165  -6.191  1.00  0.00     0.089 C 
ATOM      7  C   UNL     1       5.573  13.762  -6.436  1.00  0.00     0.158 C 
ATOM      8  O   UNL     1       6.056  13.106  -5.473  1.00  0.00    -0.295 OA
ENDROOT
BRANCH   5   9
ATOM      9  C   UNL     1       2.626  15.197  -6.886  1.00  0.00    -0.077 C 
ATOM     10  C   UNL     1       2.043  15.508  -5.715  1.00  0.00     0.008 C 
ATOM     11  C   UNL     1       1.827  14.393  -7.882  1.00  0.00     0.039 C 
ENDBRANCH   5   9
TORSDOF 1
ENDMDL
MODEL 2
REMARK VINA RESULT:    -5.772      1.580      3.703
REMARK INTER + INTRA:          -6.149
REMARK INTER:                  -5.975
REMARK INTRA:                  -0.173
REMARK UNBOUND:                -0.039
REMARK SMILES C=C(C)[C@@H]1CC=C(C)C(=O)C1
REMARK SMILES IDX 8 1 7 2 6 3 5 4 4 5 11 6 9 7 10 8 2 9 1 10 3 11
REMARK H PARENT
REMARK Flexibility Score: inf
ROOT
ATOM      1  C   UNL     1       3.990  16.899  -5.378  1.00  0.00     0.048 C 
ATOM      2  C   UNL     1       3.683  15.755  -6.305  1.00  0.00    -0.012 C 
ATOM      3  C   UNL     1       3.766  15.933  -7.632  1.00  0.00    -0.019 C 
ATOM      4  C   UNL     1       3.441  14.843  -8.617  1.00  0.00     0.036 C 
ATOM      5  C   UNL     1       3.709  13.422  -8.074  1.00  0.00     0.025 C 
ATOM      6  C   UNL     1       3.142  13.237  -6.651  1.00  0.00     0.089 C 
ATOM      7  C   UNL     1       3.439  14.403  -5.750  1.00  0.00     0.158 C 
ATOM      8  O   UNL     1       3.442  14.224  -4.502  1.00  0.00    -0.295 OA
ENDROOT
BRANCH   5   9
ATOM      9  C   UNL     1       5.175  13.006  -8.196  1.00  0.00    -0.077 C 
ATOM     10  C   UNL     1       6.042  13.656  -8.991  1.00  0.00     0.008 C 
ATOM     11  C   UNL     1       5.688  11.829  -7.404  1.00  0.00     0.039 C 
ENDBRANCH   5   9
TORSDOF 1
ENDMDL
MODEL 3
REMARK VINA RESULT:    -5.701      1.616      2.298
REMARK INTER + INTRA:          -6.074
REMARK INTER:                  -5.859
REMARK INTRA:                  -0.215
REMARK UNBOUND:                -0.039
REMARK SMILES C=C(C)[C@@H]1CC=C(C)C(=O)C1
REMARK SMILES IDX 8 1 7 2 6 3 5 4 4 5 11 6 9 7 10 8 2 9 1 10 3 11
REMARK H PARENT
REMARK Flexibility Score: inf
ROOT
ATOM      1  C   UNL     1       3.749  11.040  -9.082  1.00  0.00     0.048 C 
ATOM      2  C   UNL     1       3.790  12.542  -9.038  1.00  0.00    -0.012 C 
ATOM      3  C   UNL     1       2.644  13.239  -9.066  1.00  0.00    -0.019 C 
ATOM      4  C   UNL     1       2.612  14.744  -9.058  1.00  0.00     0.036 C 
ATOM      5  C   UNL     1       3.812  15.382  -8.327  1.00  0.00     0.025 C 
ATOM      6  C   UNL     1       5.149  14.738  -8.750  1.00  0.00     0.089 C 
ATOM      7  C   UNL     1       5.078  13.238  -8.812  1.00  0.00     0.158 C 
ATOM      8  O   UNL     1       6.144  12.573  -8.706  1.00  0.00    -0.295 OA
ENDROOT
BRANCH   5   9
ATOM      9  C   UNL     1       3.625  15.435  -6.811  1.00  0.00    -0.077 C 
ATOM     10  C   UNL     1       4.664  15.511  -5.961  1.00  0.00     0.008 C 
ATOM     11  C   UNL     1       2.234  15.403  -6.226  1.00  0.00     0.039 C 
ENDBRANCH   5   9
TORSDOF 1
ENDMDL
MODEL 4
REMARK VINA RESULT:    -5.565      1.615      2.354
REMARK INTER + INTRA:          -5.929
REMARK INTER:                  -5.835
REMARK INTRA:                  -0.095
REMARK UNBOUND:                -0.039
REMARK SMILES C=C(C)[C@@H]1CC=C(C)C(=O)C1
REMARK SMILES IDX 8 1 7 2 6 3 5 4 4 5 11 6 9 7 10 8 2 9 1 10 3 11
REMARK H PARENT
REMARK Flexibility Score: inf
ROOT
ATOM      1  C   UNL     1       5.615  11.749  -7.857  1.00  0.00     0.048 C 
ATOM      2  C   UNL     1       4.574  12.831  -7.939  1.00  0.00    -0.012 C 
ATOM      3  C   UNL     1       3.385  12.656  -7.344  1.00  0.00    -0.019 C 
ATOM      4  C   UNL     1       2.287  13.682  -7.413  1.00  0.00     0.036 C 
ATOM      5  C   UNL     1       2.803  15.130  -7.551  1.00  0.00     0.025 C 
ATOM      6  C   UNL     1       3.904  15.245  -8.626  1.00  0.00     0.089 C 
ATOM      7  C   UNL     1       4.918  14.140  -8.542  1.00  0.00     0.158 C 
ATOM      8  O   UNL     1       6.066  14.328  -9.029  1.00  0.00    -0.295 OA
ENDROOT
BRANCH   5   9
ATOM      9  C   UNL     1       3.207  15.747  -6.211  1.00  0.00    -0.077 C 
ATOM     10  C   UNL     1       3.745  16.976  -6.119  1.00  0.00     0.008 C 
ATOM     11  C   UNL     1       3.001  14.968  -4.936  1.00  0.00     0.039 C 
ENDBRANCH   5   9
TORSDOF 1
ENDMDL
MODEL 5
REMARK VINA RESULT:    -5.467      1.956      4.000
REMARK INTER + INTRA:          -5.826
REMARK INTER:                  -5.614
REMARK INTRA:                  -0.212
REMARK UNBOUND:                -0.039
REMARK SMILES C=C(C)[C@@H]1CC=C(C)C(=O)C1
REMARK SMILES IDX 8 1 7 2 6 3 5 4 4 5 11 6 9 7 10 8 2 9 1 10 3 11
REMARK H PARENT
REMARK Flexibility Score: inf
ROOT
ATOM      1  C   UNL     1       2.654  15.915  -5.653  1.00  0.00     0.048 C 
ATOM      2  C   UNL     1       3.194  15.374  -6.948  1.00  0.00    -0.012 C 
ATOM      3  C   UNL     1       4.499  15.509  -7.232  1.00  0.00    -0.019 C 
ATOM      4  C   UNL     1       5.100  15.022  -8.522  1.00  0.00     0.036 C 
ATOM      5  C   UNL     1       4.366  13.805  -9.124  1.00  0.00     0.025 C 
ATOM      6  C   UNL     1       2.836  14.003  -9.125  1.00  0.00     0.089 C 
ATOM      7  C   UNL     1       2.321  14.567  -7.831  1.00  0.00     0.158 C 
ATOM      8  O   UNL     1       1.114  14.375  -7.520  1.00  0.00    -0.295 OA
ENDROOT
BRANCH   5   9
ATOM      9  C   UNL     1       4.800  12.480  -8.497  1.00  0.00    -0.077 C 
ATOM     10  C   UNL     1       6.004  12.318  -7.922  1.00  0.00     0.008 C 
ATOM     11  C   UNL     1       3.859  11.300  -8.512  1.00  0.00     0.039 C 
ENDBRANCH   5   9
TORSDOF 1
ENDMDL
MODEL 6
REMARK VINA RESULT:    -5.367      1.387      2.149
REMARK INTER + INTRA:          -5.720
REMARK INTER:                  -5.546
REMARK INTRA:                  -0.174
REMARK UNBOUND:                -0.039
REMARK SMILES C=C(C)[C@@H]1CC=C(C)C(=O)C1
REMARK SMILES IDX 8 1 7 2 6 3 5 4 4 5 11 6 9 7 10 8 2 9 1 10 3 11
REMARK H PARENT
REMARK Flexibility Score: inf
ROOT
ATOM      1  C   UNL     1       6.411  12.509  -5.446  1.00  0.00     0.048 C 
ATOM      2  C   UNL     1       5.878  13.193  -6.674  1.00  0.00    -0.012 C 
ATOM      3  C   UNL     1       5.868  12.541  -7.847  1.00  0.00    -0.019 C 
ATOM      4  C   UNL     1       5.380  13.175  -9.121  1.00  0.00     0.036 C 
ATOM      5  C   UNL     1       4.295  14.250  -8.899  1.00  0.00     0.025 C 
ATOM      6  C   UNL     1       4.678  15.223  -7.763  1.00  0.00     0.089 C 
ATOM      7  C   UNL     1       5.231  14.520  -6.556  1.00  0.00     0.158 C 
ATOM      8  O   UNL     1       5.171  15.095  -5.435  1.00  0.00    -0.295 OA
ENDROOT
BRANCH   5   9
ATOM      9  C   UNL     1       2.896  13.657  -8.735  1.00  0.00    -0.077 C 
ATOM     10  C   UNL     1       1.865  14.372  -8.250  1.00  0.00     0.008 C 
ATOM     11  C   UNL     1       2.639  12.223  -9.125  1.00  0.00     0.039 C 
ENDBRANCH   5   9
TORSDOF 1
ENDMDL
MODEL 7
REMARK VINA RESULT:    -5.272      1.664      3.534
REMARK INTER + INTRA:          -5.620
REMARK INTER:                  -5.617
REMARK INTRA:                  -0.003
REMARK UNBOUND:                -0.039
REMARK SMILES C=C(C)[C@@H]1CC=C(C)C(=O)C1
REMARK SMILES IDX 8 1 7 2 6 3 5 4 4 5 11 6 9 7 10 8 2 9 1 10 3 11
REMARK H PARENT
REMARK Flexibility Score: inf
ROOT
ATOM      1  C   UNL     1       3.817  17.464  -5.556  1.00  0.00     0.048 C 
ATOM      2  C   UNL     1       3.487  16.017  -5.803  1.00  0.00    -0.012 C 
ATOM      3  C   UNL     1       2.232  15.666  -6.121  1.00  0.00    -0.019 C 
ATOM      4  C   UNL     1       1.825  14.236  -6.348  1.00  0.00     0.036 C 
ATOM      5  C   UNL     1       2.967  13.348  -6.887  1.00  0.00     0.025 C 
ATOM      6  C   UNL     1       4.277  13.561  -6.100  1.00  0.00     0.089 C 
ATOM      7  C   UNL     1       4.574  15.011  -5.843  1.00  0.00     0.158 C 
ATOM      8  O   UNL     1       5.765  15.360  -5.623  1.00  0.00    -0.295 OA
ENDROOT
BRANCH   5   9
ATOM      9  C   UNL     1       3.149  13.468  -8.400  1.00  0.00    -0.077 C 
ATOM     10  C   UNL     1       2.529  14.415  -9.125  1.00  0.00     0.008 C 
ATOM     11  C   UNL     1       4.054  12.503  -9.125  1.00  0.00     0.039 C 
ENDBRANCH   5   9
TORSDOF 1
ENDMDL
MODEL 8
REMARK VINA RESULT:    -5.076      1.939      3.640
REMARK INTER + INTRA:          -5.412
REMARK INTER:                  -5.377
REMARK INTRA:                  -0.035
REMARK UNBOUND:                -0.039
REMARK SMILES C=C(C)[C@@H]1CC=C(C)C(=O)C1
REMARK SMILES IDX 8 1 7 2 6 3 5 4 4 5 11 6 9 7 10 8 2 9 1 10 3 11
REMARK H PARENT
REMARK Flexibility Score: inf
ROOT
ATOM      1  C   UNL     1       4.422  15.775  -5.493  1.00  0.00     0.048 C 
ATOM      2  C   UNL     1       4.899  14.866  -6.592  1.00  0.00    -0.012 C 
ATOM      3  C   UNL     1       5.269  13.609  -6.301  1.00  0.00    -0.019 C 
ATOM      4  C   UNL     1       5.787  12.657  -7.345  1.00  0.00     0.036 C 
ATOM      5  C   UNL     1       5.218  12.919  -8.756  1.00  0.00     0.025 C 
ATOM      6  C   UNL     1       5.270  14.417  -9.124  1.00  0.00     0.089 C 
ATOM      7  C   UNL     1       4.813  15.308  -8.003  1.00  0.00     0.158 C 
ATOM      8  O   UNL     1       4.388  16.463  -8.277  1.00  0.00    -0.295 OA
ENDROOT
BRANCH   5   9
ATOM      9  C   UNL     1       3.837  12.297  -8.965  1.00  0.00    -0.077 C 
ATOM     10  C   UNL     1       3.649  10.966  -9.013  1.00  0.00     0.008 C 
ATOM     11  C   UNL     1       2.630  13.188  -9.125  1.00  0.00     0.039 C 
ENDBRANCH   5   9
TORSDOF 1
ENDMDL
MODEL 9
REMARK VINA RESULT:    -4.994      1.962      2.623
REMARK INTER + INTRA:          -5.325
REMARK INTER:                  -5.175
REMARK INTRA:                  -0.150
REMARK UNBOUND:                -0.039
REMARK SMILES C=C(C)[C@@H]1CC=C(C)C(=O)C1
REMARK SMILES IDX 8 1 7 2 6 3 5 4 4 5 11 6 9 7 10 8 2 9 1 10 3 11
REMARK H PARENT
REMARK Flexibility Score: inf
ROOT
ATOM      1  C   UNL     1       6.564  12.318  -8.300  1.00  0.00     0.048 C 
ATOM      2  C   UNL     1       5.307  12.466  -7.488  1.00  0.00    -0.012 C 
ATOM      3  C   UNL     1       5.294  13.287  -6.426  1.00  0.00    -0.019 C 
ATOM      4  C   UNL     1       4.083  13.457  -5.550  1.00  0.00     0.036 C 
ATOM      5  C   UNL     1       2.748  13.242  -6.295  1.00  0.00     0.025 C 
ATOM      6  C   UNL     1       2.778  11.968  -7.166  1.00  0.00     0.089 C 
ATOM      7  C   UNL     1       4.053  11.828  -7.949  1.00  0.00     0.158 C 
ATOM      8  O   UNL     1       4.052  11.122  -8.994  1.00  0.00    -0.295 OA
ENDROOT
BRANCH   5   9
ATOM      9  C   UNL     1       2.289  14.483  -7.062  1.00  0.00    -0.077 C 
ATOM     10  C   UNL     1       2.257  15.703  -6.500  1.00  0.00     0.008 C 
ATOM     11  C   UNL     1       1.853  14.356  -8.501  1.00  0.00     0.039 C 
ENDBRANCH   5   9
TORSDOF 1
ENDMDL
