MODEL 1
REMARK VINA RESULT:    -4.611      0.000      0.000
REMARK INTER + INTRA:          -7.765
REMARK INTER:                  -6.228
REMARK INTRA:                  -1.536
REMARK UNBOUND:                -1.536
REMARK SMILES C=CC(C)=CCC=C(C)CCC=C(C)C
REMARK SMILES IDX 8 1 7 2 9 3 10 4 11 5 12 6 14 7 13 8 15 9 6 10 5 11 3 12
REMARK SMILES IDX 4 13 2 14 1 15
REMARK H PARENT
REMARK Flexibility Score: inf
ROOT
ATOM      1  C   UNL     1      -0.241   5.680  13.142  1.00  0.00    -0.077 C 
ATOM      2  C   UNL     1       0.509   4.562  13.276  1.00  0.00    -0.024 C 
ATOM      3  C   UNL     1      -1.334   6.026  14.126  1.00  0.00     0.039 C 
ENDROOT
BRANCH   1   4
ATOM      4  C   UNL     1       0.023   6.610  11.974  1.00  0.00     0.034 C 
BRANCH   4   5
ATOM      5  C   UNL     1      -0.414   5.989  10.639  1.00  0.00     0.032 C 
BRANCH   5   6
ATOM      6  C   UNL     1      -1.919   5.902  10.524  1.00  0.00    -0.028 C 
ATOM      7  C   UNL     1      -1.964   3.408  10.749  1.00  0.00     0.039 C 
ATOM      8  C   UNL     1      -2.622   4.747  10.531  1.00  0.00    -0.080 C 
ATOM      9  C   UNL     1      -4.120   4.784  10.378  1.00  0.00     0.039 C 
ENDBRANCH   5   6
ENDBRANCH   4   5
ENDBRANCH   1   4
BRANCH   2  10
ATOM     10  C   UNL     1       0.308   3.538  14.364  1.00  0.00     0.055 C 
BRANCH  10  11
ATOM     11  C   UNL     1      -0.111   2.209  13.790  1.00  0.00    -0.020 C 
ATOM     12  C   UNL     1      -1.313   1.642  14.010  1.00  0.00    -0.055 C 
ATOM     13  C   UNL     1      -2.355   2.303  14.883  1.00  0.00     0.044 C 
BRANCH  12  14
ATOM     14  C   UNL     1      -1.567   0.300  13.423  1.00  0.00    -0.005 C 
ATOM     15  C   UNL     1      -1.761  -0.799  14.153  1.00  0.00     0.009 C 
ENDBRANCH  12  14
ENDBRANCH  10  11
ENDBRANCH   2  10
TORSDOF 6
ENDMDL
MODEL 2
REMARK VINA RESULT:    -4.554      1.306      1.976
REMARK INTER + INTRA:          -7.688
REMARK INTER:                  -6.599
REMARK INTRA:                  -1.088
REMARK UNBOUND:                -1.536
REMARK SMILES C=CC(C)=CCC=C(C)CCC=C(C)C
REMARK SMILES IDX 8 1 7 2 9 3 10 4 11 5 12 6 14 7 13 8 15 9 6 10 5 11 3 12
REMARK SMILES IDX 4 13 2 14 1 15
REMARK H PARENT
REMARK Flexibility Score: inf
ROOT
ATOM      1  C   UNL     1      -1.214   4.671  11.820  1.00  0.00    -0.077 C 
ATOM      2  C   UNL     1      -0.539   3.499  11.807  1.00  0.00    -0.024 C 
ATOM      3  C   UNL     1      -1.533   5.389  13.110  1.00  0.00     0.039 C 
ENDROOT
BRANCH   1   4
ATOM      4  C   UNL     1      -1.664   5.279  10.506  1.00  0.00     0.034 C 
BRANCH   4   5
ATOM      5  C   UNL     1      -2.722   6.373  10.715  1.00  0.00     0.032 C 
BRANCH   5   6
ATOM      6  C   UNL     1      -4.011   6.054   9.993  1.00  0.00    -0.028 C 
ATOM      7  C   UNL     1      -5.113   5.094  12.027  1.00  0.00     0.039 C 
ATOM      8  C   UNL     1      -5.075   5.443  10.561  1.00  0.00    -0.080 C 
ATOM      9  C   UNL     1      -6.298   5.149   9.731  1.00  0.00     0.039 C 
ENDBRANCH   5   6
ENDBRANCH   4   5
ENDBRANCH   1   4
BRANCH   2  10
ATOM     10  C   UNL     1      -0.086   2.774  13.048  1.00  0.00     0.055 C 
BRANCH  10  11
ATOM     11  C   UNL     1      -0.776   1.440  13.181  1.00  0.00    -0.020 C 
ATOM     12  C   UNL     1      -1.793   1.203  14.032  1.00  0.00    -0.055 C 
ATOM     13  C   UNL     1      -2.324   2.278  14.954  1.00  0.00     0.044 C 
BRANCH  12  14
ATOM     14  C   UNL     1      -2.340  -0.177  14.096  1.00  0.00    -0.005 C 
ATOM     15  C   UNL     1      -1.582  -1.273  14.064  1.00  0.00     0.009 C 
ENDBRANCH  12  14
ENDBRANCH  10  11
ENDBRANCH   2  10
TORSDOF 6
ENDMDL
MODEL 3
REMARK VINA RESULT:    -4.545      1.896      2.959
REMARK INTER + INTRA:          -7.676
REMARK INTER:                  -6.622
REMARK INTRA:                  -1.054
REMARK UNBOUND:                -1.536
REMARK SMILES C=CC(C)=CCC=C(C)CCC=C(C)C
REMARK SMILES IDX 8 1 7 2 9 3 10 4 11 5 12 6 14 7 13 8 15 9 6 10 5 11 3 12
REMARK SMILES IDX 4 13 2 14 1 15
REMARK H PARENT
REMARK Flexibility Score: inf
ROOT
ATOM      1  C   UNL     1      -1.354   4.673  11.081  1.00  0.00    -0.077 C 
ATOM      2  C   UNL     1      -1.264   3.337  10.890  1.00  0.00    -0.024 C 
ATOM      3  C   UNL     1      -0.414   5.409  12.007  1.00  0.00     0.039 C 
ENDROOT
BRANCH   1   4
ATOM      4  C   UNL     1      -2.428   5.453  10.348  1.00  0.00     0.034 C 
BRANCH   4   5
ATOM      5  C   UNL     1      -2.017   6.915  10.119  1.00  0.00     0.032 C 
BRANCH   5   6
ATOM      6  C   UNL     1      -1.866   7.233   8.648  1.00  0.00    -0.028 C 
ATOM      7  C   UNL     1       0.583   6.713   8.611  1.00  0.00     0.039 C 
ATOM      8  C   UNL     1      -0.698   7.186   7.971  1.00  0.00    -0.080 C 
ATOM      9  C   UNL     1      -0.665   7.556   6.510  1.00  0.00     0.039 C 
ENDBRANCH   5   6
ENDBRANCH   4   5
ENDBRANCH   1   4
BRANCH   2  10
ATOM     10  C   UNL     1      -0.272   2.450  11.599  1.00  0.00     0.055 C 
BRANCH  10  11
ATOM     11  C   UNL     1      -0.975   1.397  12.419  1.00  0.00    -0.020 C 
ATOM     12  C   UNL     1      -1.128   1.466  13.755  1.00  0.00    -0.055 C 
ATOM     13  C   UNL     1      -0.581   2.624  14.559  1.00  0.00     0.044 C 
BRANCH  12  14
ATOM     14  C   UNL     1      -1.793   0.326  14.439  1.00  0.00    -0.005 C 
ATOM     15  C   UNL     1      -1.723  -0.934  14.009  1.00  0.00     0.009 C 
ENDBRANCH  12  14
ENDBRANCH  10  11
ENDBRANCH   2  10
TORSDOF 6
ENDMDL
MODEL 4
REMARK VINA RESULT:    -4.480      1.521      4.928
REMARK INTER + INTRA:          -7.588
REMARK INTER:                  -6.314
REMARK INTRA:                  -1.274
REMARK UNBOUND:                -1.536
REMARK SMILES C=CC(C)=CCC=C(C)CCC=C(C)C
REMARK SMILES IDX 8 1 7 2 9 3 10 4 11 5 12 6 14 7 13 8 15 9 6 10 5 11 3 12
REMARK SMILES IDX 4 13 2 14 1 15
REMARK H PARENT
REMARK Flexibility Score: inf
ROOT
ATOM      1  C   UNL     1      -1.726   3.986  11.380  1.00  0.00    -0.077 C 
ATOM      2  C   UNL     1      -0.628   4.775  11.338  1.00  0.00    -0.024 C 
ATOM      3  C   UNL     1      -3.000   4.435  12.058  1.00  0.00     0.039 C 
ENDROOT
BRANCH   1   4
ATOM      4  C   UNL     1      -1.678   2.617  10.733  1.00  0.00     0.034 C 
BRANCH   4   5
ATOM      5  C   UNL     1      -0.601   1.723  11.366  1.00  0.00     0.032 C 
BRANCH   5   6
ATOM      6  C   UNL     1      -1.207   0.554  12.110  1.00  0.00    -0.028 C 
ATOM      7  C   UNL     1      -1.163   1.721  14.326  1.00  0.00     0.039 C 
ATOM      8  C   UNL     1      -1.425   0.526  13.444  1.00  0.00    -0.080 C 
ATOM      9  C   UNL     1      -2.007  -0.710  14.080  1.00  0.00     0.039 C 
ENDBRANCH   5   6
ENDBRANCH   4   5
ENDBRANCH   1   4
BRANCH   2  10
ATOM     10  C   UNL     1      -0.540   6.132  11.988  1.00  0.00     0.055 C 
BRANCH  10  11
ATOM     11  C   UNL     1       0.620   6.200  12.949  1.00  0.00    -0.020 C 
ATOM     12  C   UNL     1       0.522   5.914  14.262  1.00  0.00    -0.055 C 
ATOM     13  C   UNL     1      -0.791   5.509  14.892  1.00  0.00     0.044 C 
BRANCH  12  14
ATOM     14  C   UNL     1       1.738   6.079  15.101  1.00  0.00    -0.005 C 
ATOM     15  C   UNL     1       2.973   5.818  14.671  1.00  0.00     0.009 C 
ENDBRANCH  12  14
ENDBRANCH  10  11
ENDBRANCH   2  10
TORSDOF 6
ENDMDL
MODEL 5
REMARK VINA RESULT:    -4.455      1.618      5.675
REMARK INTER + INTRA:          -7.554
REMARK INTER:                  -6.710
REMARK INTRA:                  -0.844
REMARK UNBOUND:                -1.536
REMARK SMILES C=CC(C)=CCC=C(C)CCC=C(C)C
REMARK SMILES IDX 8 1 7 2 9 3 10 4 11 5 12 6 14 7 13 8 15 9 6 10 5 11 3 12
REMARK SMILES IDX 4 13 2 14 1 15
REMARK H PARENT
REMARK Flexibility Score: inf
ROOT
ATOM      1  C   UNL     1      -1.135   3.602  11.873  1.00  0.00    -0.077 C 
ATOM      2  C   UNL     1      -1.718   4.075  10.748  1.00  0.00    -0.024 C 
ATOM      3  C   UNL     1      -1.180   4.369  13.174  1.00  0.00     0.039 C 
ENDROOT
BRANCH   1   4
ATOM      4  C   UNL     1      -0.417   2.268  11.827  1.00  0.00     0.034 C 
BRANCH   4   5
ATOM      5  C   UNL     1      -1.329   1.145  11.311  1.00  0.00     0.032 C 
BRANCH   5   6
ATOM      6  C   UNL     1      -1.179  -0.121  12.123  1.00  0.00    -0.028 C 
ATOM      7  C   UNL     1      -2.348   0.821  14.127  1.00  0.00     0.039 C 
ATOM      8  C   UNL     1      -1.595  -0.265  13.401  1.00  0.00    -0.080 C 
ATOM      9  C   UNL     1      -1.361  -1.568  14.121  1.00  0.00     0.039 C 
ENDBRANCH   5   6
ENDBRANCH   4   5
ENDBRANCH   1   4
BRANCH   2  10
ATOM     10  C   UNL     1      -2.416   5.409  10.657  1.00  0.00     0.055 C 
BRANCH  10  11
ATOM     11  C   UNL     1      -3.822   5.252  10.136  1.00  0.00    -0.020 C 
ATOM     12  C   UNL     1      -4.914   5.225  10.924  1.00  0.00    -0.055 C 
ATOM     13  C   UNL     1      -4.813   5.335  12.429  1.00  0.00     0.044 C 
BRANCH  12  14
ATOM     14  C   UNL     1      -6.234   5.008  10.275  1.00  0.00    -0.005 C 
ATOM     15  C   UNL     1      -6.747   5.825   9.356  1.00  0.00     0.009 C 
ENDBRANCH  12  14
ENDBRANCH  10  11
ENDBRANCH   2  10
TORSDOF 6
ENDMDL
MODEL 6
REMARK VINA RESULT:    -4.450      1.767      2.877
REMARK INTER + INTRA:          -7.547
REMARK INTER:                  -6.607
REMARK INTRA:                  -0.940
REMARK UNBOUND:                -1.536
REMARK SMILES C=CC(C)=CCC=C(C)CCC=C(C)C
REMARK SMILES IDX 8 1 7 2 9 3 10 4 11 5 12 6 14 7 13 8 15 9 6 10 5 11 3 12
REMARK SMILES IDX 4 13 2 14 1 15
REMARK H PARENT
REMARK Flexibility Score: inf
ROOT
ATOM      1  C   UNL     1      -1.399   4.625  11.161  1.00  0.00    -0.077 C 
ATOM      2  C   UNL     1      -1.164   3.307  10.970  1.00  0.00    -0.024 C 
ATOM      3  C   UNL     1      -0.656   5.422  12.207  1.00  0.00     0.039 C 
ENDROOT
BRANCH   1   4
ATOM      4  C   UNL     1      -2.437   5.322  10.303  1.00  0.00     0.034 C 
BRANCH   4   5
ATOM      5  C   UNL     1      -3.859   4.837  10.619  1.00  0.00     0.032 C 
BRANCH   5   6
ATOM      6  C   UNL     1      -4.397   5.456  11.889  1.00  0.00    -0.028 C 
ATOM      7  C   UNL     1      -6.399   6.450  10.761  1.00  0.00     0.039 C 
ATOM      8  C   UNL     1      -5.512   6.215  11.958  1.00  0.00    -0.080 C 
ATOM      9  C   UNL     1      -5.934   6.806  13.279  1.00  0.00     0.039 C 
ENDBRANCH   5   6
ENDBRANCH   4   5
ENDBRANCH   1   4
BRANCH   2  10
ATOM     10  C   UNL     1      -0.195   2.497  11.793  1.00  0.00     0.055 C 
BRANCH  10  11
ATOM     11  C   UNL     1      -0.902   1.385  12.526  1.00  0.00    -0.020 C 
ATOM     12  C   UNL     1      -1.227   1.436  13.832  1.00  0.00    -0.055 C 
ATOM     13  C   UNL     1      -0.885   2.633  14.690  1.00  0.00     0.044 C 
BRANCH  12  14
ATOM     14  C   UNL     1      -1.873   0.241  14.435  1.00  0.00    -0.005 C 
ATOM     15  C   UNL     1      -1.675  -1.004  14.000  1.00  0.00     0.009 C 
ENDBRANCH  12  14
ENDBRANCH  10  11
ENDBRANCH   2  10
TORSDOF 6
ENDMDL
MODEL 7
REMARK VINA RESULT:    -4.298      2.072      3.489
REMARK INTER + INTRA:          -7.342
REMARK INTER:                  -6.640
REMARK INTRA:                  -0.702
REMARK UNBOUND:                -1.536
REMARK SMILES C=CC(C)=CCC=C(C)CCC=C(C)C
REMARK SMILES IDX 8 1 7 2 9 3 10 4 11 5 12 6 14 7 13 8 15 9 6 10 5 11 3 12
REMARK SMILES IDX 4 13 2 14 1 15
REMARK H PARENT
REMARK Flexibility Score: inf
ROOT
ATOM      1  C   UNL     1      -2.507   4.418  11.279  1.00  0.00    -0.077 C 
ATOM      2  C   UNL     1      -1.492   3.677  10.779  1.00  0.00    -0.024 C 
ATOM      3  C   UNL     1      -2.680   4.629  12.765  1.00  0.00     0.039 C 
ENDROOT
BRANCH   1   4
ATOM      4  C   UNL     1      -3.497   5.053  10.323  1.00  0.00     0.034 C 
BRANCH   4   5
ATOM      5  C   UNL     1      -4.918   5.080  10.906  1.00  0.00     0.032 C 
BRANCH   5   6
ATOM      6  C   UNL     1      -5.969   4.889   9.837  1.00  0.00    -0.028 C 
ATOM      7  C   UNL     1      -7.279   6.910  10.523  1.00  0.00     0.039 C 
ATOM      8  C   UNL     1      -7.055   5.680   9.681  1.00  0.00    -0.080 C 
ATOM      9  C   UNL     1      -8.053   5.372   8.595  1.00  0.00     0.039 C 
ENDBRANCH   5   6
ENDBRANCH   4   5
ENDBRANCH   1   4
BRANCH   2  10
ATOM     10  C   UNL     1      -0.476   2.957  11.631  1.00  0.00     0.055 C 
BRANCH  10  11
ATOM     11  C   UNL     1      -0.842   1.504  11.800  1.00  0.00    -0.020 C 
ATOM     12  C   UNL     1      -1.140   0.939  12.985  1.00  0.00    -0.055 C 
ATOM     13  C   UNL     1      -1.115   1.732  14.272  1.00  0.00     0.044 C 
BRANCH  12  14
ATOM     14  C   UNL     1      -1.427  -0.519  13.009  1.00  0.00    -0.005 C 
ATOM     15  C   UNL     1      -1.512  -1.237  14.129  1.00  0.00     0.009 C 
ENDBRANCH  12  14
ENDBRANCH  10  11
ENDBRANCH   2  10
TORSDOF 6
ENDMDL
MODEL 8
REMARK VINA RESULT:    -4.272      2.274      5.735
REMARK INTER + INTRA:          -7.307
REMARK INTER:                  -6.278
REMARK INTRA:                  -1.029
REMARK UNBOUND:                -1.536
REMARK SMILES C=CC(C)=CCC=C(C)CCC=C(C)C
REMARK SMILES IDX 8 1 7 2 9 3 10 4 11 5 12 6 14 7 13 8 15 9 6 10 5 11 3 12
REMARK SMILES IDX 4 13 2 14 1 15
REMARK H PARENT
REMARK Flexibility Score: inf
ROOT
ATOM      1  C   UNL     1      -1.248   4.023  12.070  1.00  0.00    -0.077 C 
ATOM      2  C   UNL     1      -2.241   4.800  12.559  1.00  0.00    -0.024 C 
ATOM      3  C   UNL     1      -1.383   3.297  10.752  1.00  0.00     0.039 C 
ENDROOT
BRANCH   1   4
ATOM      4  C   UNL     1       0.033   3.876  12.866  1.00  0.00     0.034 C 
BRANCH   4   5
ATOM      5  C   UNL     1      -0.207   3.175  14.211  1.00  0.00     0.032 C 
BRANCH   5   6
ATOM      6  C   UNL     1      -0.722   1.766  14.028  1.00  0.00    -0.028 C 
ATOM      7  C   UNL     1      -2.958   2.268  15.037  1.00  0.00     0.039 C 
ATOM      8  C   UNL     1      -1.939   1.337  14.431  1.00  0.00    -0.080 C 
ATOM      9  C   UNL     1      -2.331  -0.103  14.222  1.00  0.00     0.039 C 
ENDBRANCH   5   6
ENDBRANCH   4   5
ENDBRANCH   1   4
BRANCH   2  10
ATOM     10  C   UNL     1      -3.577   4.984  11.884  1.00  0.00     0.055 C 
BRANCH  10  11
ATOM     11  C   UNL     1      -4.469   5.899  12.684  1.00  0.00    -0.020 C 
ATOM     12  C   UNL     1      -5.655   6.363  12.243  1.00  0.00    -0.055 C 
ATOM     13  C   UNL     1      -6.188   6.008  10.874  1.00  0.00     0.044 C 
BRANCH  12  14
ATOM     14  C   UNL     1      -6.402   7.304  13.119  1.00  0.00    -0.005 C 
ATOM     15  C   UNL     1      -5.847   7.962  14.137  1.00  0.00     0.009 C 
ENDBRANCH  12  14
ENDBRANCH  10  11
ENDBRANCH   2  10
TORSDOF 6
ENDMDL
MODEL 9
REMARK VINA RESULT:    -4.229     12.421     14.118
REMARK INTER + INTRA:          -7.248
REMARK INTER:                  -6.076
REMARK INTRA:                  -1.173
REMARK UNBOUND:                -1.536
REMARK SMILES C=CC(C)=CCC=C(C)CCC=C(C)C
REMARK SMILES IDX 8 1 7 2 9 3 10 4 11 5 12 6 14 7 13 8 15 9 6 10 5 11 3 12
REMARK SMILES IDX 4 13 2 14 1 15
REMARK H PARENT
REMARK Flexibility Score: inf
ROOT
ATOM      1  C   UNL     1       1.513  -9.585  11.170  1.00  0.00    -0.077 C 
ATOM      2  C   UNL     1       2.406  -8.572  11.101  1.00  0.00    -0.024 C 
ATOM      3  C   UNL     1       1.937 -10.998  11.500  1.00  0.00     0.039 C 
ENDROOT
BRANCH   1   4
ATOM      4  C   UNL     1       0.048  -9.297  10.910  1.00  0.00     0.034 C 
BRANCH   4   5
ATOM      5  C   UNL     1      -0.862  -9.986  11.938  1.00  0.00     0.032 C 
BRANCH   5   6
ATOM      6  C   UNL     1      -1.361  -9.018  12.987  1.00  0.00    -0.028 C 
ATOM      7  C   UNL     1       0.209  -9.854  14.750  1.00  0.00     0.039 C 
ATOM      8  C   UNL     1      -0.917  -8.977  14.263  1.00  0.00    -0.080 C 
ATOM      9  C   UNL     1      -1.513  -7.987  15.230  1.00  0.00     0.039 C 
ENDBRANCH   5   6
ENDBRANCH   4   5
ENDBRANCH   1   4
BRANCH   2  10
ATOM     10  C   UNL     1       3.892  -8.745  11.291  1.00  0.00     0.055 C 
BRANCH  10  11
ATOM     11  C   UNL     1       4.303  -8.407  12.701  1.00  0.00    -0.020 C 
ATOM     12  C   UNL     1       5.009  -9.236  13.495  1.00  0.00    -0.055 C 
ATOM     13  C   UNL     1       5.441 -10.607  13.028  1.00  0.00     0.044 C 
BRANCH  12  14
ATOM     14  C   UNL     1       5.295  -8.791  14.884  1.00  0.00    -0.005 C 
ATOM     15  C   UNL     1       5.455  -7.514  15.232  1.00  0.00     0.009 C 
ENDBRANCH  12  14
ENDBRANCH  10  11
ENDBRANCH   2  10
TORSDOF 6
ENDMDL
