MODEL 1
REMARK VINA RESULT:    -2.296      0.000      0.000
REMARK INTER + INTRA:          -3.672
REMARK INTER:                  -3.235
REMARK INTRA:                  -0.437
REMARK UNBOUND:                -0.437
REMARK SMILES C=CCCCCCCC(=O)[O-]
REMARK SMILES IDX 6 1 7 2 8 3 9 4 10 5 11 6 5 7 4 8 3 9 2 10 1 11
REMARK H PARENT
REMARK Flexibility Score: inf
ROOT
ATOM      1  C   UNL     1     138.067 127.630 131.246  1.00  0.00     0.000 C 
ENDROOT
BRANCH   1   2
ATOM      2  C   UNL     1     139.332 128.500 131.312  1.00  0.00     0.006 C 
BRANCH   2   3
ATOM      3  C   UNL     1     140.059 128.512 129.965  1.00  0.00     0.053 C 
BRANCH   3   4
ATOM      4  C   UNL     1     141.523 128.268 130.158  1.00  0.00     0.041 C 
ATOM      5  O   UNL     1     141.949 127.808 131.250  1.00  0.00    -0.550 OA
ATOM      6  O   UNL     1     142.412 128.504 129.116  1.00  0.00    -0.550 OA
ENDBRANCH   3   4
ENDBRANCH   2   3
ENDBRANCH   1   2
BRANCH   1   7
ATOM      7  C   UNL     1     137.851 127.001 129.861  1.00  0.00     0.000 C 
BRANCH   7   8
ATOM      8  C   UNL     1     136.406 127.151 129.361  1.00  0.00     0.004 C 
BRANCH   8   9
ATOM      9  C   UNL     1     135.495 127.681 130.475  1.00  0.00     0.027 C 
BRANCH   9  10
ATOM     10  C   UNL     1     134.369 128.506 129.912  1.00  0.00    -0.035 C 
ATOM     11  C   UNL     1     134.391 128.963 128.657  1.00  0.00     0.004 C 
ENDBRANCH   9  10
ENDBRANCH   8   9
ENDBRANCH   7   8
ENDBRANCH   1   7
TORSDOF 7
ENDMDL
MODEL 2
REMARK VINA RESULT:    -1.982      3.536      5.854
REMARK INTER + INTRA:          -3.230
REMARK INTER:                  -3.015
REMARK INTRA:                  -0.215
REMARK UNBOUND:                -0.437
REMARK SMILES C=CCCCCCCC(=O)[O-]
REMARK SMILES IDX 6 1 7 2 8 3 9 4 10 5 11 6 5 7 4 8 3 9 2 10 1 11
REMARK H PARENT
REMARK Flexibility Score: inf
ROOT
ATOM      1  C   UNL     1     137.926 127.117 129.743  1.00  0.00     0.000 C 
ENDROOT
BRANCH   1   2
ATOM      2  C   UNL     1     136.540 127.293 129.104  1.00  0.00     0.006 C 
BRANCH   2   3
ATOM      3  C   UNL     1     135.463 127.481 130.176  1.00  0.00     0.053 C 
BRANCH   3   4
ATOM      4  C   UNL     1     134.515 128.569 129.781  1.00  0.00     0.041 C 
ATOM      5  O   UNL     1     134.242 128.760 128.567  1.00  0.00    -0.550 OA
ATOM      6  O   UNL     1     133.894 129.340 130.756  1.00  0.00    -0.550 OA
ENDBRANCH   3   4
ENDBRANCH   2   3
ENDBRANCH   1   2
BRANCH   1   7
ATOM      7  C   UNL     1     137.917 127.371 131.259  1.00  0.00     0.000 C 
BRANCH   7   8
ATOM      8  C   UNL     1     139.107 128.226 131.723  1.00  0.00     0.004 C 
BRANCH   8   9
ATOM      9  C   UNL     1     139.778 128.921 130.532  1.00  0.00     0.027 C 
BRANCH   9  10
ATOM     10  C   UNL     1     141.015 128.183 130.096  1.00  0.00    -0.035 C 
ATOM     11  C   UNL     1     142.087 128.079 130.885  1.00  0.00     0.004 C 
ENDBRANCH   9  10
ENDBRANCH   8   9
ENDBRANCH   7   8
ENDBRANCH   1   7
TORSDOF 7
ENDMDL
MODEL 3
REMARK VINA RESULT:    -1.548      2.849      5.209
REMARK INTER + INTRA:          -2.619
REMARK INTER:                  -2.134
REMARK INTRA:                  -0.484
REMARK UNBOUND:                -0.437
REMARK SMILES C=CCCCCCCC(=O)[O-]
REMARK SMILES IDX 6 1 7 2 8 3 9 4 10 5 11 6 5 7 4 8 3 9 2 10 1 11
REMARK H PARENT
REMARK Flexibility Score: inf
ROOT
ATOM      1  C   UNL     1     137.124 127.915 131.569  1.00  0.00     0.000 C 
ENDROOT
BRANCH   1   2
ATOM      2  C   UNL     1     136.484 126.694 130.891  1.00  0.00     0.006 C 
BRANCH   2   3
ATOM      3  C   UNL     1     136.915 126.593 129.425  1.00  0.00     0.053 C 
BRANCH   3   4
ATOM      4  C   UNL     1     136.423 127.776 128.652  1.00  0.00     0.041 C 
ATOM      5  O   UNL     1     137.154 128.309 127.778  1.00  0.00    -0.550 OA
ATOM      6  O   UNL     1     135.138 128.261 128.865  1.00  0.00    -0.550 OA
ENDBRANCH   3   4
ENDBRANCH   2   3
ENDBRANCH   1   2
BRANCH   1   7
ATOM      7  C   UNL     1     138.449 127.578 132.270  1.00  0.00     0.000 C 
BRANCH   7   8
ATOM      8  C   UNL     1     139.585 128.537 131.882  1.00  0.00     0.004 C 
BRANCH   8   9
ATOM      9  C   UNL     1     139.741 128.612 130.358  1.00  0.00     0.027 C 
BRANCH   9  10
ATOM     10  C   UNL     1     141.153 128.303 129.938  1.00  0.00    -0.035 C 
ATOM     11  C   UNL     1     142.122 128.089 130.833  1.00  0.00     0.004 C 
ENDBRANCH   9  10
ENDBRANCH   8   9
ENDBRANCH   7   8
ENDBRANCH   1   7
TORSDOF 7
ENDMDL
MODEL 4
REMARK VINA RESULT:    -1.389      3.146      6.138
REMARK INTER + INTRA:          -2.394
REMARK INTER:                  -2.151
REMARK INTRA:                  -0.243
REMARK UNBOUND:                -0.437
REMARK SMILES C=CCCCCCCC(=O)[O-]
REMARK SMILES IDX 6 1 7 2 8 3 9 4 10 5 11 6 5 7 4 8 3 9 2 10 1 11
REMARK H PARENT
REMARK Flexibility Score: inf
ROOT
ATOM      1  C   UNL     1     140.143 128.825 130.180  1.00  0.00     0.000 C 
ENDROOT
BRANCH   1   2
ATOM      2  C   UNL     1     138.968 127.920 129.779  1.00  0.00     0.006 C 
BRANCH   2   3
ATOM      3  C   UNL     1     137.980 127.759 130.937  1.00  0.00     0.053 C 
BRANCH   3   4
ATOM      4  C   UNL     1     136.686 127.190 130.447  1.00  0.00     0.041 C 
ATOM      5  O   UNL     1     136.640 126.012 130.007  1.00  0.00    -0.550 OA
ATOM      6  O   UNL     1     135.522 127.945 130.520  1.00  0.00    -0.550 OA
ENDBRANCH   3   4
ENDBRANCH   2   3
ENDBRANCH   1   2
BRANCH   1   7
ATOM      7  C   UNL     1     141.213 128.082 130.995  1.00  0.00     0.000 C 
BRANCH   7   8
ATOM      8  C   UNL     1     142.585 128.075 130.304  1.00  0.00     0.004 C 
BRANCH   8   9
ATOM      9  C   UNL     1     142.453 128.448 128.823  1.00  0.00     0.027 C 
BRANCH   9  10
ATOM     10  C   UNL     1     143.792 128.435 128.136  1.00  0.00    -0.035 C 
ATOM     11  C   UNL     1     143.901 128.494 126.806  1.00  0.00     0.004 C 
ENDBRANCH   9  10
ENDBRANCH   8   9
ENDBRANCH   7   8
ENDBRANCH   1   7
TORSDOF 7
ENDMDL
MODEL 5
REMARK VINA RESULT:    -1.218      1.165      1.803
REMARK INTER + INTRA:          -2.152
REMARK INTER:                  -1.685
REMARK INTRA:                  -0.468
REMARK UNBOUND:                -0.437
REMARK SMILES C=CCCCCCCC(=O)[O-]
REMARK SMILES IDX 6 1 7 2 8 3 9 4 10 5 11 6 5 7 4 8 3 9 2 10 1 11
REMARK H PARENT
REMARK Flexibility Score: inf
ROOT
ATOM      1  C   UNL     1     137.956 126.851 129.390  1.00  0.00     0.000 C 
ENDROOT
BRANCH   1   2
ATOM      2  C   UNL     1     138.385 128.304 129.648  1.00  0.00     0.006 C 
BRANCH   2   3
ATOM      3  C   UNL     1     139.910 128.418 129.725  1.00  0.00     0.053 C 
BRANCH   3   4
ATOM      4  C   UNL     1     140.383 128.177 131.124  1.00  0.00     0.041 C 
ATOM      5  O   UNL     1     141.608 128.001 131.357  1.00  0.00    -0.550 OA
ATOM      6  O   UNL     1     139.478 128.193 132.178  1.00  0.00    -0.550 OA
ENDBRANCH   3   4
ENDBRANCH   2   3
ENDBRANCH   1   2
BRANCH   1   7
ATOM      7  C   UNL     1     136.600 126.511 130.029  1.00  0.00     0.000 C 
BRANCH   7   8
ATOM      8  C   UNL     1     136.007 127.686 130.822  1.00  0.00     0.004 C 
BRANCH   8   9
ATOM      9  C   UNL     1     134.667 128.128 130.223  1.00  0.00     0.027 C 
BRANCH   9  10
ATOM     10  C   UNL     1     134.853 128.737 128.859  1.00  0.00    -0.035 C 
ATOM     11  C   UNL     1     133.975 129.605 128.351  1.00  0.00     0.004 C 
ENDBRANCH   9  10
ENDBRANCH   8   9
ENDBRANCH   7   8
ENDBRANCH   1   7
TORSDOF 7
ENDMDL
MODEL 6
REMARK VINA RESULT:    -0.741      1.423      1.793
REMARK INTER + INTRA:          -1.481
REMARK INTER:                  -1.378
REMARK INTRA:                  -0.104
REMARK UNBOUND:                -0.437
REMARK SMILES C=CCCCCCCC(=O)[O-]
REMARK SMILES IDX 6 1 7 2 8 3 9 4 10 5 11 6 5 7 4 8 3 9 2 10 1 11
REMARK H PARENT
REMARK Flexibility Score: inf
ROOT
ATOM      1  C   UNL     1     137.974 127.379 132.187  1.00  0.00     0.000 C 
ENDROOT
BRANCH   1   2
ATOM      2  C   UNL     1     139.275 128.184 132.048  1.00  0.00     0.006 C 
BRANCH   2   3
ATOM      3  C   UNL     1     139.633 128.395 130.574  1.00  0.00     0.053 C 
BRANCH   3   4
ATOM      4  C   UNL     1     141.111 128.276 130.372  1.00  0.00     0.041 C 
ATOM      5  O   UNL     1     141.865 128.029 131.349  1.00  0.00    -0.550 OA
ATOM      6  O   UNL     1     141.651 128.391 129.097  1.00  0.00    -0.550 OA
ENDBRANCH   3   4
ENDBRANCH   2   3
ENDBRANCH   1   2
BRANCH   1   7
ATOM      7  C   UNL     1     136.950 127.713 131.090  1.00  0.00     0.000 C 
BRANCH   7   8
ATOM      8  C   UNL     1     136.835 126.606 130.031  1.00  0.00     0.004 C 
BRANCH   8   9
ATOM      9  C   UNL     1     136.457 127.193 128.665  1.00  0.00     0.027 C 
BRANCH   9  10
ATOM     10  C   UNL     1     137.324 128.374 128.321  1.00  0.00    -0.035 C 
ATOM     11  C   UNL     1     137.588 128.708 127.055  1.00  0.00     0.004 C 
ENDBRANCH   9  10
ENDBRANCH   8   9
ENDBRANCH   7   8
ENDBRANCH   1   7
TORSDOF 7
ENDMDL
MODEL 7
REMARK VINA RESULT:    -0.336      3.144      4.934
REMARK INTER + INTRA:          -0.911
REMARK INTER:                  -0.414
REMARK INTRA:                  -0.497
REMARK UNBOUND:                -0.437
REMARK SMILES C=CCCCCCCC(=O)[O-]
REMARK SMILES IDX 6 1 7 2 8 3 9 4 10 5 11 6 5 7 4 8 3 9 2 10 1 11
REMARK H PARENT
REMARK Flexibility Score: inf
ROOT
ATOM      1  C   UNL     1     137.022 127.063 129.022  1.00  0.00     0.000 C 
ENDROOT
BRANCH   1   2
ATOM      2  C   UNL     1     136.691 128.056 127.898  1.00  0.00     0.006 C 
BRANCH   2   3
ATOM      3  C   UNL     1     137.884 128.971 127.606  1.00  0.00     0.053 C 
BRANCH   3   4
ATOM      4  C   UNL     1     137.776 129.550 126.231  1.00  0.00     0.041 C 
ATOM      5  O   UNL     1     137.568 130.782 126.078  1.00  0.00    -0.550 OA
ATOM      6  O   UNL     1     137.954 128.738 125.118  1.00  0.00    -0.550 OA
ENDBRANCH   3   4
ENDBRANCH   2   3
ENDBRANCH   1   2
BRANCH   1   7
ATOM      7  C   UNL     1     136.821 127.662 130.423  1.00  0.00     0.000 C 
BRANCH   7   8
ATOM      8  C   UNL     1     138.057 127.499 131.320  1.00  0.00     0.004 C 
BRANCH   8   9
ATOM      9  C   UNL     1     138.959 128.737 131.239  1.00  0.00     0.027 C 
BRANCH   9  10
ATOM     10  C   UNL     1     140.173 128.472 130.391  1.00  0.00    -0.035 C 
ATOM     11  C   UNL     1     141.334 128.084 130.925  1.00  0.00     0.004 C 
ENDBRANCH   9  10
ENDBRANCH   8   9
ENDBRANCH   7   8
ENDBRANCH   1   7
TORSDOF 7
ENDMDL
MODEL 8
REMARK VINA RESULT:    -0.209      2.909      4.708
REMARK INTER + INTRA:          -0.731
REMARK INTER:                  -0.513
REMARK INTRA:                  -0.219
REMARK UNBOUND:                -0.437
REMARK SMILES C=CCCCCCCC(=O)[O-]
REMARK SMILES IDX 6 1 7 2 8 3 9 4 10 5 11 6 5 7 4 8 3 9 2 10 1 11
REMARK H PARENT
REMARK Flexibility Score: inf
ROOT
ATOM      1  C   UNL     1     142.150 128.811 128.816  1.00  0.00     0.000 C 
ENDROOT
BRANCH   1   2
ATOM      2  C   UNL     1     143.347 128.119 128.147  1.00  0.00     0.006 C 
BRANCH   2   3
ATOM      3  C   UNL     1     144.125 129.101 127.265  1.00  0.00     0.053 C 
BRANCH   3   4
ATOM      4  C   UNL     1     143.683 128.989 125.840  1.00  0.00     0.041 C 
ATOM      5  O   UNL     1     143.372 130.021 125.191  1.00  0.00    -0.550 OA
ATOM      6  O   UNL     1     143.660 127.748 125.214  1.00  0.00    -0.550 OA
ENDBRANCH   3   4
ENDBRANCH   2   3
ENDBRANCH   1   2
BRANCH   1   7
ATOM      7  C   UNL     1     141.735 128.138 130.134  1.00  0.00     0.000 C 
BRANCH   7   8
ATOM      8  C   UNL     1     140.425 128.704 130.702  1.00  0.00     0.004 C 
BRANCH   8   9
ATOM      9  C   UNL     1     139.538 127.582 131.255  1.00  0.00     0.027 C 
BRANCH   9  10
ATOM     10  C   UNL     1     138.104 127.763 130.836  1.00  0.00    -0.035 C 
ATOM     11  C   UNL     1     137.530 126.968 129.929  1.00  0.00     0.004 C 
ENDBRANCH   9  10
ENDBRANCH   8   9
ENDBRANCH   7   8
ENDBRANCH   1   7
TORSDOF 7
ENDMDL
