MODEL 1
REMARK VINA RESULT:     4.089      0.000      0.000
REMARK INTER + INTRA:           9.527
REMARK INTER:                  10.305
REMARK INTRA:                  -0.778
REMARK UNBOUND:                -0.778
REMARK SMILES CCCCCCCCCCCCCCCCCCCCCCCCCCCC(=O)[O-]
REMARK SMILES IDX 15 1 16 2 17 3 18 4 19 5 20 6 21 7 22 8 23 9 24 10 25 11
REMARK SMILES IDX 26 12 27 13 28 14 29 15 30 16 14 17 13 18 12 19 11 20 10 21
REMARK SMILES IDX 9 22 8 23 7 24 6 25 5 26 4 27 3 28 2 29 1 30
REMARK H PARENT
REMARK Flexibility Score: inf
ROOT
ATOM      1  C   UNL     1      -8.733   3.544   0.741  1.00  0.00     0.000 C 
ENDROOT
BRANCH   1   2
ATOM      2  C   UNL     1     -10.150   4.019   0.377  1.00  0.00     0.000 C 
BRANCH   2   3
ATOM      3  C   UNL     1     -11.245   3.109   0.959  1.00  0.00     0.000 C 
BRANCH   3   4
ATOM      4  C   UNL     1     -12.654   3.512   0.498  1.00  0.00     0.000 C 
BRANCH   4   5
ATOM      5  C   UNL     1     -13.576   2.286   0.422  1.00  0.00     0.000 C 
BRANCH   5   6
ATOM      6  C   UNL     1     -14.853   2.555  -0.392  1.00  0.00     0.000 C 
BRANCH   6   7
ATOM      7  C   UNL     1     -16.062   1.754   0.121  1.00  0.00     0.000 C 
BRANCH   7   8
ATOM      8  C   UNL     1     -15.857   0.234   0.004  1.00  0.00     0.000 C 
BRANCH   8   9
ATOM      9  C   UNL     1     -17.124  -0.505  -0.456  1.00  0.00     0.000 C 
BRANCH   9  10
ATOM     10  C   UNL     1     -16.981  -0.993  -1.905  1.00  0.00     0.000 C 
BRANCH  10  11
ATOM     11  C   UNL     1     -16.797  -2.516  -2.002  1.00  0.00     0.000 C 
BRANCH  11  12
ATOM     12  C   UNL     1     -15.651  -2.914  -2.950  1.00  0.00     0.006 C 
BRANCH  12  13
ATOM     13  C   UNL     1     -16.157  -3.281  -4.353  1.00  0.00     0.053 C 
BRANCH  13  14
ATOM     14  C   UNL     1     -15.078  -3.162  -5.387  1.00  0.00     0.041 C 
ATOM     15  O   UNL     1     -15.250  -2.436  -6.402  1.00  0.00    -0.550 OA
ATOM     16  O   UNL     1     -13.881  -3.847  -5.226  1.00  0.00    -0.550 OA
ENDBRANCH  13  14
ENDBRANCH  12  13
ENDBRANCH  11  12
ENDBRANCH  10  11
ENDBRANCH   9  10
ENDBRANCH   8   9
ENDBRANCH   7   8
ENDBRANCH   6   7
ENDBRANCH   5   6
ENDBRANCH   4   5
ENDBRANCH   3   4
ENDBRANCH   2   3
ENDBRANCH   1   2
BRANCH   1  17
ATOM     17  C   UNL     1      -8.344   2.245   0.017  1.00  0.00     0.000 C 
BRANCH  17  18
ATOM     18  C   UNL     1      -6.826   2.017  -0.009  1.00  0.00     0.000 C 
BRANCH  18  19
ATOM     19  C   UNL     1      -6.106   2.993   0.930  1.00  0.00     0.000 C 
BRANCH  19  20
ATOM     20  C   UNL     1      -4.602   2.685   0.995  1.00  0.00     0.000 C 
BRANCH  20  21
ATOM     21  C   UNL     1      -3.906   3.353   2.190  1.00  0.00     0.000 C 
BRANCH  21  22
ATOM     22  C   UNL     1      -2.825   2.459   2.821  1.00  0.00    -0.000 C 
BRANCH  22  23
ATOM     23  C   UNL     1      -3.413   1.409   3.777  1.00  0.00    -0.000 C 
BRANCH  23  24
ATOM     24  C   UNL     1      -2.330   0.601   4.508  1.00  0.00    -0.000 C 
BRANCH  24  25
ATOM     25  C   UNL     1      -0.982   1.332   4.472  1.00  0.00    -0.000 C 
BRANCH  25  26
ATOM     26  C   UNL     1       0.164   0.394   4.886  1.00  0.00    -0.000 C 
BRANCH  26  27
ATOM     27  C   UNL     1       1.546   0.921   4.465  1.00  0.00    -0.000 C 
BRANCH  27  28
ATOM     28  C   UNL     1       2.604   0.750   5.568  1.00  0.00    -0.000 C 
BRANCH  28  29
ATOM     29  C   UNL     1       3.125  -0.691   5.665  1.00  0.00    -0.003 C 
ATOM     30  C   UNL     1       2.133  -1.639   6.342  1.00  0.00     0.004 C 
ENDBRANCH  28  29
ENDBRANCH  27  28
ENDBRANCH  26  27
ENDBRANCH  25  26
ENDBRANCH  24  25
ENDBRANCH  23  24
ENDBRANCH  22  23
ENDBRANCH  21  22
ENDBRANCH  20  21
ENDBRANCH  19  20
ENDBRANCH  18  19
ENDBRANCH  17  18
ENDBRANCH   1  17
TORSDOF 26
ENDMDL
MODEL 2
REMARK VINA RESULT:     4.092      5.173     14.977
REMARK INTER + INTRA:           9.533
REMARK INTER:                  10.760
REMARK INTRA:                  -1.227
REMARK UNBOUND:                -0.778
REMARK SMILES CCCCCCCCCCCCCCCCCCCCCCCCCCCC(=O)[O-]
REMARK SMILES IDX 15 1 16 2 17 3 18 4 19 5 20 6 21 7 22 8 23 9 24 10 25 11
REMARK SMILES IDX 26 12 27 13 28 14 29 15 30 16 14 17 13 18 12 19 11 20 10 21
REMARK SMILES IDX 9 22 8 23 7 24 6 25 5 26 4 27 3 28 2 29 1 30
REMARK H PARENT
REMARK Flexibility Score: inf
ROOT
ATOM      1  C   UNL     1     -10.396   3.401   0.033  1.00  0.00     0.000 C 
ENDROOT
BRANCH   1   2
ATOM      2  C   UNL     1      -9.240   4.297   0.510  1.00  0.00     0.000 C 
BRANCH   2   3
ATOM      3  C   UNL     1      -8.096   3.493   1.149  1.00  0.00     0.000 C 
BRANCH   3   4
ATOM      4  C   UNL     1      -7.427   2.529   0.157  1.00  0.00     0.000 C 
BRANCH   4   5
ATOM      5  C   UNL     1      -5.994   2.196   0.600  1.00  0.00     0.000 C 
BRANCH   5   6
ATOM      6  C   UNL     1      -5.054   3.411   0.522  1.00  0.00     0.000 C 
BRANCH   6   7
ATOM      7  C   UNL     1      -4.114   3.511   1.736  1.00  0.00     0.000 C 
BRANCH   7   8
ATOM      8  C   UNL     1      -3.737   2.133   2.307  1.00  0.00     0.000 C 
BRANCH   8   9
ATOM      9  C   UNL     1      -3.293   2.199   3.777  1.00  0.00     0.000 C 
BRANCH   9  10
ATOM     10  C   UNL     1      -2.642   0.879   4.215  1.00  0.00     0.000 C 
BRANCH  10  11
ATOM     11  C   UNL     1      -1.271   1.085   4.879  1.00  0.00     0.000 C 
BRANCH  11  12
ATOM     12  C   UNL     1      -0.279  -0.046   4.554  1.00  0.00     0.006 C 
BRANCH  12  13
ATOM     13  C   UNL     1       1.036   0.091   5.334  1.00  0.00     0.053 C 
BRANCH  13  14
ATOM     14  C   UNL     1       1.939   1.126   4.734  1.00  0.00     0.041 C 
ATOM     15  O   UNL     1       2.130   1.157   3.489  1.00  0.00    -0.550 OA
ATOM     16  O   UNL     1       2.565   2.061   5.549  1.00  0.00    -0.550 OA
ENDBRANCH  13  14
ENDBRANCH  12  13
ENDBRANCH  11  12
ENDBRANCH  10  11
ENDBRANCH   9  10
ENDBRANCH   8   9
ENDBRANCH   7   8
ENDBRANCH   6   7
ENDBRANCH   5   6
ENDBRANCH   4   5
ENDBRANCH   3   4
ENDBRANCH   2   3
ENDBRANCH   1   2
BRANCH   1  17
ATOM     17  C   UNL     1     -11.774   3.962   0.421  1.00  0.00     0.000 C 
BRANCH  17  18
ATOM     18  C   UNL     1     -12.759   2.863   0.846  1.00  0.00     0.000 C 
BRANCH  18  19
ATOM     19  C   UNL     1     -13.949   2.787  -0.119  1.00  0.00     0.000 C 
BRANCH  19  20
ATOM     20  C   UNL     1     -14.905   1.651   0.277  1.00  0.00     0.000 C 
BRANCH  20  21
ATOM     21  C   UNL     1     -16.312   1.819  -0.320  1.00  0.00     0.000 C 
BRANCH  21  22
ATOM     22  C   UNL     1     -16.906   0.490  -0.814  1.00  0.00    -0.000 C 
BRANCH  22  23
ATOM     23  C   UNL     1     -16.611   0.227  -2.299  1.00  0.00    -0.000 C 
BRANCH  23  24
ATOM     24  C   UNL     1     -17.116  -1.146  -2.770  1.00  0.00    -0.000 C 
BRANCH  24  25
ATOM     25  C   UNL     1     -16.917  -2.207  -1.681  1.00  0.00    -0.000 C 
BRANCH  25  26
ATOM     26  C   UNL     1     -16.522  -3.559  -2.296  1.00  0.00    -0.000 C 
BRANCH  26  27
ATOM     27  C   UNL     1     -16.523  -3.538  -3.833  1.00  0.00    -0.000 C 
BRANCH  27  28
ATOM     28  C   UNL     1     -15.112  -3.689  -4.427  1.00  0.00    -0.000 C 
BRANCH  28  29
ATOM     29  C   UNL     1     -15.071  -3.384  -5.931  1.00  0.00    -0.003 C 
ATOM     30  C   UNL     1     -14.529  -4.549  -6.761  1.00  0.00     0.004 C 
ENDBRANCH  28  29
ENDBRANCH  27  28
ENDBRANCH  26  27
ENDBRANCH  25  26
ENDBRANCH  24  25
ENDBRANCH  23  24
ENDBRANCH  22  23
ENDBRANCH  21  22
ENDBRANCH  20  21
ENDBRANCH  19  20
ENDBRANCH  18  19
ENDBRANCH  17  18
ENDBRANCH   1  17
TORSDOF 26
ENDMDL
MODEL 3
REMARK VINA RESULT:     4.210      5.461     15.122
REMARK INTER + INTRA:           9.831
REMARK INTER:                  10.844
REMARK INTRA:                  -1.012
REMARK UNBOUND:                -0.778
REMARK SMILES CCCCCCCCCCCCCCCCCCCCCCCCCCCC(=O)[O-]
REMARK SMILES IDX 15 1 16 2 17 3 18 4 19 5 20 6 21 7 22 8 23 9 24 10 25 11
REMARK SMILES IDX 26 12 27 13 28 14 29 15 30 16 14 17 13 18 12 19 11 20 10 21
REMARK SMILES IDX 9 22 8 23 7 24 6 25 5 26 4 27 3 28 2 29 1 30
REMARK H PARENT
REMARK Flexibility Score: inf
ROOT
ATOM      1  C   UNL     1      -8.457   3.509   1.000  1.00  0.00     0.000 C 
ENDROOT
BRANCH   1   2
ATOM      2  C   UNL     1      -7.864   2.236   0.372  1.00  0.00     0.000 C 
BRANCH   2   3
ATOM      3  C   UNL     1      -6.337   2.318   0.204  1.00  0.00     0.000 C 
BRANCH   3   4
ATOM      4  C   UNL     1      -5.695   3.351   1.142  1.00  0.00     0.000 C 
BRANCH   4   5
ATOM      5  C   UNL     1      -4.246   3.644   0.724  1.00  0.00     0.000 C 
BRANCH   5   6
ATOM      6  C   UNL     1      -3.220   3.129   1.746  1.00  0.00     0.000 C 
BRANCH   6   7
ATOM      7  C   UNL     1      -3.716   1.888   2.508  1.00  0.00     0.000 C 
BRANCH   7   8
ATOM      8  C   UNL     1      -3.231   1.857   3.968  1.00  0.00     0.000 C 
BRANCH   8   9
ATOM      9  C   UNL     1      -1.705   1.723   4.086  1.00  0.00     0.000 C 
BRANCH   9  10
ATOM     10  C   UNL     1      -1.324   0.491   4.920  1.00  0.00     0.000 C 
BRANCH  10  11
ATOM     11  C   UNL     1       0.060  -0.068   4.553  1.00  0.00     0.000 C 
BRANCH  11  12
ATOM     12  C   UNL     1       1.202   0.906   4.895  1.00  0.00     0.006 C 
BRANCH  12  13
ATOM     13  C   UNL     1       2.586   0.296   4.631  1.00  0.00     0.053 C 
BRANCH  13  14
ATOM     14  C   UNL     1       2.949  -0.737   5.655  1.00  0.00     0.041 C 
ATOM     15  O   UNL     1       3.103  -1.940   5.316  1.00  0.00    -0.550 OA
ATOM     16  O   UNL     1       3.124  -0.369   6.984  1.00  0.00    -0.550 OA
ENDBRANCH  13  14
ENDBRANCH  12  13
ENDBRANCH  11  12
ENDBRANCH  10  11
ENDBRANCH   9  10
ENDBRANCH   8   9
ENDBRANCH   7   8
ENDBRANCH   6   7
ENDBRANCH   5   6
ENDBRANCH   4   5
ENDBRANCH   3   4
ENDBRANCH   2   3
ENDBRANCH   1   2
BRANCH   1  17
ATOM     17  C   UNL     1      -9.838   3.860   0.424  1.00  0.00     0.000 C 
BRANCH  17  18
ATOM     18  C   UNL     1     -10.919   2.846   0.824  1.00  0.00     0.000 C 
BRANCH  18  19
ATOM     19  C   UNL     1     -12.323   3.395   0.541  1.00  0.00     0.000 C 
BRANCH  19  20
ATOM     20  C   UNL     1     -13.362   2.263   0.522  1.00  0.00     0.000 C 
BRANCH  20  21
ATOM     21  C   UNL     1     -14.587   2.592  -0.345  1.00  0.00     0.000 C 
BRANCH  21  22
ATOM     22  C   UNL     1     -15.840   1.807   0.082  1.00  0.00    -0.000 C 
BRANCH  22  23
ATOM     23  C   UNL     1     -16.326   0.836  -1.007  1.00  0.00    -0.000 C 
BRANCH  23  24
ATOM     24  C   UNL     1     -16.770  -0.520  -0.436  1.00  0.00    -0.000 C 
BRANCH  24  25
ATOM     25  C   UNL     1     -17.125  -1.499  -1.561  1.00  0.00    -0.000 C 
BRANCH  25  26
ATOM     26  C   UNL     1     -16.145  -2.683  -1.589  1.00  0.00    -0.000 C 
BRANCH  26  27
ATOM     27  C   UNL     1     -16.223  -3.489  -2.896  1.00  0.00    -0.000 C 
BRANCH  27  28
ATOM     28  C   UNL     1     -14.835  -3.879  -3.434  1.00  0.00    -0.000 C 
BRANCH  28  29
ATOM     29  C   UNL     1     -14.533  -3.243  -4.798  1.00  0.00    -0.003 C 
ATOM     30  C   UNL     1     -14.430  -4.271  -5.926  1.00  0.00     0.004 C 
ENDBRANCH  28  29
ENDBRANCH  27  28
ENDBRANCH  26  27
ENDBRANCH  25  26
ENDBRANCH  24  25
ENDBRANCH  23  24
ENDBRANCH  22  23
ENDBRANCH  21  22
ENDBRANCH  20  21
ENDBRANCH  19  20
ENDBRANCH  18  19
ENDBRANCH  17  18
ENDBRANCH   1  17
TORSDOF 26
ENDMDL
MODEL 4
REMARK VINA RESULT:     4.604      1.598      4.088
REMARK INTER + INTRA:          10.824
REMARK INTER:                  11.754
REMARK INTRA:                  -0.930
REMARK UNBOUND:                -0.778
REMARK SMILES CCCCCCCCCCCCCCCCCCCCCCCCCCCC(=O)[O-]
REMARK SMILES IDX 15 1 16 2 17 3 18 4 19 5 20 6 21 7 22 8 23 9 24 10 25 11
REMARK SMILES IDX 26 12 27 13 28 14 29 15 30 16 14 17 13 18 12 19 11 20 10 21
REMARK SMILES IDX 9 22 8 23 7 24 6 25 5 26 4 27 3 28 2 29 1 30
REMARK H PARENT
REMARK Flexibility Score: inf
ROOT
ATOM      1  C   UNL     1     -13.128   3.390   0.734  1.00  0.00     0.000 C 
ENDROOT
BRANCH   1   2
ATOM      2  C   UNL     1     -13.786   2.363  -0.203  1.00  0.00     0.000 C 
BRANCH   2   3
ATOM      3  C   UNL     1     -15.067   1.756   0.395  1.00  0.00     0.000 C 
BRANCH   3   4
ATOM      4  C   UNL     1     -16.104   1.394  -0.679  1.00  0.00     0.000 C 
BRANCH   4   5
ATOM      5  C   UNL     1     -16.552  -0.069  -0.535  1.00  0.00     0.000 C 
BRANCH   5   6
ATOM      6  C   UNL     1     -16.535  -0.827  -1.873  1.00  0.00     0.000 C 
BRANCH   6   7
ATOM      7  C   UNL     1     -17.097  -2.254  -1.751  1.00  0.00     0.000 C 
BRANCH   7   8
ATOM      8  C   UNL     1     -16.540  -3.203  -2.826  1.00  0.00     0.000 C 
BRANCH   8   9
ATOM      9  C   UNL     1     -15.620  -4.287  -2.245  1.00  0.00     0.000 C 
BRANCH   9  10
ATOM     10  C   UNL     1     -14.143  -3.954  -2.505  1.00  0.00     0.000 C 
BRANCH  10  11
ATOM     11  C   UNL     1     -13.428  -5.033  -3.333  1.00  0.00     0.000 C 
BRANCH  11  12
ATOM     12  C   UNL     1     -13.511  -4.770  -4.846  1.00  0.00     0.006 C 
BRANCH  12  13
ATOM     13  C   UNL     1     -14.961  -4.653  -5.339  1.00  0.00     0.053 C 
BRANCH  13  14
ATOM     14  C   UNL     1     -15.079  -3.746  -6.527  1.00  0.00     0.041 C 
ATOM     15  O   UNL     1     -15.268  -2.512  -6.367  1.00  0.00    -0.550 OA
ATOM     16  O   UNL     1     -14.973  -4.265  -7.811  1.00  0.00    -0.550 OA
ENDBRANCH  13  14
ENDBRANCH  12  13
ENDBRANCH  11  12
ENDBRANCH  10  11
ENDBRANCH   9  10
ENDBRANCH   8   9
ENDBRANCH   7   8
ENDBRANCH   6   7
ENDBRANCH   5   6
ENDBRANCH   4   5
ENDBRANCH   3   4
ENDBRANCH   2   3
ENDBRANCH   1   2
BRANCH   1  17
ATOM     17  C   UNL     1     -11.593   3.298   0.723  1.00  0.00     0.000 C 
BRANCH  17  18
ATOM     18  C   UNL     1     -10.938   4.474  -0.015  1.00  0.00     0.000 C 
BRANCH  18  19
ATOM     19  C   UNL     1      -9.502   4.701   0.475  1.00  0.00     0.000 C 
BRANCH  19  20
ATOM     20  C   UNL     1      -8.715   3.382   0.499  1.00  0.00     0.000 C 
BRANCH  20  21
ATOM     21  C   UNL     1      -7.558   3.395   1.511  1.00  0.00     0.000 C 
BRANCH  21  22
ATOM     22  C   UNL     1      -6.684   4.655   1.392  1.00  0.00    -0.000 C 
BRANCH  22  23
ATOM     23  C   UNL     1      -5.242   4.419   1.871  1.00  0.00    -0.000 C 
BRANCH  23  24
ATOM     24  C   UNL     1      -4.378   3.707   0.818  1.00  0.00    -0.000 C 
BRANCH  24  25
ATOM     25  C   UNL     1      -3.313   2.829   1.486  1.00  0.00    -0.000 C 
BRANCH  25  26
ATOM     26  C   UNL     1      -3.860   2.176   2.766  1.00  0.00    -0.000 C 
BRANCH  26  27
ATOM     27  C   UNL     1      -2.782   1.984   3.845  1.00  0.00    -0.000 C 
BRANCH  27  28
ATOM     28  C   UNL     1      -2.829   0.587   4.485  1.00  0.00    -0.000 C 
BRANCH  28  29
ATOM     29  C   UNL     1      -1.429   0.024   4.772  1.00  0.00    -0.003 C 
ATOM     30  C   UNL     1      -0.310   1.014   4.446  1.00  0.00     0.004 C 
ENDBRANCH  28  29
ENDBRANCH  27  28
ENDBRANCH  26  27
ENDBRANCH  25  26
ENDBRANCH  24  25
ENDBRANCH  23  24
ENDBRANCH  22  23
ENDBRANCH  21  22
ENDBRANCH  20  21
ENDBRANCH  19  20
ENDBRANCH  18  19
ENDBRANCH  17  18
ENDBRANCH   1  17
TORSDOF 26
ENDMDL
MODEL 5
REMARK VINA RESULT:     4.648      5.400     15.182
REMARK INTER + INTRA:          10.934
REMARK INTER:                  11.651
REMARK INTRA:                  -0.717
REMARK UNBOUND:                -0.778
REMARK SMILES CCCCCCCCCCCCCCCCCCCCCCCCCCCC(=O)[O-]
REMARK SMILES IDX 15 1 16 2 17 3 18 4 19 5 20 6 21 7 22 8 23 9 24 10 25 11
REMARK SMILES IDX 26 12 27 13 28 14 29 15 30 16 14 17 13 18 12 19 11 20 10 21
REMARK SMILES IDX 9 22 8 23 7 24 6 25 5 26 4 27 3 28 2 29 1 30
REMARK H PARENT
REMARK Flexibility Score: inf
ROOT
ATOM      1  C   UNL     1      -8.457   3.580   0.932  1.00  0.00     0.000 C 
ENDROOT
BRANCH   1   2
ATOM      2  C   UNL     1      -7.852   2.330   0.271  1.00  0.00     0.000 C 
BRANCH   2   3
ATOM      3  C   UNL     1      -6.316   2.376   0.219  1.00  0.00     0.000 C 
BRANCH   3   4
ATOM      4  C   UNL     1      -5.711   3.188   1.375  1.00  0.00     0.000 C 
BRANCH   4   5
ATOM      5  C   UNL     1      -4.293   3.663   1.025  1.00  0.00     0.000 C 
BRANCH   5   6
ATOM      6  C   UNL     1      -3.233   3.140   2.009  1.00  0.00     0.000 C 
BRANCH   6   7
ATOM      7  C   UNL     1      -3.653   1.822   2.684  1.00  0.00     0.000 C 
BRANCH   7   8
ATOM      8  C   UNL     1      -3.033   1.649   4.081  1.00  0.00     0.000 C 
BRANCH   8   9
ATOM      9  C   UNL     1      -1.500   1.755   4.070  1.00  0.00     0.000 C 
BRANCH   9  10
ATOM     10  C   UNL     1      -0.863   0.603   4.861  1.00  0.00     0.000 C 
BRANCH  10  11
ATOM     11  C   UNL     1       0.586   0.319   4.432  1.00  0.00     0.000 C 
BRANCH  11  12
ATOM     12  C   UNL     1       1.405  -0.373   5.536  1.00  0.00     0.006 C 
BRANCH  12  13
ATOM     13  C   UNL     1       2.512   0.533   6.094  1.00  0.00     0.053 C 
BRANCH  13  14
ATOM     14  C   UNL     1       2.911   1.599   5.119  1.00  0.00     0.041 C 
ATOM     15  O   UNL     1       3.062   2.788   5.504  1.00  0.00    -0.550 OA
ATOM     16  O   UNL     1       3.124   1.276   3.784  1.00  0.00    -0.550 OA
ENDBRANCH  13  14
ENDBRANCH  12  13
ENDBRANCH  11  12
ENDBRANCH  10  11
ENDBRANCH   9  10
ENDBRANCH   8   9
ENDBRANCH   7   8
ENDBRANCH   6   7
ENDBRANCH   5   6
ENDBRANCH   4   5
ENDBRANCH   3   4
ENDBRANCH   2   3
ENDBRANCH   1   2
BRANCH   1  17
ATOM     17  C   UNL     1      -9.853   3.919   0.384  1.00  0.00     0.000 C 
BRANCH  17  18
ATOM     18  C   UNL     1     -10.927   2.927   0.855  1.00  0.00     0.000 C 
BRANCH  18  19
ATOM     19  C   UNL     1     -12.334   3.445   0.534  1.00  0.00     0.000 C 
BRANCH  19  20
ATOM     20  C   UNL     1     -13.376   2.323   0.665  1.00  0.00     0.000 C 
BRANCH  20  21
ATOM     21  C   UNL     1     -14.497   2.424  -0.381  1.00  0.00     0.000 C 
BRANCH  21  22
ATOM     22  C   UNL     1     -15.857   1.954   0.163  1.00  0.00    -0.000 C 
BRANCH  22  23
ATOM     23  C   UNL     1     -16.511   0.886  -0.728  1.00  0.00    -0.000 C 
BRANCH  23  24
ATOM     24  C   UNL     1     -16.391  -0.529  -0.142  1.00  0.00    -0.000 C 
BRANCH  24  25
ATOM     25  C   UNL     1     -16.556  -1.592  -1.235  1.00  0.00    -0.000 C 
BRANCH  25  26
ATOM     26  C   UNL     1     -16.935  -0.946  -2.578  1.00  0.00    -0.000 C 
BRANCH  26  27
ATOM     27  C   UNL     1     -16.781  -1.909  -3.766  1.00  0.00    -0.000 C 
BRANCH  27  28
ATOM     28  C   UNL     1     -15.312  -2.265  -4.052  1.00  0.00    -0.000 C 
BRANCH  28  29
ATOM     29  C   UNL     1     -15.060  -3.779  -4.041  1.00  0.00    -0.003 C 
ATOM     30  C   UNL     1     -13.717  -4.165  -4.663  1.00  0.00     0.004 C 
ENDBRANCH  28  29
ENDBRANCH  27  28
ENDBRANCH  26  27
ENDBRANCH  25  26
ENDBRANCH  24  25
ENDBRANCH  23  24
ENDBRANCH  22  23
ENDBRANCH  21  22
ENDBRANCH  20  21
ENDBRANCH  19  20
ENDBRANCH  18  19
ENDBRANCH  17  18
ENDBRANCH   1  17
TORSDOF 26
ENDMDL
MODEL 6
REMARK VINA RESULT:     4.868      5.212     14.960
REMARK INTER + INTRA:          11.488
REMARK INTER:                  12.674
REMARK INTRA:                  -1.186
REMARK UNBOUND:                -0.778
REMARK SMILES CCCCCCCCCCCCCCCCCCCCCCCCCCCC(=O)[O-]
REMARK SMILES IDX 15 1 16 2 17 3 18 4 19 5 20 6 21 7 22 8 23 9 24 10 25 11
REMARK SMILES IDX 26 12 27 13 28 14 29 15 30 16 14 17 13 18 12 19 11 20 10 21
REMARK SMILES IDX 9 22 8 23 7 24 6 25 5 26 4 27 3 28 2 29 1 30
REMARK H PARENT
REMARK Flexibility Score: inf
ROOT
ATOM      1  C   UNL     1     -12.679   3.188   0.346  1.00  0.00     0.000 C 
ENDROOT
BRANCH   1   2
ATOM      2  C   UNL     1     -11.332   2.813   0.987  1.00  0.00     0.000 C 
BRANCH   2   3
ATOM      3  C   UNL     1     -10.172   3.678   0.468  1.00  0.00     0.000 C 
BRANCH   3   4
ATOM      4  C   UNL     1      -8.840   2.913   0.420  1.00  0.00     0.000 C 
BRANCH   4   5
ATOM      5  C   UNL     1      -7.777   3.609   1.283  1.00  0.00     0.000 C 
BRANCH   5   6
ATOM      6  C   UNL     1      -6.379   3.569   0.645  1.00  0.00     0.000 C 
BRANCH   6   7
ATOM      7  C   UNL     1      -5.280   4.078   1.595  1.00  0.00     0.000 C 
BRANCH   7   8
ATOM      8  C   UNL     1      -4.106   3.093   1.724  1.00  0.00     0.000 C 
BRANCH   8   9
ATOM      9  C   UNL     1      -3.774   2.750   3.184  1.00  0.00     0.000 C 
BRANCH   9  10
ATOM     10  C   UNL     1      -3.149   1.351   3.294  1.00  0.00     0.000 C 
BRANCH  10  11
ATOM     11  C   UNL     1      -2.637   1.039   4.709  1.00  0.00     0.000 C 
BRANCH  11  12
ATOM     12  C   UNL     1      -1.139   1.351   4.877  1.00  0.00     0.006 C 
BRANCH  12  13
ATOM     13  C   UNL     1      -0.261   0.103   4.705  1.00  0.00     0.053 C 
BRANCH  13  14
ATOM     14  C   UNL     1       1.197   0.418   4.848  1.00  0.00     0.041 C 
ATOM     15  O   UNL     1       1.929  -0.288   5.591  1.00  0.00    -0.550 OA
ATOM     16  O   UNL     1       1.749   1.488   4.154  1.00  0.00    -0.550 OA
ENDBRANCH  13  14
ENDBRANCH  12  13
ENDBRANCH  11  12
ENDBRANCH  10  11
ENDBRANCH   9  10
ENDBRANCH   8   9
ENDBRANCH   7   8
ENDBRANCH   6   7
ENDBRANCH   5   6
ENDBRANCH   4   5
ENDBRANCH   3   4
ENDBRANCH   2   3
ENDBRANCH   1   2
BRANCH   1  17
ATOM     17  C   UNL     1     -13.803   2.208   0.721  1.00  0.00     0.000 C 
BRANCH  17  18
ATOM     18  C   UNL     1     -14.894   2.121  -0.356  1.00  0.00     0.000 C 
BRANCH  18  19
ATOM     19  C   UNL     1     -15.670   0.802  -0.250  1.00  0.00     0.000 C 
BRANCH  19  20
ATOM     20  C   UNL     1     -17.040   0.915  -0.936  1.00  0.00     0.000 C 
BRANCH  20  21
ATOM     21  C   UNL     1     -17.121   0.113  -2.244  1.00  0.00     0.000 C 
BRANCH  21  22
ATOM     22  C   UNL     1     -16.052  -0.990  -2.327  1.00  0.00    -0.000 C 
BRANCH  22  23
ATOM     23  C   UNL     1     -16.550  -2.335  -1.773  1.00  0.00    -0.000 C 
BRANCH  23  24
ATOM     24  C   UNL     1     -15.413  -3.349  -1.568  1.00  0.00    -0.000 C 
BRANCH  24  25
ATOM     25  C   UNL     1     -15.644  -4.609  -2.410  1.00  0.00    -0.000 C 
BRANCH  25  26
ATOM     26  C   UNL     1     -16.874  -4.448  -3.318  1.00  0.00    -0.000 C 
BRANCH  26  27
ATOM     27  C   UNL     1     -16.625  -4.943  -4.752  1.00  0.00    -0.000 C 
BRANCH  27  28
ATOM     28  C   UNL     1     -15.130  -5.001  -5.105  1.00  0.00    -0.000 C 
BRANCH  28  29
ATOM     29  C   UNL     1     -14.870  -4.780  -6.603  1.00  0.00    -0.003 C 
ATOM     30  C   UNL     1     -15.440  -3.458  -7.118  1.00  0.00     0.004 C 
ENDBRANCH  28  29
ENDBRANCH  27  28
ENDBRANCH  26  27
ENDBRANCH  25  26
ENDBRANCH  24  25
ENDBRANCH  23  24
ENDBRANCH  22  23
ENDBRANCH  21  22
ENDBRANCH  20  21
ENDBRANCH  19  20
ENDBRANCH  18  19
ENDBRANCH  17  18
ENDBRANCH   1  17
TORSDOF 26
ENDMDL
MODEL 7
REMARK VINA RESULT:     5.284      5.492     15.602
REMARK INTER + INTRA:          12.539
REMARK INTER:                  13.645
REMARK INTRA:                  -1.106
REMARK UNBOUND:                -0.778
REMARK SMILES CCCCCCCCCCCCCCCCCCCCCCCCCCCC(=O)[O-]
REMARK SMILES IDX 15 1 16 2 17 3 18 4 19 5 20 6 21 7 22 8 23 9 24 10 25 11
REMARK SMILES IDX 26 12 27 13 28 14 29 15 30 16 14 17 13 18 12 19 11 20 10 21
REMARK SMILES IDX 9 22 8 23 7 24 6 25 5 26 4 27 3 28 2 29 1 30
REMARK H PARENT
REMARK Flexibility Score: inf
ROOT
ATOM      1  C   UNL     1      -7.115   3.242   1.138  1.00  0.00     0.000 C 
ENDROOT
BRANCH   1   2
ATOM      2  C   UNL     1      -5.786   3.964   0.857  1.00  0.00     0.000 C 
BRANCH   2   3
ATOM      3  C   UNL     1      -4.780   3.818   2.011  1.00  0.00     0.000 C 
BRANCH   3   4
ATOM      4  C   UNL     1      -3.944   2.534   1.906  1.00  0.00     0.000 C 
BRANCH   4   5
ATOM      5  C   UNL     1      -3.709   1.919   3.294  1.00  0.00     0.000 C 
BRANCH   5   6
ATOM      6  C   UNL     1      -2.227   1.611   3.561  1.00  0.00     0.000 C 
BRANCH   6   7
ATOM      7  C   UNL     1      -2.026   0.308   4.354  1.00  0.00     0.000 C 
BRANCH   7   8
ATOM      8  C   UNL     1      -0.553   0.056   4.716  1.00  0.00     0.000 C 
BRANCH   8   9
ATOM      9  C   UNL     1       0.309   1.324   4.623  1.00  0.00     0.000 C 
BRANCH   9  10
ATOM     10  C   UNL     1       1.784   0.972   4.378  1.00  0.00     0.000 C 
BRANCH  10  11
ATOM     11  C   UNL     1       2.682   1.312   5.578  1.00  0.00     0.000 C 
BRANCH  11  12
ATOM     12  C   UNL     1       3.124   0.061   6.359  1.00  0.00     0.006 C 
BRANCH  12  13
ATOM     13  C   UNL     1       3.076  -1.210   5.499  1.00  0.00     0.053 C 
BRANCH  13  14
ATOM     14  C   UNL     1       2.887  -2.443   6.331  1.00  0.00     0.041 C 
ATOM     15  O   UNL     1       2.743  -3.565   5.777  1.00  0.00    -0.550 OA
ATOM     16  O   UNL     1       2.876  -2.353   7.717  1.00  0.00    -0.550 OA
ENDBRANCH  13  14
ENDBRANCH  12  13
ENDBRANCH  11  12
ENDBRANCH  10  11
ENDBRANCH   9  10
ENDBRANCH   8   9
ENDBRANCH   7   8
ENDBRANCH   6   7
ENDBRANCH   5   6
ENDBRANCH   4   5
ENDBRANCH   3   4
ENDBRANCH   2   3
ENDBRANCH   1   2
BRANCH   1  17
ATOM     17  C   UNL     1      -8.327   4.183   1.043  1.00  0.00     0.000 C 
BRANCH  17  18
ATOM     18  C   UNL     1      -9.383   3.684   0.046  1.00  0.00     0.000 C 
BRANCH  18  19
ATOM     19  C   UNL     1     -10.474   2.873   0.758  1.00  0.00     0.000 C 
BRANCH  19  20
ATOM     20  C   UNL     1     -11.872   3.398   0.396  1.00  0.00     0.000 C 
BRANCH  20  21
ATOM     21  C   UNL     1     -13.000   2.477   0.885  1.00  0.00     0.000 C 
BRANCH  21  22
ATOM     22  C   UNL     1     -14.263   2.574   0.011  1.00  0.00    -0.000 C 
BRANCH  22  23
ATOM     23  C   UNL     1     -15.353   1.577   0.437  1.00  0.00    -0.000 C 
BRANCH  23  24
ATOM     24  C   UNL     1     -16.460   1.424  -0.617  1.00  0.00    -0.000 C 
BRANCH  24  25
ATOM     25  C   UNL     1     -17.104   0.035  -0.539  1.00  0.00    -0.000 C 
BRANCH  25  26
ATOM     26  C   UNL     1     -16.133  -1.050  -1.033  1.00  0.00    -0.000 C 
BRANCH  26  27
ATOM     27  C   UNL     1     -16.472  -1.555  -2.445  1.00  0.00    -0.000 C 
BRANCH  27  28
ATOM     28  C   UNL     1     -16.846  -3.046  -2.466  1.00  0.00    -0.000 C 
BRANCH  28  29
ATOM     29  C   UNL     1     -15.697  -3.934  -2.965  1.00  0.00    -0.003 C 
ATOM     30  C   UNL     1     -14.860  -4.522  -1.827  1.00  0.00     0.004 C 
ENDBRANCH  28  29
ENDBRANCH  27  28
ENDBRANCH  26  27
ENDBRANCH  25  26
ENDBRANCH  24  25
ENDBRANCH  23  24
ENDBRANCH  22  23
ENDBRANCH  21  22
ENDBRANCH  20  21
ENDBRANCH  19  20
ENDBRANCH  18  19
ENDBRANCH  17  18
ENDBRANCH   1  17
TORSDOF 26
ENDMDL
