MODEL 1
REMARK VINA RESULT:    -4.914      0.000      0.000
REMARK INTER + INTRA:         -18.589
REMARK INTER:                 -12.958
REMARK INTRA:                  -5.632
REMARK UNBOUND:                -5.632
REMARK SMILES CCCCCCCCCCCCCCCCCCCCCCCCCCCCCC(=O)[O-]
REMARK SMILES IDX 16 1 17 2 18 3 19 4 20 5 21 6 22 7 23 8 24 9 25 10 26 11
REMARK SMILES IDX 27 12 28 13 29 14 30 15 31 16 32 17 15 18 14 19 13 20 12 21
REMARK SMILES IDX 11 22 10 23 9 24 8 25 7 26 6 27 5 28 4 29 3 30 2 31 1 32
REMARK H PARENT
REMARK Flexibility Score: inf
ROOT
ATOM      1  C   UNL     1       3.950 -11.775  -0.814  1.00  0.00     0.000 C 
ENDROOT
BRANCH   1   2
ATOM      2  C   UNL     1       3.215 -10.592  -1.481  1.00  0.00     0.000 C 
BRANCH   2   3
ATOM      3  C   UNL     1       4.127  -9.700  -2.345  1.00  0.00     0.000 C 
BRANCH   3   4
ATOM      4  C   UNL     1       3.399  -8.608  -3.151  1.00  0.00     0.000 C 
BRANCH   4   5
ATOM      5  C   UNL     1       3.308  -8.868  -4.668  1.00  0.00     0.000 C 
BRANCH   5   6
ATOM      6  C   UNL     1       1.889  -8.782  -5.263  1.00  0.00     0.000 C 
BRANCH   6   7
ATOM      7  C   UNL     1       1.828  -9.051  -6.781  1.00  0.00     0.000 C 
BRANCH   7   8
ATOM      8  C   UNL     1       2.760 -10.196  -7.217  1.00  0.00     0.000 C 
BRANCH   8   9
ATOM      9  C   UNL     1       3.990  -9.702  -7.993  1.00  0.00     0.000 C 
BRANCH   9  10
ATOM     10  C   UNL     1       3.761  -8.330  -8.652  1.00  0.00     0.000 C 
BRANCH  10  11
ATOM     11  C   UNL     1       5.030  -7.460  -8.646  1.00  0.00     0.000 C 
BRANCH  11  12
ATOM     12  C   UNL     1       5.378  -6.940  -7.240  1.00  0.00     0.000 C 
BRANCH  12  13
ATOM     13  C   UNL     1       4.360  -5.909  -6.720  1.00  0.00     0.006 C 
BRANCH  13  14
ATOM     14  C   UNL     1       4.616  -5.441  -5.278  1.00  0.00     0.053 C 
BRANCH  14  15
ATOM     15  C   UNL     1       5.801  -4.529  -5.185  1.00  0.00     0.041 C 
ATOM     16  O   UNL     1       6.907  -4.968  -4.772  1.00  0.00    -0.550 OA
ATOM     17  O   UNL     1       5.694  -3.206  -5.591  1.00  0.00    -0.550 OA
ENDBRANCH  14  15
ENDBRANCH  13  14
ENDBRANCH  12  13
ENDBRANCH  11  12
ENDBRANCH  10  11
ENDBRANCH   9  10
ENDBRANCH   8   9
ENDBRANCH   7   8
ENDBRANCH   6   7
ENDBRANCH   5   6
ENDBRANCH   4   5
ENDBRANCH   3   4
ENDBRANCH   2   3
ENDBRANCH   1   2
BRANCH   1  18
ATOM     18  C   UNL     1       3.144 -13.084  -0.881  1.00  0.00     0.000 C 
BRANCH  18  19
ATOM     19  C   UNL     1       3.905 -14.202  -1.627  1.00  0.00     0.000 C 
BRANCH  19  20
ATOM     20  C   UNL     1       3.300 -14.551  -3.000  1.00  0.00     0.000 C 
BRANCH  20  21
ATOM     21  C   UNL     1       2.437 -13.441  -3.631  1.00  0.00     0.000 C 
BRANCH  21  22
ATOM     22  C   UNL     1       3.054 -12.772  -4.873  1.00  0.00     0.000 C 
BRANCH  22  23
ATOM     23  C   UNL     1       4.508 -13.199  -5.118  1.00  0.00     0.000 C 
BRANCH  23  24
ATOM     24  C   UNL     1       5.466 -12.010  -4.942  1.00  0.00    -0.000 C 
BRANCH  24  25
ATOM     25  C   UNL     1       6.351 -12.142  -3.692  1.00  0.00    -0.000 C 
BRANCH  25  26
ATOM     26  C   UNL     1       7.315 -13.335  -3.773  1.00  0.00    -0.000 C 
BRANCH  26  27
ATOM     27  C   UNL     1       7.645 -13.869  -2.372  1.00  0.00    -0.000 C 
BRANCH  27  28
ATOM     28  C   UNL     1       7.326 -12.858  -1.256  1.00  0.00    -0.000 C 
BRANCH  28  29
ATOM     29  C   UNL     1       8.535 -12.426  -0.401  1.00  0.00    -0.000 C 
BRANCH  29  30
ATOM     30  C   UNL     1       8.558 -10.938  -0.007  1.00  0.00    -0.000 C 
BRANCH  30  31
ATOM     31  C   UNL     1       7.619 -10.079  -0.866  1.00  0.00    -0.003 C 
ATOM     32  C   UNL     1       7.073  -8.897  -0.072  1.00  0.00     0.004 C 
ENDBRANCH  30  31
ENDBRANCH  29  30
ENDBRANCH  28  29
ENDBRANCH  27  28
ENDBRANCH  26  27
ENDBRANCH  25  26
ENDBRANCH  24  25
ENDBRANCH  23  24
ENDBRANCH  22  23
ENDBRANCH  21  22
ENDBRANCH  20  21
ENDBRANCH  19  20
ENDBRANCH  18  19
ENDBRANCH   1  18
TORSDOF 28
ENDMDL
MODEL 2
REMARK VINA RESULT:    -4.782      3.676      8.224
REMARK INTER + INTRA:         -18.242
REMARK INTER:                 -13.371
REMARK INTRA:                  -4.871
REMARK UNBOUND:                -5.632
REMARK SMILES CCCCCCCCCCCCCCCCCCCCCCCCCCCCCC(=O)[O-]
REMARK SMILES IDX 16 1 17 2 18 3 19 4 20 5 21 6 22 7 23 8 24 9 25 10 26 11
REMARK SMILES IDX 27 12 28 13 29 14 30 15 31 16 32 17 15 18 14 19 13 20 12 21
REMARK SMILES IDX 11 22 10 23 9 24 8 25 7 26 6 27 5 28 4 29 3 30 2 31 1 32
REMARK H PARENT
REMARK Flexibility Score: inf
ROOT
ATOM      1  C   UNL     1       7.396 -12.913  -3.458  1.00  0.00     0.000 C 
ENDROOT
BRANCH   1   2
ATOM      2  C   UNL     1       7.736 -13.760  -2.212  1.00  0.00     0.000 C 
BRANCH   2   3
ATOM      3  C   UNL     1       7.552 -13.009  -0.879  1.00  0.00     0.000 C 
BRANCH   3   4
ATOM      4  C   UNL     1       8.848 -12.458  -0.255  1.00  0.00     0.000 C 
BRANCH   4   5
ATOM      5  C   UNL     1       8.858 -10.937  -0.007  1.00  0.00     0.000 C 
BRANCH   5   6
ATOM      6  C   UNL     1       7.485 -10.247  -0.115  1.00  0.00     0.000 C 
BRANCH   6   7
ATOM      7  C   UNL     1       7.223  -9.578  -1.480  1.00  0.00     0.000 C 
BRANCH   7   8
ATOM      8  C   UNL     1       5.742  -9.643  -1.895  1.00  0.00     0.000 C 
BRANCH   8   9
ATOM      9  C   UNL     1       4.887 -10.474  -0.926  1.00  0.00     0.000 C 
BRANCH   9  10
ATOM     10  C   UNL     1       4.080 -11.572  -1.643  1.00  0.00     0.000 C 
BRANCH  10  11
ATOM     11  C   UNL     1       3.691 -12.722  -0.699  1.00  0.00     0.000 C 
BRANCH  11  12
ATOM     12  C   UNL     1       3.938 -14.105  -1.326  1.00  0.00     0.000 C 
BRANCH  12  13
ATOM     13  C   UNL     1       3.156 -15.227  -0.617  1.00  0.00     0.006 C 
BRANCH  13  14
ATOM     14  C   UNL     1       1.765 -15.500  -1.213  1.00  0.00     0.053 C 
BRANCH  14  15
ATOM     15  C   UNL     1       1.703 -16.825  -1.909  1.00  0.00     0.041 C 
ATOM     16  O   UNL     1       1.217 -17.828  -1.321  1.00  0.00    -0.550 OA
ATOM     17  O   UNL     1       2.143 -16.943  -3.221  1.00  0.00    -0.550 OA
ENDBRANCH  14  15
ENDBRANCH  13  14
ENDBRANCH  12  13
ENDBRANCH  11  12
ENDBRANCH  10  11
ENDBRANCH   9  10
ENDBRANCH   8   9
ENDBRANCH   7   8
ENDBRANCH   6   7
ENDBRANCH   5   6
ENDBRANCH   4   5
ENDBRANCH   3   4
ENDBRANCH   2   3
ENDBRANCH   1   2
BRANCH   1  18
ATOM     18  C   UNL     1       6.066 -13.330  -4.109  1.00  0.00     0.000 C 
BRANCH  18  19
ATOM     19  C   UNL     1       5.492 -12.227  -5.025  1.00  0.00     0.000 C 
BRANCH  19  20
ATOM     20  C   UNL     1       4.176 -12.623  -5.722  1.00  0.00     0.000 C 
BRANCH  20  21
ATOM     21  C   UNL     1       3.268 -11.442  -6.113  1.00  0.00     0.000 C 
BRANCH  21  22
ATOM     22  C   UNL     1       2.785 -10.581  -4.931  1.00  0.00     0.000 C 
BRANCH  22  23
ATOM     23  C   UNL     1       1.496  -9.808  -5.246  1.00  0.00     0.000 C 
BRANCH  23  24
ATOM     24  C   UNL     1       1.011 -10.110  -6.672  1.00  0.00    -0.000 C 
BRANCH  24  25
ATOM     25  C   UNL     1       0.410  -8.878  -7.367  1.00  0.00    -0.000 C 
BRANCH  25  26
ATOM     26  C   UNL     1       1.391  -8.213  -8.345  1.00  0.00    -0.000 C 
BRANCH  26  27
ATOM     27  C   UNL     1       2.522  -9.176  -8.727  1.00  0.00    -0.000 C 
BRANCH  27  28
ATOM     28  C   UNL     1       3.882  -8.471  -8.883  1.00  0.00    -0.000 C 
BRANCH  28  29
ATOM     29  C   UNL     1       4.639  -8.215  -7.563  1.00  0.00    -0.000 C 
BRANCH  29  30
ATOM     30  C   UNL     1       4.631  -6.754  -7.079  1.00  0.00    -0.000 C 
BRANCH  30  31
ATOM     31  C   UNL     1       3.654  -6.517  -5.918  1.00  0.00    -0.003 C 
ATOM     32  C   UNL     1       4.161  -7.160  -4.631  1.00  0.00     0.004 C 
ENDBRANCH  30  31
ENDBRANCH  29  30
ENDBRANCH  28  29
ENDBRANCH  27  28
ENDBRANCH  26  27
ENDBRANCH  25  26
ENDBRANCH  24  25
ENDBRANCH  23  24
ENDBRANCH  22  23
ENDBRANCH  21  22
ENDBRANCH  20  21
ENDBRANCH  19  20
ENDBRANCH  18  19
ENDBRANCH   1  18
TORSDOF 28
ENDMDL
MODEL 3
REMARK VINA RESULT:    -4.773      1.475      4.928
REMARK INTER + INTRA:         -18.218
REMARK INTER:                 -13.624
REMARK INTRA:                  -4.594
REMARK UNBOUND:                -5.632
REMARK SMILES CCCCCCCCCCCCCCCCCCCCCCCCCCCCCC(=O)[O-]
REMARK SMILES IDX 16 1 17 2 18 3 19 4 20 5 21 6 22 7 23 8 24 9 25 10 26 11
REMARK SMILES IDX 27 12 28 13 29 14 30 15 31 16 32 17 15 18 14 19 13 20 12 21
REMARK SMILES IDX 11 22 10 23 9 24 8 25 7 26 6 27 5 28 4 29 3 30 2 31 1 32
REMARK H PARENT
REMARK Flexibility Score: inf
ROOT
ATOM      1  C   UNL     1       7.257 -12.809  -3.731  1.00  0.00     0.000 C 
ENDROOT
BRANCH   1   2
ATOM      2  C   UNL     1       6.030 -13.334  -4.507  1.00  0.00     0.000 C 
BRANCH   2   3
ATOM      3  C   UNL     1       5.199 -12.226  -5.182  1.00  0.00     0.000 C 
BRANCH   3   4
ATOM      4  C   UNL     1       3.807 -12.664  -5.677  1.00  0.00     0.000 C 
BRANCH   4   5
ATOM      5  C   UNL     1       2.856 -11.511  -6.052  1.00  0.00     0.000 C 
BRANCH   5   6
ATOM      6  C   UNL     1       1.683 -11.286  -5.079  1.00  0.00     0.000 C 
BRANCH   6   7
ATOM      7  C   UNL     1       0.302 -11.215  -5.765  1.00  0.00     0.000 C 
BRANCH   7   8
ATOM      8  C   UNL     1       0.200 -10.052  -6.769  1.00  0.00     0.000 C 
BRANCH   8   9
ATOM      9  C   UNL     1       0.626  -8.705  -6.166  1.00  0.00     0.000 C 
BRANCH   9  10
ATOM     10  C   UNL     1       1.698  -7.992  -7.009  1.00  0.00     0.000 C 
BRANCH  10  11
ATOM     11  C   UNL     1       1.926  -8.679  -8.366  1.00  0.00     0.000 C 
BRANCH  11  12
ATOM     12  C   UNL     1       3.408  -9.008  -8.616  1.00  0.00     0.000 C 
BRANCH  12  13
ATOM     13  C   UNL     1       4.281  -7.746  -8.752  1.00  0.00     0.006 C 
BRANCH  13  14
ATOM     14  C   UNL     1       5.399  -7.635  -7.702  1.00  0.00     0.053 C 
BRANCH  14  15
ATOM     15  C   UNL     1       5.087  -6.610  -6.655  1.00  0.00     0.041 C 
ATOM     16  O   UNL     1       5.097  -5.384  -6.947  1.00  0.00    -0.550 OA
ATOM     17  O   UNL     1       4.746  -7.009  -5.370  1.00  0.00    -0.550 OA
ENDBRANCH  14  15
ENDBRANCH  13  14
ENDBRANCH  12  13
ENDBRANCH  11  12
ENDBRANCH  10  11
ENDBRANCH   9  10
ENDBRANCH   8   9
ENDBRANCH   7   8
ENDBRANCH   6   7
ENDBRANCH   5   6
ENDBRANCH   4   5
ENDBRANCH   3   4
ENDBRANCH   2   3
ENDBRANCH   1   2
BRANCH   1  18
ATOM     18  C   UNL     1       7.686 -13.753  -2.595  1.00  0.00     0.000 C 
BRANCH  18  19
ATOM     19  C   UNL     1       7.402 -13.157  -1.199  1.00  0.00     0.000 C 
BRANCH  19  20
ATOM     20  C   UNL     1       8.662 -12.639  -0.479  1.00  0.00     0.000 C 
BRANCH  20  21
ATOM     21  C   UNL     1       8.788 -11.105  -0.414  1.00  0.00     0.000 C 
BRANCH  21  22
ATOM     22  C   UNL     1       7.890 -10.429   0.639  1.00  0.00     0.000 C 
BRANCH  22  23
ATOM     23  C   UNL     1       6.824  -9.517   0.013  1.00  0.00     0.000 C 
BRANCH  23  24
ATOM     24  C   UNL     1       6.908  -9.548  -1.520  1.00  0.00    -0.000 C 
BRANCH  24  25
ATOM     25  C   UNL     1       5.607 -10.036  -2.176  1.00  0.00    -0.000 C 
BRANCH  25  26
ATOM     26  C   UNL     1       4.650 -10.698  -1.172  1.00  0.00    -0.000 C 
BRANCH  26  27
ATOM     27  C   UNL     1       3.707 -11.680  -1.880  1.00  0.00    -0.000 C 
BRANCH  27  28
ATOM     28  C   UNL     1       3.755 -13.096  -1.277  1.00  0.00    -0.000 C 
BRANCH  28  29
ATOM     29  C   UNL     1       3.579 -14.244  -2.292  1.00  0.00    -0.000 C 
BRANCH  29  30
ATOM     30  C   UNL     1       2.765 -15.447  -1.783  1.00  0.00    -0.000 C 
BRANCH  30  31
ATOM     31  C   UNL     1       2.315 -16.383  -2.913  1.00  0.00    -0.003 C 
ATOM     32  C   UNL     1       1.567 -15.616  -3.999  1.00  0.00     0.004 C 
ENDBRANCH  30  31
ENDBRANCH  29  30
ENDBRANCH  28  29
ENDBRANCH  27  28
ENDBRANCH  26  27
ENDBRANCH  25  26
ENDBRANCH  24  25
ENDBRANCH  23  24
ENDBRANCH  22  23
ENDBRANCH  21  22
ENDBRANCH  20  21
ENDBRANCH  19  20
ENDBRANCH  18  19
ENDBRANCH   1  18
TORSDOF 28
ENDMDL
MODEL 4
REMARK VINA RESULT:    -4.757      1.950      4.067
REMARK INTER + INTRA:         -18.176
REMARK INTER:                 -13.416
REMARK INTRA:                  -4.761
REMARK UNBOUND:                -5.632
REMARK SMILES CCCCCCCCCCCCCCCCCCCCCCCCCCCCCC(=O)[O-]
REMARK SMILES IDX 16 1 17 2 18 3 19 4 20 5 21 6 22 7 23 8 24 9 25 10 26 11
REMARK SMILES IDX 27 12 28 13 29 14 30 15 31 16 32 17 15 18 14 19 13 20 12 21
REMARK SMILES IDX 11 22 10 23 9 24 8 25 7 26 6 27 5 28 4 29 3 30 2 31 1 32
REMARK H PARENT
REMARK Flexibility Score: inf
ROOT
ATOM      1  C   UNL     1       1.658 -12.545  -3.623  1.00  0.00     0.000 C 
ENDROOT
BRANCH   1   2
ATOM      2  C   UNL     1       1.917 -13.853  -4.402  1.00  0.00     0.000 C 
BRANCH   2   3
ATOM      3  C   UNL     1       0.633 -14.574  -4.853  1.00  0.00     0.000 C 
BRANCH   3   4
ATOM      4  C   UNL     1       0.344 -14.512  -6.365  1.00  0.00     0.000 C 
BRANCH   4   5
ATOM      5  C   UNL     1      -0.695 -13.457  -6.789  1.00  0.00     0.000 C 
BRANCH   5   6
ATOM      6  C   UNL     1      -0.160 -12.017  -6.900  1.00  0.00     0.000 C 
BRANCH   6   7
ATOM      7  C   UNL     1      -0.905 -10.999  -6.010  1.00  0.00     0.000 C 
BRANCH   7   8
ATOM      8  C   UNL     1      -0.406  -9.557  -6.217  1.00  0.00     0.000 C 
BRANCH   8   9
ATOM      9  C   UNL     1      -0.861  -8.954  -7.554  1.00  0.00     0.000 C 
BRANCH   9  10
ATOM     10  C   UNL     1       0.311  -8.394  -8.380  1.00  0.00     0.000 C 
BRANCH  10  11
ATOM     11  C   UNL     1       1.677  -8.734  -7.761  1.00  0.00     0.000 C 
BRANCH  11  12
ATOM     12  C   UNL     1       2.730  -9.096  -8.824  1.00  0.00     0.000 C 
BRANCH  12  13
ATOM     13  C   UNL     1       4.171  -8.978  -8.295  1.00  0.00     0.006 C 
BRANCH  13  14
ATOM     14  C   UNL     1       4.774  -7.569  -8.413  1.00  0.00     0.053 C 
BRANCH  14  15
ATOM     15  C   UNL     1       4.844  -6.874  -7.088  1.00  0.00     0.041 C 
ATOM     16  O   UNL     1       4.711  -7.532  -6.021  1.00  0.00    -0.550 OA
ATOM     17  O   UNL     1       5.097  -5.510  -7.029  1.00  0.00    -0.550 OA
ENDBRANCH  14  15
ENDBRANCH  13  14
ENDBRANCH  12  13
ENDBRANCH  11  12
ENDBRANCH  10  11
ENDBRANCH   9  10
ENDBRANCH   8   9
ENDBRANCH   7   8
ENDBRANCH   6   7
ENDBRANCH   5   6
ENDBRANCH   4   5
ENDBRANCH   3   4
ENDBRANCH   2   3
ENDBRANCH   1   2
BRANCH   1  18
ATOM     18  C   UNL     1       2.377 -11.335  -4.245  1.00  0.00     0.000 C 
BRANCH  18  19
ATOM     19  C   UNL     1       3.016 -11.671  -5.609  1.00  0.00     0.000 C 
BRANCH  19  20
ATOM     20  C   UNL     1       4.556 -11.619  -5.601  1.00  0.00     0.000 C 
BRANCH  20  21
ATOM     21  C   UNL     1       5.248 -12.942  -5.222  1.00  0.00     0.000 C 
BRANCH  21  22
ATOM     22  C   UNL     1       5.855 -12.970  -3.806  1.00  0.00     0.000 C 
BRANCH  22  23
ATOM     23  C   UNL     1       7.349 -13.323  -3.806  1.00  0.00     0.000 C 
BRANCH  23  24
ATOM     24  C   UNL     1       7.773 -13.913  -2.453  1.00  0.00    -0.000 C 
BRANCH  24  25
ATOM     25  C   UNL     1       7.315 -13.056  -1.262  1.00  0.00    -0.000 C 
BRANCH  25  26
ATOM     26  C   UNL     1       8.492 -12.503  -0.444  1.00  0.00    -0.000 C 
BRANCH  26  27
ATOM     27  C   UNL     1       8.397 -10.977  -0.308  1.00  0.00    -0.000 C 
BRANCH  27  28
ATOM     28  C   UNL     1       7.936 -10.289  -1.605  1.00  0.00    -0.000 C 
BRANCH  28  29
ATOM     29  C   UNL     1       6.685  -9.397  -1.461  1.00  0.00    -0.000 C 
BRANCH  29  30
ATOM     30  C   UNL     1       5.574  -9.970  -0.563  1.00  0.00    -0.000 C 
BRANCH  30  31
ATOM     31  C   UNL     1       4.426 -10.601  -1.365  1.00  0.00    -0.003 C 
ATOM     32  C   UNL     1       3.865 -11.826  -0.651  1.00  0.00     0.004 C 
ENDBRANCH  30  31
ENDBRANCH  29  30
ENDBRANCH  28  29
ENDBRANCH  27  28
ENDBRANCH  26  27
ENDBRANCH  25  26
ENDBRANCH  24  25
ENDBRANCH  23  24
ENDBRANCH  22  23
ENDBRANCH  21  22
ENDBRANCH  20  21
ENDBRANCH  19  20
ENDBRANCH  18  19
ENDBRANCH   1  18
TORSDOF 28
ENDMDL
MODEL 5
REMARK VINA RESULT:    -4.728      3.155      7.829
REMARK INTER + INTRA:         -18.100
REMARK INTER:                 -13.029
REMARK INTRA:                  -5.070
REMARK UNBOUND:                -5.632
REMARK SMILES CCCCCCCCCCCCCCCCCCCCCCCCCCCCCC(=O)[O-]
REMARK SMILES IDX 16 1 17 2 18 3 19 4 20 5 21 6 22 7 23 8 24 9 25 10 26 11
REMARK SMILES IDX 27 12 28 13 29 14 30 15 31 16 32 17 15 18 14 19 13 20 12 21
REMARK SMILES IDX 11 22 10 23 9 24 8 25 7 26 6 27 5 28 4 29 3 30 2 31 1 32
REMARK H PARENT
REMARK Flexibility Score: inf
ROOT
ATOM      1  C   UNL     1       7.315 -12.988  -1.267  1.00  0.00     0.000 C 
ENDROOT
BRANCH   1   2
ATOM      2  C   UNL     1       7.612 -13.707  -2.600  1.00  0.00     0.000 C 
BRANCH   2   3
ATOM      3  C   UNL     1       6.908 -13.077  -3.818  1.00  0.00     0.000 C 
BRANCH   3   4
ATOM      4  C   UNL     1       5.413 -13.422  -3.959  1.00  0.00     0.000 C 
BRANCH   4   5
ATOM      5  C   UNL     1       4.782 -13.047  -5.314  1.00  0.00     0.000 C 
BRANCH   5   6
ATOM      6  C   UNL     1       3.353 -13.577  -5.541  1.00  0.00     0.000 C 
BRANCH   6   7
ATOM      7  C   UNL     1       2.312 -13.024  -4.545  1.00  0.00     0.000 C 
BRANCH   7   8
ATOM      8  C   UNL     1       1.429 -14.129  -3.939  1.00  0.00     0.000 C 
BRANCH   8   9
ATOM      9  C   UNL     1       1.871 -15.541  -4.355  1.00  0.00     0.000 C 
BRANCH   9  10
ATOM     10  C   UNL     1       2.252 -16.420  -3.150  1.00  0.00     0.000 C 
BRANCH  10  11
ATOM     11  C   UNL     1       1.643 -15.906  -1.835  1.00  0.00     0.000 C 
BRANCH  11  12
ATOM     12  C   UNL     1       2.713 -15.594  -0.775  1.00  0.00     0.000 C 
BRANCH  12  13
ATOM     13  C   UNL     1       3.723 -14.530  -1.245  1.00  0.00     0.006 C 
BRANCH  13  14
ATOM     14  C   UNL     1       3.747 -13.258  -0.381  1.00  0.00     0.053 C 
BRANCH  14  15
ATOM     15  C   UNL     1       2.368 -12.806  -0.007  1.00  0.00     0.041 C 
ATOM     16  O   UNL     1       1.604 -12.314  -0.880  1.00  0.00    -0.550 OA
ATOM     17  O   UNL     1       1.913 -12.966   1.295  1.00  0.00    -0.550 OA
ENDBRANCH  14  15
ENDBRANCH  13  14
ENDBRANCH  12  13
ENDBRANCH  11  12
ENDBRANCH  10  11
ENDBRANCH   9  10
ENDBRANCH   8   9
ENDBRANCH   7   8
ENDBRANCH   6   7
ENDBRANCH   5   6
ENDBRANCH   4   5
ENDBRANCH   3   4
ENDBRANCH   2   3
ENDBRANCH   1   2
BRANCH   1  18
ATOM     18  C   UNL     1       8.593 -12.667  -0.471  1.00  0.00     0.000 C 
BRANCH  18  19
ATOM     19  C   UNL     1       8.742 -11.157  -0.187  1.00  0.00     0.000 C 
BRANCH  19  20
ATOM     20  C   UNL     1       7.947 -10.263  -1.159  1.00  0.00     0.000 C 
BRANCH  20  21
ATOM     21  C   UNL     1       6.997  -9.256  -0.484  1.00  0.00     0.000 C 
BRANCH  21  22
ATOM     22  C   UNL     1       5.669  -9.024  -1.229  1.00  0.00     0.000 C 
BRANCH  22  23
ATOM     23  C   UNL     1       5.478  -9.979  -2.416  1.00  0.00     0.000 C 
BRANCH  23  24
ATOM     24  C   UNL     1       3.993 -10.316  -2.616  1.00  0.00    -0.000 C 
BRANCH  24  25
ATOM     25  C   UNL     1       3.360  -9.540  -3.781  1.00  0.00    -0.000 C 
BRANCH  25  26
ATOM     26  C   UNL     1       4.406  -8.985  -4.761  1.00  0.00    -0.000 C 
BRANCH  26  27
ATOM     27  C   UNL     1       4.141  -9.486  -6.187  1.00  0.00    -0.000 C 
BRANCH  27  28
ATOM     28  C   UNL     1       2.683  -9.929  -6.405  1.00  0.00    -0.000 C 
BRANCH  28  29
ATOM     29  C   UNL     1       2.125  -9.663  -7.819  1.00  0.00    -0.000 C 
BRANCH  29  30
ATOM     30  C   UNL     1       1.331  -8.353  -7.971  1.00  0.00    -0.000 C 
BRANCH  30  31
ATOM     31  C   UNL     1      -0.167  -8.589  -8.211  1.00  0.00    -0.003 C 
ATOM     32  C   UNL     1      -0.791  -9.379  -7.065  1.00  0.00     0.004 C 
ENDBRANCH  30  31
ENDBRANCH  29  30
ENDBRANCH  28  29
ENDBRANCH  27  28
ENDBRANCH  26  27
ENDBRANCH  25  26
ENDBRANCH  24  25
ENDBRANCH  23  24
ENDBRANCH  22  23
ENDBRANCH  21  22
ENDBRANCH  20  21
ENDBRANCH  19  20
ENDBRANCH  18  19
ENDBRANCH   1  18
TORSDOF 28
ENDMDL
MODEL 6
REMARK VINA RESULT:    -4.722      2.210      5.892
REMARK INTER + INTRA:         -18.082
REMARK INTER:                 -13.190
REMARK INTRA:                  -4.892
REMARK UNBOUND:                -5.632
REMARK SMILES CCCCCCCCCCCCCCCCCCCCCCCCCCCCCC(=O)[O-]
REMARK SMILES IDX 16 1 17 2 18 3 19 4 20 5 21 6 22 7 23 8 24 9 25 10 26 11
REMARK SMILES IDX 27 12 28 13 29 14 30 15 31 16 32 17 15 18 14 19 13 20 12 21
REMARK SMILES IDX 11 22 10 23 9 24 8 25 7 26 6 27 5 28 4 29 3 30 2 31 1 32
REMARK H PARENT
REMARK Flexibility Score: inf
ROOT
ATOM      1  C   UNL     1       7.225 -12.951  -1.322  1.00  0.00     0.000 C 
ENDROOT
BRANCH   1   2
ATOM      2  C   UNL     1       7.735 -13.833  -2.482  1.00  0.00     0.000 C 
BRANCH   2   3
ATOM      3  C   UNL     1       7.249 -13.378  -3.871  1.00  0.00     0.000 C 
BRANCH   3   4
ATOM      4  C   UNL     1       5.804 -12.846  -3.916  1.00  0.00     0.000 C 
BRANCH   4   5
ATOM      5  C   UNL     1       5.153 -12.841  -5.313  1.00  0.00     0.000 C 
BRANCH   5   6
ATOM      6  C   UNL     1       3.708 -13.374  -5.364  1.00  0.00     0.000 C 
BRANCH   6   7
ATOM      7  C   UNL     1       2.631 -12.269  -5.368  1.00  0.00     0.000 C 
BRANCH   7   8
ATOM      8  C   UNL     1       1.574 -12.479  -6.468  1.00  0.00     0.000 C 
BRANCH   8   9
ATOM      9  C   UNL     1       0.212 -11.863  -6.111  1.00  0.00     0.000 C 
BRANCH   9  10
ATOM     10  C   UNL     1       0.346 -10.563  -5.298  1.00  0.00     0.000 C 
BRANCH  10  11
ATOM     11  C   UNL     1       0.002  -9.316  -6.129  1.00  0.00     0.000 C 
BRANCH  11  12
ATOM     12  C   UNL     1       1.240  -8.455  -6.436  1.00  0.00     0.000 C 
BRANCH  12  13
ATOM     13  C   UNL     1       1.703  -8.583  -7.900  1.00  0.00     0.006 C 
BRANCH  13  14
ATOM     14  C   UNL     1       2.884  -9.545  -8.107  1.00  0.00     0.053 C 
BRANCH  14  15
ATOM     15  C   UNL     1       4.157  -9.003  -7.533  1.00  0.00     0.041 C 
ATOM     16  O   UNL     1       4.748  -8.043  -8.097  1.00  0.00    -0.550 OA
ATOM     17  O   UNL     1       4.670  -9.530  -6.355  1.00  0.00    -0.550 OA
ENDBRANCH  14  15
ENDBRANCH  13  14
ENDBRANCH  12  13
ENDBRANCH  11  12
ENDBRANCH  10  11
ENDBRANCH   9  10
ENDBRANCH   8   9
ENDBRANCH   7   8
ENDBRANCH   6   7
ENDBRANCH   5   6
ENDBRANCH   4   5
ENDBRANCH   3   4
ENDBRANCH   2   3
ENDBRANCH   1   2
BRANCH   1  18
ATOM     18  C   UNL     1       8.371 -12.346  -0.492  1.00  0.00     0.000 C 
BRANCH  18  19
ATOM     19  C   UNL     1       8.286 -10.806  -0.414  1.00  0.00     0.000 C 
BRANCH  19  20
ATOM     20  C   UNL     1       7.562 -10.165  -1.613  1.00  0.00     0.000 C 
BRANCH  20  21
ATOM     21  C   UNL     1       6.276  -9.393  -1.257  1.00  0.00     0.000 C 
BRANCH  21  22
ATOM     22  C   UNL     1       4.988  -9.968  -1.876  1.00  0.00     0.000 C 
BRANCH  22  23
ATOM     23  C   UNL     1       4.110 -10.699  -0.849  1.00  0.00     0.000 C 
BRANCH  23  24
ATOM     24  C   UNL     1       3.526 -11.988  -1.447  1.00  0.00    -0.000 C 
BRANCH  24  25
ATOM     25  C   UNL     1       3.599 -13.178  -0.477  1.00  0.00    -0.000 C 
BRANCH  25  26
ATOM     26  C   UNL     1       3.873 -14.509  -1.194  1.00  0.00    -0.000 C 
BRANCH  26  27
ATOM     27  C   UNL     1       2.918 -14.701  -2.380  1.00  0.00    -0.000 C 
BRANCH  27  28
ATOM     28  C   UNL     1       2.373 -16.137  -2.485  1.00  0.00    -0.000 C 
BRANCH  28  29
ATOM     29  C   UNL     1       1.019 -16.270  -3.210  1.00  0.00    -0.000 C 
BRANCH  29  30
ATOM     30  C   UNL     1       0.996 -15.737  -4.654  1.00  0.00    -0.000 C 
BRANCH  30  31
ATOM     31  C   UNL     1       1.809 -16.608  -5.623  1.00  0.00    -0.003 C 
ATOM     32  C   UNL     1       1.581 -16.183  -7.070  1.00  0.00     0.004 C 
ENDBRANCH  30  31
ENDBRANCH  29  30
ENDBRANCH  28  29
ENDBRANCH  27  28
ENDBRANCH  26  27
ENDBRANCH  25  26
ENDBRANCH  24  25
ENDBRANCH  23  24
ENDBRANCH  22  23
ENDBRANCH  21  22
ENDBRANCH  20  21
ENDBRANCH  19  20
ENDBRANCH  18  19
ENDBRANCH   1  18
TORSDOF 28
ENDMDL
MODEL 7
REMARK VINA RESULT:    -4.690      3.526      6.070
REMARK INTER + INTRA:         -17.999
REMARK INTER:                 -12.542
REMARK INTRA:                  -5.456
REMARK UNBOUND:                -5.632
REMARK SMILES CCCCCCCCCCCCCCCCCCCCCCCCCCCCCC(=O)[O-]
REMARK SMILES IDX 16 1 17 2 18 3 19 4 20 5 21 6 22 7 23 8 24 9 25 10 26 11
REMARK SMILES IDX 27 12 28 13 29 14 30 15 31 16 32 17 15 18 14 19 13 20 12 21
REMARK SMILES IDX 11 22 10 23 9 24 8 25 7 26 6 27 5 28 4 29 3 30 2 31 1 32
REMARK H PARENT
REMARK Flexibility Score: inf
ROOT
ATOM      1  C   UNL     1       3.571 -11.986  -4.691  1.00  0.00     0.000 C 
ENDROOT
BRANCH   1   2
ATOM      2  C   UNL     1       3.394 -10.478  -4.411  1.00  0.00     0.000 C 
BRANCH   2   3
ATOM      3  C   UNL     1       4.608  -9.622  -4.819  1.00  0.00     0.000 C 
BRANCH   3   4
ATOM      4  C   UNL     1       4.264  -8.252  -5.436  1.00  0.00     0.000 C 
BRANCH   4   5
ATOM      5  C   UNL     1       4.467  -8.153  -6.960  1.00  0.00     0.000 C 
BRANCH   5   6
ATOM      6  C   UNL     1       4.246  -9.465  -7.737  1.00  0.00     0.000 C 
BRANCH   6   7
ATOM      7  C   UNL     1       2.763  -9.789  -8.016  1.00  0.00     0.000 C 
BRANCH   7   8
ATOM      8  C   UNL     1       1.957  -8.547  -8.438  1.00  0.00     0.000 C 
BRANCH   8   9
ATOM      9  C   UNL     1       0.615  -8.429  -7.700  1.00  0.00     0.000 C 
BRANCH   9  10
ATOM     10  C   UNL     1       0.772  -8.507  -6.171  1.00  0.00     0.000 C 
BRANCH  10  11
ATOM     11  C   UNL     1      -0.260  -9.446  -5.524  1.00  0.00     0.000 C 
BRANCH  11  12
ATOM     12  C   UNL     1      -0.626 -10.631  -6.435  1.00  0.00     0.000 C 
BRANCH  12  13
ATOM     13  C   UNL     1       0.010 -11.955  -5.970  1.00  0.00     0.006 C 
BRANCH  13  14
ATOM     14  C   UNL     1       0.643 -12.782  -7.101  1.00  0.00     0.053 C 
BRANCH  14  15
ATOM     15  C   UNL     1      -0.129 -14.035  -7.380  1.00  0.00     0.041 C 
ATOM     16  O   UNL     1      -0.052 -14.589  -8.510  1.00  0.00    -0.550 OA
ATOM     17  O   UNL     1      -0.901 -14.615  -6.382  1.00  0.00    -0.550 OA
ENDBRANCH  14  15
ENDBRANCH  13  14
ENDBRANCH  12  13
ENDBRANCH  11  12
ENDBRANCH  10  11
ENDBRANCH   9  10
ENDBRANCH   8   9
ENDBRANCH   7   8
ENDBRANCH   6   7
ENDBRANCH   5   6
ENDBRANCH   4   5
ENDBRANCH   3   4
ENDBRANCH   2   3
ENDBRANCH   1   2
BRANCH   1  18
ATOM     18  C   UNL     1       5.005 -12.343  -5.120  1.00  0.00     0.000 C 
BRANCH  18  19
ATOM     19  C   UNL     1       5.696 -13.293  -4.118  1.00  0.00     0.000 C 
BRANCH  19  20
ATOM     20  C   UNL     1       6.969 -12.703  -3.482  1.00  0.00     0.000 C 
BRANCH  20  21
ATOM     21  C   UNL     1       7.599 -13.565  -2.372  1.00  0.00     0.000 C 
BRANCH  21  22
ATOM     22  C   UNL     1       7.718 -12.868  -1.003  1.00  0.00     0.000 C 
BRANCH  22  23
ATOM     23  C   UNL     1       8.708 -11.694  -1.018  1.00  0.00     0.000 C 
BRANCH  23  24
ATOM     24  C   UNL     1       8.613 -10.881   0.283  1.00  0.00    -0.000 C 
BRANCH  24  25
ATOM     25  C   UNL     1       7.303 -10.086   0.391  1.00  0.00    -0.000 C 
BRANCH  25  26
ATOM     26  C   UNL     1       6.955  -9.338  -0.906  1.00  0.00    -0.000 C 
BRANCH  26  27
ATOM     27  C   UNL     1       5.537  -9.688  -1.377  1.00  0.00    -0.000 C 
BRANCH  27  28
ATOM     28  C   UNL     1       5.024 -11.018  -0.797  1.00  0.00    -0.000 C 
BRANCH  28  29
ATOM     29  C   UNL     1       3.496 -11.216  -0.869  1.00  0.00    -0.000 C 
BRANCH  29  30
ATOM     30  C   UNL     1       2.996 -12.605  -0.432  1.00  0.00    -0.000 C 
BRANCH  30  31
ATOM     31  C   UNL     1       3.908 -13.744  -0.911  1.00  0.00    -0.003 C 
ATOM     32  C   UNL     1       3.203 -14.617  -1.944  1.00  0.00     0.004 C 
ENDBRANCH  30  31
ENDBRANCH  29  30
ENDBRANCH  28  29
ENDBRANCH  27  28
ENDBRANCH  26  27
ENDBRANCH  25  26
ENDBRANCH  24  25
ENDBRANCH  23  24
ENDBRANCH  22  23
ENDBRANCH  21  22
ENDBRANCH  20  21
ENDBRANCH  19  20
ENDBRANCH  18  19
ENDBRANCH   1  18
TORSDOF 28
ENDMDL
MODEL 8
REMARK VINA RESULT:    -4.677      2.416      5.349
REMARK INTER + INTRA:         -17.965
REMARK INTER:                 -12.409
REMARK INTRA:                  -5.556
REMARK UNBOUND:                -5.632
REMARK SMILES CCCCCCCCCCCCCCCCCCCCCCCCCCCCCC(=O)[O-]
REMARK SMILES IDX 16 1 17 2 18 3 19 4 20 5 21 6 22 7 23 8 24 9 25 10 26 11
REMARK SMILES IDX 27 12 28 13 29 14 30 15 31 16 32 17 15 18 14 19 13 20 12 21
REMARK SMILES IDX 11 22 10 23 9 24 8 25 7 26 6 27 5 28 4 29 3 30 2 31 1 32
REMARK H PARENT
REMARK Flexibility Score: inf
ROOT
ATOM      1  C   UNL     1       6.736 -13.269  -4.570  1.00  0.00     0.000 C 
ENDROOT
BRANCH   1   2
ATOM      2  C   UNL     1       5.214 -13.309  -4.316  1.00  0.00     0.000 C 
BRANCH   2   3
ATOM      3  C   UNL     1       4.369 -12.859  -5.523  1.00  0.00     0.000 C 
BRANCH   3   4
ATOM      4  C   UNL     1       3.834 -11.417  -5.445  1.00  0.00     0.000 C 
BRANCH   4   5
ATOM      5  C   UNL     1       4.710 -10.357  -6.143  1.00  0.00     0.000 C 
BRANCH   5   6
ATOM      6  C   UNL     1       4.320 -10.040  -7.599  1.00  0.00     0.000 C 
BRANCH   6   7
ATOM      7  C   UNL     1       4.245  -8.531  -7.915  1.00  0.00     0.000 C 
BRANCH   7   8
ATOM      8  C   UNL     1       5.244  -7.704  -7.085  1.00  0.00     0.000 C 
BRANCH   8   9
ATOM      9  C   UNL     1       4.793  -6.249  -6.887  1.00  0.00     0.000 C 
BRANCH   9  10
ATOM     10  C   UNL     1       3.807  -6.090  -5.715  1.00  0.00     0.000 C 
BRANCH  10  11
ATOM     11  C   UNL     1       4.043  -7.130  -4.608  1.00  0.00     0.000 C 
BRANCH  11  12
ATOM     12  C   UNL     1       2.751  -7.863  -4.206  1.00  0.00     0.000 C 
BRANCH  12  13
ATOM     13  C   UNL     1       1.631  -7.707  -5.251  1.00  0.00     0.006 C 
BRANCH  13  14
ATOM     14  C   UNL     1       1.152  -9.033  -5.866  1.00  0.00     0.053 C 
BRANCH  14  15
ATOM     15  C   UNL     1       0.332  -8.816  -7.101  1.00  0.00     0.041 C 
ATOM     16  O   UNL     1       0.774  -8.096  -8.036  1.00  0.00    -0.550 OA
ATOM     17  O   UNL     1      -0.900  -9.441  -7.237  1.00  0.00    -0.550 OA
ENDBRANCH  14  15
ENDBRANCH  13  14
ENDBRANCH  12  13
ENDBRANCH  11  12
ENDBRANCH  10  11
ENDBRANCH   9  10
ENDBRANCH   8   9
ENDBRANCH   7   8
ENDBRANCH   6   7
ENDBRANCH   5   6
ENDBRANCH   4   5
ENDBRANCH   3   4
ENDBRANCH   2   3
ENDBRANCH   1   2
BRANCH   1  18
ATOM     18  C   UNL     1       7.515 -12.656  -3.393  1.00  0.00     0.000 C 
BRANCH  18  19
ATOM     19  C   UNL     1       7.248 -13.397  -2.065  1.00  0.00     0.000 C 
BRANCH  19  20
ATOM     20  C   UNL     1       7.986 -12.789  -0.857  1.00  0.00     0.000 C 
BRANCH  20  21
ATOM     21  C   UNL     1       8.368 -11.304  -1.010  1.00  0.00     0.000 C 
BRANCH  21  22
ATOM     22  C   UNL     1       7.916 -10.400   0.152  1.00  0.00     0.000 C 
BRANCH  22  23
ATOM     23  C   UNL     1       6.510  -9.819  -0.058  1.00  0.00     0.000 C 
BRANCH  23  24
ATOM     24  C   UNL     1       6.297  -9.417  -1.525  1.00  0.00    -0.000 C 
BRANCH  24  25
ATOM     25  C   UNL     1       5.109 -10.145  -2.173  1.00  0.00    -0.000 C 
BRANCH  25  26
ATOM     26  C   UNL     1       4.553 -11.272  -1.290  1.00  0.00    -0.000 C 
BRANCH  26  27
ATOM     27  C   UNL     1       3.026 -11.171  -1.169  1.00  0.00    -0.000 C 
BRANCH  27  28
ATOM     28  C   UNL     1       2.285 -11.989  -2.243  1.00  0.00    -0.000 C 
BRANCH  28  29
ATOM     29  C   UNL     1       1.851 -13.402  -1.803  1.00  0.00    -0.000 C 
BRANCH  29  30
ATOM     30  C   UNL     1       2.979 -14.449  -1.763  1.00  0.00    -0.000 C 
BRANCH  30  31
ATOM     31  C   UNL     1       2.949 -15.308  -0.491  1.00  0.00    -0.003 C 
ATOM     32  C   UNL     1       2.833 -14.439   0.757  1.00  0.00     0.004 C 
ENDBRANCH  30  31
ENDBRANCH  29  30
ENDBRANCH  28  29
ENDBRANCH  27  28
ENDBRANCH  26  27
ENDBRANCH  25  26
ENDBRANCH  24  25
ENDBRANCH  23  24
ENDBRANCH  22  23
ENDBRANCH  21  22
ENDBRANCH  20  21
ENDBRANCH  19  20
ENDBRANCH  18  19
ENDBRANCH   1  18
TORSDOF 28
ENDMDL
MODEL 9
REMARK VINA RESULT:    -4.653      3.673      7.714
REMARK INTER + INTRA:         -17.901
REMARK INTER:                 -11.844
REMARK INTRA:                  -6.057
REMARK UNBOUND:                -5.632
REMARK SMILES CCCCCCCCCCCCCCCCCCCCCCCCCCCCCC(=O)[O-]
REMARK SMILES IDX 16 1 17 2 18 3 19 4 20 5 21 6 22 7 23 8 24 9 25 10 26 11
REMARK SMILES IDX 27 12 28 13 29 14 30 15 31 16 32 17 15 18 14 19 13 20 12 21
REMARK SMILES IDX 11 22 10 23 9 24 8 25 7 26 6 27 5 28 4 29 3 30 2 31 1 32
REMARK H PARENT
REMARK Flexibility Score: inf
ROOT
ATOM      1  C   UNL     1       7.253 -13.266  -1.885  1.00  0.00     0.000 C 
ENDROOT
BRANCH   1   2
ATOM      2  C   UNL     1       7.995 -12.628  -0.691  1.00  0.00     0.000 C 
BRANCH   2   3
ATOM      3  C   UNL     1       8.429 -11.170  -0.934  1.00  0.00     0.000 C 
BRANCH   3   4
ATOM      4  C   UNL     1       7.922 -10.154   0.108  1.00  0.00     0.000 C 
BRANCH   4   5
ATOM      5  C   UNL     1       7.060  -9.011  -0.462  1.00  0.00     0.000 C 
BRANCH   5   6
ATOM      6  C   UNL     1       6.242  -9.369  -1.718  1.00  0.00     0.000 C 
BRANCH   6   7
ATOM      7  C   UNL     1       4.799  -8.823  -1.705  1.00  0.00     0.000 C 
BRANCH   7   8
ATOM      8  C   UNL     1       3.764  -9.896  -1.321  1.00  0.00     0.000 C 
BRANCH   8   9
ATOM      9  C   UNL     1       4.394 -11.280  -1.101  1.00  0.00     0.000 C 
BRANCH   9  10
ATOM     10  C   UNL     1       3.378 -12.425  -1.264  1.00  0.00     0.000 C 
BRANCH  10  11
ATOM     11  C   UNL     1       1.979 -11.914  -1.646  1.00  0.00     0.000 C 
BRANCH  11  12
ATOM     12  C   UNL     1       1.637 -12.187  -3.122  1.00  0.00     0.000 C 
BRANCH  12  13
ATOM     13  C   UNL     1       0.728 -13.417  -3.302  1.00  0.00     0.006 C 
BRANCH  13  14
ATOM     14  C   UNL     1       1.462 -14.679  -3.787  1.00  0.00     0.053 C 
BRANCH  14  15
ATOM     15  C   UNL     1       1.681 -15.662  -2.679  1.00  0.00     0.041 C 
ATOM     16  O   UNL     1       2.311 -16.732  -2.896  1.00  0.00    -0.550 OA
ATOM     17  O   UNL     1       1.224 -15.381  -1.398  1.00  0.00    -0.550 OA
ENDBRANCH  14  15
ENDBRANCH  13  14
ENDBRANCH  12  13
ENDBRANCH  11  12
ENDBRANCH  10  11
ENDBRANCH   9  10
ENDBRANCH   8   9
ENDBRANCH   7   8
ENDBRANCH   6   7
ENDBRANCH   5   6
ENDBRANCH   4   5
ENDBRANCH   3   4
ENDBRANCH   2   3
ENDBRANCH   1   2
BRANCH   1  18
ATOM     18  C   UNL     1       7.443 -12.473  -3.190  1.00  0.00     0.000 C 
BRANCH  18  19
ATOM     19  C   UNL     1       6.762 -13.159  -4.394  1.00  0.00     0.000 C 
BRANCH  19  20
ATOM     20  C   UNL     1       5.250 -13.383  -4.205  1.00  0.00     0.000 C 
BRANCH  20  21
ATOM     21  C   UNL     1       4.384 -13.040  -5.433  1.00  0.00     0.000 C 
BRANCH  21  22
ATOM     22  C   UNL     1       4.591 -11.620  -5.992  1.00  0.00     0.000 C 
BRANCH  22  23
ATOM     23  C   UNL     1       4.176 -10.524  -4.999  1.00  0.00     0.000 C 
BRANCH  23  24
ATOM     24  C   UNL     1       4.342  -9.130  -5.623  1.00  0.00    -0.000 C 
BRANCH  24  25
ATOM     25  C   UNL     1       4.734  -9.186  -7.107  1.00  0.00    -0.000 C 
BRANCH  25  26
ATOM     26  C   UNL     1       3.594  -8.747  -8.039  1.00  0.00    -0.000 C 
BRANCH  26  27
ATOM     27  C   UNL     1       2.473  -8.060  -7.247  1.00  0.00    -0.000 C 
BRANCH  27  28
ATOM     28  C   UNL     1       1.129  -8.803  -7.344  1.00  0.00    -0.000 C 
BRANCH  28  29
ATOM     29  C   UNL     1       0.664  -9.486  -6.041  1.00  0.00    -0.000 C 
BRANCH  29  30
ATOM     30  C   UNL     1       0.053 -10.887  -6.221  1.00  0.00    -0.000 C 
BRANCH  30  31
ATOM     31  C   UNL     1       1.019 -11.879  -6.884  1.00  0.00    -0.003 C 
ATOM     32  C   UNL     1       0.359 -13.238  -7.089  1.00  0.00     0.004 C 
ENDBRANCH  30  31
ENDBRANCH  29  30
ENDBRANCH  28  29
ENDBRANCH  27  28
ENDBRANCH  26  27
ENDBRANCH  25  26
ENDBRANCH  24  25
ENDBRANCH  23  24
ENDBRANCH  22  23
ENDBRANCH  21  22
ENDBRANCH  20  21
ENDBRANCH  19  20
ENDBRANCH  18  19
ENDBRANCH   1  18
TORSDOF 28
ENDMDL
