MODEL 1
REMARK VINA RESULT:    -4.676      0.000      0.000
REMARK INTER + INTRA:          -5.409
REMARK INTER:                  -5.360
REMARK INTRA:                  -0.049
REMARK UNBOUND:                -0.049
REMARK SMILES O=C([O-])c1cc(O)c(O)c(O)c1
REMARK SMILES IDX 4 1 5 2 12 3 6 4 10 5 8 6 2 7 1 8 3 9 7 10 11 12 9 14
REMARK H PARENT 7 11 11 13 9 15
REMARK Flexibility Score: inf
ROOT
ATOM      1  C   UNL     1     164.977 156.135 152.357  1.00  0.00     0.005 A 
ATOM      2  C   UNL     1     164.061 155.092 152.571  1.00  0.00     0.060 A 
ATOM      3  C   UNL     1     165.875 156.045 151.280  1.00  0.00     0.060 A 
ATOM      4  C   UNL     1     164.041 153.974 151.723  1.00  0.00     0.162 A 
ATOM      5  C   UNL     1     165.860 154.931 150.430  1.00  0.00     0.162 A 
ATOM      6  C   UNL     1     164.944 153.894 150.650  1.00  0.00     0.200 A 
ENDROOT
BRANCH   1   7
ATOM      7  C   UNL     1     164.991 157.312 153.256  1.00  0.00     0.072 C 
ATOM      8  O   UNL     1     163.915 157.793 153.699  1.00  0.00    -0.545 OA
ATOM      9  O   UNL     1     166.195 157.901 153.625  1.00  0.00    -0.545 OA
ENDBRANCH   1   7
BRANCH   4  10
ATOM     10  O   UNL     1     163.128 152.945 151.945  1.00  0.00    -0.504 OA
ATOM     11  H   UNL     1     162.160 153.134 152.180  1.00  0.00     0.293 HD
ENDBRANCH   4  10
BRANCH   5  12
ATOM     12  O   UNL     1     166.754 154.846 149.364  1.00  0.00    -0.504 OA
ATOM     13  H   UNL     1     167.021 155.664 148.830  1.00  0.00     0.293 HD
ENDBRANCH   5  12
BRANCH   6  14
ATOM     14  O   UNL     1     164.943 152.793 149.794  1.00  0.00    -0.502 OA
ATOM     15  H   UNL     1     165.251 152.857 148.831  1.00  0.00     0.293 HD
ENDBRANCH   6  14
TORSDOF 4
ENDMDL
MODEL 2
REMARK VINA RESULT:    -4.665      0.082      2.422
REMARK INTER + INTRA:          -5.397
REMARK INTER:                  -5.347
REMARK INTRA:                  -0.049
REMARK UNBOUND:                -0.049
REMARK SMILES O=C([O-])c1cc(O)c(O)c(O)c1
REMARK SMILES IDX 4 1 5 2 12 3 6 4 10 5 8 6 2 7 1 8 3 9 7 10 11 12 9 14
REMARK H PARENT 7 11 11 13 9 15
REMARK Flexibility Score: inf
ROOT
ATOM      1  C   UNL     1     165.018 156.175 152.397  1.00  0.00     0.005 A 
ATOM      2  C   UNL     1     165.937 156.066 151.341  1.00  0.00     0.060 A 
ATOM      3  C   UNL     1     164.085 155.144 152.599  1.00  0.00     0.060 A 
ATOM      4  C   UNL     1     165.927 154.945 150.498  1.00  0.00     0.162 A 
ATOM      5  C   UNL     1     164.070 154.022 151.759  1.00  0.00     0.162 A 
ATOM      6  C   UNL     1     164.990 153.920 150.708  1.00  0.00     0.200 A 
ENDROOT
BRANCH   1   7
ATOM      7  C   UNL     1     165.036 157.362 153.283  1.00  0.00     0.072 C 
ATOM      8  O   UNL     1     163.960 157.859 153.708  1.00  0.00    -0.545 OA
ATOM      9  O   UNL     1     166.241 157.943 153.658  1.00  0.00    -0.545 OA
ENDBRANCH   1   7
BRANCH   4  10
ATOM     10  O   UNL     1     166.844 154.848 149.452  1.00  0.00    -0.504 OA
ATOM     11  H   UNL     1     166.588 155.075 148.498  1.00  0.00     0.293 HD
ENDBRANCH   4  10
BRANCH   5  12
ATOM     12  O   UNL     1     163.142 153.002 151.964  1.00  0.00    -0.504 OA
ATOM     13  H   UNL     1     162.297 153.153 152.501  1.00  0.00     0.293 HD
ENDBRANCH   5  12
BRANCH   6  14
ATOM     14  O   UNL     1     164.960 152.796 149.882  1.00  0.00    -0.502 OA
ATOM     15  H   UNL     1     164.193 152.135 149.899  1.00  0.00     0.293 HD
ENDBRANCH   6  14
TORSDOF 4
ENDMDL
MODEL 3
REMARK VINA RESULT:    -4.520     10.301     12.876
REMARK INTER + INTRA:          -5.230
REMARK INTER:                  -5.177
REMARK INTRA:                  -0.053
REMARK UNBOUND:                -0.049
REMARK SMILES O=C([O-])c1cc(O)c(O)c(O)c1
REMARK SMILES IDX 4 1 5 2 12 3 6 4 10 5 8 6 2 7 1 8 3 9 7 10 11 12 9 14
REMARK H PARENT 7 11 11 13 9 15
REMARK Flexibility Score: inf
ROOT
ATOM      1  C   UNL     1     166.968 158.318 162.280  1.00  0.00     0.005 A 
ATOM      2  C   UNL     1     168.107 159.136 162.357  1.00  0.00     0.060 A 
ATOM      3  C   UNL     1     166.571 157.591 163.415  1.00  0.00     0.060 A 
ATOM      4  C   UNL     1     168.839 159.229 163.550  1.00  0.00     0.162 A 
ATOM      5  C   UNL     1     167.299 157.680 164.609  1.00  0.00     0.162 A 
ATOM      6  C   UNL     1     168.433 158.499 164.679  1.00  0.00     0.200 A 
ENDROOT
BRANCH   1   7
ATOM      7  C   UNL     1     166.200 158.225 161.017  1.00  0.00     0.072 C 
ATOM      8  O   UNL     1     165.110 157.594 160.975  1.00  0.00    -0.545 OA
ATOM      9  O   UNL     1     166.670 158.835 159.860  1.00  0.00    -0.545 OA
ENDBRANCH   1   7
BRANCH   4  10
ATOM     10  O   UNL     1     169.968 160.045 163.615  1.00  0.00    -0.504 OA
ATOM     11  H   UNL     1     170.698 159.888 164.302  1.00  0.00     0.293 HD
ENDBRANCH   4  10
BRANCH   5  12
ATOM     12  O   UNL     1     166.901 156.957 165.732  1.00  0.00    -0.504 OA
ATOM     13  H   UNL     1     165.930 156.905 166.013  1.00  0.00     0.293 HD
ENDBRANCH   5  12
BRANCH   6  14
ATOM     14  O   UNL     1     169.147 158.575 165.876  1.00  0.00    -0.502 OA
ATOM     15  H   UNL     1     169.071 159.369 166.499  1.00  0.00     0.293 HD
ENDBRANCH   6  14
TORSDOF 4
ENDMDL
MODEL 4
REMARK VINA RESULT:    -4.490     10.320     12.684
REMARK INTER + INTRA:          -5.195
REMARK INTER:                  -5.143
REMARK INTRA:                  -0.053
REMARK UNBOUND:                -0.049
REMARK SMILES O=C([O-])c1cc(O)c(O)c(O)c1
REMARK SMILES IDX 4 1 5 2 12 3 6 4 10 5 8 6 2 7 1 8 3 9 7 10 11 12 9 14
REMARK H PARENT 7 11 11 13 9 15
REMARK Flexibility Score: inf
ROOT
ATOM      1  C   UNL     1     166.990 158.344 162.291  1.00  0.00     0.005 A 
ATOM      2  C   UNL     1     166.598 157.619 163.428  1.00  0.00     0.060 A 
ATOM      3  C   UNL     1     168.119 159.176 162.367  1.00  0.00     0.060 A 
ATOM      4  C   UNL     1     167.323 157.722 164.625  1.00  0.00     0.162 A 
ATOM      5  C   UNL     1     168.847 159.283 163.560  1.00  0.00     0.162 A 
ATOM      6  C   UNL     1     168.450 158.557 164.690  1.00  0.00     0.200 A 
ENDROOT
BRANCH   1   7
ATOM      7  C   UNL     1     166.220 158.229 161.031  1.00  0.00     0.072 C 
ATOM      8  O   UNL     1     165.164 157.544 160.985  1.00  0.00    -0.545 OA
ATOM      9  O   UNL     1     166.652 158.879 159.880  1.00  0.00    -0.545 OA
ENDBRANCH   1   7
BRANCH   4  10
ATOM     10  O   UNL     1     166.925 156.999 165.748  1.00  0.00    -0.504 OA
ATOM     11  H   UNL     1     167.071 157.352 166.687  1.00  0.00     0.293 HD
ENDBRANCH   4  10
BRANCH   5  12
ATOM     12  O   UNL     1     169.966 160.111 163.630  1.00  0.00    -0.504 OA
ATOM     13  H   UNL     1     170.829 159.801 164.060  1.00  0.00     0.293 HD
ENDBRANCH   5  12
BRANCH   6  14
ATOM     14  O   UNL     1     169.186 158.676 165.870  1.00  0.00    -0.502 OA
ATOM     15  H   UNL     1     168.775 158.514 166.780  1.00  0.00     0.293 HD
ENDBRANCH   6  14
TORSDOF 4
ENDMDL
MODEL 5
REMARK VINA RESULT:    -4.449      2.092      4.261
REMARK INTER + INTRA:          -5.148
REMARK INTER:                  -5.103
REMARK INTRA:                  -0.045
REMARK UNBOUND:                -0.049
REMARK SMILES O=C([O-])c1cc(O)c(O)c(O)c1
REMARK SMILES IDX 4 1 5 2 12 3 6 4 10 5 8 6 2 7 1 8 3 9 7 10 11 12 9 14
REMARK H PARENT 7 11 11 13 9 15
REMARK Flexibility Score: inf
ROOT
ATOM      1  C   UNL     1     166.724 153.271 150.266  1.00  0.00     0.005 A 
ATOM      2  C   UNL     1     165.881 152.152 150.368  1.00  0.00     0.060 A 
ATOM      3  C   UNL     1     166.254 154.521 150.703  1.00  0.00     0.060 A 
ATOM      4  C   UNL     1     164.589 152.276 150.899  1.00  0.00     0.162 A 
ATOM      5  C   UNL     1     164.964 154.652 151.234  1.00  0.00     0.162 A 
ATOM      6  C   UNL     1     164.130 153.531 151.333  1.00  0.00     0.200 A 
ENDROOT
BRANCH   1   7
ATOM      7  C   UNL     1     168.087 153.131 149.705  1.00  0.00     0.072 C 
ATOM      8  O   UNL     1     168.287 153.257 148.467  1.00  0.00    -0.545 OA
ATOM      9  O   UNL     1     169.167 152.859 150.536  1.00  0.00    -0.545 OA
ENDBRANCH   1   7
BRANCH   4  10
ATOM     10  O   UNL     1     163.762 151.159 150.996  1.00  0.00    -0.504 OA
ATOM     11  H   UNL     1     162.790 151.191 150.708  1.00  0.00     0.293 HD
ENDBRANCH   4  10
BRANCH   5  12
ATOM     12  O   UNL     1     164.503 155.894 151.666  1.00  0.00    -0.504 OA
ATOM     13  H   UNL     1     164.721 156.745 151.163  1.00  0.00     0.293 HD
ENDBRANCH   5  12
BRANCH   6  14
ATOM     14  O   UNL     1     162.848 153.680 151.864  1.00  0.00    -0.502 OA
ATOM     15  H   UNL     1     162.664 153.609 152.857  1.00  0.00     0.293 HD
ENDBRANCH   6  14
TORSDOF 4
ENDMDL
MODEL 6
REMARK VINA RESULT:    -4.447      2.134      4.573
REMARK INTER + INTRA:          -5.147
REMARK INTER:                  -5.102
REMARK INTRA:                  -0.045
REMARK UNBOUND:                -0.049
REMARK SMILES O=C([O-])c1cc(O)c(O)c(O)c1
REMARK SMILES IDX 4 1 5 2 12 3 6 4 10 5 8 6 2 7 1 8 3 9 7 10 11 12 9 14
REMARK H PARENT 7 11 11 13 9 15
REMARK Flexibility Score: inf
ROOT
ATOM      1  C   UNL     1     166.716 153.239 150.279  1.00  0.00     0.005 A 
ATOM      2  C   UNL     1     166.223 154.483 150.705  1.00  0.00     0.060 A 
ATOM      3  C   UNL     1     165.883 152.110 150.362  1.00  0.00     0.060 A 
ATOM      4  C   UNL     1     164.918 154.600 151.207  1.00  0.00     0.162 A 
ATOM      5  C   UNL     1     164.579 152.221 150.862  1.00  0.00     0.162 A 
ATOM      6  C   UNL     1     164.094 153.465 151.285  1.00  0.00     0.200 A 
ENDROOT
BRANCH   1   7
ATOM      7  C   UNL     1     168.094 153.123 149.750  1.00  0.00     0.072 C 
ATOM      8  O   UNL     1     169.068 152.957 150.531  1.00  0.00    -0.545 OA
ATOM      9  O   UNL     1     168.333 153.196 148.383  1.00  0.00    -0.545 OA
ENDBRANCH   1   7
BRANCH   4  10
ATOM     10  O   UNL     1     164.439 155.840 151.627  1.00  0.00    -0.504 OA
ATOM     11  H   UNL     1     164.993 156.451 152.218  1.00  0.00     0.293 HD
ENDBRANCH   4  10
BRANCH   5  12
ATOM     12  O   UNL     1     163.757 151.098 150.942  1.00  0.00    -0.504 OA
ATOM     13  H   UNL     1     163.134 150.842 150.187  1.00  0.00     0.293 HD
ENDBRANCH   5  12
BRANCH   6  14
ATOM     14  O   UNL     1     162.793 153.558 151.781  1.00  0.00    -0.502 OA
ATOM     15  H   UNL     1     161.999 153.740 151.180  1.00  0.00     0.293 HD
ENDBRANCH   6  14
TORSDOF 4
ENDMDL
MODEL 7
REMARK VINA RESULT:    -4.428      1.142      2.690
REMARK INTER + INTRA:          -5.124
REMARK INTER:                  -5.079
REMARK INTRA:                  -0.046
REMARK UNBOUND:                -0.049
REMARK SMILES O=C([O-])c1cc(O)c(O)c(O)c1
REMARK SMILES IDX 4 1 5 2 12 3 6 4 10 5 8 6 2 7 1 8 3 9 7 10 11 12 9 14
REMARK H PARENT 7 11 11 13 9 15
REMARK Flexibility Score: inf
ROOT
ATOM      1  C   UNL     1     165.269 155.692 151.451  1.00  0.00     0.005 A 
ATOM      2  C   UNL     1     166.168 155.141 150.523  1.00  0.00     0.060 A 
ATOM      3  C   UNL     1     164.175 154.922 151.881  1.00  0.00     0.060 A 
ATOM      4  C   UNL     1     165.979 153.842 150.030  1.00  0.00     0.162 A 
ATOM      5  C   UNL     1     163.981 153.623 151.392  1.00  0.00     0.162 A 
ATOM      6  C   UNL     1     164.882 153.081 150.467  1.00  0.00     0.200 A 
ENDROOT
BRANCH   1   7
ATOM      7  C   UNL     1     165.476 157.064 151.967  1.00  0.00     0.072 C 
ATOM      8  O   UNL     1     165.329 158.061 151.212  1.00  0.00    -0.545 OA
ATOM      9  O   UNL     1     165.834 157.272 153.294  1.00  0.00    -0.545 OA
ENDBRANCH   1   7
BRANCH   4  10
ATOM     10  O   UNL     1     166.877 153.305 149.109  1.00  0.00    -0.504 OA
ATOM     11  H   UNL     1     166.885 153.603 148.139  1.00  0.00     0.293 HD
ENDBRANCH   4  10
BRANCH   5  12
ATOM     12  O   UNL     1     162.894 152.864 151.822  1.00  0.00    -0.504 OA
ATOM     13  H   UNL     1     161.961 153.255 151.874  1.00  0.00     0.293 HD
ENDBRANCH   5  12
BRANCH   6  14
ATOM     14  O   UNL     1     164.673 151.786 149.990  1.00  0.00    -0.502 OA
ATOM     15  H   UNL     1     163.746 151.393 149.884  1.00  0.00     0.293 HD
ENDBRANCH   6  14
TORSDOF 4
ENDMDL
MODEL 8
REMARK VINA RESULT:    -4.427      1.226      1.346
REMARK INTER + INTRA:          -5.123
REMARK INTER:                  -5.078
REMARK INTRA:                  -0.045
REMARK UNBOUND:                -0.049
REMARK SMILES O=C([O-])c1cc(O)c(O)c(O)c1
REMARK SMILES IDX 4 1 5 2 12 3 6 4 10 5 8 6 2 7 1 8 3 9 7 10 11 12 9 14
REMARK H PARENT 7 11 11 13 9 15
REMARK Flexibility Score: inf
ROOT
ATOM      1  C   UNL     1     165.205 155.700 151.322  1.00  0.00     0.005 A 
ATOM      2  C   UNL     1     164.122 154.916 151.753  1.00  0.00     0.060 A 
ATOM      3  C   UNL     1     166.148 155.137 150.445  1.00  0.00     0.060 A 
ATOM      4  C   UNL     1     163.979 153.592 151.315  1.00  0.00     0.162 A 
ATOM      5  C   UNL     1     166.011 153.814 150.005  1.00  0.00     0.162 A 
ATOM      6  C   UNL     1     164.927 153.040 150.438  1.00  0.00     0.200 A 
ENDROOT
BRANCH   1   7
ATOM      7  C   UNL     1     165.348 157.098 151.789  1.00  0.00     0.072 C 
ATOM      8  O   UNL     1     165.084 158.060 151.021  1.00  0.00    -0.545 OA
ATOM      9  O   UNL     1     165.776 157.367 153.084  1.00  0.00    -0.545 OA
ENDBRANCH   1   7
BRANCH   4  10
ATOM     10  O   UNL     1     162.900 152.824 151.749  1.00  0.00    -0.504 OA
ATOM     11  H   UNL     1     162.297 153.133 152.504  1.00  0.00     0.293 HD
ENDBRANCH   4  10
BRANCH   5  12
ATOM     12  O   UNL     1     166.949 153.261 149.135  1.00  0.00    -0.504 OA
ATOM     13  H   UNL     1     167.533 153.841 148.545  1.00  0.00     0.293 HD
ENDBRANCH   5  12
BRANCH   6  14
ATOM     14  O   UNL     1     164.807 151.724 149.989  1.00  0.00    -0.502 OA
ATOM     15  H   UNL     1     165.595 151.088 149.966  1.00  0.00     0.293 HD
ENDBRANCH   6  14
TORSDOF 4
ENDMDL
MODEL 9
REMARK VINA RESULT:    -4.388      1.706      3.240
REMARK INTER + INTRA:          -5.079
REMARK INTER:                  -5.026
REMARK INTRA:                  -0.053
REMARK UNBOUND:                -0.049
REMARK SMILES O=C([O-])c1cc(O)c(O)c(O)c1
REMARK SMILES IDX 4 1 5 2 12 3 6 4 10 5 8 6 2 7 1 8 3 9 7 10 11 12 9 14
REMARK H PARENT 7 11 11 13 9 15
REMARK Flexibility Score: inf
ROOT
ATOM      1  C   UNL     1     165.314 154.383 151.291  1.00  0.00     0.005 A 
ATOM      2  C   UNL     1     166.570 154.626 150.712  1.00  0.00     0.060 A 
ATOM      3  C   UNL     1     164.507 153.360 150.766  1.00  0.00     0.060 A 
ATOM      4  C   UNL     1     167.016 153.860 149.626  1.00  0.00     0.162 A 
ATOM      5  C   UNL     1     164.947 152.591 149.680  1.00  0.00     0.162 A 
ATOM      6  C   UNL     1     166.202 152.839 149.108  1.00  0.00     0.200 A 
ENDROOT
BRANCH   1   7
ATOM      7  C   UNL     1     164.850 155.196 152.438  1.00  0.00     0.072 C 
ATOM      8  O   UNL     1     163.670 155.088 152.865  1.00  0.00    -0.545 OA
ATOM      9  O   UNL     1     165.712 156.092 153.061  1.00  0.00    -0.545 OA
ENDBRANCH   1   7
BRANCH   4  10
ATOM     10  O   UNL     1     168.265 154.110 149.059  1.00  0.00    -0.504 OA
ATOM     11  H   UNL     1     168.368 154.693 148.235  1.00  0.00     0.293 HD
ENDBRANCH   4  10
BRANCH   5  12
ATOM     12  O   UNL     1     164.143 151.577 149.163  1.00  0.00    -0.504 OA
ATOM     13  H   UNL     1     164.187 150.630 149.520  1.00  0.00     0.293 HD
ENDBRANCH   5  12
BRANCH   6  14
ATOM     14  O   UNL     1     166.624 152.064 148.028  1.00  0.00    -0.502 OA
ATOM     15  H   UNL     1     167.581 151.746 147.934  1.00  0.00     0.293 HD
ENDBRANCH   6  14
TORSDOF 4
ENDMDL
