MODEL 1
REMARK VINA RESULT:    -3.465      0.000      0.000
REMARK INTER + INTRA:          -4.371
REMARK INTER:                  -5.288
REMARK INTRA:                   0.918
REMARK UNBOUND:                 0.918
REMARK SMILES CC1=CCC[C@H](C)C(=O)C[C@@H](C(C)C)C(=O)C1
REMARK SMILES IDX 8 1 9 2 6 3 7 4 5 5 4 6 3 7 2 8 1 9 10 11 11 12 15 13 16 14
REMARK SMILES IDX 17 15 12 17 13 18 14 19
REMARK H PARENT
REMARK Flexibility Score: 70.00
ROOT
ATOM      1  C   UNL     1      -2.727 -12.629  -8.075  1.00  0.00     0.136 C 
ATOM      2  O   UNL     1      -2.306 -13.122  -9.113  1.00  0.00    -0.299 OA
ENDROOT
BRANCH   1   3
ATOM      3  C   UNL     1      -3.307 -11.229  -8.091  1.00  0.00     0.053 C 
ATOM      4  C   UNL     1      -2.212 -10.195  -8.394  1.00  0.00     0.016 C 
BRANCH   3   5
ATOM      5  C   UNL     1      -4.454 -11.138  -9.122  1.00  0.00     0.015 C 
BRANCH   5   6
ATOM      6  C   UNL     1      -5.678 -11.981  -8.709  1.00  0.00     0.028 C 
BRANCH   6   7
ATOM      7  C   UNL     1      -5.951 -11.864  -7.232  1.00  0.00    -0.028 C 
ATOM      8  C   UNL     1      -6.094 -12.907  -6.381  1.00  0.00    -0.070 CG0
ATOM      9  C   UNL     1      -6.427 -12.605  -4.942  1.00  0.00     0.039 C 
ATOM     10  G   UNL     1      -5.949 -14.360  -6.808  1.00  0.00     0.000 G0
ENDBRANCH   6   7
ENDBRANCH   5   6
ENDBRANCH   3   5
ENDBRANCH   1   3
BRANCH   1  11
ATOM     11  C   UNL     1      -2.655 -13.433  -6.797  1.00  0.00     0.087 C 
BRANCH  11  12
ATOM     12  C   UNL     1      -3.353 -14.811  -6.923  1.00  0.00     0.066 C 
BRANCH  12  13
ATOM     13  C   UNL     1      -4.715 -14.672  -7.595  1.00  0.00     0.140 C 
ATOM     14  O   UNL     1      -4.797 -14.858  -8.801  1.00  0.00    -0.299 OA
BRANCH  13  15
ATOM     15  C   UNL     1      -5.973 -14.384  -6.805  1.00  0.00     0.106 CG0
ATOM     16  G   UNL     1      -6.067 -12.925  -6.385  1.00  0.00     0.000 G0
ENDBRANCH  13  15
ENDBRANCH  12  13
BRANCH  12  17
ATOM     17  C   UNL     1      -3.461 -15.569  -5.560  1.00  0.00    -0.006 C 
ATOM     18  C   UNL     1      -2.248 -15.313  -4.648  1.00  0.00     0.008 C 
ATOM     19  C   UNL     1      -3.600 -17.087  -5.781  1.00  0.00     0.008 C 
ENDBRANCH  12  17
ENDBRANCH  11  12
ENDBRANCH   1  11
TORSDOF 1
ENDMDL
MODEL 2
REMARK VINA RESULT:    -2.689      2.052      3.572
REMARK INTER + INTRA:          -3.186
REMARK INTER:                  -3.955
REMARK INTRA:                   0.769
REMARK UNBOUND:                 0.918
REMARK SMILES CC1=CCC[C@H](C)C(=O)C[C@@H](C(C)C)C(=O)C1
REMARK SMILES IDX 8 1 9 2 6 3 7 4 5 5 4 6 3 7 2 8 1 9 10 11 11 12 15 13 16 14
REMARK SMILES IDX 17 15 12 17 13 18 14 19
REMARK H PARENT
REMARK Flexibility Score: 70.00
ROOT
ATOM      1  C   UNL     1      -5.972 -13.605  -6.627  1.00  0.00     0.136 C 
ATOM      2  O   UNL     1      -6.169 -13.505  -5.423  1.00  0.00    -0.299 OA
ENDROOT
BRANCH   1   3
ATOM      3  C   UNL     1      -6.435 -12.503  -7.558  1.00  0.00     0.053 C 
ATOM      4  C   UNL     1      -6.162 -11.124  -6.938  1.00  0.00     0.016 C 
BRANCH   3   5
ATOM      5  C   UNL     1      -5.741 -12.639  -8.932  1.00  0.00     0.015 C 
BRANCH   5   6
ATOM      6  C   UNL     1      -4.378 -11.919  -8.971  1.00  0.00     0.028 C 
BRANCH   6   7
ATOM      7  C   UNL     1      -3.242 -12.900  -9.104  1.00  0.00    -0.028 C 
ATOM      8  C   UNL     1      -2.580 -13.469  -8.069  1.00  0.00    -0.070 CG0
ATOM      9  C   UNL     1      -1.425 -14.384  -8.388  1.00  0.00     0.039 C 
ATOM     10  G   UNL     1      -2.934 -13.221  -6.611  1.00  0.00     0.000 G0
ENDBRANCH   6   7
ENDBRANCH   5   6
ENDBRANCH   3   5
ENDBRANCH   1   3
BRANCH   1  11
ATOM     11  C   UNL     1      -5.269 -14.834  -7.156  1.00  0.00     0.087 C 
BRANCH  11  12
ATOM     12  C   UNL     1      -4.312 -15.466  -6.112  1.00  0.00     0.066 C 
BRANCH  12  13
ATOM     13  C   UNL     1      -3.128 -14.547  -5.834  1.00  0.00     0.140 C 
ATOM     14  O   UNL     1      -2.291 -14.899  -5.015  1.00  0.00    -0.299 OA
BRANCH  13  15
ATOM     15  C   UNL     1      -2.920 -13.255  -6.592  1.00  0.00     0.106 CG0
ATOM     16  G   UNL     1      -2.573 -13.493  -8.053  1.00  0.00     0.000 G0
ENDBRANCH  13  15
ENDBRANCH  12  13
BRANCH  12  17
ATOM     17  C   UNL     1      -3.842 -16.904  -6.506  1.00  0.00    -0.006 C 
ATOM     18  C   UNL     1      -4.336 -17.322  -7.903  1.00  0.00     0.008 C 
ATOM     19  C   UNL     1      -4.327 -17.945  -5.480  1.00  0.00     0.008 C 
ENDBRANCH  12  17
ENDBRANCH  11  12
ENDBRANCH   1  11
TORSDOF 1
ENDMDL
MODEL 3
REMARK VINA RESULT:    -2.541      1.557      2.277
REMARK INTER + INTRA:          -2.960
REMARK INTER:                  -4.878
REMARK INTRA:                   1.918
REMARK UNBOUND:                 0.918
REMARK SMILES CC1=CCC[C@H](C)C(=O)C[C@@H](C(C)C)C(=O)C1
REMARK SMILES IDX 8 1 9 2 6 3 7 4 5 5 4 6 3 7 2 8 1 9 10 11 11 12 15 13 16 14
REMARK SMILES IDX 17 15 12 17 13 18 14 19
REMARK H PARENT
REMARK Flexibility Score: 70.00
ROOT
ATOM      1  C   UNL     1      -2.418 -14.033  -6.757  1.00  0.00     0.136 C 
ATOM      2  O   UNL     1      -2.396 -13.089  -5.979  1.00  0.00    -0.299 OA
ENDROOT
BRANCH   1   3
ATOM      3  C   UNL     1      -2.161 -13.796  -8.232  1.00  0.00     0.053 C 
ATOM      4  C   UNL     1      -2.909 -14.833  -9.082  1.00  0.00     0.016 C 
BRANCH   3   5
ATOM      5  C   UNL     1      -2.575 -12.359  -8.621  1.00  0.00     0.015 C 
BRANCH   5   6
ATOM      6  C   UNL     1      -4.033 -12.287  -9.118  1.00  0.00     0.028 C 
BRANCH   6   7
ATOM      7  C   UNL     1      -4.973 -11.897  -8.008  1.00  0.00    -0.028 C 
ATOM      8  C   UNL     1      -5.791 -12.749  -7.344  1.00  0.00    -0.070 CG0
ATOM      9  C   UNL     1      -6.712 -12.173  -6.300  1.00  0.00     0.039 C 
ATOM     10  G   UNL     1      -5.832 -14.245  -7.610  1.00  0.00     0.000 G0
ENDBRANCH   6   7
ENDBRANCH   5   6
ENDBRANCH   3   5
ENDBRANCH   1   3
BRANCH   1  11
ATOM     11  C   UNL     1      -2.704 -15.418  -6.225  1.00  0.00     0.087 C 
BRANCH  11  12
ATOM     12  C   UNL     1      -4.021 -16.011  -6.790  1.00  0.00     0.066 C 
BRANCH  12  13
ATOM     13  C   UNL     1      -5.196 -15.076  -6.525  1.00  0.00     0.140 C 
ATOM     14  O   UNL     1      -5.587 -14.935  -5.375  1.00  0.00    -0.299 OA
BRANCH  13  15
ATOM     15  C   UNL     1      -5.840 -14.266  -7.628  1.00  0.00     0.106 CG0
ATOM     16  G   UNL     1      -5.796 -12.772  -7.346  1.00  0.00     0.000 G0
ENDBRANCH  13  15
ENDBRANCH  12  13
BRANCH  12  17
ATOM     17  C   UNL     1      -4.311 -17.458  -6.274  1.00  0.00    -0.006 C 
ATOM     18  C   UNL     1      -5.011 -17.462  -4.903  1.00  0.00     0.008 C 
ATOM     19  C   UNL     1      -3.013 -18.278  -6.167  1.00  0.00     0.008 C 
ENDBRANCH  12  17
ENDBRANCH  11  12
ENDBRANCH   1  11
TORSDOF 1
ENDMDL
MODEL 4
REMARK VINA RESULT:    -2.383      1.738      4.082
REMARK INTER + INTRA:          -2.720
REMARK INTER:                  -5.970
REMARK INTRA:                   3.250
REMARK UNBOUND:                 0.918
REMARK SMILES CC1=CCC[C@H](C)C(=O)C[C@@H](C(C)C)C(=O)C1
REMARK SMILES IDX 8 1 9 2 6 3 7 4 5 5 4 6 3 7 2 8 1 9 10 11 11 12 15 13 16 14
REMARK SMILES IDX 17 15 12 17 13 18 14 19
REMARK H PARENT
REMARK Flexibility Score: 70.00
ROOT
ATOM      1  C   UNL     1      -4.144 -14.708  -8.829  1.00  0.00     0.136 C 
ATOM      2  O   UNL     1      -4.308 -15.887  -9.112  1.00  0.00    -0.299 OA
ENDROOT
BRANCH   1   3
ATOM      3  C   UNL     1      -2.800 -14.055  -9.080  1.00  0.00     0.053 C 
ATOM      4  C   UNL     1      -2.897 -12.534  -8.892  1.00  0.00     0.016 C 
BRANCH   3   5
ATOM      5  C   UNL     1      -1.729 -14.661  -8.145  1.00  0.00     0.015 C 
BRANCH   5   6
ATOM      6  C   UNL     1      -2.201 -14.719  -6.678  1.00  0.00     0.028 C 
BRANCH   6   7
ATOM      7  C   UNL     1      -2.637 -16.110  -6.296  1.00  0.00    -0.028 C 
ATOM      8  C   UNL     1      -3.879 -16.449  -5.876  1.00  0.00    -0.070 CG0
ATOM      9  C   UNL     1      -4.122 -17.882  -5.476  1.00  0.00     0.039 C 
ATOM     10  G   UNL     1      -5.028 -15.458  -5.777  1.00  0.00     0.000 G0
ENDBRANCH   6   7
ENDBRANCH   5   6
ENDBRANCH   3   5
ENDBRANCH   1   3
BRANCH   1  11
ATOM     11  C   UNL     1      -5.294 -13.930  -8.230  1.00  0.00     0.087 C 
BRANCH  11  12
ATOM     12  C   UNL     1      -4.868 -13.100  -6.992  1.00  0.00     0.066 C 
BRANCH  12  13
ATOM     13  C   UNL     1      -4.602 -14.007  -5.795  1.00  0.00     0.140 C 
ATOM     14  O   UNL     1      -4.060 -13.532  -4.807  1.00  0.00    -0.299 OA
BRANCH  13  15
ATOM     15  C   UNL     1      -5.052 -15.451  -5.767  1.00  0.00     0.106 CG0
ATOM     16  G   UNL     1      -3.885 -16.420  -5.878  1.00  0.00     0.000 G0
ENDBRANCH  13  15
ENDBRANCH  12  13
BRANCH  12  17
ATOM     17  C   UNL     1      -5.883 -11.966  -6.637  1.00  0.00    -0.006 C 
ATOM     18  C   UNL     1      -6.985 -12.445  -5.674  1.00  0.00     0.008 C 
ATOM     19  C   UNL     1      -6.548 -11.401  -7.906  1.00  0.00     0.008 C 
ENDBRANCH  12  17
ENDBRANCH  11  12
ENDBRANCH   1  11
TORSDOF 1
ENDMDL
MODEL 5
REMARK VINA RESULT:    -2.355      2.059      3.835
REMARK INTER + INTRA:          -2.676
REMARK INTER:                  -5.313
REMARK INTRA:                   2.637
REMARK UNBOUND:                 0.918
REMARK SMILES CC1=CCC[C@H](C)C(=O)C[C@@H](C(C)C)C(=O)C1
REMARK SMILES IDX 8 1 9 2 6 3 7 4 5 5 4 6 3 7 2 8 1 9 10 11 11 12 15 13 16 14
REMARK SMILES IDX 17 15 12 17 13 18 14 19
REMARK H PARENT
REMARK Flexibility Score: 70.00
ROOT
ATOM      1  C   UNL     1      -3.854 -12.597  -7.879  1.00  0.00     0.136 C 
ATOM      2  O   UNL     1      -3.491 -11.733  -8.666  1.00  0.00    -0.299 OA
ENDROOT
BRANCH   1   3
ATOM      3  C   UNL     1      -5.095 -13.413  -8.179  1.00  0.00     0.053 C 
ATOM      4  C   UNL     1      -6.190 -12.524  -8.787  1.00  0.00     0.016 C 
BRANCH   3   5
ATOM      5  C   UNL     1      -4.747 -14.586  -9.123  1.00  0.00     0.015 C 
BRANCH   5   6
ATOM      6  C   UNL     1      -3.475 -15.335  -8.677  1.00  0.00     0.028 C 
BRANCH   6   7
ATOM      7  C   UNL     1      -3.808 -16.492  -7.771  1.00  0.00    -0.028 C 
ATOM      8  C   UNL     1      -3.370 -16.634  -6.498  1.00  0.00    -0.070 CG0
ATOM      9  C   UNL     1      -3.754 -17.890  -5.756  1.00  0.00     0.039 C 
ATOM     10  G   UNL     1      -2.507 -15.602  -5.789  1.00  0.00     0.000 G0
ENDBRANCH   6   7
ENDBRANCH   5   6
ENDBRANCH   3   5
ENDBRANCH   1   3
BRANCH   1  11
ATOM     11  C   UNL     1      -3.050 -12.827  -6.620  1.00  0.00     0.087 C 
BRANCH  11  12
ATOM     12  C   UNL     1      -3.917 -13.368  -5.453  1.00  0.00     0.066 C 
BRANCH  12  13
ATOM     13  C   UNL     1      -3.344 -14.672  -4.908  1.00  0.00     0.140 C 
ATOM     14  O   UNL     1      -3.617 -15.000  -3.762  1.00  0.00    -0.299 OA
BRANCH  13  15
ATOM     15  C   UNL     1      -2.511 -15.601  -5.763  1.00  0.00     0.106 CG0
ATOM     16  G   UNL     1      -3.361 -16.631  -6.489  1.00  0.00     0.000 G0
ENDBRANCH  13  15
ENDBRANCH  12  13
BRANCH  12  17
ATOM     17  C   UNL     1      -5.426 -13.521  -5.833  1.00  0.00    -0.006 C 
ATOM     18  C   UNL     1      -6.326 -12.530  -5.071  1.00  0.00     0.008 C 
ATOM     19  C   UNL     1      -5.924 -14.951  -5.557  1.00  0.00     0.008 C 
ENDBRANCH  12  17
ENDBRANCH  11  12
ENDBRANCH   1  11
TORSDOF 1
ENDMDL
MODEL 6
REMARK VINA RESULT:    -2.098      1.821      3.890
REMARK INTER + INTRA:          -2.284
REMARK INTER:                  -2.938
REMARK INTRA:                   0.654
REMARK UNBOUND:                 0.918
REMARK SMILES CC1=CCC[C@H](C)C(=O)C[C@@H](C(C)C)C(=O)C1
REMARK SMILES IDX 8 1 9 2 6 3 7 4 5 5 4 6 3 7 2 8 1 9 10 11 11 12 15 13 16 14
REMARK SMILES IDX 17 15 12 17 13 18 14 19
REMARK H PARENT
REMARK Flexibility Score: 70.00
ROOT
ATOM      1  C   UNL     1      -4.696 -12.353  -8.774  1.00  0.00     0.136 C 
ATOM      2  O   UNL     1      -5.385 -11.404  -9.122  1.00  0.00    -0.299 OA
ENDROOT
BRANCH   1   3
ATOM      3  C   UNL     1      -3.221 -12.376  -9.119  1.00  0.00     0.053 C 
ATOM      4  C   UNL     1      -2.442 -11.402  -8.223  1.00  0.00     0.016 C 
BRANCH   3   5
ATOM      5  C   UNL     1      -2.665 -13.812  -8.990  1.00  0.00     0.015 C 
BRANCH   5   6
ATOM      6  C   UNL     1      -2.043 -14.074  -7.603  1.00  0.00     0.028 C 
BRANCH   6   7
ATOM      7  C   UNL     1      -2.236 -15.506  -7.176  1.00  0.00    -0.028 C 
ATOM      8  C   UNL     1      -2.945 -15.907  -6.095  1.00  0.00    -0.070 CG0
ATOM      9  C   UNL     1      -2.981 -17.381  -5.782  1.00  0.00     0.039 C 
ATOM     10  G   UNL     1      -3.690 -14.948  -5.180  1.00  0.00     0.000 G0
ENDBRANCH   6   7
ENDBRANCH   5   6
ENDBRANCH   3   5
ENDBRANCH   1   3
BRANCH   1  11
ATOM     11  C   UNL     1      -5.338 -13.484  -8.004  1.00  0.00     0.087 C 
BRANCH  11  12
ATOM     12  C   UNL     1      -5.283 -13.265  -6.470  1.00  0.00     0.066 C 
BRANCH  12  13
ATOM     13  C   UNL     1      -5.049 -14.583  -5.741  1.00  0.00     0.140 C 
ATOM     14  O   UNL     1      -5.972 -15.382  -5.660  1.00  0.00    -0.299 OA
BRANCH  13  15
ATOM     15  C   UNL     1      -3.696 -14.961  -5.181  1.00  0.00     0.106 CG0
ATOM     16  G   UNL     1      -2.939 -15.911  -6.097  1.00  0.00     0.000 G0
ENDBRANCH  13  15
ENDBRANCH  12  13
BRANCH  12  17
ATOM     17  C   UNL     1      -6.538 -12.517  -5.914  1.00  0.00    -0.006 C 
ATOM     18  C   UNL     1      -6.633 -11.068  -6.426  1.00  0.00     0.008 C 
ATOM     19  C   UNL     1      -6.531 -12.495  -4.374  1.00  0.00     0.008 C 
ENDBRANCH  12  17
ENDBRANCH  11  12
ENDBRANCH   1  11
TORSDOF 1
ENDMDL
MODEL 7
REMARK VINA RESULT:    -2.096      1.921      2.811
REMARK INTER + INTRA:          -2.282
REMARK INTER:                  -3.479
REMARK INTRA:                   1.197
REMARK UNBOUND:                 0.918
REMARK SMILES CC1=CCC[C@H](C)C(=O)C[C@@H](C(C)C)C(=O)C1
REMARK SMILES IDX 8 1 9 2 6 3 7 4 5 5 4 6 3 7 2 8 1 9 10 11 11 12 15 13 16 14
REMARK SMILES IDX 17 15 12 17 13 18 14 19
REMARK H PARENT
REMARK Flexibility Score: 70.00
ROOT
ATOM      1  C   UNL     1      -4.000 -11.902  -6.875  1.00  0.00     0.136 C 
ATOM      2  O   UNL     1      -2.904 -11.362  -6.806  1.00  0.00    -0.299 OA
ENDROOT
BRANCH   1   3
ATOM      3  C   UNL     1      -5.111 -11.245  -7.670  1.00  0.00     0.053 C 
ATOM      4  C   UNL     1      -4.600 -10.812  -9.053  1.00  0.00     0.016 C 
BRANCH   3   5
ATOM      5  C   UNL     1      -6.314 -12.206  -7.800  1.00  0.00     0.015 C 
BRANCH   5   6
ATOM      6  C   UNL     1      -6.281 -13.007  -9.118  1.00  0.00     0.028 C 
BRANCH   6   7
ATOM      7  C   UNL     1      -5.978 -14.461  -8.869  1.00  0.00    -0.028 C 
ATOM      8  C   UNL     1      -4.738 -14.988  -8.741  1.00  0.00    -0.070 CG0
ATOM      9  C   UNL     1      -4.619 -16.479  -8.556  1.00  0.00     0.039 C 
ATOM     10  G   UNL     1      -3.466 -14.154  -8.786  1.00  0.00     0.000 G0
ENDBRANCH   6   7
ENDBRANCH   5   6
ENDBRANCH   3   5
ENDBRANCH   1   3
BRANCH   1  11
ATOM     11  C   UNL     1      -4.219 -13.216  -6.162  1.00  0.00     0.087 C 
BRANCH  11  12
ATOM     12  C   UNL     1      -2.959 -14.119  -6.183  1.00  0.00     0.066 C 
BRANCH  12  13
ATOM     13  C   UNL     1      -2.557 -14.459  -7.614  1.00  0.00     0.140 C 
ATOM     14  O   UNL     1      -1.494 -15.033  -7.806  1.00  0.00    -0.299 OA
BRANCH  13  15
ATOM     15  C   UNL     1      -3.464 -14.175  -8.791  1.00  0.00     0.106 CG0
ATOM     16  G   UNL     1      -4.743 -14.997  -8.743  1.00  0.00     0.000 G0
ENDBRANCH  13  15
ENDBRANCH  12  13
BRANCH  12  17
ATOM     17  C   UNL     1      -3.115 -15.407  -5.311  1.00  0.00    -0.006 C 
ATOM     18  C   UNL     1      -4.552 -15.958  -5.329  1.00  0.00     0.008 C 
ATOM     19  C   UNL     1      -2.709 -15.138  -3.850  1.00  0.00     0.008 C 
ENDBRANCH  12  17
ENDBRANCH  11  12
ENDBRANCH   1  11
TORSDOF 1
ENDMDL
MODEL 8
REMARK VINA RESULT:    -1.895      1.701      3.699
REMARK INTER + INTRA:          -1.975
REMARK INTER:                  -2.033
REMARK INTRA:                   0.058
REMARK UNBOUND:                 0.918
REMARK SMILES CC1=CCC[C@H](C)C(=O)C[C@@H](C(C)C)C(=O)C1
REMARK SMILES IDX 8 1 9 2 6 3 7 4 5 5 4 6 3 7 2 8 1 9 10 11 11 12 15 13 16 14
REMARK SMILES IDX 17 15 12 17 13 18 14 19
REMARK H PARENT
REMARK Flexibility Score: 70.00
ROOT
ATOM      1  C   UNL     1      -5.736 -14.662  -6.204  1.00  0.00     0.136 C 
ATOM      2  O   UNL     1      -6.050 -15.393  -5.274  1.00  0.00    -0.299 OA
ENDROOT
BRANCH   1   3
ATOM      3  C   UNL     1      -6.529 -13.398  -6.466  1.00  0.00     0.053 C 
ATOM      4  C   UNL     1      -6.536 -12.498  -5.221  1.00  0.00     0.016 C 
BRANCH   3   5
ATOM      5  C   UNL     1      -5.950 -12.647  -7.687  1.00  0.00     0.015 C 
BRANCH   5   6
ATOM      6  C   UNL     1      -5.371 -11.270  -7.304  1.00  0.00     0.028 C 
BRANCH   6   7
ATOM      7  C   UNL     1      -4.268 -10.858  -8.243  1.00  0.00    -0.028 C 
ATOM      8  C   UNL     1      -2.967 -11.214  -8.120  1.00  0.00    -0.070 CG0
ATOM      9  C   UNL     1      -1.986 -10.657  -9.119  1.00  0.00     0.039 C 
ATOM     10  G   UNL     1      -2.451 -12.131  -7.022  1.00  0.00     0.000 G0
ENDBRANCH   6   7
ENDBRANCH   5   6
ENDBRANCH   3   5
ENDBRANCH   1   3
BRANCH   1  11
ATOM     11  C   UNL     1      -4.558 -15.042  -7.072  1.00  0.00     0.087 C 
BRANCH  11  12
ATOM     12  C   UNL     1      -3.204 -14.596  -6.463  1.00  0.00     0.066 C 
BRANCH  12  13
ATOM     13  C   UNL     1      -2.508 -13.585  -7.368  1.00  0.00     0.140 C 
ATOM     14  O   UNL     1      -2.052 -13.969  -8.436  1.00  0.00    -0.299 OA
BRANCH  13  15
ATOM     15  C   UNL     1      -2.432 -12.116  -7.019  1.00  0.00     0.106 CG0
ATOM     16  G   UNL     1      -2.953 -11.230  -8.140  1.00  0.00     0.000 G0
ENDBRANCH  13  15
ENDBRANCH  12  13
BRANCH  12  17
ATOM     17  C   UNL     1      -2.264 -15.796  -6.117  1.00  0.00    -0.006 C 
ATOM     18  C   UNL     1      -3.008 -17.145  -6.122  1.00  0.00     0.008 C 
ATOM     19  C   UNL     1      -1.605 -15.603  -4.738  1.00  0.00     0.008 C 
ENDBRANCH  12  17
ENDBRANCH  11  12
ENDBRANCH   1  11
TORSDOF 1
ENDMDL
MODEL 9
REMARK VINA RESULT:    -1.490      2.029      3.011
REMARK INTER + INTRA:          -1.357
REMARK INTER:                  -1.526
REMARK INTRA:                   0.169
REMARK UNBOUND:                 0.918
REMARK SMILES CC1=CCC[C@H](C)C(=O)C[C@@H](C(C)C)C(=O)C1
REMARK SMILES IDX 8 1 9 2 6 3 7 4 5 5 4 6 3 7 2 8 1 9 10 11 11 12 15 13 16 14
REMARK SMILES IDX 17 15 12 17 13 18 14 19
REMARK H PARENT
REMARK Flexibility Score: 70.00
ROOT
ATOM      1  C   UNL     1      -4.806 -13.656  -5.437  1.00  0.00     0.136 C 
ATOM      2  O   UNL     1      -3.903 -13.380  -4.658  1.00  0.00    -0.299 OA
ENDROOT
BRANCH   1   3
ATOM      3  C   UNL     1      -5.723 -12.561  -5.942  1.00  0.00     0.053 C 
ATOM      4  C   UNL     1      -6.386 -11.829  -4.765  1.00  0.00     0.016 C 
BRANCH   3   5
ATOM      5  C   UNL     1      -4.938 -11.575  -6.836  1.00  0.00     0.015 C 
BRANCH   5   6
ATOM      6  C   UNL     1      -5.386 -11.641  -8.310  1.00  0.00     0.028 C 
BRANCH   6   7
ATOM      7  C   UNL     1      -6.391 -12.740  -8.530  1.00  0.00    -0.028 C 
ATOM      8  C   UNL     1      -6.091 -14.011  -8.888  1.00  0.00    -0.070 CG0
ATOM      9  C   UNL     1      -7.232 -14.966  -9.125  1.00  0.00     0.039 C 
ATOM     10  G   UNL     1      -4.667 -14.513  -9.073  1.00  0.00     0.000 G0
ENDBRANCH   6   7
ENDBRANCH   5   6
ENDBRANCH   3   5
ENDBRANCH   1   3
BRANCH   1  11
ATOM     11  C   UNL     1      -4.983 -15.092  -5.878  1.00  0.00     0.087 C 
BRANCH  11  12
ATOM     12  C   UNL     1      -3.837 -15.574  -6.804  1.00  0.00     0.066 C 
BRANCH  12  13
ATOM     13  C   UNL     1      -4.324 -15.716  -8.242  1.00  0.00     0.140 C 
ATOM     14  O   UNL     1      -4.496 -16.839  -8.696  1.00  0.00    -0.299 OA
BRANCH  13  15
ATOM     15  C   UNL     1      -4.670 -14.516  -9.095  1.00  0.00     0.106 CG0
ATOM     16  G   UNL     1      -6.095 -14.037  -8.863  1.00  0.00     0.000 G0
ENDBRANCH  13  15
ENDBRANCH  12  13
BRANCH  12  17
ATOM     17  C   UNL     1      -3.152 -16.884  -6.299  1.00  0.00    -0.006 C 
ATOM     18  C   UNL     1      -4.073 -17.714  -5.385  1.00  0.00     0.008 C 
ATOM     19  C   UNL     1      -1.853 -16.570  -5.534  1.00  0.00     0.008 C 
ENDBRANCH  12  17
ENDBRANCH  11  12
ENDBRANCH   1  11
TORSDOF 1
ENDMDL
