MODEL 1
REMARK VINA RESULT:    -5.189      0.000      0.000
REMARK INTER + INTRA:          -7.528
REMARK INTER:                  -6.402
REMARK INTRA:                  -1.126
REMARK UNBOUND:                -1.126
REMARK SMILES CC(C)=CCC[C@@H](C)c1ccc(C)cc1
REMARK SMILES IDX 6 1 7 2 8 3 9 4 13 5 12 6 11 7 14 8 10 9 15 10 5 11 4 12
REMARK SMILES IDX 2 13 1 14 3 15
REMARK H PARENT
REMARK Flexibility Score: inf
ROOT
ATOM      1  C   UNL     1       9.725  14.953  40.980  1.00  0.00     0.012 C 
ENDROOT
BRANCH   1   2
ATOM      2  C   UNL     1       9.518  13.733  41.905  1.00  0.00     0.016 C 
ATOM      3  C   UNL     1      10.066  13.974  43.321  1.00  0.00     0.013 C 
BRANCH   2   4
ATOM      4  C   UNL     1       8.048  13.356  41.963  1.00  0.00    -0.045 A 
ATOM      5  C   UNL     1       3.875  12.252  42.119  1.00  0.00     0.044 C 
ATOM      6  C   UNL     1       5.319  12.656  42.043  1.00  0.00    -0.051 A 
ATOM      7  C   UNL     1       5.802  13.705  42.837  1.00  0.00     0.004 A 
ATOM      8  C   UNL     1       6.209  11.943  41.226  1.00  0.00     0.004 A 
ATOM      9  C   UNL     1       7.154  14.058  42.794  1.00  0.00     0.004 A 
ATOM     10  C   UNL     1       7.561  12.295  41.183  1.00  0.00     0.004 A 
ENDBRANCH   2   4
ENDBRANCH   1   2
BRANCH   1  11
ATOM     11  C   UNL     1      10.502  14.602  39.702  1.00  0.00     0.028 C 
BRANCH  11  12
ATOM     12  C   UNL     1       9.555  14.337  38.558  1.00  0.00    -0.028 C 
ATOM     13  C   UNL     1       9.314  13.115  38.034  1.00  0.00    -0.080 C 
ATOM     14  C   UNL     1       8.307  12.998  36.917  1.00  0.00     0.039 C 
ATOM     15  C   UNL     1      10.032  11.879  38.521  1.00  0.00     0.039 C 
ENDBRANCH  11  12
ENDBRANCH   1  11
TORSDOF 4
ENDMDL
MODEL 2
REMARK VINA RESULT:    -5.158      1.461      2.931
REMARK INTER + INTRA:          -7.490
REMARK INTER:                  -6.366
REMARK INTRA:                  -1.124
REMARK UNBOUND:                -1.126
REMARK SMILES CC(C)=CCC[C@@H](C)c1ccc(C)cc1
REMARK SMILES IDX 6 1 7 2 8 3 9 4 13 5 12 6 11 7 14 8 10 9 15 10 5 11 4 12
REMARK SMILES IDX 2 13 1 14 3 15
REMARK H PARENT
REMARK Flexibility Score: inf
ROOT
ATOM      1  C   UNL     1       8.746  12.252  37.629  1.00  0.00     0.012 C 
ENDROOT
BRANCH   1   2
ATOM      2  C   UNL     1       9.110  11.675  39.016  1.00  0.00     0.016 C 
ATOM      3  C   UNL     1      10.588  11.900  39.372  1.00  0.00     0.013 C 
BRANCH   2   4
ATOM      4  C   UNL     1       8.212  12.267  40.088  1.00  0.00    -0.045 A 
ATOM      5  C   UNL     1       5.639  13.918  43.140  1.00  0.00     0.044 C 
ATOM      6  C   UNL     1       6.521  13.363  42.059  1.00  0.00    -0.051 A 
ATOM      7  C   UNL     1       7.775  13.936  41.806  1.00  0.00     0.004 A 
ATOM      8  C   UNL     1       6.125  12.226  41.340  1.00  0.00     0.004 A 
ATOM      9  C   UNL     1       8.611  13.398  40.824  1.00  0.00     0.004 A 
ATOM     10  C   UNL     1       6.961  11.687  40.358  1.00  0.00     0.004 A 
ENDBRANCH   2   4
ENDBRANCH   1   2
BRANCH   1  11
ATOM     11  C   UNL     1       9.833  13.183  37.072  1.00  0.00     0.028 C 
BRANCH  11  12
ATOM     12  C   UNL     1       9.292  14.578  36.875  1.00  0.00    -0.028 C 
ATOM     13  C   UNL     1       9.696  15.660  37.575  1.00  0.00    -0.080 C 
ATOM     14  C   UNL     1       9.094  17.000  37.238  1.00  0.00     0.039 C 
ATOM     15  C   UNL     1      10.714  15.560  38.686  1.00  0.00     0.039 C 
ENDBRANCH  11  12
ENDBRANCH   1  11
TORSDOF 4
ENDMDL
MODEL 3
REMARK VINA RESULT:    -4.915      1.509      3.482
REMARK INTER + INTRA:          -7.191
REMARK INTER:                  -6.006
REMARK INTRA:                  -1.185
REMARK UNBOUND:                -1.126
REMARK SMILES CC(C)=CCC[C@@H](C)c1ccc(C)cc1
REMARK SMILES IDX 6 1 7 2 8 3 9 4 13 5 12 6 11 7 14 8 10 9 15 10 5 11 4 12
REMARK SMILES IDX 2 13 1 14 3 15
REMARK H PARENT
REMARK Flexibility Score: inf
ROOT
ATOM      1  C   UNL     1      10.115  11.428  38.643  1.00  0.00     0.012 C 
ENDROOT
BRANCH   1   2
ATOM      2  C   UNL     1       9.268  12.720  38.623  1.00  0.00     0.016 C 
ATOM      3  C   UNL     1       8.492  12.889  37.307  1.00  0.00     0.013 C 
BRANCH   2   4
ATOM      4  C   UNL     1       8.315  12.747  39.805  1.00  0.00    -0.045 A 
ATOM      5  C   UNL     1       5.600  12.790  43.165  1.00  0.00     0.044 C 
ATOM      6  C   UNL     1       6.524  12.793  41.982  1.00  0.00    -0.051 A 
ATOM      7  C   UNL     1       7.520  13.773  41.866  1.00  0.00     0.004 A 
ATOM      8  C   UNL     1       6.442  11.776  41.020  1.00  0.00     0.004 A 
ATOM      9  C   UNL     1       8.404  13.756  40.784  1.00  0.00     0.004 A 
ATOM     10  C   UNL     1       7.326  11.758  39.937  1.00  0.00     0.004 A 
ENDBRANCH   2   4
ENDBRANCH   1   2
BRANCH   1  11
ATOM     11  C   UNL     1      11.284  11.502  39.637  1.00  0.00     0.028 C 
BRANCH  11  12
ATOM     12  C   UNL     1      11.908  12.876  39.623  1.00  0.00    -0.028 C 
ATOM     13  C   UNL     1      12.156  13.613  40.727  1.00  0.00    -0.080 C 
ATOM     14  C   UNL     1      12.825  14.954  40.561  1.00  0.00     0.039 C 
ATOM     15  C   UNL     1      11.768  13.141  42.109  1.00  0.00     0.039 C 
ENDBRANCH  11  12
ENDBRANCH   1  11
TORSDOF 4
ENDMDL
MODEL 4
REMARK VINA RESULT:    -4.892      1.520      3.651
REMARK INTER + INTRA:          -7.162
REMARK INTER:                  -5.985
REMARK INTRA:                  -1.177
REMARK UNBOUND:                -1.126
REMARK SMILES CC(C)=CCC[C@@H](C)c1ccc(C)cc1
REMARK SMILES IDX 6 1 7 2 8 3 9 4 13 5 12 6 11 7 14 8 10 9 15 10 5 11 4 12
REMARK SMILES IDX 2 13 1 14 3 15
REMARK H PARENT
REMARK Flexibility Score: inf
ROOT
ATOM      1  C   UNL     1      10.140  11.484  38.677  1.00  0.00     0.012 C 
ENDROOT
BRANCH   1   2
ATOM      2  C   UNL     1       9.287  12.773  38.673  1.00  0.00     0.016 C 
ATOM      3  C   UNL     1       8.524  12.963  37.352  1.00  0.00     0.013 C 
BRANCH   2   4
ATOM      4  C   UNL     1       8.322  12.772  39.846  1.00  0.00    -0.045 A 
ATOM      5  C   UNL     1       5.585  12.807  43.187  1.00  0.00     0.044 C 
ATOM      6  C   UNL     1       6.554  12.776  42.042  1.00  0.00    -0.051 A 
ATOM      7  C   UNL     1       6.432  11.805  41.038  1.00  0.00     0.004 A 
ATOM      8  C   UNL     1       7.548  13.759  41.932  1.00  0.00     0.004 A 
ATOM      9  C   UNL     1       7.312  11.798  39.953  1.00  0.00     0.004 A 
ATOM     10  C   UNL     1       8.428  13.754  40.846  1.00  0.00     0.004 A 
ENDBRANCH   2   4
ENDBRANCH   1   2
BRANCH   1  11
ATOM     11  C   UNL     1      11.291  11.540  39.693  1.00  0.00     0.028 C 
BRANCH  11  12
ATOM     12  C   UNL     1      11.938  12.903  39.691  1.00  0.00    -0.028 C 
ATOM     13  C   UNL     1      12.197  13.627  40.802  1.00  0.00    -0.080 C 
ATOM     14  C   UNL     1      12.888  14.958  40.647  1.00  0.00     0.039 C 
ATOM     15  C   UNL     1      11.801  13.150  42.179  1.00  0.00     0.039 C 
ENDBRANCH  11  12
ENDBRANCH   1  11
TORSDOF 4
ENDMDL
MODEL 5
REMARK VINA RESULT:    -4.830      1.690      5.764
REMARK INTER + INTRA:          -7.085
REMARK INTER:                  -6.299
REMARK INTRA:                  -0.786
REMARK UNBOUND:                -1.126
REMARK SMILES CC(C)=CCC[C@@H](C)c1ccc(C)cc1
REMARK SMILES IDX 6 1 7 2 8 3 9 4 13 5 12 6 11 7 14 8 10 9 15 10 5 11 4 12
REMARK SMILES IDX 2 13 1 14 3 15
REMARK H PARENT
REMARK Flexibility Score: inf
ROOT
ATOM      1  C   UNL     1       7.455  12.288  39.259  1.00  0.00     0.012 C 
ENDROOT
BRANCH   1   2
ATOM      2  C   UNL     1       8.710  11.890  38.448  1.00  0.00     0.016 C 
ATOM      3  C   UNL     1       8.727  12.527  37.049  1.00  0.00     0.013 C 
BRANCH   2   4
ATOM      4  C   UNL     1       9.971  12.255  39.211  1.00  0.00    -0.045 A 
ATOM      5  C   UNL     1      13.576  13.266  41.365  1.00  0.00     0.044 C 
ATOM      6  C   UNL     1      12.310  12.907  40.643  1.00  0.00    -0.051 A 
ATOM      7  C   UNL     1      11.315  13.872  40.438  1.00  0.00     0.004 A 
ATOM      8  C   UNL     1      12.143  11.621  40.109  1.00  0.00     0.004 A 
ATOM      9  C   UNL     1      10.152  13.549  39.735  1.00  0.00     0.004 A 
ATOM     10  C   UNL     1      10.980  11.296  39.404  1.00  0.00     0.004 A 
ENDBRANCH   2   4
ENDBRANCH   1   2
BRANCH   1  11
ATOM     11  C   UNL     1       7.326  11.502  40.572  1.00  0.00     0.028 C 
BRANCH  11  12
ATOM     12  C   UNL     1       7.216  12.442  41.747  1.00  0.00    -0.028 C 
ATOM     13  C   UNL     1       6.054  12.789  42.342  1.00  0.00    -0.080 C 
ATOM     14  C   UNL     1       6.104  13.708  43.536  1.00  0.00     0.039 C 
ATOM     15  C   UNL     1       4.718  12.299  41.836  1.00  0.00     0.039 C 
ENDBRANCH  11  12
ENDBRANCH   1  11
TORSDOF 4
ENDMDL
MODEL 6
REMARK VINA RESULT:    -4.820      2.011      6.208
REMARK INTER + INTRA:          -7.074
REMARK INTER:                  -6.375
REMARK INTRA:                  -0.699
REMARK UNBOUND:                -1.126
REMARK SMILES CC(C)=CCC[C@@H](C)c1ccc(C)cc1
REMARK SMILES IDX 6 1 7 2 8 3 9 4 13 5 12 6 11 7 14 8 10 9 15 10 5 11 4 12
REMARK SMILES IDX 2 13 1 14 3 15
REMARK H PARENT
REMARK Flexibility Score: inf
ROOT
ATOM      1  C   UNL     1       8.110  11.744  39.612  1.00  0.00     0.012 C 
ENDROOT
BRANCH   1   2
ATOM      2  C   UNL     1       8.924  11.844  38.301  1.00  0.00     0.016 C 
ATOM      3  C   UNL     1       8.329  12.869  37.322  1.00  0.00     0.013 C 
BRANCH   2   4
ATOM      4  C   UNL     1      10.374  12.180  38.603  1.00  0.00    -0.045 A 
ATOM      5  C   UNL     1      14.493  13.169  39.449  1.00  0.00     0.044 C 
ATOM      6  C   UNL     1      13.071  12.805  39.134  1.00  0.00    -0.051 A 
ATOM      7  C   UNL     1      12.432  11.776  39.839  1.00  0.00     0.004 A 
ATOM      8  C   UNL     1      12.350  13.537  38.180  1.00  0.00     0.004 A 
ATOM      9  C   UNL     1      11.097  11.460  39.572  1.00  0.00     0.004 A 
ATOM     10  C   UNL     1      11.014  13.223  37.912  1.00  0.00     0.004 A 
ENDBRANCH   2   4
ENDBRANCH   1   2
BRANCH   1  11
ATOM     11  C   UNL     1       7.940  13.102  40.308  1.00  0.00     0.028 C 
BRANCH  11  12
ATOM     12  C   UNL     1       7.912  12.932  41.807  1.00  0.00    -0.028 C 
ATOM     13  C   UNL     1       6.800  12.661  42.524  1.00  0.00    -0.080 C 
ATOM     14  C   UNL     1       6.932  12.477  44.015  1.00  0.00     0.039 C 
ATOM     15  C   UNL     1       5.438  12.555  41.880  1.00  0.00     0.039 C 
ENDBRANCH  11  12
ENDBRANCH   1  11
TORSDOF 4
ENDMDL
MODEL 7
REMARK VINA RESULT:    -4.777      1.458      5.326
REMARK INTER + INTRA:          -7.020
REMARK INTER:                  -5.567
REMARK INTRA:                  -1.453
REMARK UNBOUND:                -1.126
REMARK SMILES CC(C)=CCC[C@@H](C)c1ccc(C)cc1
REMARK SMILES IDX 6 1 7 2 8 3 9 4 13 5 12 6 11 7 14 8 10 9 15 10 5 11 4 12
REMARK SMILES IDX 2 13 1 14 3 15
REMARK H PARENT
REMARK Flexibility Score: inf
ROOT
ATOM      1  C   UNL     1       7.295  11.834  39.479  1.00  0.00     0.012 C 
ENDROOT
BRANCH   1   2
ATOM      2  C   UNL     1       8.760  11.891  38.990  1.00  0.00     0.016 C 
ATOM      3  C   UNL     1       8.863  12.217  37.491  1.00  0.00     0.013 C 
BRANCH   2   4
ATOM      4  C   UNL     1       9.552  12.898  39.806  1.00  0.00    -0.045 A 
ATOM      5  C   UNL     1      11.775  15.785  42.126  1.00  0.00     0.044 C 
ATOM      6  C   UNL     1      11.022  14.786  41.297  1.00  0.00    -0.051 A 
ATOM      7  C   UNL     1      11.380  13.431  41.323  1.00  0.00     0.004 A 
ATOM      8  C   UNL     1       9.911  15.191  40.542  1.00  0.00     0.004 A 
ATOM      9  C   UNL     1      10.657  12.495  40.579  1.00  0.00     0.004 A 
ATOM     10  C   UNL     1       9.186  14.255  39.798  1.00  0.00     0.004 A 
ENDBRANCH   2   4
ENDBRANCH   1   2
BRANCH   1  11
ATOM     11  C   UNL     1       7.185  11.527  40.980  1.00  0.00     0.028 C 
BRANCH  11  12
ATOM     12  C   UNL     1       6.285  12.528  41.663  1.00  0.00    -0.028 C 
ATOM     13  C   UNL     1       6.674  13.346  42.665  1.00  0.00    -0.080 C 
ATOM     14  C   UNL     1       5.674  14.326  43.223  1.00  0.00     0.039 C 
ATOM     15  C   UNL     1       8.068  13.293  43.245  1.00  0.00     0.039 C 
ENDBRANCH  11  12
ENDBRANCH   1  11
TORSDOF 4
ENDMDL
MODEL 8
REMARK VINA RESULT:    -4.724      1.455      3.821
REMARK INTER + INTRA:          -6.955
REMARK INTER:                  -5.896
REMARK INTRA:                  -1.059
REMARK UNBOUND:                -1.126
REMARK SMILES CC(C)=CCC[C@@H](C)c1ccc(C)cc1
REMARK SMILES IDX 6 1 7 2 8 3 9 4 13 5 12 6 11 7 14 8 10 9 15 10 5 11 4 12
REMARK SMILES IDX 2 13 1 14 3 15
REMARK H PARENT
REMARK Flexibility Score: inf
ROOT
ATOM      1  C   UNL     1       7.221  11.494  40.581  1.00  0.00     0.012 C 
ENDROOT
BRANCH   1   2
ATOM      2  C   UNL     1       6.738  12.717  41.393  1.00  0.00     0.016 C 
ATOM      3  C   UNL     1       5.285  12.563  41.872  1.00  0.00     0.013 C 
BRANCH   2   4
ATOM      4  C   UNL     1       7.660  12.968  42.573  1.00  0.00    -0.045 A 
ATOM      5  C   UNL     1      10.303  13.702  45.910  1.00  0.00     0.044 C 
ATOM      6  C   UNL     1       9.394  13.418  44.750  1.00  0.00    -0.051 A 
ATOM      7  C   UNL     1       8.079  12.985  44.972  1.00  0.00     0.004 A 
ATOM      8  C   UNL     1       9.831  13.647  43.438  1.00  0.00     0.004 A 
ATOM      9  C   UNL     1       7.221  12.755  43.894  1.00  0.00     0.004 A 
ATOM     10  C   UNL     1       8.973  13.418  42.358  1.00  0.00     0.004 A 
ENDBRANCH   2   4
ENDBRANCH   1   2
BRANCH   1  11
ATOM     11  C   UNL     1       7.587  11.853  39.134  1.00  0.00     0.028 C 
BRANCH  11  12
ATOM     12  C   UNL     1       9.082  11.812  38.936  1.00  0.00    -0.028 C 
ATOM     13  C   UNL     1       9.864  12.904  38.794  1.00  0.00    -0.080 C 
ATOM     14  C   UNL     1      11.352  12.709  38.646  1.00  0.00     0.039 C 
ATOM     15  C   UNL     1       9.291  14.301  38.765  1.00  0.00     0.039 C 
ENDBRANCH  11  12
ENDBRANCH   1  11
TORSDOF 4
ENDMDL
MODEL 9
REMARK VINA RESULT:    -4.489      1.314      4.098
REMARK INTER + INTRA:          -6.665
REMARK INTER:                  -5.586
REMARK INTRA:                  -1.079
REMARK UNBOUND:                -1.126
REMARK SMILES CC(C)=CCC[C@@H](C)c1ccc(C)cc1
REMARK SMILES IDX 6 1 7 2 8 3 9 4 13 5 12 6 11 7 14 8 10 9 15 10 5 11 4 12
REMARK SMILES IDX 2 13 1 14 3 15
REMARK H PARENT
REMARK Flexibility Score: inf
ROOT
ATOM      1  C   UNL     1       7.376  11.826  41.306  1.00  0.00     0.012 C 
ENDROOT
BRANCH   1   2
ATOM      2  C   UNL     1       7.019  13.305  41.575  1.00  0.00     0.016 C 
ATOM      3  C   UNL     1       5.734  13.455  42.405  1.00  0.00     0.013 C 
BRANCH   2   4
ATOM      4  C   UNL     1       8.176  14.012  42.259  1.00  0.00    -0.045 A 
ATOM      5  C   UNL     1      11.444  16.040  44.226  1.00  0.00     0.044 C 
ATOM      6  C   UNL     1      10.314  15.351  43.517  1.00  0.00    -0.051 A 
ATOM      7  C   UNL     1      10.543  14.163  42.810  1.00  0.00     0.004 A 
ATOM      8  C   UNL     1       9.009  15.855  43.613  1.00  0.00     0.004 A 
ATOM      9  C   UNL     1       9.485  13.502  42.180  1.00  0.00     0.004 A 
ATOM     10  C   UNL     1       7.950  15.195  42.984  1.00  0.00     0.004 A 
ENDBRANCH   2   4
ENDBRANCH   1   2
BRANCH   1  11
ATOM     11  C   UNL     1       7.293  11.459  39.817  1.00  0.00     0.028 C 
BRANCH  11  12
ATOM     12  C   UNL     1       7.861  12.565  38.963  1.00  0.00    -0.028 C 
ATOM     13  C   UNL     1       9.123  12.587  38.482  1.00  0.00    -0.080 C 
ATOM     14  C   UNL     1       9.538  13.741  37.605  1.00  0.00     0.039 C 
ATOM     15  C   UNL     1      10.124  11.504  38.811  1.00  0.00     0.039 C 
ENDBRANCH  11  12
ENDBRANCH   1  11
TORSDOF 4
ENDMDL
