MODEL 1
REMARK VINA RESULT:    -3.463      0.000      0.000
REMARK INTER + INTRA:          -5.265
REMARK INTER:                  -4.780
REMARK INTRA:                  -0.485
REMARK UNBOUND:                -0.485
REMARK SMILES OC[C@@H](O)C(O)[C@H](O)CO
REMARK SMILES IDX 5 1 7 2 9 3 10 4 8 6 3 8 2 9 1 10 4 12 6 14
REMARK H PARENT 10 5 8 7 1 11 4 13 6 15
REMARK Flexibility Score: inf
ROOT
ATOM      1  C   UNL     1     144.821 143.120 117.329  1.00  0.00     0.176 C 
ENDROOT
BRANCH   1   2
ATOM      2  C   UNL     1     144.103 144.072 116.332  1.00  0.00     0.171 C 
BRANCH   2   3
ATOM      3  C   UNL     1     142.699 144.496 116.811  1.00  0.00     0.190 C 
BRANCH   3   4
ATOM      4  O   UNL     1     142.710 145.836 117.228  1.00  0.00    -0.394 OA
ATOM      5  H   UNL     1     141.828 146.220 116.984  1.00  0.00     0.210 HD
ENDBRANCH   3   4
ENDBRANCH   2   3
BRANCH   2   6
ATOM      6  O   UNL     1     144.895 145.214 116.105  1.00  0.00    -0.388 OA
ATOM      7  H   UNL     1     144.330 145.882 115.634  1.00  0.00     0.211 HD
ENDBRANCH   2   6
ENDBRANCH   1   2
BRANCH   1   8
ATOM      8  C   UNL     1     146.373 143.161 117.273  1.00  0.00     0.171 C 
BRANCH   8   9
ATOM      9  C   UNL     1     147.050 142.486 118.479  1.00  0.00     0.190 C 
BRANCH   9  10
ATOM     10  O   UNL     1     147.125 143.371 119.562  1.00  0.00    -0.394 OA
ATOM     11  H   UNL     1     146.361 143.998 119.459  1.00  0.00     0.210 HD
ENDBRANCH   9  10
ENDBRANCH   8   9
BRANCH   8  12
ATOM     12  O   UNL     1     146.804 142.507 116.105  1.00  0.00    -0.388 OA
ATOM     13  H   UNL     1     147.001 141.566 116.355  1.00  0.00     0.211 HD
ENDBRANCH   8  12
ENDBRANCH   1   8
BRANCH   1  14
ATOM     14  O   UNL     1     144.403 143.410 118.640  1.00  0.00    -0.388 OA
ATOM     15  H   UNL     1     143.412 143.450 118.633  1.00  0.00     0.211 HD
ENDBRANCH   1  14
TORSDOF 9
ENDMDL
MODEL 2
REMARK VINA RESULT:    -3.461     14.269     16.191
REMARK INTER + INTRA:          -5.262
REMARK INTER:                  -4.507
REMARK INTRA:                  -0.755
REMARK UNBOUND:                -0.485
REMARK SMILES OC[C@@H](O)C(O)[C@H](O)CO
REMARK SMILES IDX 5 1 7 2 9 3 10 4 8 6 3 8 2 9 1 10 4 12 6 14
REMARK H PARENT 10 5 8 7 1 11 4 13 6 15
REMARK Flexibility Score: inf
ROOT
ATOM      1  C   UNL     1     128.831 143.678 118.063  1.00  0.00     0.176 C 
ENDROOT
BRANCH   1   2
ATOM      2  C   UNL     1     130.364 143.491 117.882  1.00  0.00     0.171 C 
BRANCH   2   3
ATOM      3  C   UNL     1     130.933 144.298 116.698  1.00  0.00     0.190 C 
BRANCH   3   4
ATOM      4  O   UNL     1     131.089 145.646 117.055  1.00  0.00    -0.394 OA
ATOM      5  H   UNL     1     132.060 145.794 117.198  1.00  0.00     0.210 HD
ENDBRANCH   3   4
ENDBRANCH   2   3
BRANCH   2   6
ATOM      6  O   UNL     1     131.033 143.849 119.069  1.00  0.00    -0.388 OA
ATOM      7  H   UNL     1     131.321 143.009 119.515  1.00  0.00     0.211 HD
ENDBRANCH   2   6
ENDBRANCH   1   2
BRANCH   1   8
ATOM      8  C   UNL     1     128.214 142.911 119.264  1.00  0.00     0.171 C 
BRANCH   8   9
ATOM      9  C   UNL     1     127.783 143.827 120.424  1.00  0.00     0.190 C 
BRANCH   9  10
ATOM     10  O   UNL     1     128.902 144.397 121.043  1.00  0.00    -0.394 OA
ATOM     11  H   UNL     1     129.616 143.708 121.011  1.00  0.00     0.210 HD
ENDBRANCH   9  10
ENDBRANCH   8   9
BRANCH   8  12
ATOM     12  O   UNL     1     127.082 142.205 118.820  1.00  0.00    -0.388 OA
ATOM     13  H   UNL     1     127.374 141.636 118.060  1.00  0.00     0.211 HD
ENDBRANCH   8  12
ENDBRANCH   1   8
BRANCH   1  14
ATOM     14  O   UNL     1     128.537 145.047 118.196  1.00  0.00    -0.388 OA
ATOM     15  H   UNL     1     128.083 145.168 119.069  1.00  0.00     0.211 HD
ENDBRANCH   1  14
TORSDOF 9
ENDMDL
MODEL 3
REMARK VINA RESULT:    -3.386     16.379     17.522
REMARK INTER + INTRA:          -5.157
REMARK INTER:                  -4.496
REMARK INTRA:                  -0.662
REMARK UNBOUND:                -0.485
REMARK SMILES OC[C@@H](O)C(O)[C@H](O)CO
REMARK SMILES IDX 5 1 7 2 9 3 10 4 8 6 3 8 2 9 1 10 4 12 6 14
REMARK H PARENT 10 5 8 7 1 11 4 13 6 15
REMARK Flexibility Score: inf
ROOT
ATOM      1  C   UNL     1     128.200 143.144 119.654  1.00  0.00     0.176 C 
ENDROOT
BRANCH   1   2
ATOM      2  C   UNL     1     129.046 143.505 118.401  1.00  0.00     0.171 C 
BRANCH   2   3
ATOM      3  C   UNL     1     128.832 142.527 117.228  1.00  0.00     0.190 C 
BRANCH   3   4
ATOM      4  O   UNL     1     127.772 142.961 116.418  1.00  0.00    -0.394 OA
ATOM      5  H   UNL     1     127.891 142.529 115.533  1.00  0.00     0.210 HD
ENDBRANCH   3   4
ENDBRANCH   2   3
BRANCH   2   6
ATOM      6  O   UNL     1     128.754 144.818 117.987  1.00  0.00    -0.388 OA
ATOM      7  H   UNL     1     129.617 145.275 117.809  1.00  0.00     0.211 HD
ENDBRANCH   2   6
ENDBRANCH   1   2
BRANCH   1   8
ATOM      8  C   UNL     1     128.187 144.223 120.771  1.00  0.00     0.171 C 
BRANCH   8   9
ATOM      9  C   UNL     1     126.905 145.075 120.789  1.00  0.00     0.190 C 
BRANCH   9  10
ATOM     10  O   UNL     1     126.875 145.944 119.691  1.00  0.00    -0.394 OA
ATOM     11  H   UNL     1     127.449 145.529 118.995  1.00  0.00     0.210 HD
ENDBRANCH   9  10
ENDBRANCH   8   9
BRANCH   8  12
ATOM     12  O   UNL     1     128.309 143.588 122.019  1.00  0.00    -0.388 OA
ATOM     13  H   UNL     1     127.639 142.856 122.039  1.00  0.00     0.211 HD
ENDBRANCH   8  12
ENDBRANCH   1   8
BRANCH   1  14
ATOM     14  O   UNL     1     126.875 142.874 119.264  1.00  0.00    -0.388 OA
ATOM     15  H   UNL     1     126.886 142.032 118.741  1.00  0.00     0.211 HD
ENDBRANCH   1  14
TORSDOF 9
ENDMDL
MODEL 4
REMARK VINA RESULT:    -3.385     12.063     13.287
REMARK INTER + INTRA:          -5.156
REMARK INTER:                  -4.716
REMARK INTRA:                  -0.440
REMARK UNBOUND:                -0.485
REMARK SMILES OC[C@@H](O)C(O)[C@H](O)CO
REMARK SMILES IDX 5 1 7 2 9 3 10 4 8 6 3 8 2 9 1 10 4 12 6 14
REMARK H PARENT 10 5 8 7 1 11 4 13 6 15
REMARK Flexibility Score: inf
ROOT
ATOM      1  C   UNL     1     144.854 131.176 117.904  1.00  0.00     0.176 C 
ENDROOT
BRANCH   1   2
ATOM      2  C   UNL     1     145.596 131.386 116.554  1.00  0.00     0.171 C 
BRANCH   2   3
ATOM      3  C   UNL     1     145.780 132.875 116.195  1.00  0.00     0.190 C 
BRANCH   3   4
ATOM      4  O   UNL     1     146.843 133.425 116.926  1.00  0.00    -0.394 OA
ATOM      5  H   UNL     1     146.444 134.042 117.593  1.00  0.00     0.210 HD
ENDBRANCH   3   4
ENDBRANCH   2   3
BRANCH   2   6
ATOM      6  O   UNL     1     146.849 130.745 116.591  1.00  0.00    -0.388 OA
ATOM      7  H   UNL     1     147.086 130.605 117.545  1.00  0.00     0.211 HD
ENDBRANCH   2   6
ENDBRANCH   1   2
BRANCH   1   8
ATOM      8  C   UNL     1     144.966 129.745 118.498  1.00  0.00     0.171 C 
BRANCH   8   9
ATOM      9  C   UNL     1     144.860 128.630 117.442  1.00  0.00     0.190 C 
BRANCH   9  10
ATOM     10  O   UNL     1     146.079 127.950 117.319  1.00  0.00    -0.394 OA
ATOM     11  H   UNL     1     146.540 128.349 116.536  1.00  0.00     0.210 HD
ENDBRANCH   9  10
ENDBRANCH   8   9
BRANCH   8  12
ATOM     12  O   UNL     1     146.207 129.617 119.146  1.00  0.00    -0.388 OA
ATOM     13  H   UNL     1     146.043 129.127 119.994  1.00  0.00     0.211 HD
ENDBRANCH   8  12
ENDBRANCH   1   8
BRANCH   1  14
ATOM     14  O   UNL     1     145.329 132.102 118.850  1.00  0.00    -0.388 OA
ATOM     15  H   UNL     1     146.307 132.192 118.710  1.00  0.00     0.211 HD
ENDBRANCH   1  14
TORSDOF 9
ENDMDL
MODEL 5
REMARK VINA RESULT:    -3.368      1.127      4.227
REMARK INTER + INTRA:          -5.133
REMARK INTER:                  -4.606
REMARK INTRA:                  -0.527
REMARK UNBOUND:                -0.485
REMARK SMILES OC[C@@H](O)C(O)[C@H](O)CO
REMARK SMILES IDX 5 1 7 2 9 3 10 4 8 6 3 8 2 9 1 10 4 12 6 14
REMARK H PARENT 10 5 8 7 1 11 4 13 6 15
REMARK Flexibility Score: inf
ROOT
ATOM      1  C   UNL     1     144.390 144.158 116.163  1.00  0.00     0.176 C 
ENDROOT
BRANCH   1   2
ATOM      2  C   UNL     1     144.582 143.152 117.332  1.00  0.00     0.171 C 
BRANCH   2   3
ATOM      3  C   UNL     1     146.065 142.826 117.607  1.00  0.00     0.190 C 
BRANCH   3   4
ATOM      4  O   UNL     1     146.521 143.537 118.727  1.00  0.00    -0.394 OA
ATOM      5  H   UNL     1     146.314 142.983 119.524  1.00  0.00     0.210 HD
ENDBRANCH   3   4
ENDBRANCH   2   3
BRANCH   2   6
ATOM      6  O   UNL     1     143.979 143.655 118.501  1.00  0.00    -0.388 OA
ATOM      7  H   UNL     1     144.157 143.007 119.233  1.00  0.00     0.211 HD
ENDBRANCH   2   6
ENDBRANCH   1   2
BRANCH   1   8
ATOM      8  C   UNL     1     142.959 144.748 116.034  1.00  0.00     0.171 C 
BRANCH   8   9
ATOM      9  C   UNL     1     141.851 143.679 116.020  1.00  0.00     0.190 C 
BRANCH   9  10
ATOM     10  O   UNL     1     141.161 143.669 117.239  1.00  0.00    -0.394 OA
ATOM     11  H   UNL     1     141.367 142.797 117.666  1.00  0.00     0.210 HD
ENDBRANCH   9  10
ENDBRANCH   8   9
BRANCH   8  12
ATOM     12  O   UNL     1     142.722 145.609 117.119  1.00  0.00    -0.388 OA
ATOM     13  H   UNL     1     141.942 146.174 116.877  1.00  0.00     0.211 HD
ENDBRANCH   8  12
ENDBRANCH   1   8
BRANCH   1  14
ATOM     14  O   UNL     1     145.309 145.214 116.296  1.00  0.00    -0.388 OA
ATOM     15  H   UNL     1     146.088 144.866 116.801  1.00  0.00     0.211 HD
ENDBRANCH   1  14
TORSDOF 9
ENDMDL
MODEL 6
REMARK VINA RESULT:    -3.348     14.277     16.302
REMARK INTER + INTRA:          -5.106
REMARK INTER:                  -4.400
REMARK INTRA:                  -0.706
REMARK UNBOUND:                -0.485
REMARK SMILES OC[C@@H](O)C(O)[C@H](O)CO
REMARK SMILES IDX 5 1 7 2 9 3 10 4 8 6 3 8 2 9 1 10 4 12 6 14
REMARK H PARENT 10 5 8 7 1 11 4 13 6 15
REMARK Flexibility Score: inf
ROOT
ATOM      1  C   UNL     1     129.266 143.771 117.883  1.00  0.00     0.176 C 
ENDROOT
BRANCH   1   2
ATOM      2  C   UNL     1     128.470 142.515 118.337  1.00  0.00     0.171 C 
BRANCH   2   3
ATOM      3  C   UNL     1     128.005 142.598 119.806  1.00  0.00     0.190 C 
BRANCH   3   4
ATOM      4  O   UNL     1     126.875 143.422 119.914  1.00  0.00    -0.394 OA
ATOM      5  H   UNL     1     126.212 143.090 119.253  1.00  0.00     0.210 HD
ENDBRANCH   3   4
ENDBRANCH   2   3
BRANCH   2   6
ATOM      6  O   UNL     1     127.360 142.321 117.494  1.00  0.00    -0.388 OA
ATOM      7  H   UNL     1     126.790 141.618 117.906  1.00  0.00     0.211 HD
ENDBRANCH   2   6
ENDBRANCH   1   2
BRANCH   1   8
ATOM      8  C   UNL     1     129.713 143.762 116.395  1.00  0.00     0.171 C 
BRANCH   8   9
ATOM      9  C   UNL     1     131.025 144.526 116.142  1.00  0.00     0.190 C 
BRANCH   9  10
ATOM     10  O   UNL     1     131.132 145.621 117.010  1.00  0.00    -0.394 OA
ATOM     11  H   UNL     1     132.031 145.555 117.428  1.00  0.00     0.210 HD
ENDBRANCH   9  10
ENDBRANCH   8   9
BRANCH   8  12
ATOM     12  O   UNL     1     129.896 142.430 115.984  1.00  0.00    -0.388 OA
ATOM     13  H   UNL     1     129.018 141.975 116.072  1.00  0.00     0.211 HD
ENDBRANCH   8  12
ENDBRANCH   1   8
BRANCH   1  14
ATOM     14  O   UNL     1     128.498 144.925 118.121  1.00  0.00    -0.388 OA
ATOM     15  H   UNL     1     129.130 145.675 118.269  1.00  0.00     0.211 HD
ENDBRANCH   1  14
TORSDOF 9
ENDMDL
MODEL 7
REMARK VINA RESULT:    -3.293     12.536     13.692
REMARK INTER + INTRA:          -5.030
REMARK INTER:                  -4.121
REMARK INTRA:                  -0.909
REMARK UNBOUND:                -0.485
REMARK SMILES OC[C@@H](O)C(O)[C@H](O)CO
REMARK SMILES IDX 5 1 7 2 9 3 10 4 8 6 3 8 2 9 1 10 4 12 6 14
REMARK H PARENT 10 5 8 7 1 11 4 13 6 15
REMARK Flexibility Score: inf
ROOT
ATOM      1  C   UNL     1     144.972 130.636 115.521  1.00  0.00     0.176 C 
ENDROOT
BRANCH   1   2
ATOM      2  C   UNL     1     145.745 131.859 116.090  1.00  0.00     0.171 C 
BRANCH   2   3
ATOM      3  C   UNL     1     145.257 132.280 117.491  1.00  0.00     0.190 C 
BRANCH   3   4
ATOM      4  O   UNL     1     145.646 131.333 118.449  1.00  0.00    -0.394 OA
ATOM      5  H   UNL     1     146.314 130.742 118.014  1.00  0.00     0.210 HD
ENDBRANCH   3   4
ENDBRANCH   2   3
BRANCH   2   6
ATOM      6  O   UNL     1     147.124 131.577 116.130  1.00  0.00    -0.388 OA
ATOM      7  H   UNL     1     147.542 132.218 116.764  1.00  0.00     0.211 HD
ENDBRANCH   2   6
ENDBRANCH   1   2
BRANCH   1   8
ATOM      8  C   UNL     1     145.847 129.387 115.222  1.00  0.00     0.171 C 
BRANCH   8   9
ATOM      9  C   UNL     1     145.650 128.242 116.231  1.00  0.00     0.190 C 
BRANCH   9  10
ATOM     10  O   UNL     1     146.096 128.624 117.503  1.00  0.00    -0.394 OA
ATOM     11  H   UNL     1     145.472 128.205 118.152  1.00  0.00     0.210 HD
ENDBRANCH   9  10
ENDBRANCH   8   9
BRANCH   8  12
ATOM     12  O   UNL     1     145.526 128.903 113.942  1.00  0.00    -0.388 OA
ATOM     13  H   UNL     1     144.769 129.450 113.606  1.00  0.00     0.211 HD
ENDBRANCH   8  12
ENDBRANCH   1   8
BRANCH   1  14
ATOM     14  O   UNL     1     143.947 130.272 116.413  1.00  0.00    -0.388 OA
ATOM     15  H   UNL     1     144.072 130.805 117.241  1.00  0.00     0.211 HD
ENDBRANCH   1  14
TORSDOF 9
ENDMDL
MODEL 8
REMARK VINA RESULT:    -3.246     19.904     21.155
REMARK INTER + INTRA:          -4.964
REMARK INTER:                  -4.297
REMARK INTRA:                  -0.668
REMARK UNBOUND:                -0.485
REMARK SMILES OC[C@@H](O)C(O)[C@H](O)CO
REMARK SMILES IDX 5 1 7 2 9 3 10 4 8 6 3 8 2 9 1 10 4 12 6 14
REMARK H PARENT 10 5 8 7 1 11 4 13 6 15
REMARK Flexibility Score: inf
ROOT
ATOM      1  C   UNL     1     128.204 131.774 117.664  1.00  0.00     0.176 C 
ENDROOT
BRANCH   1   2
ATOM      2  C   UNL     1     129.149 130.598 118.040  1.00  0.00     0.171 C 
BRANCH   2   3
ATOM      3  C   UNL     1     128.995 130.150 119.508  1.00  0.00     0.190 C 
BRANCH   3   4
ATOM      4  O   UNL     1     127.999 129.169 119.617  1.00  0.00    -0.394 OA
ATOM      5  H   UNL     1     128.057 128.608 118.800  1.00  0.00     0.210 HD
ENDBRANCH   3   4
ENDBRANCH   2   3
BRANCH   2   6
ATOM      6  O   UNL     1     128.921 129.506 117.182  1.00  0.00    -0.388 OA
ATOM      7  H   UNL     1     128.887 128.686 117.742  1.00  0.00     0.211 HD
ENDBRANCH   2   6
ENDBRANCH   1   2
BRANCH   1   8
ATOM      8  C   UNL     1     128.280 132.226 116.179  1.00  0.00     0.171 C 
BRANCH   8   9
ATOM      9  C   UNL     1     127.742 133.649 115.941  1.00  0.00     0.190 C 
BRANCH   9  10
ATOM     10  O   UNL     1     126.958 134.066 117.024  1.00  0.00    -0.394 OA
ATOM     11  H   UNL     1     127.510 134.720 117.529  1.00  0.00     0.210 HD
ENDBRANCH   9  10
ENDBRANCH   8   9
BRANCH   8  12
ATOM     12  O   UNL     1     129.621 132.188 115.760  1.00  0.00    -0.388 OA
ATOM     13  H   UNL     1     129.614 132.066 114.774  1.00  0.00     0.211 HD
ENDBRANCH   8  12
ENDBRANCH   1   8
BRANCH   1  14
ATOM     14  O   UNL     1     126.876 131.425 117.968  1.00  0.00    -0.388 OA
ATOM     15  H   UNL     1     126.794 131.406 118.956  1.00  0.00     0.211 HD
ENDBRANCH   1  14
TORSDOF 9
ENDMDL
MODEL 9
REMARK VINA RESULT:    -3.234     20.388     21.371
REMARK INTER + INTRA:          -4.948
REMARK INTER:                  -4.392
REMARK INTRA:                  -0.557
REMARK UNBOUND:                -0.485
REMARK SMILES OC[C@@H](O)C(O)[C@H](O)CO
REMARK SMILES IDX 5 1 7 2 9 3 10 4 8 6 3 8 2 9 1 10 4 12 6 14
REMARK H PARENT 10 5 8 7 1 11 4 13 6 15
REMARK Flexibility Score: inf
ROOT
ATOM      1  C   UNL     1     129.080 130.711 117.351  1.00  0.00     0.176 C 
ENDROOT
BRANCH   1   2
ATOM      2  C   UNL     1     128.897 130.667 115.808  1.00  0.00     0.171 C 
BRANCH   2   3
ATOM      3  C   UNL     1     129.935 129.769 115.105  1.00  0.00     0.190 C 
BRANCH   3   4
ATOM      4  O   UNL     1     129.492 128.438 115.079  1.00  0.00    -0.394 OA
ATOM      5  H   UNL     1     129.849 128.001 115.895  1.00  0.00     0.210 HD
ENDBRANCH   3   4
ENDBRANCH   2   3
BRANCH   2   6
ATOM      6  O   UNL     1     127.596 130.229 115.492  1.00  0.00    -0.388 OA
ATOM      7  H   UNL     1     127.278 129.666 116.246  1.00  0.00     0.211 HD
ENDBRANCH   2   6
ENDBRANCH   1   2
BRANCH   1   8
ATOM      8  C   UNL     1     128.223 131.780 118.083  1.00  0.00     0.171 C 
BRANCH   8   9
ATOM      9  C   UNL     1     128.326 133.184 117.460  1.00  0.00     0.190 C 
BRANCH   9  10
ATOM     10  O   UNL     1     127.074 133.612 117.000  1.00  0.00    -0.394 OA
ATOM     11  H   UNL     1     126.613 134.009 117.785  1.00  0.00     0.210 HD
ENDBRANCH   9  10
ENDBRANCH   8   9
BRANCH   8  12
ATOM     12  O   UNL     1     126.875 131.384 118.049  1.00  0.00    -0.388 OA
ATOM     13  H   UNL     1     126.758 130.821 117.240  1.00  0.00     0.211 HD
ENDBRANCH   8  12
ENDBRANCH   1   8
BRANCH   1  14
ATOM     14  O   UNL     1     128.794 129.446 117.894  1.00  0.00    -0.388 OA
ATOM     15  H   UNL     1     129.184 129.421 118.806  1.00  0.00     0.211 HD
ENDBRANCH   1  14
TORSDOF 9
ENDMDL
