MODEL 1
REMARK VINA RESULT:    -3.213      0.000      0.000
REMARK INTER + INTRA:          -7.033
REMARK INTER:                  -5.654
REMARK INTRA:                  -1.379
REMARK UNBOUND:                -1.379
REMARK SMILES CCCCCCCCCCCCCCC(=O)[O-]
REMARK SMILES IDX 9 1 10 2 11 3 12 4 13 5 14 6 15 7 16 8 17 9 8 10 7 11 6 12
REMARK SMILES IDX 5 13 4 14 3 15 2 16 1 17
REMARK H PARENT
REMARK Flexibility Score: inf
ROOT
ATOM      1  C   UNL     1     -21.436   0.571   2.520  1.00  0.00     0.000 C 
ENDROOT
BRANCH   1   2
ATOM      2  C   UNL     1     -20.565   0.407   1.262  1.00  0.00     0.000 C 
BRANCH   2   3
ATOM      3  C   UNL     1     -20.176   1.748   0.621  1.00  0.00     0.000 C 
BRANCH   3   4
ATOM      4  C   UNL     1     -18.653   1.880   0.503  1.00  0.00     0.000 C 
BRANCH   4   5
ATOM      5  C   UNL     1     -18.251   3.316   0.148  1.00  0.00     0.006 C 
BRANCH   5   6
ATOM      6  C   UNL     1     -19.484   4.181  -0.125  1.00  0.00     0.053 C 
BRANCH   6   7
ATOM      7  C   UNL     1     -19.206   5.612   0.213  1.00  0.00     0.041 C 
ATOM      8  O   UNL     1     -20.155   6.429   0.341  1.00  0.00    -0.550 OA
ATOM      9  O   UNL     1     -17.901   6.033   0.434  1.00  0.00    -0.550 OA
ENDBRANCH   6   7
ENDBRANCH   5   6
ENDBRANCH   4   5
ENDBRANCH   3   4
ENDBRANCH   2   3
ENDBRANCH   1   2
BRANCH   1  10
ATOM     10  C   UNL     1     -22.948   0.375   2.301  1.00  0.00     0.000 C 
BRANCH  10  11
ATOM     11  C   UNL     1     -23.347   0.411   0.815  1.00  0.00    -0.000 C 
BRANCH  11  12
ATOM     12  C   UNL     1     -24.752   0.993   0.596  1.00  0.00    -0.000 C 
BRANCH  12  13
ATOM     13  C   UNL     1     -24.976   2.308   1.360  1.00  0.00    -0.000 C 
BRANCH  13  14
ATOM     14  C   UNL     1     -24.088   3.426   0.799  1.00  0.00    -0.000 C 
BRANCH  14  15
ATOM     15  C   UNL     1     -23.160   3.988   1.886  1.00  0.00    -0.000 C 
BRANCH  15  16
ATOM     16  C   UNL     1     -23.796   3.947   3.284  1.00  0.00    -0.003 C 
ATOM     17  C   UNL     1     -23.825   5.318   3.961  1.00  0.00     0.004 C 
ENDBRANCH  15  16
ENDBRANCH  14  15
ENDBRANCH  13  14
ENDBRANCH  12  13
ENDBRANCH  11  12
ENDBRANCH  10  11
ENDBRANCH   1  10
TORSDOF 13
ENDMDL
MODEL 2
REMARK VINA RESULT:    -3.172      3.036      4.692
REMARK INTER + INTRA:          -6.962
REMARK INTER:                  -4.763
REMARK INTRA:                  -2.199
REMARK UNBOUND:                -1.379
REMARK SMILES CCCCCCCCCCCCCCC(=O)[O-]
REMARK SMILES IDX 9 1 10 2 11 3 12 4 13 5 14 6 15 7 16 8 17 9 8 10 7 11 6 12
REMARK SMILES IDX 5 13 4 14 3 15 2 16 1 17
REMARK H PARENT
REMARK Flexibility Score: inf
ROOT
ATOM      1  C   UNL     1     -24.373   1.910   2.475  1.00  0.00     0.000 C 
ENDROOT
BRANCH   1   2
ATOM      2  C   UNL     1     -24.668   1.705   0.978  1.00  0.00     0.000 C 
BRANCH   2   3
ATOM      3  C   UNL     1     -23.557   2.247   0.067  1.00  0.00     0.000 C 
BRANCH   3   4
ATOM      4  C   UNL     1     -22.263   2.478   0.855  1.00  0.00     0.000 C 
BRANCH   4   5
ATOM      5  C   UNL     1     -21.105   1.665   0.265  1.00  0.00     0.006 C 
BRANCH   5   6
ATOM      6  C   UNL     1     -20.471   0.761   1.326  1.00  0.00     0.053 C 
BRANCH   6   7
ATOM      7  C   UNL     1     -21.437  -0.298   1.756  1.00  0.00     0.041 C 
ATOM      8  O   UNL     1     -21.845  -0.338   2.947  1.00  0.00    -0.550 OA
ATOM      9  O   UNL     1     -21.923  -1.213   0.831  1.00  0.00    -0.550 OA
ENDBRANCH   6   7
ENDBRANCH   5   6
ENDBRANCH   4   5
ENDBRANCH   3   4
ENDBRANCH   2   3
ENDBRANCH   1   2
BRANCH   1  10
ATOM     10  C   UNL     1     -25.512   2.558   3.285  1.00  0.00     0.000 C 
BRANCH  10  11
ATOM     11  C   UNL     1     -25.330   4.076   3.463  1.00  0.00    -0.000 C 
BRANCH  11  12
ATOM     12  C   UNL     1     -23.854   4.481   3.597  1.00  0.00    -0.000 C 
BRANCH  12  13
ATOM     13  C   UNL     1     -23.503   5.730   2.774  1.00  0.00    -0.000 C 
BRANCH  13  14
ATOM     14  C   UNL     1     -24.127   5.658   1.375  1.00  0.00    -0.000 C 
BRANCH  14  15
ATOM     15  C   UNL     1     -23.090   5.996   0.293  1.00  0.00    -0.000 C 
BRANCH  15  16
ATOM     16  C   UNL     1     -21.719   6.361   0.883  1.00  0.00    -0.003 C 
ATOM     17  C   UNL     1     -20.564   5.652   0.176  1.00  0.00     0.004 C 
ENDBRANCH  15  16
ENDBRANCH  14  15
ENDBRANCH  13  14
ENDBRANCH  12  13
ENDBRANCH  11  12
ENDBRANCH  10  11
ENDBRANCH   1  10
TORSDOF 13
ENDMDL
MODEL 3
REMARK VINA RESULT:    -2.960      2.297      4.898
REMARK INTER + INTRA:          -6.589
REMARK INTER:                  -4.881
REMARK INTRA:                  -1.708
REMARK UNBOUND:                -1.379
REMARK SMILES CCCCCCCCCCCCCCC(=O)[O-]
REMARK SMILES IDX 9 1 10 2 11 3 12 4 13 5 14 6 15 7 16 8 17 9 8 10 7 11 6 12
REMARK SMILES IDX 5 13 4 14 3 15 2 16 1 17
REMARK H PARENT
REMARK Flexibility Score: inf
ROOT
ATOM      1  C   UNL     1     -25.677   2.737   3.492  1.00  0.00     0.000 C 
ENDROOT
BRANCH   1   2
ATOM      2  C   UNL     1     -25.950   2.191   2.079  1.00  0.00     0.000 C 
BRANCH   2   3
ATOM      3  C   UNL     1     -24.717   1.534   1.441  1.00  0.00     0.000 C 
BRANCH   3   4
ATOM      4  C   UNL     1     -23.489   1.669   2.348  1.00  0.00     0.000 C 
BRANCH   4   5
ATOM      5  C   UNL     1     -22.729   0.342   2.449  1.00  0.00     0.006 C 
BRANCH   5   6
ATOM      6  C   UNL     1     -22.097  -0.033   1.106  1.00  0.00     0.053 C 
BRANCH   6   7
ATOM      7  C   UNL     1     -20.939   0.865   0.804  1.00  0.00     0.041 C 
ATOM      8  O   UNL     1     -19.824   0.669   1.358  1.00  0.00    -0.550 OA
ATOM      9  O   UNL     1     -21.075   1.888  -0.124  1.00  0.00    -0.550 OA
ENDBRANCH   6   7
ENDBRANCH   5   6
ENDBRANCH   4   5
ENDBRANCH   3   4
ENDBRANCH   2   3
ENDBRANCH   1   2
BRANCH   1  10
ATOM     10  C   UNL     1     -25.804   4.265   3.639  1.00  0.00     0.000 C 
BRANCH  10  11
ATOM     11  C   UNL     1     -24.489   4.936   4.074  1.00  0.00    -0.000 C 
BRANCH  11  12
ATOM     12  C   UNL     1     -23.595   5.310   2.880  1.00  0.00    -0.000 C 
BRANCH  12  13
ATOM     13  C   UNL     1     -24.402   5.758   1.652  1.00  0.00    -0.000 C 
BRANCH  13  14
ATOM     14  C   UNL     1     -23.667   5.403   0.353  1.00  0.00    -0.000 C 
BRANCH  14  15
ATOM     15  C   UNL     1     -22.214   4.995   0.638  1.00  0.00    -0.000 C 
BRANCH  15  16
ATOM     16  C   UNL     1     -21.198   5.998   0.071  1.00  0.00    -0.003 C 
ATOM     17  C   UNL     1     -19.759   5.483   0.138  1.00  0.00     0.004 C 
ENDBRANCH  15  16
ENDBRANCH  14  15
ENDBRANCH  13  14
ENDBRANCH  12  13
ENDBRANCH  11  12
ENDBRANCH  10  11
ENDBRANCH   1  10
TORSDOF 13
ENDMDL
MODEL 4
REMARK VINA RESULT:    -2.898      1.621      4.076
REMARK INTER + INTRA:          -6.479
REMARK INTER:                  -4.688
REMARK INTRA:                  -1.791
REMARK UNBOUND:                -1.379
REMARK SMILES CCCCCCCCCCCCCCC(=O)[O-]
REMARK SMILES IDX 9 1 10 2 11 3 12 4 13 5 14 6 15 7 16 8 17 9 8 10 7 11 6 12
REMARK SMILES IDX 5 13 4 14 3 15 2 16 1 17
REMARK H PARENT
REMARK Flexibility Score: inf
ROOT
ATOM      1  C   UNL     1     -24.073   4.768   3.630  1.00  0.00     0.000 C 
ENDROOT
BRANCH   1   2
ATOM      2  C   UNL     1     -23.328   5.686   2.644  1.00  0.00     0.000 C 
BRANCH   2   3
ATOM      3  C   UNL     1     -24.004   5.764   1.267  1.00  0.00     0.000 C 
BRANCH   3   4
ATOM      4  C   UNL     1     -23.066   5.260   0.164  1.00  0.00     0.000 C 
BRANCH   4   5
ATOM      5  C   UNL     1     -21.598   5.475   0.549  1.00  0.00     0.006 C 
BRANCH   5   6
ATOM      6  C   UNL     1     -20.696   4.435  -0.123  1.00  0.00     0.053 C 
BRANCH   6   7
ATOM      7  C   UNL     1     -19.260   4.839  -0.012  1.00  0.00     0.041 C 
ATOM      8  O   UNL     1     -18.940   6.057  -0.033  1.00  0.00    -0.550 OA
ATOM      9  O   UNL     1     -18.277   3.872   0.162  1.00  0.00    -0.550 OA
ENDBRANCH   6   7
ENDBRANCH   5   6
ENDBRANCH   4   5
ENDBRANCH   3   4
ENDBRANCH   2   3
ENDBRANCH   1   2
BRANCH   1  10
ATOM     10  C   UNL     1     -25.604   4.738   3.468  1.00  0.00     0.000 C 
BRANCH  10  11
ATOM     11  C   UNL     1     -26.116   3.424   2.852  1.00  0.00    -0.000 C 
BRANCH  11  12
ATOM     12  C   UNL     1     -25.100   2.278   2.982  1.00  0.00    -0.000 C 
BRANCH  12  13
ATOM     13  C   UNL     1     -24.833   1.567   1.646  1.00  0.00    -0.000 C 
BRANCH  13  14
ATOM     14  C   UNL     1     -23.390   1.798   1.180  1.00  0.00    -0.000 C 
BRANCH  14  15
ATOM     15  C   UNL     1     -22.397   1.553   2.326  1.00  0.00    -0.000 C 
BRANCH  15  16
ATOM     16  C   UNL     1     -22.154   0.059   2.588  1.00  0.00    -0.003 C 
ATOM     17  C   UNL     1     -21.820  -0.719   1.314  1.00  0.00     0.004 C 
ENDBRANCH  15  16
ENDBRANCH  14  15
ENDBRANCH  13  14
ENDBRANCH  12  13
ENDBRANCH  11  12
ENDBRANCH  10  11
ENDBRANCH   1  10
TORSDOF 13
ENDMDL
MODEL 5
REMARK VINA RESULT:    -2.897      2.945      5.617
REMARK INTER + INTRA:          -6.477
REMARK INTER:                  -4.879
REMARK INTRA:                  -1.598
REMARK UNBOUND:                -1.379
REMARK SMILES CCCCCCCCCCCCCCC(=O)[O-]
REMARK SMILES IDX 9 1 10 2 11 3 12 4 13 5 14 6 15 7 16 8 17 9 8 10 7 11 6 12
REMARK SMILES IDX 5 13 4 14 3 15 2 16 1 17
REMARK H PARENT
REMARK Flexibility Score: inf
ROOT
ATOM      1  C   UNL     1     -23.740   4.096   0.252  1.00  0.00     0.000 C 
ENDROOT
BRANCH   1   2
ATOM      2  C   UNL     1     -22.313   4.656   0.385  1.00  0.00     0.000 C 
BRANCH   2   3
ATOM      3  C   UNL     1     -22.235   5.900   1.283  1.00  0.00     0.000 C 
BRANCH   3   4
ATOM      4  C   UNL     1     -23.637   6.390   1.665  1.00  0.00     0.000 C 
BRANCH   4   5
ATOM      5  C   UNL     1     -23.797   6.467   3.188  1.00  0.00     0.006 C 
BRANCH   5   6
ATOM      6  C   UNL     1     -23.868   5.068   3.805  1.00  0.00     0.053 C 
BRANCH   6   7
ATOM      7  C   UNL     1     -25.289   4.683   4.067  1.00  0.00     0.041 C 
ATOM      8  O   UNL     1     -25.952   4.070   3.189  1.00  0.00    -0.550 OA
ATOM      9  O   UNL     1     -25.868   4.958   5.299  1.00  0.00    -0.550 OA
ENDBRANCH   6   7
ENDBRANCH   5   6
ENDBRANCH   4   5
ENDBRANCH   3   4
ENDBRANCH   2   3
ENDBRANCH   1   2
BRANCH   1  10
ATOM     10  C   UNL     1     -23.828   2.579   0.000  1.00  0.00     0.000 C 
BRANCH  10  11
ATOM     11  C   UNL     1     -24.127   1.777   1.279  1.00  0.00    -0.000 C 
BRANCH  11  12
ATOM     12  C   UNL     1     -22.933   1.741   2.245  1.00  0.00    -0.000 C 
BRANCH  12  13
ATOM     13  C   UNL     1     -22.372   0.324   2.444  1.00  0.00    -0.000 C 
BRANCH  13  14
ATOM     14  C   UNL     1     -20.893   0.258   2.040  1.00  0.00    -0.000 C 
BRANCH  14  15
ATOM     15  C   UNL     1     -20.623   1.123   0.800  1.00  0.00    -0.000 C 
BRANCH  15  16
ATOM     16  C   UNL     1     -19.155   1.565   0.698  1.00  0.00    -0.003 C 
ATOM     17  C   UNL     1     -18.981   2.861  -0.095  1.00  0.00     0.004 C 
ENDBRANCH  15  16
ENDBRANCH  14  15
ENDBRANCH  13  14
ENDBRANCH  12  13
ENDBRANCH  11  12
ENDBRANCH  10  11
ENDBRANCH   1  10
TORSDOF 13
ENDMDL
MODEL 6
REMARK VINA RESULT:    -2.894     14.776     17.259
REMARK INTER + INTRA:          -6.472
REMARK INTER:                  -5.670
REMARK INTRA:                  -0.802
REMARK UNBOUND:                -1.379
REMARK SMILES CCCCCCCCCCCCCCC(=O)[O-]
REMARK SMILES IDX 9 1 10 2 11 3 12 4 13 5 14 6 15 7 16 8 17 9 8 10 7 11 6 12
REMARK SMILES IDX 5 13 4 14 3 15 2 16 1 17
REMARK H PARENT
REMARK Flexibility Score: inf
ROOT
ATOM      1  C   UNL     1     -16.244 -12.462   2.781  1.00  0.00     0.000 C 
ENDROOT
BRANCH   1   2
ATOM      2  C   UNL     1     -17.647 -12.439   2.149  1.00  0.00     0.000 C 
BRANCH   2   3
ATOM      3  C   UNL     1     -18.764 -12.762   3.152  1.00  0.00     0.000 C 
BRANCH   3   4
ATOM      4  C   UNL     1     -20.133 -12.795   2.462  1.00  0.00     0.000 C 
BRANCH   4   5
ATOM      5  C   UNL     1     -21.254 -12.433   3.443  1.00  0.00     0.006 C 
BRANCH   5   6
ATOM      6  C   UNL     1     -22.628 -12.754   2.849  1.00  0.00     0.053 C 
BRANCH   6   7
ATOM      7  C   UNL     1     -23.650 -11.777   3.337  1.00  0.00     0.041 C 
ATOM      8  O   UNL     1     -24.430 -12.091   4.276  1.00  0.00    -0.550 OA
ATOM      9  O   UNL     1     -23.711 -10.502   2.790  1.00  0.00    -0.550 OA
ENDBRANCH   6   7
ENDBRANCH   5   6
ENDBRANCH   4   5
ENDBRANCH   3   4
ENDBRANCH   2   3
ENDBRANCH   1   2
BRANCH   1  10
ATOM     10  C   UNL     1     -15.786 -11.132   3.408  1.00  0.00     0.000 C 
BRANCH  10  11
ATOM     11  C   UNL     1     -14.775 -10.373   2.530  1.00  0.00    -0.000 C 
BRANCH  11  12
ATOM     12  C   UNL     1     -14.262 -11.221   1.355  1.00  0.00    -0.000 C 
BRANCH  12  13
ATOM     13  C   UNL     1     -12.766 -11.550   1.469  1.00  0.00    -0.000 C 
BRANCH  13  14
ATOM     14  C   UNL     1     -12.280 -11.402   2.916  1.00  0.00    -0.000 C 
BRANCH  14  15
ATOM     15  C   UNL     1     -11.984 -12.774   3.539  1.00  0.00    -0.000 C 
BRANCH  15  16
ATOM     16  C   UNL     1     -12.320 -12.827   5.038  1.00  0.00    -0.003 C 
ATOM     17  C   UNL     1     -11.083 -12.692   5.926  1.00  0.00     0.004 C 
ENDBRANCH  15  16
ENDBRANCH  14  15
ENDBRANCH  13  14
ENDBRANCH  12  13
ENDBRANCH  11  12
ENDBRANCH  10  11
ENDBRANCH   1  10
TORSDOF 13
ENDMDL
MODEL 7
REMARK VINA RESULT:    -2.891      2.264      5.177
REMARK INTER + INTRA:          -6.467
REMARK INTER:                  -5.160
REMARK INTRA:                  -1.307
REMARK UNBOUND:                -1.379
REMARK SMILES CCCCCCCCCCCCCCC(=O)[O-]
REMARK SMILES IDX 9 1 10 2 11 3 12 4 13 5 14 6 15 7 16 8 17 9 8 10 7 11 6 12
REMARK SMILES IDX 5 13 4 14 3 15 2 16 1 17
REMARK H PARENT
REMARK Flexibility Score: inf
ROOT
ATOM      1  C   UNL     1     -19.245   4.671  -0.122  1.00  0.00     0.000 C 
ENDROOT
BRANCH   1   2
ATOM      2  C   UNL     1     -18.971   6.151   0.199  1.00  0.00     0.000 C 
BRANCH   2   3
ATOM      3  C   UNL     1     -20.248   7.005   0.237  1.00  0.00     0.000 C 
BRANCH   3   4
ATOM      4  C   UNL     1     -21.495   6.140   0.022  1.00  0.00     0.000 C 
BRANCH   4   5
ATOM      5  C   UNL     1     -22.339   6.063   1.299  1.00  0.00     0.006 C 
BRANCH   5   6
ATOM      6  C   UNL     1     -22.952   4.670   1.470  1.00  0.00     0.053 C 
BRANCH   6   7
ATOM      7  C   UNL     1     -23.960   4.674   2.575  1.00  0.00     0.041 C 
ATOM      8  O   UNL     1     -23.584   4.702   3.777  1.00  0.00    -0.550 OA
ATOM      9  O   UNL     1     -25.317   4.696   2.279  1.00  0.00    -0.550 OA
ENDBRANCH   6   7
ENDBRANCH   5   6
ENDBRANCH   4   5
ENDBRANCH   3   4
ENDBRANCH   2   3
ENDBRANCH   1   2
BRANCH   1  10
ATOM     10  C   UNL     1     -18.110   3.699   0.249  1.00  0.00     0.000 C 
BRANCH  10  11
ATOM     11  C   UNL     1     -18.461   2.229  -0.042  1.00  0.00    -0.000 C 
BRANCH  11  12
ATOM     12  C   UNL     1     -19.925   1.896   0.290  1.00  0.00    -0.000 C 
BRANCH  12  13
ATOM     13  C   UNL     1     -20.058   0.754   1.308  1.00  0.00    -0.000 C 
BRANCH  13  14
ATOM     14  C   UNL     1     -21.511   0.271   1.404  1.00  0.00    -0.000 C 
BRANCH  14  15
ATOM     15  C   UNL     1     -22.319   1.147   2.372  1.00  0.00    -0.000 C 
BRANCH  15  16
ATOM     16  C   UNL     1     -23.835   1.024   2.155  1.00  0.00    -0.003 C 
ATOM     17  C   UNL     1     -24.253   1.324   0.715  1.00  0.00     0.004 C 
ENDBRANCH  15  16
ENDBRANCH  14  15
ENDBRANCH  13  14
ENDBRANCH  12  13
ENDBRANCH  11  12
ENDBRANCH  10  11
ENDBRANCH   1  10
TORSDOF 13
ENDMDL
MODEL 8
REMARK VINA RESULT:    -2.824     14.471     16.650
REMARK INTER + INTRA:          -6.349
REMARK INTER:                  -5.354
REMARK INTRA:                  -0.995
REMARK UNBOUND:                -1.379
REMARK SMILES CCCCCCCCCCCCCCC(=O)[O-]
REMARK SMILES IDX 9 1 10 2 11 3 12 4 13 5 14 6 15 7 16 8 17 9 8 10 7 11 6 12
REMARK SMILES IDX 5 13 4 14 3 15 2 16 1 17
REMARK H PARENT
REMARK Flexibility Score: inf
ROOT
ATOM      1  C   UNL     1     -18.783 -12.452   3.263  1.00  0.00     0.000 C 
ENDROOT
BRANCH   1   2
ATOM      2  C   UNL     1     -20.176 -12.799   2.706  1.00  0.00     0.000 C 
BRANCH   2   3
ATOM      3  C   UNL     1     -20.260 -12.677   1.178  1.00  0.00     0.000 C 
BRANCH   3   4
ATOM      4  C   UNL     1     -21.578 -12.021   0.749  1.00  0.00     0.000 C 
BRANCH   4   5
ATOM      5  C   UNL     1     -22.731 -12.456   1.660  1.00  0.00     0.006 C 
BRANCH   5   6
ATOM      6  C   UNL     1     -23.534 -11.246   2.146  1.00  0.00     0.053 C 
BRANCH   6   7
ATOM      7  C   UNL     1     -23.665 -11.269   3.636  1.00  0.00     0.041 C 
ATOM      8  O   UNL     1     -22.765 -10.764   4.359  1.00  0.00    -0.550 OA
ATOM      9  O   UNL     1     -24.802 -11.804   4.227  1.00  0.00    -0.550 OA
ENDBRANCH   6   7
ENDBRANCH   5   6
ENDBRANCH   4   5
ENDBRANCH   3   4
ENDBRANCH   2   3
ENDBRANCH   1   2
BRANCH   1  10
ATOM     10  C   UNL     1     -17.646 -12.443   2.224  1.00  0.00     0.000 C 
BRANCH  10  11
ATOM     11  C   UNL     1     -16.253 -12.307   2.862  1.00  0.00    -0.000 C 
BRANCH  11  12
ATOM     12  C   UNL     1     -15.928 -10.860   3.267  1.00  0.00    -0.000 C 
BRANCH  12  13
ATOM     13  C   UNL     1     -14.756 -10.269   2.469  1.00  0.00    -0.000 C 
BRANCH  13  14
ATOM     14  C   UNL     1     -14.200 -11.293   1.471  1.00  0.00    -0.000 C 
BRANCH  14  15
ATOM     15  C   UNL     1     -12.700 -11.526   1.702  1.00  0.00    -0.000 C 
BRANCH  15  16
ATOM     16  C   UNL     1     -12.326 -11.535   3.192  1.00  0.00    -0.003 C 
ATOM     17  C   UNL     1     -12.218 -12.947   3.767  1.00  0.00     0.004 C 
ENDBRANCH  15  16
ENDBRANCH  14  15
ENDBRANCH  13  14
ENDBRANCH  12  13
ENDBRANCH  11  12
ENDBRANCH  10  11
ENDBRANCH   1  10
TORSDOF 13
ENDMDL
MODEL 9
REMARK VINA RESULT:    -2.817      2.255      4.220
REMARK INTER + INTRA:          -6.337
REMARK INTER:                  -4.583
REMARK INTRA:                  -1.753
REMARK UNBOUND:                -1.379
REMARK SMILES CCCCCCCCCCCCCCC(=O)[O-]
REMARK SMILES IDX 9 1 10 2 11 3 12 4 13 5 14 6 15 7 16 8 17 9 8 10 7 11 6 12
REMARK SMILES IDX 5 13 4 14 3 15 2 16 1 17
REMARK H PARENT
REMARK Flexibility Score: inf
ROOT
ATOM      1  C   UNL     1     -23.281   3.321   2.832  1.00  0.00     0.000 C 
ENDROOT
BRANCH   1   2
ATOM      2  C   UNL     1     -24.295   2.348   2.203  1.00  0.00     0.000 C 
BRANCH   2   3
ATOM      3  C   UNL     1     -23.629   1.141   1.527  1.00  0.00     0.000 C 
BRANCH   3   4
ATOM      4  C   UNL     1     -22.744   0.374   2.517  1.00  0.00     0.000 C 
BRANCH   4   5
ATOM      5  C   UNL     1     -21.285   0.353   2.049  1.00  0.00     0.006 C 
BRANCH   5   6
ATOM      6  C   UNL     1     -21.178   0.707   0.563  1.00  0.00     0.053 C 
BRANCH   6   7
ATOM      7  C   UNL     1     -20.301   1.903   0.371  1.00  0.00     0.041 C 
ATOM      8  O   UNL     1     -20.800   3.005   0.019  1.00  0.00    -0.550 OA
ATOM      9  O   UNL     1     -18.939   1.815   0.627  1.00  0.00    -0.550 OA
ENDBRANCH   6   7
ENDBRANCH   5   6
ENDBRANCH   4   5
ENDBRANCH   3   4
ENDBRANCH   2   3
ENDBRANCH   1   2
BRANCH   1  10
ATOM     10  C   UNL     1     -23.898   4.480   3.637  1.00  0.00     0.000 C 
BRANCH  10  11
ATOM     11  C   UNL     1     -25.382   4.716   3.305  1.00  0.00    -0.000 C 
BRANCH  11  12
ATOM     12  C   UNL     1     -25.777   6.199   3.393  1.00  0.00    -0.000 C 
BRANCH  12  13
ATOM     13  C   UNL     1     -25.841   6.879   2.016  1.00  0.00    -0.000 C 
BRANCH  13  14
ATOM     14  C   UNL     1     -25.600   5.864   0.891  1.00  0.00    -0.000 C 
BRANCH  14  15
ATOM     15  C   UNL     1     -24.577   6.398  -0.121  1.00  0.00    -0.000 C 
BRANCH  15  16
ATOM     16  C   UNL     1     -23.230   5.663  -0.044  1.00  0.00    -0.003 C 
ATOM     17  C   UNL     1     -22.240   6.340   0.904  1.00  0.00     0.004 C 
ENDBRANCH  15  16
ENDBRANCH  14  15
ENDBRANCH  13  14
ENDBRANCH  12  13
ENDBRANCH  11  12
ENDBRANCH  10  11
ENDBRANCH   1  10
TORSDOF 13
ENDMDL
