MODEL 1
REMARK VINA RESULT:    -2.604      0.000      0.000
REMARK INTER + INTRA:          -1.890
REMARK INTER:                  -2.756
REMARK INTRA:                   0.865
REMARK UNBOUND:                 0.865
REMARK SMILES CC1=CC[C@@]23[C@@H]([C@H](C(C)C)CC[C@H]2C)[C@H]13
REMARK SMILES IDX 14 1 13 2 12 3 11 4 7 5 6 6 5 7 15 8 2 9 3 10 4 11 1 12 8 13
REMARK SMILES IDX 9 14 10 15
REMARK H PARENT
REMARK Flexibility Score: inf
ROOT
ATOM      1  C   UNL     1     148.149 145.375 134.125  1.00  0.00     0.008 C 
ATOM      2  C   UNL     1     147.224 145.248 132.900  1.00  0.00    -0.007 C 
ATOM      3  C   UNL     1     147.093 146.608 132.179  1.00  0.00     0.004 C 
ATOM      4  C   UNL     1     146.103 147.527 132.894  1.00  0.00     0.004 C 
ATOM      5  C   UNL     1     144.655 146.989 132.829  1.00  0.00    -0.004 C 
ATOM      6  C   UNL     1     144.571 145.497 133.266  1.00  0.00     0.007 C 
ATOM      7  C   UNL     1     145.853 144.644 133.311  1.00  0.00    -0.013 C 
ATOM      8  C   UNL     1     144.853 144.461 132.167  1.00  0.00     0.025 C 
ATOM      9  C   UNL     1     144.266 143.110 132.394  1.00  0.00    -0.073 C 
ATOM     10  C   UNL     1     144.781 142.498 133.449  1.00  0.00    -0.027 C 
ATOM     11  C   UNL     1     145.810 143.334 134.124  1.00  0.00     0.035 C 
ATOM     12  C   UNL     1     143.203 142.512 131.527  1.00  0.00     0.039 C 
ENDROOT
BRANCH   5  13
ATOM     13  C   UNL     1     143.908 147.283 131.482  1.00  0.00    -0.014 C 
ATOM     14  C   UNL     1     142.376 147.253 131.642  1.00  0.00     0.007 C 
ATOM     15  C   UNL     1     144.307 146.266 130.394  1.00  0.00     0.007 C 
ENDBRANCH   5  13
TORSDOF 1
ENDMDL
MODEL 2
REMARK VINA RESULT:    -2.575      1.523      4.595
REMARK INTER + INTRA:          -1.860
REMARK INTER:                  -2.771
REMARK INTRA:                   0.911
REMARK UNBOUND:                 0.865
REMARK SMILES CC1=CC[C@@]23[C@@H]([C@H](C(C)C)CC[C@H]2C)[C@H]13
REMARK SMILES IDX 14 1 13 2 12 3 11 4 7 5 6 6 5 7 15 8 2 9 3 10 4 11 1 12 8 13
REMARK SMILES IDX 9 14 10 15
REMARK H PARENT
REMARK Flexibility Score: inf
ROOT
ATOM      1  C   UNL     1     142.563 145.374 134.125  1.00  0.00     0.008 C 
ATOM      2  C   UNL     1     143.494 145.503 132.905  1.00  0.00    -0.007 C 
ATOM      3  C   UNL     1     143.650 144.140 132.197  1.00  0.00     0.004 C 
ATOM      4  C   UNL     1     144.649 143.242 132.926  1.00  0.00     0.004 C 
ATOM      5  C   UNL     1     146.089 143.799 132.867  1.00  0.00    -0.004 C 
ATOM      6  C   UNL     1     146.148 145.296 133.292  1.00  0.00     0.007 C 
ATOM      7  C   UNL     1     144.854 146.131 133.321  1.00  0.00    -0.013 C 
ATOM      8  C   UNL     1     145.859 146.319 132.183  1.00  0.00     0.025 C 
ATOM      9  C   UNL     1     146.425 147.679 132.402  1.00  0.00    -0.073 C 
ATOM     10  C   UNL     1     145.894 148.293 133.449  1.00  0.00    -0.027 C 
ATOM     11  C   UNL     1     144.873 147.448 134.123  1.00  0.00     0.035 C 
ATOM     12  C   UNL     1     147.486 148.285 131.538  1.00  0.00     0.039 C 
ENDROOT
BRANCH   5  13
ATOM     13  C   UNL     1     146.849 143.505 131.528  1.00  0.00    -0.014 C 
ATOM     14  C   UNL     1     148.379 143.497 131.712  1.00  0.00     0.007 C 
ATOM     15  C   UNL     1     146.492 144.545 130.448  1.00  0.00     0.007 C 
ENDBRANCH   5  13
TORSDOF 1
ENDMDL
MODEL 3
REMARK VINA RESULT:    -2.358      1.521      3.094
REMARK INTER + INTRA:          -1.630
REMARK INTER:                  -1.799
REMARK INTRA:                   0.169
REMARK UNBOUND:                 0.865
REMARK SMILES CC1=CC[C@@]23[C@@H]([C@H](C(C)C)CC[C@H]2C)[C@H]13
REMARK SMILES IDX 14 1 13 2 12 3 11 4 7 5 6 6 5 7 15 8 2 9 3 10 4 11 1 12 8 13
REMARK SMILES IDX 9 14 10 15
REMARK H PARENT
REMARK Flexibility Score: inf
ROOT
ATOM      1  C   UNL     1     142.726 145.766 134.125  1.00  0.00     0.008 C 
ATOM      2  C   UNL     1     144.256 145.866 133.978  1.00  0.00    -0.007 C 
ATOM      3  C   UNL     1     144.681 147.332 133.739  1.00  0.00     0.004 C 
ATOM      4  C   UNL     1     144.465 147.747 132.285  1.00  0.00     0.004 C 
ATOM      5  C   UNL     1     145.392 146.983 131.314  1.00  0.00    -0.004 C 
ATOM      6  C   UNL     1     145.340 145.445 131.553  1.00  0.00     0.007 C 
ATOM      7  C   UNL     1     144.763 144.899 132.872  1.00  0.00    -0.013 C 
ATOM      8  C   UNL     1     146.275 144.905 132.645  1.00  0.00     0.025 C 
ATOM      9  C   UNL     1     146.643 143.466 132.520  1.00  0.00    -0.073 C 
ATOM     10  C   UNL     1     145.603 142.658 132.663  1.00  0.00    -0.027 C 
ATOM     11  C   UNL     1     144.346 143.414 132.907  1.00  0.00     0.035 C 
ATOM     12  C   UNL     1     148.035 142.986 132.255  1.00  0.00     0.039 C 
ENDROOT
BRANCH   5  13
ATOM     13  C   UNL     1     146.853 147.546 131.225  1.00  0.00    -0.014 C 
ATOM     14  C   UNL     1     147.239 148.375 132.465  1.00  0.00     0.007 C 
ATOM     15  C   UNL     1     147.031 148.428 129.972  1.00  0.00     0.007 C 
ENDBRANCH   5  13
TORSDOF 1
ENDMDL
MODEL 4
REMARK VINA RESULT:    -2.341      1.296      3.231
REMARK INTER + INTRA:          -1.612
REMARK INTER:                  -2.605
REMARK INTRA:                   0.993
REMARK UNBOUND:                 0.865
REMARK SMILES CC1=CC[C@@]23[C@@H]([C@H](C(C)C)CC[C@H]2C)[C@H]13
REMARK SMILES IDX 14 1 13 2 12 3 11 4 7 5 6 6 5 7 15 8 2 9 3 10 4 11 1 12 8 13
REMARK SMILES IDX 9 14 10 15
REMARK H PARENT
REMARK Flexibility Score: inf
ROOT
ATOM      1  C   UNL     1     145.522 142.799 134.123  1.00  0.00     0.008 C 
ATOM      2  C   UNL     1     145.350 143.701 132.886  1.00  0.00    -0.007 C 
ATOM      3  C   UNL     1     146.694 143.860 132.142  1.00  0.00     0.004 C 
ATOM      4  C   UNL     1     147.595 144.887 132.827  1.00  0.00     0.004 C 
ATOM      5  C   UNL     1     147.015 146.317 132.750  1.00  0.00    -0.004 C 
ATOM      6  C   UNL     1     145.528 146.365 133.210  1.00  0.00     0.007 C 
ATOM      7  C   UNL     1     144.713 145.061 133.287  1.00  0.00    -0.013 C 
ATOM      8  C   UNL     1     144.483 146.037 132.133  1.00  0.00     0.025 C 
ATOM      9  C   UNL     1     143.120 146.589 132.373  1.00  0.00    -0.073 C 
ATOM     10  C   UNL     1     142.540 146.073 133.445  1.00  0.00    -0.027 C 
ATOM     11  C   UNL     1     143.416 145.079 134.121  1.00  0.00     0.035 C 
ATOM     12  C   UNL     1     142.478 147.622 131.500  1.00  0.00     0.039 C 
ENDROOT
BRANCH   5  13
ATOM     13  C   UNL     1     147.266 147.052 131.388  1.00  0.00    -0.014 C 
ATOM     14  C   UNL     1     147.391 148.578 131.558  1.00  0.00     0.007 C 
ATOM     15  C   UNL     1     146.131 146.763 130.385  1.00  0.00     0.007 C 
ENDBRANCH   5  13
TORSDOF 1
ENDMDL
MODEL 5
REMARK VINA RESULT:    -2.308      1.095      3.747
REMARK INTER + INTRA:          -1.578
REMARK INTER:                  -1.814
REMARK INTRA:                   0.236
REMARK UNBOUND:                 0.865
REMARK SMILES CC1=CC[C@@]23[C@@H]([C@H](C(C)C)CC[C@H]2C)[C@H]13
REMARK SMILES IDX 14 1 13 2 12 3 11 4 7 5 6 6 5 7 15 8 2 9 3 10 4 11 1 12 8 13
REMARK SMILES IDX 9 14 10 15
REMARK H PARENT
REMARK Flexibility Score: inf
ROOT
ATOM      1  C   UNL     1     148.008 145.003 134.125  1.00  0.00     0.008 C 
ATOM      2  C   UNL     1     146.478 144.921 133.967  1.00  0.00    -0.007 C 
ATOM      3  C   UNL     1     146.038 143.462 133.713  1.00  0.00     0.004 C 
ATOM      4  C   UNL     1     146.260 143.056 132.257  1.00  0.00     0.004 C 
ATOM      5  C   UNL     1     145.347 143.839 131.286  1.00  0.00    -0.004 C 
ATOM      6  C   UNL     1     145.416 145.374 131.538  1.00  0.00     0.007 C 
ATOM      7  C   UNL     1     145.990 145.903 132.866  1.00  0.00    -0.013 C 
ATOM      8  C   UNL     1     144.479 145.916 132.628  1.00  0.00     0.025 C 
ATOM      9  C   UNL     1     144.128 147.359 132.514  1.00  0.00    -0.073 C 
ATOM     10  C   UNL     1     145.176 148.155 132.670  1.00  0.00    -0.027 C 
ATOM     11  C   UNL     1     146.423 147.382 132.917  1.00  0.00     0.035 C 
ATOM     12  C   UNL     1     142.743 147.858 132.243  1.00  0.00     0.039 C 
ENDROOT
BRANCH   5  13
ATOM     13  C   UNL     1     143.882 143.293 131.182  1.00  0.00    -0.014 C 
ATOM     14  C   UNL     1     143.428 142.581 132.471  1.00  0.00     0.007 C 
ATOM     15  C   UNL     1     143.739 142.309 130.004  1.00  0.00     0.007 C 
ENDBRANCH   5  13
TORSDOF 1
ENDMDL
MODEL 6
REMARK VINA RESULT:    -2.163      1.233      3.790
REMARK INTER + INTRA:          -1.424
REMARK INTER:                  -2.142
REMARK INTRA:                   0.717
REMARK UNBOUND:                 0.865
REMARK SMILES CC1=CC[C@@]23[C@@H]([C@H](C(C)C)CC[C@H]2C)[C@H]13
REMARK SMILES IDX 14 1 13 2 12 3 11 4 7 5 6 6 5 7 15 8 2 9 3 10 4 11 1 12 8 13
REMARK SMILES IDX 9 14 10 15
REMARK H PARENT
REMARK Flexibility Score: inf
ROOT
ATOM      1  C   UNL     1     145.338 142.376 134.125  1.00  0.00     0.008 C 
ATOM      2  C   UNL     1     144.966 143.753 133.545  1.00  0.00    -0.007 C 
ATOM      3  C   UNL     1     143.746 143.633 132.606  1.00  0.00     0.004 C 
ATOM      4  C   UNL     1     144.150 143.107 131.229  1.00  0.00     0.004 C 
ATOM      5  C   UNL     1     145.047 144.105 130.462  1.00  0.00    -0.004 C 
ATOM      6  C   UNL     1     146.240 144.598 131.332  1.00  0.00     0.007 C 
ATOM      7  C   UNL     1     146.198 144.408 132.860  1.00  0.00    -0.013 C 
ATOM      8  C   UNL     1     145.948 145.790 132.255  1.00  0.00     0.025 C 
ATOM      9  C   UNL     1     147.135 146.597 132.656  1.00  0.00    -0.073 C 
ATOM     10  C   UNL     1     147.992 145.912 133.400  1.00  0.00    -0.027 C 
ATOM     11  C   UNL     1     147.530 144.517 133.629  1.00  0.00     0.035 C 
ATOM     12  C   UNL     1     147.342 148.024 132.256  1.00  0.00     0.039 C 
ENDROOT
BRANCH   5  13
ATOM     13  C   UNL     1     144.272 145.271 129.756  1.00  0.00    -0.014 C 
ATOM     14  C   UNL     1     145.192 146.137 128.874  1.00  0.00     0.007 C 
ATOM     15  C   UNL     1     143.583 146.184 130.789  1.00  0.00     0.007 C 
ENDBRANCH   5  13
TORSDOF 1
ENDMDL
MODEL 7
REMARK VINA RESULT:    -2.140      1.314      3.892
REMARK INTER + INTRA:          -1.399
REMARK INTER:                  -2.099
REMARK INTRA:                   0.699
REMARK UNBOUND:                 0.865
REMARK SMILES CC1=CC[C@@]23[C@@H]([C@H](C(C)C)CC[C@H]2C)[C@H]13
REMARK SMILES IDX 14 1 13 2 12 3 11 4 7 5 6 6 5 7 15 8 2 9 3 10 4 11 1 12 8 13
REMARK SMILES IDX 9 14 10 15
REMARK H PARENT
REMARK Flexibility Score: inf
ROOT
ATOM      1  C   UNL     1     146.813 148.009 130.536  1.00  0.00     0.008 C 
ATOM      2  C   UNL     1     146.423 147.253 131.820  1.00  0.00    -0.007 C 
ATOM      3  C   UNL     1     147.509 146.219 132.190  1.00  0.00     0.004 C 
ATOM      4  C   UNL     1     147.383 144.951 131.347  1.00  0.00     0.004 C 
ATOM      5  C   UNL     1     146.084 144.173 131.651  1.00  0.00    -0.004 C 
ATOM      6  C   UNL     1     144.831 145.096 131.604  1.00  0.00     0.007 C 
ATOM      7  C   UNL     1     145.009 146.625 131.675  1.00  0.00    -0.013 C 
ATOM      8  C   UNL     1     144.510 145.856 132.900  1.00  0.00     0.025 C 
ATOM      9  C   UNL     1     143.091 146.282 133.059  1.00  0.00    -0.073 C 
ATOM     10  C   UNL     1     142.719 147.173 132.152  1.00  0.00    -0.027 C 
ATOM     11  C   UNL     1     143.827 147.502 131.216  1.00  0.00     0.035 C 
ATOM     12  C   UNL     1     142.181 145.755 134.124  1.00  0.00     0.039 C 
ENDROOT
BRANCH   5  13
ATOM     13  C   UNL     1     146.144 143.276 132.935  1.00  0.00    -0.014 C 
ATOM     14  C   UNL     1     144.757 142.747 133.348  1.00  0.00     0.007 C 
ATOM     15  C   UNL     1     146.745 144.051 134.125  1.00  0.00     0.007 C 
ENDBRANCH   5  13
TORSDOF 1
ENDMDL
MODEL 8
REMARK VINA RESULT:    -2.103      1.360      3.724
REMARK INTER + INTRA:          -1.360
REMARK INTER:                  -2.065
REMARK INTRA:                   0.704
REMARK UNBOUND:                 0.865
REMARK SMILES CC1=CC[C@@]23[C@@H]([C@H](C(C)C)CC[C@H]2C)[C@H]13
REMARK SMILES IDX 14 1 13 2 12 3 11 4 7 5 6 6 5 7 15 8 2 9 3 10 4 11 1 12 8 13
REMARK SMILES IDX 9 14 10 15
REMARK H PARENT
REMARK Flexibility Score: inf
ROOT
ATOM      1  C   UNL     1     144.020 142.837 130.237  1.00  0.00     0.008 C 
ATOM      2  C   UNL     1     144.328 143.514 131.586  1.00  0.00    -0.007 C 
ATOM      3  C   UNL     1     143.162 144.436 132.006  1.00  0.00     0.004 C 
ATOM      4  C   UNL     1     143.211 145.772 131.268  1.00  0.00     0.004 C 
ATOM      5  C   UNL     1     144.444 146.615 131.664  1.00  0.00    -0.004 C 
ATOM      6  C   UNL     1     145.761 145.790 131.578  1.00  0.00     0.007 C 
ATOM      7  C   UNL     1     145.694 144.252 131.527  1.00  0.00    -0.013 C 
ATOM      8  C   UNL     1     146.111 144.955 132.820  1.00  0.00     0.025 C 
ATOM      9  C   UNL     1     147.554 144.620 132.982  1.00  0.00    -0.073 C 
ATOM     10  C   UNL     1     148.008 143.833 132.019  1.00  0.00    -0.027 C 
ATOM     11  C   UNL     1     146.946 143.500 131.032  1.00  0.00     0.035 C 
ATOM     12  C   UNL     1     148.401 145.125 134.108  1.00  0.00     0.039 C 
ENDROOT
BRANCH   5  13
ATOM     13  C   UNL     1     144.292 147.401 133.012  1.00  0.00    -0.014 C 
ATOM     14  C   UNL     1     145.635 147.962 133.519  1.00  0.00     0.007 C 
ATOM     15  C   UNL     1     143.691 146.504 134.113  1.00  0.00     0.007 C 
ENDBRANCH   5  13
TORSDOF 1
ENDMDL
MODEL 9
REMARK VINA RESULT:    -0.894      1.341      3.234
REMARK INTER + INTRA:          -0.081
REMARK INTER:                  -1.001
REMARK INTRA:                   0.920
REMARK UNBOUND:                 0.865
REMARK SMILES CC1=CC[C@@]23[C@@H]([C@H](C(C)C)CC[C@H]2C)[C@H]13
REMARK SMILES IDX 14 1 13 2 12 3 11 4 7 5 6 6 5 7 15 8 2 9 3 10 4 11 1 12 8 13
REMARK SMILES IDX 9 14 10 15
REMARK H PARENT
REMARK Flexibility Score: inf
ROOT
ATOM      1  C   UNL     1     145.370 148.043 134.114  1.00  0.00     0.008 C 
ATOM      2  C   UNL     1     145.533 147.149 132.870  1.00  0.00    -0.007 C 
ATOM      3  C   UNL     1     144.199 147.047 132.100  1.00  0.00     0.004 C 
ATOM      4  C   UNL     1     143.250 146.045 132.756  1.00  0.00     0.004 C 
ATOM      5  C   UNL     1     143.779 144.596 132.673  1.00  0.00    -0.004 C 
ATOM      6  C   UNL     1     145.254 144.490 133.160  1.00  0.00     0.007 C 
ATOM      7  C   UNL     1     146.114 145.763 133.267  1.00  0.00    -0.013 C 
ATOM      8  C   UNL     1     146.330 144.792 132.106  1.00  0.00     0.025 C 
ATOM      9  C   UNL     1     147.668 144.189 132.365  1.00  0.00    -0.073 C 
ATOM     10  C   UNL     1     148.246 144.672 133.454  1.00  0.00    -0.027 C 
ATOM     11  C   UNL     1     147.394 145.690 134.125  1.00  0.00     0.035 C 
ATOM     12  C   UNL     1     148.289 143.143 131.493  1.00  0.00     0.039 C 
ENDROOT
BRANCH   5  13
ATOM     13  C   UNL     1     143.528 143.886 131.298  1.00  0.00    -0.014 C 
ATOM     14  C   UNL     1     143.463 142.352 131.433  1.00  0.00     0.007 C 
ATOM     15  C   UNL     1     144.631 144.241 130.281  1.00  0.00     0.007 C 
ENDBRANCH   5  13
TORSDOF 1
ENDMDL
