MODEL 1
REMARK VINA RESULT:    -3.763      0.000      0.000
REMARK INTER + INTRA:          -4.537
REMARK INTER:                  -4.533
REMARK INTRA:                  -0.004
REMARK UNBOUND:                -0.004
REMARK SMILES OCC(O)CO
REMARK SMILES IDX 3 1 5 2 6 3 2 5 1 6 4 8
REMARK H PARENT 6 4 1 7 4 9
REMARK Flexibility Score: inf
ROOT
ATOM      1  C   UNL     1      15.124  -2.172  20.130  1.00  0.00     0.165 C 
ENDROOT
BRANCH   1   2
ATOM      2  C   UNL     1      15.228  -3.149  21.310  1.00  0.00     0.190 C 
BRANCH   2   3
ATOM      3  O   UNL     1      14.401  -4.261  21.100  1.00  0.00    -0.394 OA
ATOM      4  H   UNL     1      14.052  -4.528  21.990  1.00  0.00     0.210 HD
ENDBRANCH   2   3
ENDBRANCH   1   2
BRANCH   1   5
ATOM      5  C   UNL     1      15.433  -2.874  18.801  1.00  0.00     0.190 C 
BRANCH   5   6
ATOM      6  O   UNL     1      15.447  -1.942  17.755  1.00  0.00    -0.394 OA
ATOM      7  H   UNL     1      14.579  -2.045  17.284  1.00  0.00     0.210 HD
ENDBRANCH   5   6
ENDBRANCH   1   5
BRANCH   1   8
ATOM      8  O   UNL     1      13.826  -1.638  20.090  1.00  0.00    -0.388 OA
ATOM      9  H   UNL     1      13.279  -2.253  19.536  1.00  0.00     0.211 HD
ENDBRANCH   1   8
TORSDOF 5
ENDMDL
MODEL 2
REMARK VINA RESULT:    -3.734      0.517      2.985
REMARK INTER + INTRA:          -4.502
REMARK INTER:                  -4.500
REMARK INTRA:                  -0.002
REMARK UNBOUND:                -0.004
REMARK SMILES OCC(O)CO
REMARK SMILES IDX 3 1 5 2 6 3 2 5 1 6 4 8
REMARK H PARENT 6 4 1 7 4 9
REMARK Flexibility Score: inf
ROOT
ATOM      1  C   UNL     1      14.629  -2.662  19.648  1.00  0.00     0.165 C 
ENDROOT
BRANCH   1   2
ATOM      2  C   UNL     1      15.638  -2.875  18.510  1.00  0.00     0.190 C 
BRANCH   2   3
ATOM      3  O   UNL     1      15.503  -1.871  17.541  1.00  0.00    -0.394 OA
ATOM      4  H   UNL     1      15.283  -1.034  18.028  1.00  0.00     0.210 HD
ENDBRANCH   2   3
ENDBRANCH   1   2
BRANCH   1   5
ATOM      5  C   UNL     1      15.172  -3.203  20.978  1.00  0.00     0.190 C 
BRANCH   5   6
ATOM      6  O   UNL     1      14.494  -4.375  21.334  1.00  0.00    -0.394 OA
ATOM      7  H   UNL     1      13.673  -4.398  20.777  1.00  0.00     0.210 HD
ENDBRANCH   5   6
ENDBRANCH   1   5
BRANCH   1   8
ATOM      8  O   UNL     1      14.362  -1.288  19.771  1.00  0.00    -0.388 OA
ATOM      9  H   UNL     1      14.735  -0.849  18.963  1.00  0.00     0.211 HD
ENDBRANCH   1   8
TORSDOF 5
ENDMDL
MODEL 3
REMARK VINA RESULT:    -3.525      1.079      2.945
REMARK INTER + INTRA:          -4.250
REMARK INTER:                  -4.036
REMARK INTRA:                  -0.215
REMARK UNBOUND:                -0.004
REMARK SMILES OCC(O)CO
REMARK SMILES IDX 3 1 5 2 6 3 2 5 1 6 4 8
REMARK H PARENT 6 4 1 7 4 9
REMARK Flexibility Score: inf
ROOT
ATOM      1  C   UNL     1      15.877  -2.753  19.975  1.00  0.00     0.165 C 
ENDROOT
BRANCH   1   2
ATOM      2  C   UNL     1      15.556  -3.055  18.504  1.00  0.00     0.190 C 
BRANCH   2   3
ATOM      3  O   UNL     1      15.464  -1.865  17.768  1.00  0.00    -0.394 OA
ATOM      4  H   UNL     1      16.193  -1.273  18.093  1.00  0.00     0.210 HD
ENDBRANCH   2   3
ENDBRANCH   1   2
BRANCH   1   5
ATOM      5  C   UNL     1      14.603  -2.416  20.762  1.00  0.00     0.190 C 
BRANCH   5   6
ATOM      6  O   UNL     1      13.798  -1.538  20.025  1.00  0.00    -0.394 OA
ATOM      7  H   UNL     1      14.094  -0.623  20.270  1.00  0.00     0.210 HD
ENDBRANCH   5   6
ENDBRANCH   1   5
BRANCH   1   8
ATOM      8  O   UNL     1      16.502  -3.874  20.546  1.00  0.00    -0.388 OA
ATOM      9  H   UNL     1      16.092  -4.006  21.441  1.00  0.00     0.211 HD
ENDBRANCH   1   8
TORSDOF 5
ENDMDL
MODEL 4
REMARK VINA RESULT:    -3.378      1.477      2.419
REMARK INTER + INTRA:          -4.073
REMARK INTER:                  -3.850
REMARK INTRA:                  -0.224
REMARK UNBOUND:                -0.004
REMARK SMILES OCC(O)CO
REMARK SMILES IDX 3 1 5 2 6 3 2 5 1 6 4 8
REMARK H PARENT 6 4 1 7 4 9
REMARK Flexibility Score: inf
ROOT
ATOM      1  C   UNL     1      14.885  -3.507  20.336  1.00  0.00     0.165 C 
ENDROOT
BRANCH   1   2
ATOM      2  C   UNL     1      14.457  -2.043  20.172  1.00  0.00     0.190 C 
BRANCH   2   3
ATOM      3  O   UNL     1      14.860  -1.550  18.922  1.00  0.00    -0.394 OA
ATOM      4  H   UNL     1      15.426  -2.254  18.510  1.00  0.00     0.210 HD
ENDBRANCH   2   3
ENDBRANCH   1   2
BRANCH   1   5
ATOM      5  C   UNL     1      16.402  -3.664  20.160  1.00  0.00     0.190 C 
BRANCH   5   6
ATOM      6  O   UNL     1      16.718  -3.819  18.805  1.00  0.00    -0.394 OA
ATOM      7  H   UNL     1      16.015  -4.408  18.424  1.00  0.00     0.210 HD
ENDBRANCH   5   6
ENDBRANCH   1   5
BRANCH   1   8
ATOM      8  O   UNL     1      14.510  -3.955  21.613  1.00  0.00    -0.388 OA
ATOM      9  H   UNL     1      14.209  -3.156  22.120  1.00  0.00     0.211 HD
ENDBRANCH   1   8
TORSDOF 5
ENDMDL
MODEL 5
REMARK VINA RESULT:    -3.370     12.271     12.553
REMARK INTER + INTRA:          -4.064
REMARK INTER:                  -4.045
REMARK INTRA:                  -0.019
REMARK UNBOUND:                -0.004
REMARK SMILES OCC(O)CO
REMARK SMILES IDX 3 1 5 2 6 3 2 5 1 6 4 8
REMARK H PARENT 6 4 1 7 4 9
REMARK Flexibility Score: inf
ROOT
ATOM      1  C   UNL     1       9.654   9.189  21.339  1.00  0.00     0.165 C 
ENDROOT
BRANCH   1   2
ATOM      2  C   UNL     1      11.175   9.174  21.133  1.00  0.00     0.190 C 
BRANCH   2   3
ATOM      3  O   UNL     1      11.825   8.753  22.302  1.00  0.00    -0.394 OA
ATOM      4  H   UNL     1      12.776   9.024  22.212  1.00  0.00     0.210 HD
ENDBRANCH   2   3
ENDBRANCH   1   2
BRANCH   1   5
ATOM      5  C   UNL     1       8.915   8.886  20.028  1.00  0.00     0.190 C 
BRANCH   5   6
ATOM      6  O   UNL     1       9.657   7.988  19.252  1.00  0.00    -0.394 OA
ATOM      7  H   UNL     1      10.610   8.235  19.380  1.00  0.00     0.210 HD
ENDBRANCH   5   6
ENDBRANCH   1   5
BRANCH   1   8
ATOM      8  O   UNL     1       9.314   8.228  22.305  1.00  0.00    -0.388 OA
ATOM      9  H   UNL     1      10.064   7.578  22.342  1.00  0.00     0.211 HD
ENDBRANCH   1   8
TORSDOF 5
ENDMDL
MODEL 6
REMARK VINA RESULT:    -3.367      1.392      2.145
REMARK INTER + INTRA:          -4.061
REMARK INTER:                  -3.842
REMARK INTRA:                  -0.219
REMARK UNBOUND:                -0.004
REMARK SMILES OCC(O)CO
REMARK SMILES IDX 3 1 5 2 6 3 2 5 1 6 4 8
REMARK H PARENT 6 4 1 7 4 9
REMARK Flexibility Score: inf
ROOT
ATOM      1  C   UNL     1      14.852  -2.911  21.201  1.00  0.00     0.165 C 
ENDROOT
BRANCH   1   2
ATOM      2  C   UNL     1      16.307  -2.829  20.720  1.00  0.00     0.190 C 
BRANCH   2   3
ATOM      3  O   UNL     1      16.481  -3.580  19.549  1.00  0.00    -0.394 OA
ATOM      4  H   UNL     1      15.572  -3.830  19.235  1.00  0.00     0.210 HD
ENDBRANCH   2   3
ENDBRANCH   1   2
BRANCH   1   5
ATOM      5  C   UNL     1      13.932  -2.038  20.336  1.00  0.00     0.190 C 
BRANCH   5   6
ATOM      6  O   UNL     1      14.679  -1.379  19.351  1.00  0.00    -0.394 OA
ATOM      7  H   UNL     1      14.132  -0.602  19.065  1.00  0.00     0.210 HD
ENDBRANCH   5   6
ENDBRANCH   1   5
BRANCH   1   8
ATOM      8  O   UNL     1      14.425  -4.248  21.141  1.00  0.00    -0.388 OA
ATOM      9  H   UNL     1      13.527  -4.245  20.717  1.00  0.00     0.211 HD
ENDBRANCH   1   8
TORSDOF 5
ENDMDL
MODEL 7
REMARK VINA RESULT:    -3.309     12.336     12.852
REMARK INTER + INTRA:          -3.990
REMARK INTER:                  -3.784
REMARK INTRA:                  -0.207
REMARK UNBOUND:                -0.004
REMARK SMILES OCC(O)CO
REMARK SMILES IDX 3 1 5 2 6 3 2 5 1 6 4 8
REMARK H PARENT 6 4 1 7 4 9
REMARK Flexibility Score: inf
ROOT
ATOM      1  C   UNL     1      10.184   8.783  21.485  1.00  0.00     0.165 C 
ENDROOT
BRANCH   1   2
ATOM      2  C   UNL     1       9.355   9.059  20.223  1.00  0.00     0.190 C 
BRANCH   2   3
ATOM      3  O   UNL     1       9.590   8.071  19.255  1.00  0.00    -0.394 OA
ATOM      4  H   UNL     1      10.003   8.530  18.477  1.00  0.00     0.210 HD
ENDBRANCH   2   3
ENDBRANCH   1   2
BRANCH   1   5
ATOM      5  C   UNL     1      11.599   9.364  21.356  1.00  0.00     0.190 C 
BRANCH   5   6
ATOM      6  O   UNL     1      11.709  10.108  20.174  1.00  0.00    -0.394 OA
ATOM      7  H   UNL     1      12.121   9.501  19.505  1.00  0.00     0.210 HD
ENDBRANCH   5   6
ENDBRANCH   1   5
BRANCH   1   8
ATOM      8  O   UNL     1       9.538   9.356  22.592  1.00  0.00    -0.388 OA
ATOM      9  H   UNL     1       9.447  10.326  22.401  1.00  0.00     0.211 HD
ENDBRANCH   1   8
TORSDOF 5
ENDMDL
MODEL 8
REMARK VINA RESULT:    -3.189     12.555     13.523
REMARK INTER + INTRA:          -3.846
REMARK INTER:                  -3.843
REMARK INTRA:                  -0.002
REMARK UNBOUND:                -0.004
REMARK SMILES OCC(O)CO
REMARK SMILES IDX 3 1 5 2 6 3 2 5 1 6 4 8
REMARK H PARENT 6 4 1 7 4 9
REMARK Flexibility Score: inf
ROOT
ATOM      1  C   UNL     1       8.959   9.037  20.014  1.00  0.00     0.165 C 
ENDROOT
BRANCH   1   2
ATOM      2  C   UNL     1       7.463   9.117  19.680  1.00  0.00     0.190 C 
BRANCH   2   3
ATOM      3  O   UNL     1       7.136  10.394  19.199  1.00  0.00    -0.394 OA
ATOM      4  H   UNL     1       7.723  11.036  19.678  1.00  0.00     0.210 HD
ENDBRANCH   2   3
ENDBRANCH   1   2
BRANCH   1   5
ATOM      5  C   UNL     1       9.180   8.842  21.521  1.00  0.00     0.190 C 
BRANCH   5   6
ATOM      6  O   UNL     1      10.548   8.723  21.796  1.00  0.00    -0.394 OA
ATOM      7  H   UNL     1      10.622   8.086  22.554  1.00  0.00     0.210 HD
ENDBRANCH   5   6
ENDBRANCH   1   5
BRANCH   1   8
ATOM      8  O   UNL     1       9.529   7.962  19.311  1.00  0.00    -0.388 OA
ATOM      9  H   UNL     1       9.911   7.346  19.989  1.00  0.00     0.211 HD
ENDBRANCH   1   8
TORSDOF 5
ENDMDL
MODEL 9
REMARK VINA RESULT:    -3.107     13.278     14.611
REMARK INTER + INTRA:          -3.747
REMARK INTER:                  -3.537
REMARK INTRA:                  -0.210
REMARK UNBOUND:                -0.004
REMARK SMILES OCC(O)CO
REMARK SMILES IDX 3 1 5 2 6 3 2 5 1 6 4 8
REMARK H PARENT 6 4 1 7 4 9
REMARK Flexibility Score: inf
ROOT
ATOM      1  C   UNL     1      10.671  -2.219  33.246  1.00  0.00     0.165 C 
ENDROOT
BRANCH   1   2
ATOM      2  C   UNL     1      10.859  -1.237  32.081  1.00  0.00     0.190 C 
BRANCH   2   3
ATOM      3  O   UNL     1      11.644  -0.146  32.482  1.00  0.00    -0.394 OA
ATOM      4  H   UNL     1      12.181   0.123  31.692  1.00  0.00     0.210 HD
ENDBRANCH   2   3
ENDBRANCH   1   2
BRANCH   1   5
ATOM      5  C   UNL     1      11.470  -1.777  34.479  1.00  0.00     0.190 C 
BRANCH   5   6
ATOM      6  O   UNL     1      10.689  -0.940  35.285  1.00  0.00    -0.394 OA
ATOM      7  H   UNL     1      10.079  -1.537  35.791  1.00  0.00     0.210 HD
ENDBRANCH   5   6
ENDBRANCH   1   5
BRANCH   1   8
ATOM      8  O   UNL     1       9.306  -2.289  33.569  1.00  0.00    -0.388 OA
ATOM      9  H   UNL     1       9.097  -1.484  34.110  1.00  0.00     0.211 HD
ENDBRANCH   1   8
TORSDOF 5
ENDMDL
