MODEL 1
REMARK VINA RESULT:    -7.204      0.000      0.000
REMARK INTER + INTRA:          -8.556
REMARK INTER:                  -8.467
REMARK INTRA:                  -0.089
REMARK UNBOUND:                -0.089
REMARK SMILES O=c1c(O)c(-c2ccc(O)cc2)oc2cc(O)cc(O)c12
REMARK SMILES IDX 5 1 3 2 2 3 1 4 21 5 19 6 18 7 16 8 15 9 14 10 13 11 6 12
REMARK SMILES IDX 7 13 8 14 9 15 12 16 11 17 10 18 4 20 20 22 17 24
REMARK H PARENT 10 19 4 21 20 23 17 25
REMARK Flexibility Score: inf
ROOT
ATOM      1  C   UNL     1      81.958   1.792  -0.078  1.00  0.00     0.180 A 
ATOM      2  C   UNL     1      82.770   0.979   0.731  1.00  0.00     0.208 A 
ATOM      3  C   UNL     1      84.164   1.142   0.678  1.00  0.00     0.238 A 
ATOM      4  O   UNL     1      84.881   0.463   1.459  1.00  0.00    -0.285 OA
ATOM      5  C   UNL     1      84.731   2.074  -0.224  1.00  0.00     0.111 A 
ATOM      6  C   UNL     1      86.133   2.291  -0.395  1.00  0.00     0.134 A 
ATOM      7  C   UNL     1      86.575   3.316  -1.240  1.00  0.00     0.093 A 
ATOM      8  C   UNL     1      85.672   4.089  -1.969  1.00  0.00     0.123 A 
ATOM      9  C   UNL     1      84.303   3.850  -1.851  1.00  0.00     0.094 A 
ATOM     10  C   UNL     1      83.828   2.861  -0.988  1.00  0.00     0.146 A 
ATOM     11  O   UNL     1      82.517   2.682  -0.890  1.00  0.00    -0.452 OA
ENDROOT
BRANCH   1  12
ATOM     12  C   UNL     1      80.480   1.690  -0.066  1.00  0.00     0.021 A 
ATOM     13  C   UNL     1      79.672   2.786   0.289  1.00  0.00     0.016 A 
ATOM     14  C   UNL     1      78.279   2.671   0.269  1.00  0.00     0.047 A 
ATOM     15  C   UNL     1      77.676   1.468  -0.119  1.00  0.00     0.115 A 
ATOM     16  C   UNL     1      79.868   0.494  -0.474  1.00  0.00     0.016 A 
ATOM     17  C   UNL     1      78.474   0.382  -0.492  1.00  0.00     0.047 A 
BRANCH  15  18
ATOM     18  O   UNL     1      76.289   1.342  -0.141  1.00  0.00    -0.508 OA
ATOM     19  H   UNL     1      75.768   1.390  -1.009  1.00  0.00     0.293 HD
ENDBRANCH  15  18
ENDBRANCH   1  12
BRANCH   2  20
ATOM     20  O   UNL     1      82.195   0.011   1.559  1.00  0.00    -0.502 OA
ATOM     21  H   UNL     1      81.525  -0.668   1.218  1.00  0.00     0.293 HD
ENDBRANCH   2  20
BRANCH   6  22
ATOM     22  O   UNL     1      87.125   1.518   0.216  1.00  0.00    -0.507 OA
ATOM     23  H   UNL     1      86.979   0.607   0.622  1.00  0.00     0.293 HD
ENDBRANCH   6  22
BRANCH   8  24
ATOM     24  O   UNL     1      86.149   5.089  -2.813  1.00  0.00    -0.508 OA
ATOM     25  H   UNL     1      87.059   5.020  -3.255  1.00  0.00     0.293 HD
ENDBRANCH   8  24
TORSDOF 5
ENDMDL
MODEL 2
REMARK VINA RESULT:    -6.958      1.241      3.086
REMARK INTER + INTRA:          -8.267
REMARK INTER:                  -8.179
REMARK INTRA:                  -0.088
REMARK UNBOUND:                -0.089
REMARK SMILES O=c1c(O)c(-c2ccc(O)cc2)oc2cc(O)cc(O)c12
REMARK SMILES IDX 5 1 3 2 2 3 1 4 21 5 19 6 18 7 16 8 15 9 14 10 13 11 6 12
REMARK SMILES IDX 7 13 8 14 9 15 12 16 11 17 10 18 4 20 20 22 17 24
REMARK H PARENT 10 19 4 21 20 23 17 25
REMARK Flexibility Score: inf
ROOT
ATOM      1  C   UNL     1      82.038   1.924  -0.036  1.00  0.00     0.180 A 
ATOM      2  C   UNL     1      82.718   2.834  -0.864  1.00  0.00     0.208 A 
ATOM      3  C   UNL     1      84.122   2.853  -0.847  1.00  0.00     0.238 A 
ATOM      4  O   UNL     1      84.725   3.617  -1.645  1.00  0.00    -0.285 OA
ATOM      5  C   UNL     1      84.828   2.003   0.038  1.00  0.00     0.111 A 
ATOM      6  C   UNL     1      86.249   1.970   0.174  1.00  0.00     0.134 A 
ATOM      7  C   UNL     1      86.842   1.012   1.005  1.00  0.00     0.093 A 
ATOM      8  C   UNL     1      86.065   0.129   1.756  1.00  0.00     0.123 A 
ATOM      9  C   UNL     1      84.674   0.189   1.673  1.00  0.00     0.094 A 
ATOM     10  C   UNL     1      84.054   1.108   0.824  1.00  0.00     0.146 A 
ATOM     11  O   UNL     1      82.728   1.115   0.760  1.00  0.00    -0.452 OA
ENDROOT
BRANCH   1  12
ATOM     12  C   UNL     1      80.560   1.834  -0.010  1.00  0.00     0.021 A 
ATOM     13  C   UNL     1      79.764   2.935   0.355  1.00  0.00     0.016 A 
ATOM     14  C   UNL     1      78.370   2.832   0.347  1.00  0.00     0.047 A 
ATOM     15  C   UNL     1      77.754   1.634  -0.037  1.00  0.00     0.115 A 
ATOM     16  C   UNL     1      79.934   0.643  -0.414  1.00  0.00     0.016 A 
ATOM     17  C   UNL     1      78.539   0.542  -0.420  1.00  0.00     0.047 A 
BRANCH  15  18
ATOM     18  O   UNL     1      76.366   1.518  -0.047  1.00  0.00    -0.508 OA
ATOM     19  H   UNL     1      75.860   1.147   0.749  1.00  0.00     0.293 HD
ENDBRANCH  15  18
ENDBRANCH   1  12
BRANCH   2  20
ATOM     20  O   UNL     1      82.002   3.719  -1.675  1.00  0.00    -0.502 OA
ATOM     21  H   UNL     1      81.064   4.027  -1.448  1.00  0.00     0.293 HD
ENDBRANCH   2  20
BRANCH   6  22
ATOM     22  O   UNL     1      87.117   2.864  -0.461  1.00  0.00    -0.507 OA
ATOM     23  H   UNL     1      87.840   2.602  -1.113  1.00  0.00     0.293 HD
ENDBRANCH   6  22
BRANCH   8  24
ATOM     24  O   UNL     1      86.689  -0.799   2.586  1.00  0.00    -0.508 OA
ATOM     25  H   UNL     1      86.162  -1.522   3.063  1.00  0.00     0.293 HD
ENDBRANCH   8  24
TORSDOF 5
ENDMDL
MODEL 3
REMARK VINA RESULT:    -6.539      8.125      9.417
REMARK INTER + INTRA:          -7.774
REMARK INTER:                  -7.494
REMARK INTRA:                  -0.280
REMARK UNBOUND:                -0.089
REMARK SMILES O=c1c(O)c(-c2ccc(O)cc2)oc2cc(O)cc(O)c12
REMARK SMILES IDX 5 1 3 2 2 3 1 4 21 5 19 6 18 7 16 8 15 9 14 10 13 11 6 12
REMARK SMILES IDX 7 13 8 14 9 15 12 16 11 17 10 18 4 20 20 22 17 24
REMARK H PARENT 10 19 4 21 20 23 17 25
REMARK Flexibility Score: inf
ROOT
ATOM      1  C   UNL     1      84.295  -2.636  -6.947  1.00  0.00     0.180 A 
ATOM      2  C   UNL     1      83.640  -2.692  -8.190  1.00  0.00     0.208 A 
ATOM      3  C   UNL     1      83.425  -1.500  -8.901  1.00  0.00     0.238 A 
ATOM      4  O   UNL     1      82.905  -1.566 -10.045  1.00  0.00    -0.285 OA
ATOM      5  C   UNL     1      83.816  -0.262  -8.336  1.00  0.00     0.111 A 
ATOM      6  C   UNL     1      83.607   1.013  -8.946  1.00  0.00     0.134 A 
ATOM      7  C   UNL     1      84.132   2.162  -8.344  1.00  0.00     0.093 A 
ATOM      8  C   UNL     1      84.801   2.093  -7.122  1.00  0.00     0.123 A 
ATOM      9  C   UNL     1      84.964   0.861  -6.490  1.00  0.00     0.094 A 
ATOM     10  C   UNL     1      84.485  -0.309  -7.084  1.00  0.00     0.146 A 
ATOM     11  O   UNL     1      84.680  -1.463  -6.459  1.00  0.00    -0.452 OA
ENDROOT
BRANCH   1  12
ATOM     12  C   UNL     1      84.571  -3.850  -6.147  1.00  0.00     0.021 A 
ATOM     13  C   UNL     1      85.830  -4.479  -6.176  1.00  0.00     0.016 A 
ATOM     14  C   UNL     1      86.073  -5.610  -5.392  1.00  0.00     0.047 A 
ATOM     15  C   UNL     1      85.068  -6.120  -4.560  1.00  0.00     0.115 A 
ATOM     16  C   UNL     1      83.576  -4.356  -5.293  1.00  0.00     0.016 A 
ATOM     17  C   UNL     1      83.822  -5.488  -4.511  1.00  0.00     0.047 A 
BRANCH  15  18
ATOM     18  O   UNL     1      85.299  -7.247  -3.775  1.00  0.00    -0.508 OA
ATOM     19  H   UNL     1      85.773  -8.062  -4.146  1.00  0.00     0.293 HD
ENDBRANCH  15  18
ENDBRANCH   1  12
BRANCH   2  20
ATOM     20  O   UNL     1      83.192  -3.916  -8.695  1.00  0.00    -0.502 OA
ATOM     21  H   UNL     1      83.817  -4.692  -8.875  1.00  0.00     0.293 HD
ENDBRANCH   2  20
BRANCH   6  22
ATOM     22  O   UNL     1      82.875   1.207 -10.122  1.00  0.00    -0.507 OA
ATOM     23  H   UNL     1      83.210   1.005 -11.051  1.00  0.00     0.293 HD
ENDBRANCH   6  22
BRANCH   8  24
ATOM     24  O   UNL     1      85.296   3.259  -6.543  1.00  0.00    -0.508 OA
ATOM     25  H   UNL     1      85.777   3.246  -5.651  1.00  0.00     0.293 HD
ENDBRANCH   8  24
TORSDOF 5
ENDMDL
MODEL 4
REMARK VINA RESULT:    -5.954      4.406      7.171
REMARK INTER + INTRA:          -7.087
REMARK INTER:                  -6.800
REMARK INTRA:                  -0.287
REMARK UNBOUND:                -0.089
REMARK SMILES O=c1c(O)c(-c2ccc(O)cc2)oc2cc(O)cc(O)c12
REMARK SMILES IDX 5 1 3 2 2 3 1 4 21 5 19 6 18 7 16 8 15 9 14 10 13 11 6 12
REMARK SMILES IDX 7 13 8 14 9 15 12 16 11 17 10 18 4 20 20 22 17 24
REMARK H PARENT 10 19 4 21 20 23 17 25
REMARK Flexibility Score: inf
ROOT
ATOM      1  C   UNL     1      86.045   1.161   2.720  1.00  0.00     0.180 A 
ATOM      2  C   UNL     1      86.553  -0.129   2.949  1.00  0.00     0.208 A 
ATOM      3  C   UNL     1      86.687  -0.584   4.271  1.00  0.00     0.238 A 
ATOM      4  O   UNL     1      87.072  -1.766   4.466  1.00  0.00    -0.285 OA
ATOM      5  C   UNL     1      86.364   0.276   5.348  1.00  0.00     0.111 A 
ATOM      6  C   UNL     1      86.503  -0.062   6.729  1.00  0.00     0.134 A 
ATOM      7  C   UNL     1      86.051   0.830   7.708  1.00  0.00     0.093 A 
ATOM      8  C   UNL     1      85.526   2.075   7.361  1.00  0.00     0.123 A 
ATOM      9  C   UNL     1      85.436   2.439   6.018  1.00  0.00     0.094 A 
ATOM     10  C   UNL     1      85.843   1.555   5.016  1.00  0.00     0.146 A 
ATOM     11  O   UNL     1      85.719   1.933   3.750  1.00  0.00    -0.452 OA
ENDROOT
BRANCH   1  12
ATOM     12  C   UNL     1      85.861   1.705   1.355  1.00  0.00     0.021 A 
ATOM     13  C   UNL     1      86.909   2.355   0.676  1.00  0.00     0.016 A 
ATOM     14  C   UNL     1      86.717   2.838  -0.622  1.00  0.00     0.047 A 
ATOM     15  C   UNL     1      85.484   2.666  -1.263  1.00  0.00     0.115 A 
ATOM     16  C   UNL     1      84.634   1.518   0.697  1.00  0.00     0.016 A 
ATOM     17  C   UNL     1      84.446   2.003  -0.601  1.00  0.00     0.047 A 
BRANCH  15  18
ATOM     18  O   UNL     1      85.281   3.144  -2.555  1.00  0.00    -0.508 OA
ATOM     19  H   UNL     1      85.947   2.962  -3.297  1.00  0.00     0.293 HD
ENDBRANCH  15  18
ENDBRANCH   1  12
BRANCH   2  20
ATOM     20  O   UNL     1      86.939  -0.935   1.874  1.00  0.00    -0.502 OA
ATOM     21  H   UNL     1      87.241  -1.894   1.994  1.00  0.00     0.293 HD
ENDBRANCH   2  20
BRANCH   6  22
ATOM     22  O   UNL     1      87.096  -1.243   7.190  1.00  0.00    -0.507 OA
ATOM     23  H   UNL     1      86.871  -1.700   8.059  1.00  0.00     0.293 HD
ENDBRANCH   6  22
BRANCH   8  24
ATOM     24  O   UNL     1      85.102   2.945   8.363  1.00  0.00    -0.508 OA
ATOM     25  H   UNL     1      84.469   2.642   9.095  1.00  0.00     0.293 HD
ENDBRANCH   8  24
TORSDOF 5
ENDMDL
MODEL 5
REMARK VINA RESULT:    -5.759      8.623     10.032
REMARK INTER + INTRA:          -6.858
REMARK INTER:                  -6.912
REMARK INTRA:                   0.054
REMARK UNBOUND:                -0.089
REMARK SMILES O=c1c(O)c(-c2ccc(O)cc2)oc2cc(O)cc(O)c12
REMARK SMILES IDX 5 1 3 2 2 3 1 4 21 5 19 6 18 7 16 8 15 9 14 10 13 11 6 12
REMARK SMILES IDX 7 13 8 14 9 15 12 16 11 17 10 18 4 20 20 22 17 24
REMARK H PARENT 10 19 4 21 20 23 17 25
REMARK Flexibility Score: inf
ROOT
ATOM      1  C   UNL     1      84.394   6.027   7.041  1.00  0.00     0.180 A 
ATOM      2  C   UNL     1      83.439   5.906   8.065  1.00  0.00     0.208 A 
ATOM      3  C   UNL     1      83.392   4.719   8.814  1.00  0.00     0.238 A 
ATOM      4  O   UNL     1      82.585   4.646   9.778  1.00  0.00    -0.285 OA
ATOM      5  C   UNL     1      84.261   3.648   8.495  1.00  0.00     0.111 A 
ATOM      6  C   UNL     1      84.271   2.383   9.157  1.00  0.00     0.134 A 
ATOM      7  C   UNL     1      85.248   1.437   8.826  1.00  0.00     0.093 A 
ATOM      8  C   UNL     1      86.174   1.682   7.812  1.00  0.00     0.123 A 
ATOM      9  C   UNL     1      86.139   2.893   7.121  1.00  0.00     0.094 A 
ATOM     10  C   UNL     1      85.201   3.872   7.454  1.00  0.00     0.146 A 
ATOM     11  O   UNL     1      85.218   5.018   6.785  1.00  0.00    -0.452 OA
ENDROOT
BRANCH   1  12
ATOM     12  C   UNL     1      84.515   7.253   6.218  1.00  0.00     0.021 A 
ATOM     13  C   UNL     1      85.759   7.873   6.003  1.00  0.00     0.016 A 
ATOM     14  C   UNL     1      85.850   9.015   5.202  1.00  0.00     0.047 A 
ATOM     15  C   UNL     1      84.704   9.543   4.595  1.00  0.00     0.115 A 
ATOM     16  C   UNL     1      83.373   7.776   5.588  1.00  0.00     0.016 A 
ATOM     17  C   UNL     1      83.468   8.920   4.788  1.00  0.00     0.047 A 
BRANCH  15  18
ATOM     18  O   UNL     1      84.782  10.681   3.795  1.00  0.00    -0.508 OA
ATOM     19  H   UNL     1      84.153  11.465   3.927  1.00  0.00     0.293 HD
ENDBRANCH  15  18
ENDBRANCH   1  12
BRANCH   2  20
ATOM     20  O   UNL     1      82.538   6.944   8.315  1.00  0.00    -0.502 OA
ATOM     21  H   UNL     1      82.838   7.897   8.481  1.00  0.00     0.293 HD
ENDBRANCH   2  20
BRANCH   6  22
ATOM     22  O   UNL     1      83.335   1.998  10.123  1.00  0.00    -0.507 OA
ATOM     23  H   UNL     1      83.250   2.408  11.040  1.00  0.00     0.293 HD
ENDBRANCH   6  22
BRANCH   8  24
ATOM     24  O   UNL     1      87.121   0.711   7.498  1.00  0.00    -0.508 OA
ATOM     25  H   UNL     1      87.019   0.114   6.684  1.00  0.00     0.293 HD
ENDBRANCH   8  24
TORSDOF 5
ENDMDL
MODEL 6
REMARK VINA RESULT:    -5.700      3.960      6.589
REMARK INTER + INTRA:          -6.788
REMARK INTER:                  -6.508
REMARK INTRA:                  -0.280
REMARK UNBOUND:                -0.089
REMARK SMILES O=c1c(O)c(-c2ccc(O)cc2)oc2cc(O)cc(O)c12
REMARK SMILES IDX 5 1 3 2 2 3 1 4 21 5 19 6 18 7 16 8 15 9 14 10 13 11 6 12
REMARK SMILES IDX 7 13 8 14 9 15 12 16 11 17 10 18 4 20 20 22 17 24
REMARK H PARENT 10 19 4 21 20 23 17 25
REMARK Flexibility Score: inf
ROOT
ATOM      1  C   UNL     1      85.997   2.762  -2.623  1.00  0.00     0.180 A 
ATOM      2  C   UNL     1      86.341   4.104  -2.858  1.00  0.00     0.208 A 
ATOM      3  C   UNL     1      86.513   4.542  -4.181  1.00  0.00     0.238 A 
ATOM      4  O   UNL     1      86.748   5.762  -4.387  1.00  0.00    -0.285 OA
ATOM      5  C   UNL     1      86.395   3.621  -5.250  1.00  0.00     0.111 A 
ATOM      6  C   UNL     1      86.593   3.943  -6.627  1.00  0.00     0.134 A 
ATOM      7  C   UNL     1      86.344   2.974  -7.606  1.00  0.00     0.093 A 
ATOM      8  C   UNL     1      85.968   1.677  -7.257  1.00  0.00     0.123 A 
ATOM      9  C   UNL     1      85.825   1.336  -5.912  1.00  0.00     0.094 A 
ATOM     10  C   UNL     1      86.028   2.291  -4.914  1.00  0.00     0.146 A 
ATOM     11  O   UNL     1      85.860   1.929  -3.648  1.00  0.00    -0.452 OA
ENDROOT
BRANCH   1  12
ATOM     12  C   UNL     1      85.784   2.230  -1.258  1.00  0.00     0.021 A 
ATOM     13  C   UNL     1      84.492   2.095  -0.715  1.00  0.00     0.016 A 
ATOM     14  C   UNL     1      84.316   1.567   0.567  1.00  0.00     0.047 A 
ATOM     15  C   UNL     1      85.424   1.155   1.317  1.00  0.00     0.115 A 
ATOM     16  C   UNL     1      86.888   1.794  -0.507  1.00  0.00     0.016 A 
ATOM     17  C   UNL     1      86.708   1.267   0.776  1.00  0.00     0.047 A 
BRANCH  15  18
ATOM     18  O   UNL     1      85.261   0.628   2.596  1.00  0.00    -0.508 OA
ATOM     19  H   UNL     1      85.876   0.890   3.359  1.00  0.00     0.293 HD
ENDBRANCH  15  18
ENDBRANCH   1  12
BRANCH   2  20
ATOM     20  O   UNL     1      86.529   4.981  -1.785  1.00  0.00    -0.502 OA
ATOM     21  H   UNL     1      85.759   5.449  -1.324  1.00  0.00     0.293 HD
ENDBRANCH   2  20
BRANCH   6  22
ATOM     22  O   UNL     1      87.053   5.183  -7.082  1.00  0.00    -0.507 OA
ATOM     23  H   UNL     1      87.225   5.416  -8.047  1.00  0.00     0.293 HD
ENDBRANCH   6  22
BRANCH   8  24
ATOM     24  O   UNL     1      85.745   0.734  -8.257  1.00  0.00    -0.508 OA
ATOM     25  H   UNL     1      84.966   0.087  -8.212  1.00  0.00     0.293 HD
ENDBRANCH   8  24
TORSDOF 5
ENDMDL
MODEL 7
REMARK VINA RESULT:    -5.607      6.390      8.039
REMARK INTER + INTRA:          -6.679
REMARK INTER:                  -6.702
REMARK INTRA:                   0.022
REMARK UNBOUND:                -0.089
REMARK SMILES O=c1c(O)c(-c2ccc(O)cc2)oc2cc(O)cc(O)c12
REMARK SMILES IDX 5 1 3 2 2 3 1 4 21 5 19 6 18 7 16 8 15 9 14 10 13 11 6 12
REMARK SMILES IDX 7 13 8 14 9 15 12 16 11 17 10 18 4 20 20 22 17 24
REMARK H PARENT 10 19 4 21 20 23 17 25
REMARK Flexibility Score: inf
ROOT
ATOM      1  C   UNL     1      85.405   2.201   6.596  1.00  0.00     0.180 A 
ATOM      2  C   UNL     1      85.932   1.031   7.169  1.00  0.00     0.208 A 
ATOM      3  C   UNL     1      86.400   0.011   6.325  1.00  0.00     0.238 A 
ATOM      4  O   UNL     1      86.939  -1.002   6.844  1.00  0.00    -0.285 OA
ATOM      5  C   UNL     1      86.285   0.149   4.920  1.00  0.00     0.111 A 
ATOM      6  C   UNL     1      86.685  -0.840   3.970  1.00  0.00     0.134 A 
ATOM      7  C   UNL     1      86.622  -0.548   2.603  1.00  0.00     0.093 A 
ATOM      8  C   UNL     1      86.113   0.667   2.147  1.00  0.00     0.123 A 
ATOM      9  C   UNL     1      85.669   1.619   3.064  1.00  0.00     0.094 A 
ATOM     10  C   UNL     1      85.754   1.374   4.437  1.00  0.00     0.146 A 
ATOM     11  O   UNL     1      85.340   2.316   5.275  1.00  0.00    -0.452 OA
ENDROOT
BRANCH   1  12
ATOM     12  C   UNL     1      84.905   3.326   7.420  1.00  0.00     0.021 A 
ATOM     13  C   UNL     1      85.341   4.646   7.202  1.00  0.00     0.016 A 
ATOM     14  C   UNL     1      84.836   5.694   7.977  1.00  0.00     0.047 A 
ATOM     15  C   UNL     1      83.880   5.439   8.969  1.00  0.00     0.115 A 
ATOM     16  C   UNL     1      83.931   3.082   8.403  1.00  0.00     0.016 A 
ATOM     17  C   UNL     1      83.429   4.133   9.177  1.00  0.00     0.047 A 
BRANCH  15  18
ATOM     18  O   UNL     1      83.371   6.475   9.749  1.00  0.00    -0.508 OA
ATOM     19  H   UNL     1      83.694   7.429   9.637  1.00  0.00     0.293 HD
ENDBRANCH  15  18
ENDBRANCH   1  12
BRANCH   2  20
ATOM     20  O   UNL     1      85.966   0.880   8.558  1.00  0.00    -0.502 OA
ATOM     21  H   UNL     1      86.833   0.813   9.077  1.00  0.00     0.293 HD
ENDBRANCH   2  20
BRANCH   6  22
ATOM     22  O   UNL     1      87.125  -2.122   4.313  1.00  0.00    -0.507 OA
ATOM     23  H   UNL     1      87.320  -2.860   3.656  1.00  0.00     0.293 HD
ENDBRANCH   6  22
BRANCH   8  24
ATOM     24  O   UNL     1      86.049   0.916   0.778  1.00  0.00    -0.508 OA
ATOM     25  H   UNL     1      86.884   0.936   0.203  1.00  0.00     0.293 HD
ENDBRANCH   8  24
TORSDOF 5
ENDMDL
MODEL 8
REMARK VINA RESULT:    -4.988      8.710     10.515
REMARK INTER + INTRA:          -5.952
REMARK INTER:                  -6.218
REMARK INTRA:                   0.266
REMARK UNBOUND:                -0.089
REMARK SMILES O=c1c(O)c(-c2ccc(O)cc2)oc2cc(O)cc(O)c12
REMARK SMILES IDX 5 1 3 2 2 3 1 4 21 5 19 6 18 7 16 8 15 9 14 10 13 11 6 12
REMARK SMILES IDX 7 13 8 14 9 15 12 16 11 17 10 18 4 20 20 22 17 24
REMARK H PARENT 10 19 4 21 20 23 17 25
REMARK Flexibility Score: inf
ROOT
ATOM      1  C   UNL     1      84.925   6.117   6.926  1.00  0.00     0.180 A 
ATOM      2  C   UNL     1      85.757   4.985   6.984  1.00  0.00     0.208 A 
ATOM      3  C   UNL     1      85.256   3.799   7.542  1.00  0.00     0.238 A 
ATOM      4  O   UNL     1      85.981   2.770   7.522  1.00  0.00    -0.285 OA
ATOM      5  C   UNL     1      83.949   3.772   8.085  1.00  0.00     0.111 A 
ATOM      6  C   UNL     1      83.353   2.637   8.716  1.00  0.00     0.134 A 
ATOM      7  C   UNL     1      82.014   2.696   9.121  1.00  0.00     0.093 A 
ATOM      8  C   UNL     1      81.269   3.865   8.979  1.00  0.00     0.123 A 
ATOM      9  C   UNL     1      81.857   4.997   8.415  1.00  0.00     0.094 A 
ATOM     10  C   UNL     1      83.178   4.959   7.965  1.00  0.00     0.146 A 
ATOM     11  O   UNL     1      83.692   6.052   7.414  1.00  0.00    -0.452 OA
ENDROOT
BRANCH   1  12
ATOM     12  C   UNL     1      85.377   7.399   6.340  1.00  0.00     0.021 A 
ATOM     13  C   UNL     1      86.718   7.815   6.429  1.00  0.00     0.016 A 
ATOM     14  C   UNL     1      87.125   9.018   5.845  1.00  0.00     0.047 A 
ATOM     15  C   UNL     1      86.202   9.814   5.155  1.00  0.00     0.115 A 
ATOM     16  C   UNL     1      84.462   8.193   5.628  1.00  0.00     0.016 A 
ATOM     17  C   UNL     1      84.872   9.397   5.046  1.00  0.00     0.047 A 
BRANCH  15  18
ATOM     18  O   UNL     1      86.595  11.015   4.570  1.00  0.00    -0.508 OA
ATOM     19  H   UNL     1      85.947  11.580   4.033  1.00  0.00     0.293 HD
ENDBRANCH  15  18
ENDBRANCH   1  12
BRANCH   2  20
ATOM     20  O   UNL     1      87.071   5.053   6.512  1.00  0.00    -0.502 OA
ATOM     21  H   UNL     1      87.812   5.510   7.030  1.00  0.00     0.293 HD
ENDBRANCH   2  20
BRANCH   6  22
ATOM     22  O   UNL     1      84.034   1.446   8.989  1.00  0.00    -0.507 OA
ATOM     23  H   UNL     1      84.879   1.376   9.533  1.00  0.00     0.293 HD
ENDBRANCH   6  22
BRANCH   8  24
ATOM     24  O   UNL     1      79.944   3.892   9.409  1.00  0.00    -0.508 OA
ATOM     25  H   UNL     1      79.173   3.901   8.751  1.00  0.00     0.293 HD
ENDBRANCH   8  24
TORSDOF 5
ENDMDL
MODEL 9
REMARK VINA RESULT:    -4.567      7.907      9.479
REMARK INTER + INTRA:          -5.456
REMARK INTER:                  -5.397
REMARK INTRA:                  -0.059
REMARK UNBOUND:                -0.089
REMARK SMILES O=c1c(O)c(-c2ccc(O)cc2)oc2cc(O)cc(O)c12
REMARK SMILES IDX 5 1 3 2 2 3 1 4 21 5 19 6 18 7 16 8 15 9 14 10 13 11 6 12
REMARK SMILES IDX 7 13 8 14 9 15 12 16 11 17 10 18 4 20 20 22 17 24
REMARK H PARENT 10 19 4 21 20 23 17 25
REMARK Flexibility Score: inf
ROOT
ATOM      1  C   UNL     1      85.271   8.609   4.585  1.00  0.00     0.180 A 
ATOM      2  C   UNL     1      86.066   9.753   4.766  1.00  0.00     0.208 A 
ATOM      3  C   UNL     1      86.303  10.598   3.670  1.00  0.00     0.238 A 
ATOM      4  O   UNL     1      86.954  11.660   3.857  1.00  0.00    -0.285 OA
ATOM      5  C   UNL     1      85.790  10.260   2.395  1.00  0.00     0.111 A 
ATOM      6  C   UNL     1      86.006  11.018   1.204  1.00  0.00     0.134 A 
ATOM      7  C   UNL     1      85.360  10.644   0.020  1.00  0.00     0.093 A 
ATOM      8  C   UNL     1      84.558   9.504  -0.034  1.00  0.00     0.123 A 
ATOM      9  C   UNL     1      84.385   8.725   1.109  1.00  0.00     0.094 A 
ATOM     10  C   UNL     1      84.985   9.093   2.315  1.00  0.00     0.146 A 
ATOM     11  O   UNL     1      84.776   8.335   3.384  1.00  0.00    -0.452 OA
ENDROOT
BRANCH   1  12
ATOM     12  C   UNL     1      84.964   7.678   5.695  1.00  0.00     0.021 A 
ATOM     13  C   UNL     1      83.638   7.393   6.069  1.00  0.00     0.016 A 
ATOM     14  C   UNL     1      83.374   6.492   7.104  1.00  0.00     0.047 A 
ATOM     15  C   UNL     1      84.428   5.855   7.771  1.00  0.00     0.115 A 
ATOM     16  C   UNL     1      86.015   7.020   6.355  1.00  0.00     0.016 A 
ATOM     17  C   UNL     1      85.748   6.120   7.392  1.00  0.00     0.047 A 
BRANCH  15  18
ATOM     18  O   UNL     1      84.178   4.957   8.805  1.00  0.00    -0.508 OA
ATOM     19  H   UNL     1      84.635   5.046   9.705  1.00  0.00     0.293 HD
ENDBRANCH  15  18
ENDBRANCH   1  12
BRANCH   2  20
ATOM     20  O   UNL     1      86.628  10.030   6.016  1.00  0.00    -0.502 OA
ATOM     21  H   UNL     1      87.239  10.821   6.175  1.00  0.00     0.293 HD
ENDBRANCH   2  20
BRANCH   6  22
ATOM     22  O   UNL     1      86.858  12.125   1.124  1.00  0.00    -0.507 OA
ATOM     23  H   UNL     1      86.659  12.971   0.615  1.00  0.00     0.293 HD
ENDBRANCH   6  22
BRANCH   8  24
ATOM     24  O   UNL     1      83.945   9.152  -1.234  1.00  0.00    -0.508 OA
ATOM     25  H   UNL     1      84.361   8.476  -1.864  1.00  0.00     0.293 HD
ENDBRANCH   8  24
TORSDOF 5
ENDMDL
