MODEL 1
REMARK VINA RESULT:    -4.258      0.000      0.000
REMARK INTER + INTRA:          -6.350
REMARK INTER:                  -6.498
REMARK INTRA:                   0.148
REMARK UNBOUND:                 0.148
REMARK SMILES CC1=CCC[C@@H](C)C(=O)C[C@@H](C(C)C)C(=O)C1
REMARK SMILES IDX 8 1 9 2 6 3 7 4 5 5 4 6 3 7 2 8 1 9 10 11 11 12 15 13 16 14
REMARK SMILES IDX 17 15 12 17 13 18 14 19
REMARK H PARENT
REMARK Flexibility Score: 70.00
ROOT
ATOM      1  C   UNL     1      14.166  18.347  57.936  1.00  0.00     0.136 C 
ATOM      2  O   UNL     1      14.364  18.286  59.141  1.00  0.00    -0.299 OA
ENDROOT
BRANCH   1   3
ATOM      3  C   UNL     1      15.159  17.705  56.982  1.00  0.00     0.053 C 
ATOM      4  C   UNL     1      16.046  18.773  56.330  1.00  0.00     0.016 C 
BRANCH   3   5
ATOM      5  C   UNL     1      14.415  16.877  55.913  1.00  0.00     0.015 C 
BRANCH   5   6
ATOM      6  C   UNL     1      14.172  17.680  54.619  1.00  0.00     0.028 C 
BRANCH   6   7
ATOM      7  C   UNL     1      12.983  17.138  53.866  1.00  0.00    -0.028 C 
ATOM      8  C   UNL     1      11.715  17.594  53.998  1.00  0.00    -0.070 CG0
ATOM      9  C   UNL     1      10.653  17.000  53.108  1.00  0.00     0.039 C 
ATOM     10  G   UNL     1      11.320  18.654  55.015  1.00  0.00     0.000 G0
ENDBRANCH   6   7
ENDBRANCH   5   6
ENDBRANCH   3   5
ENDBRANCH   1   3
BRANCH   1  11
ATOM     11  C   UNL     1      12.940  19.066  57.419  1.00  0.00     0.087 C 
BRANCH  11  12
ATOM     12  C   UNL     1      11.591  18.307  57.610  1.00  0.00     0.066 C 
BRANCH  12  13
ATOM     13  C   UNL     1      10.824  18.065  56.312  1.00  0.00     0.140 C 
ATOM     14  O   UNL     1       9.846  17.332  56.302  1.00  0.00    -0.299 OA
BRANCH  13  15
ATOM     15  C   UNL     1      11.310  18.659  55.011  1.00  0.00     0.106 CG0
ATOM     16  G   UNL     1      11.704  17.593  53.999  1.00  0.00     0.000 G0
ENDBRANCH  13  15
ENDBRANCH  12  13
BRANCH  12  17
ATOM     17  C   UNL     1      10.707  18.888  58.760  1.00  0.00    -0.006 C 
ATOM     18  C   UNL     1      10.836  18.151  60.103  1.00  0.00     0.008 C 
ATOM     19  C   UNL     1      10.955  20.393  58.956  1.00  0.00     0.008 C 
ENDBRANCH  12  17
ENDBRANCH  11  12
ENDBRANCH   1  11
TORSDOF 1
ENDMDL
MODEL 2
REMARK VINA RESULT:    -4.134      2.160      4.081
REMARK INTER + INTRA:          -6.161
REMARK INTER:                  -5.736
REMARK INTRA:                  -0.425
REMARK UNBOUND:                 0.148
REMARK SMILES CC1=CCC[C@@H](C)C(=O)C[C@@H](C(C)C)C(=O)C1
REMARK SMILES IDX 8 1 9 2 6 3 7 4 5 5 4 6 3 7 2 8 1 9 10 11 11 12 15 13 16 14
REMARK SMILES IDX 17 15 12 17 13 18 14 19
REMARK H PARENT
REMARK Flexibility Score: 70.00
ROOT
ATOM      1  C   UNL     1      11.930  16.683  55.815  1.00  0.00     0.136 C 
ATOM      2  O   UNL     1      12.014  15.479  56.013  1.00  0.00    -0.299 OA
ENDROOT
BRANCH   1   3
ATOM      3  C   UNL     1      12.949  17.365  54.919  1.00  0.00     0.053 C 
ATOM      4  C   UNL     1      12.776  16.910  53.464  1.00  0.00     0.016 C 
BRANCH   3   5
ATOM      5  C   UNL     1      14.381  17.077  55.421  1.00  0.00     0.015 C 
BRANCH   5   6
ATOM      6  C   UNL     1      14.897  18.176  56.371  1.00  0.00     0.028 C 
BRANCH   6   7
ATOM      7  C   UNL     1      14.656  17.798  57.811  1.00  0.00    -0.028 C 
ATOM      8  C   UNL     1      13.797  18.434  58.641  1.00  0.00    -0.070 CG0
ATOM      9  C   UNL     1      13.610  17.876  60.029  1.00  0.00     0.039 C 
ATOM     10  G   UNL     1      13.039  19.691  58.240  1.00  0.00     0.000 G0
ENDBRANCH   6   7
ENDBRANCH   5   6
ENDBRANCH   3   5
ENDBRANCH   1   3
BRANCH   1  11
ATOM     11  C   UNL     1      10.819  17.469  56.473  1.00  0.00     0.087 C 
BRANCH  11  12
ATOM     12  C   UNL     1      11.078  19.001  56.613  1.00  0.00     0.066 C 
BRANCH  12  13
ATOM     13  C   UNL     1      11.560  19.426  57.999  1.00  0.00     0.140 C 
ATOM     14  O   UNL     1      10.756  19.605  58.902  1.00  0.00    -0.299 OA
BRANCH  13  15
ATOM     15  C   UNL     1      13.022  19.710  58.250  1.00  0.00     0.106 CG0
ATOM     16  G   UNL     1      13.800  18.457  58.625  1.00  0.00     0.000 G0
ENDBRANCH  13  15
ENDBRANCH  12  13
BRANCH  12  17
ATOM     17  C   UNL     1       9.914  19.883  56.058  1.00  0.00    -0.006 C 
ATOM     18  C   UNL     1      10.096  20.342  54.602  1.00  0.00     0.008 C 
ATOM     19  C   UNL     1       8.551  19.191  56.228  1.00  0.00     0.008 C 
ENDBRANCH  12  17
ENDBRANCH  11  12
ENDBRANCH   1  11
TORSDOF 1
ENDMDL
MODEL 3
REMARK VINA RESULT:    -4.105      2.219      4.655
REMARK INTER + INTRA:          -6.116
REMARK INTER:                  -5.686
REMARK INTRA:                  -0.430
REMARK UNBOUND:                 0.148
REMARK SMILES CC1=CCC[C@@H](C)C(=O)C[C@@H](C(C)C)C(=O)C1
REMARK SMILES IDX 8 1 9 2 6 3 7 4 5 5 4 6 3 7 2 8 1 9 10 11 11 12 15 13 16 14
REMARK SMILES IDX 17 15 12 17 13 18 14 19
REMARK H PARENT
REMARK Flexibility Score: 70.00
ROOT
ATOM      1  C   UNL     1       8.949  18.050  56.780  1.00  0.00     0.136 C 
ATOM      2  O   UNL     1       8.681  17.436  55.757  1.00  0.00    -0.299 OA
ENDROOT
BRANCH   1   3
ATOM      3  C   UNL     1       8.715  19.550  56.833  1.00  0.00     0.053 C 
ATOM      4  C   UNL     1       7.219  19.867  56.718  1.00  0.00     0.016 C 
BRANCH   3   5
ATOM      5  C   UNL     1       9.516  20.256  55.717  1.00  0.00     0.015 C 
BRANCH   5   6
ATOM      6  C   UNL     1      10.890  20.753  56.212  1.00  0.00     0.028 C 
BRANCH   6   7
ATOM      7  C   UNL     1      11.955  19.714  55.972  1.00  0.00    -0.028 C 
ATOM      8  C   UNL     1      12.608  19.040  56.948  1.00  0.00    -0.070 CG0
ATOM      9  C   UNL     1      13.587  17.970  56.536  1.00  0.00     0.039 C 
ATOM     10  G   UNL     1      12.412  19.335  58.427  1.00  0.00     0.000 G0
ENDBRANCH   6   7
ENDBRANCH   5   6
ENDBRANCH   3   5
ENDBRANCH   1   3
BRANCH   1  11
ATOM     11  C   UNL     1       9.514  17.305  57.968  1.00  0.00     0.087 C 
BRANCH  11  12
ATOM     12  C   UNL     1      10.111  18.203  59.095  1.00  0.00     0.066 C 
BRANCH  12  13
ATOM     13  C   UNL     1      11.638  18.219  59.135  1.00  0.00     0.140 C 
ATOM     14  O   UNL     1      12.245  17.386  59.790  1.00  0.00    -0.299 OA
BRANCH  13  15
ATOM     15  C   UNL     1      12.412  19.310  58.434  1.00  0.00     0.106 CG0
ATOM     16  G   UNL     1      12.609  19.023  56.954  1.00  0.00     0.000 G0
ENDBRANCH  13  15
ENDBRANCH  12  13
BRANCH  12  17
ATOM     17  C   UNL     1       9.452  17.968  60.493  1.00  0.00    -0.006 C 
ATOM     18  C   UNL     1       9.853  18.989  61.570  1.00  0.00     0.008 C 
ATOM     19  C   UNL     1       7.920  17.884  60.387  1.00  0.00     0.008 C 
ENDBRANCH  12  17
ENDBRANCH  11  12
ENDBRANCH   1  11
TORSDOF 1
ENDMDL
MODEL 4
REMARK VINA RESULT:    -4.049      1.816      4.481
REMARK INTER + INTRA:          -6.031
REMARK INTER:                  -5.776
REMARK INTRA:                  -0.255
REMARK UNBOUND:                 0.148
REMARK SMILES CC1=CCC[C@@H](C)C(=O)C[C@@H](C(C)C)C(=O)C1
REMARK SMILES IDX 8 1 9 2 6 3 7 4 5 5 4 6 3 7 2 8 1 9 10 11 11 12 15 13 16 14
REMARK SMILES IDX 17 15 12 17 13 18 14 19
REMARK H PARENT
REMARK Flexibility Score: 70.00
ROOT
ATOM      1  C   UNL     1      12.093  18.092  58.976  1.00  0.00     0.136 C 
ATOM      2  O   UNL     1      13.238  18.041  59.402  1.00  0.00    -0.299 OA
ENDROOT
BRANCH   1   3
ATOM      3  C   UNL     1      10.991  18.652  59.858  1.00  0.00     0.053 C 
ATOM      4  C   UNL     1       9.721  17.801  59.738  1.00  0.00     0.016 C 
BRANCH   3   5
ATOM      5  C   UNL     1      10.706  20.124  59.489  1.00  0.00     0.015 C 
BRANCH   5   6
ATOM      6  C   UNL     1       9.405  20.279  58.677  1.00  0.00     0.028 C 
BRANCH   6   7
ATOM      7  C   UNL     1       9.616  21.191  57.495  1.00  0.00    -0.028 C 
ATOM      8  C   UNL     1       9.800  20.771  56.221  1.00  0.00    -0.070 CG0
ATOM      9  C   UNL     1       9.912  21.816  55.139  1.00  0.00     0.039 C 
ATOM     10  G   UNL     1       9.922  19.302  55.846  1.00  0.00     0.000 G0
ENDBRANCH   6   7
ENDBRANCH   5   6
ENDBRANCH   3   5
ENDBRANCH   1   3
BRANCH   1  11
ATOM     11  C   UNL     1      11.796  17.590  57.580  1.00  0.00     0.087 C 
BRANCH  11  12
ATOM     12  C   UNL     1      12.355  18.472  56.422  1.00  0.00     0.066 C 
BRANCH  12  13
ATOM     13  C   UNL     1      11.303  18.896  55.399  1.00  0.00     0.140 C 
ATOM     14  O   UNL     1      11.594  18.983  54.216  1.00  0.00    -0.299 OA
BRANCH  13  15
ATOM     15  C   UNL     1       9.916  19.294  55.846  1.00  0.00     0.106 CG0
ATOM     16  G   UNL     1       9.821  20.771  56.197  1.00  0.00     0.000 G0
ENDBRANCH  13  15
ENDBRANCH  12  13
BRANCH  12  17
ATOM     17  C   UNL     1      13.659  17.900  55.777  1.00  0.00    -0.006 C 
ATOM     18  C   UNL     1      14.962  18.349  56.459  1.00  0.00     0.008 C 
ATOM     19  C   UNL     1      13.613  16.366  55.679  1.00  0.00     0.008 C 
ENDBRANCH  12  17
ENDBRANCH  11  12
ENDBRANCH   1  11
TORSDOF 1
ENDMDL
MODEL 5
REMARK VINA RESULT:    -4.036      1.962      2.365
REMARK INTER + INTRA:          -6.011
REMARK INTER:                  -5.641
REMARK INTRA:                  -0.370
REMARK UNBOUND:                 0.148
REMARK SMILES CC1=CCC[C@@H](C)C(=O)C[C@@H](C(C)C)C(=O)C1
REMARK SMILES IDX 8 1 9 2 6 3 7 4 5 5 4 6 3 7 2 8 1 9 10 11 11 12 15 13 16 14
REMARK SMILES IDX 17 15 12 17 13 18 14 19
REMARK H PARENT
REMARK Flexibility Score: 70.00
ROOT
ATOM      1  C   UNL     1      12.700  18.492  55.777  1.00  0.00     0.136 C 
ATOM      2  O   UNL     1      12.857  19.002  54.677  1.00  0.00    -0.299 OA
ENDROOT
BRANCH   1   3
ATOM      3  C   UNL     1      13.498  17.253  56.147  1.00  0.00     0.053 C 
ATOM      4  C   UNL     1      14.987  17.595  56.286  1.00  0.00     0.016 C 
BRANCH   3   5
ATOM      5  C   UNL     1      13.281  16.144  55.095  1.00  0.00     0.015 C 
BRANCH   5   6
ATOM      6  C   UNL     1      12.048  15.273  55.412  1.00  0.00     0.028 C 
BRANCH   6   7
ATOM      7  C   UNL     1      10.919  15.577  54.461  1.00  0.00    -0.028 C 
ATOM      8  C   UNL     1       9.713  16.071  54.829  1.00  0.00    -0.070 CG0
ATOM      9  C   UNL     1       8.720  16.399  53.742  1.00  0.00     0.039 C 
ATOM     10  G   UNL     1       9.317  16.283  56.282  1.00  0.00     0.000 G0
ENDBRANCH   6   7
ENDBRANCH   5   6
ENDBRANCH   3   5
ENDBRANCH   1   3
BRANCH   1  11
ATOM     11  C   UNL     1      11.709  19.100  56.744  1.00  0.00     0.087 C 
BRANCH  11  12
ATOM     12  C   UNL     1      10.809  18.079  57.507  1.00  0.00     0.066 C 
BRANCH  12  13
ATOM     13  C   UNL     1       9.527  17.705  56.766  1.00  0.00     0.140 C 
ATOM     14  O   UNL     1       8.643  18.535  56.609  1.00  0.00    -0.299 OA
BRANCH  13  15
ATOM     15  C   UNL     1       9.298  16.289  56.294  1.00  0.00     0.106 CG0
ATOM     16  G   UNL     1       9.710  16.088  54.843  1.00  0.00     0.000 G0
ENDBRANCH  13  15
ENDBRANCH  12  13
BRANCH  12  17
ATOM     17  C   UNL     1      10.580  18.451  59.007  1.00  0.00    -0.006 C 
ATOM     18  C   UNL     1      11.593  17.832  59.983  1.00  0.00     0.008 C 
ATOM     19  C   UNL     1      10.514  19.974  59.207  1.00  0.00     0.008 C 
ENDBRANCH  12  17
ENDBRANCH  11  12
ENDBRANCH   1  11
TORSDOF 1
ENDMDL
MODEL 6
REMARK VINA RESULT:    -3.994      2.175      4.337
REMARK INTER + INTRA:          -5.947
REMARK INTER:                  -5.469
REMARK INTRA:                  -0.478
REMARK UNBOUND:                 0.148
REMARK SMILES CC1=CCC[C@@H](C)C(=O)C[C@@H](C(C)C)C(=O)C1
REMARK SMILES IDX 8 1 9 2 6 3 7 4 5 5 4 6 3 7 2 8 1 9 10 11 11 12 15 13 16 14
REMARK SMILES IDX 17 15 12 17 13 18 14 19
REMARK H PARENT
REMARK Flexibility Score: 70.00
ROOT
ATOM      1  C   UNL     1      11.334  19.225  57.689  1.00  0.00     0.136 C 
ATOM      2  O   UNL     1      10.937  20.341  57.996  1.00  0.00    -0.299 OA
ENDROOT
BRANCH   1   3
ATOM      3  C   UNL     1      11.837  18.287  58.772  1.00  0.00     0.053 C 
ATOM      4  C   UNL     1      10.808  18.172  59.905  1.00  0.00     0.016 C 
BRANCH   3   5
ATOM      5  C   UNL     1      13.199  18.774  59.312  1.00  0.00     0.015 C 
BRANCH   5   6
ATOM      6  C   UNL     1      14.363  17.873  58.853  1.00  0.00     0.028 C 
BRANCH   6   7
ATOM      7  C   UNL     1      15.227  18.584  57.842  1.00  0.00    -0.028 C 
ATOM      8  C   UNL     1      15.282  18.279  56.524  1.00  0.00    -0.070 CG0
ATOM      9  C   UNL     1      16.134  19.144  55.631  1.00  0.00     0.039 C 
ATOM     10  G   UNL     1      14.544  17.093  55.920  1.00  0.00     0.000 G0
ENDBRANCH   6   7
ENDBRANCH   5   6
ENDBRANCH   3   5
ENDBRANCH   1   3
BRANCH   1  11
ATOM     11  C   UNL     1      11.323  18.806  56.236  1.00  0.00     0.087 C 
BRANCH  11  12
ATOM     12  C   UNL     1      11.939  17.403  55.942  1.00  0.00     0.066 C 
BRANCH  12  13
ATOM     13  C   UNL     1      13.274  17.453  55.202  1.00  0.00     0.140 C 
ATOM     14  O   UNL     1      13.308  17.731  54.012  1.00  0.00    -0.299 OA
BRANCH  13  15
ATOM     15  C   UNL     1      14.556  17.078  55.905  1.00  0.00     0.106 CG0
ATOM     16  G   UNL     1      15.255  18.282  56.518  1.00  0.00     0.000 G0
ENDBRANCH  13  15
ENDBRANCH  12  13
BRANCH  12  17
ATOM     17  C   UNL     1      10.919  16.393  55.327  1.00  0.00    -0.006 C 
ATOM     18  C   UNL     1      11.420  14.941  55.252  1.00  0.00     0.008 C 
ATOM     19  C   UNL     1       9.563  16.448  56.050  1.00  0.00     0.008 C 
ENDBRANCH  12  17
ENDBRANCH  11  12
ENDBRANCH   1  11
TORSDOF 1
ENDMDL
MODEL 7
REMARK VINA RESULT:    -3.931      2.204      5.226
REMARK INTER + INTRA:          -5.851
REMARK INTER:                  -5.836
REMARK INTRA:                  -0.015
REMARK UNBOUND:                 0.148
REMARK SMILES CC1=CCC[C@@H](C)C(=O)C[C@@H](C(C)C)C(=O)C1
REMARK SMILES IDX 8 1 9 2 6 3 7 4 5 5 4 6 3 7 2 8 1 9 10 11 11 12 15 13 16 14
REMARK SMILES IDX 17 15 12 17 13 18 14 19
REMARK H PARENT
REMARK Flexibility Score: 70.00
ROOT
ATOM      1  C   UNL     1      11.115  17.750  55.699  1.00  0.00     0.136 C 
ATOM      2  O   UNL     1      11.171  17.869  54.483  1.00  0.00    -0.299 OA
ENDROOT
BRANCH   1   3
ATOM      3  C   UNL     1      10.137  16.761  56.309  1.00  0.00     0.053 C 
ATOM      4  C   UNL     1      10.015  15.512  55.427  1.00  0.00     0.016 C 
BRANCH   3   5
ATOM      5  C   UNL     1       8.760  17.429  56.514  1.00  0.00     0.015 C 
BRANCH   5   6
ATOM      6  C   UNL     1       8.825  18.602  57.514  1.00  0.00     0.028 C 
BRANCH   6   7
ATOM      7  C   UNL     1       8.921  18.095  58.930  1.00  0.00    -0.028 C 
ATOM      8  C   UNL     1       9.950  18.349  59.772  1.00  0.00    -0.070 CG0
ATOM      9  C   UNL     1       9.852  17.837  61.187  1.00  0.00     0.039 C 
ATOM     10  G   UNL     1      11.201  19.102  59.343  1.00  0.00     0.000 G0
ENDBRANCH   6   7
ENDBRANCH   5   6
ENDBRANCH   3   5
ENDBRANCH   1   3
BRANCH   1  11
ATOM     11  C   UNL     1      12.017  18.596  56.570  1.00  0.00     0.087 C 
BRANCH  11  12
ATOM     12  C   UNL     1      12.790  17.820  57.681  1.00  0.00     0.066 C 
BRANCH  12  13
ATOM     13  C   UNL     1      12.397  18.213  59.103  1.00  0.00     0.140 C 
ATOM     14  O   UNL     1      13.003  17.751  60.059  1.00  0.00    -0.299 OA
BRANCH  13  15
ATOM     15  C   UNL     1      11.206  19.109  59.351  1.00  0.00     0.106 CG0
ATOM     16  G   UNL     1       9.964  18.326  59.747  1.00  0.00     0.000 G0
ENDBRANCH  13  15
ENDBRANCH  12  13
BRANCH  12  17
ATOM     17  C   UNL     1      14.334  17.775  57.448  1.00  0.00    -0.006 C 
ATOM     18  C   UNL     1      14.759  17.278  56.057  1.00  0.00     0.008 C 
ATOM     19  C   UNL     1      14.989  19.134  57.747  1.00  0.00     0.008 C 
ENDBRANCH  12  17
ENDBRANCH  11  12
ENDBRANCH   1  11
TORSDOF 1
ENDMDL
MODEL 8
REMARK VINA RESULT:    -3.911      2.975      4.997
REMARK INTER + INTRA:          -5.821
REMARK INTER:                  -5.503
REMARK INTRA:                  -0.318
REMARK UNBOUND:                 0.148
REMARK SMILES CC1=CCC[C@@H](C)C(=O)C[C@@H](C(C)C)C(=O)C1
REMARK SMILES IDX 8 1 9 2 6 3 7 4 5 5 4 6 3 7 2 8 1 9 10 11 11 12 15 13 16 14
REMARK SMILES IDX 17 15 12 17 13 18 14 19
REMARK H PARENT
REMARK Flexibility Score: 70.00
ROOT
ATOM      1  C   UNL     1       7.902  21.636  57.158  1.00  0.00     0.136 C 
ATOM      2  O   UNL     1       6.737  21.872  57.446  1.00  0.00    -0.299 OA
ENDROOT
BRANCH   1   3
ATOM      3  C   UNL     1       8.726  22.698  56.451  1.00  0.00     0.053 C 
ATOM      4  C   UNL     1       8.377  24.094  56.983  1.00  0.00     0.016 C 
BRANCH   3   5
ATOM      5  C   UNL     1       8.504  22.618  54.924  1.00  0.00     0.015 C 
BRANCH   5   6
ATOM      6  C   UNL     1       9.806  22.292  54.163  1.00  0.00     0.028 C 
BRANCH   6   7
ATOM      7  C   UNL     1       9.670  21.001  53.396  1.00  0.00    -0.028 C 
ATOM      8  C   UNL     1      10.236  19.826  53.760  1.00  0.00    -0.070 CG0
ATOM      9  C   UNL     1       9.932  18.606  52.927  1.00  0.00     0.039 C 
ATOM     10  G   UNL     1      11.176  19.695  54.948  1.00  0.00     0.000 G0
ENDBRANCH   6   7
ENDBRANCH   5   6
ENDBRANCH   3   5
ENDBRANCH   1   3
BRANCH   1  11
ATOM     11  C   UNL     1       8.495  20.289  57.505  1.00  0.00     0.087 C 
BRANCH  11  12
ATOM     12  C   UNL     1      10.036  20.165  57.293  1.00  0.00     0.066 C 
BRANCH  12  13
ATOM     13  C   UNL     1      10.436  19.190  56.188  1.00  0.00     0.140 C 
ATOM     14  O   UNL     1      10.221  17.994  56.316  1.00  0.00    -0.299 OA
BRANCH  13  15
ATOM     15  C   UNL     1      11.174  19.677  54.964  1.00  0.00     0.106 CG0
ATOM     16  G   UNL     1      10.260  19.827  53.757  1.00  0.00     0.000 G0
ENDBRANCH  13  15
ENDBRANCH  12  13
BRANCH  12  17
ATOM     17  C   UNL     1      10.832  19.965  58.623  1.00  0.00    -0.006 C 
ATOM     18  C   UNL     1      12.356  20.125  58.488  1.00  0.00     0.008 C 
ATOM     19  C   UNL     1      10.301  20.877  59.741  1.00  0.00     0.008 C 
ENDBRANCH  12  17
ENDBRANCH  11  12
ENDBRANCH   1  11
TORSDOF 1
ENDMDL
MODEL 9
REMARK VINA RESULT:    -3.788      5.646      7.599
REMARK INTER + INTRA:          -5.633
REMARK INTER:                  -5.520
REMARK INTRA:                  -0.114
REMARK UNBOUND:                 0.148
REMARK SMILES CC1=CCC[C@@H](C)C(=O)C[C@@H](C(C)C)C(=O)C1
REMARK SMILES IDX 8 1 9 2 6 3 7 4 5 5 4 6 3 7 2 8 1 9 10 11 11 12 15 13 16 14
REMARK SMILES IDX 17 15 12 17 13 18 14 19
REMARK H PARENT
REMARK Flexibility Score: 70.00
ROOT
ATOM      1  C   UNL     1       8.460  20.484  56.719  1.00  0.00     0.136 C 
ATOM      2  O   UNL     1       8.965  19.374  56.627  1.00  0.00    -0.299 OA
ENDROOT
BRANCH   1   3
ATOM      3  C   UNL     1       9.311  21.657  57.172  1.00  0.00     0.053 C 
ATOM      4  C   UNL     1      10.038  21.322  58.481  1.00  0.00     0.016 C 
BRANCH   3   5
ATOM      5  C   UNL     1       8.438  22.920  57.334  1.00  0.00     0.015 C 
BRANCH   5   6
ATOM      6  C   UNL     1       8.539  23.858  56.113  1.00  0.00     0.028 C 
BRANCH   6   7
ATOM      7  C   UNL     1       7.318  24.737  56.010  1.00  0.00    -0.028 C 
ATOM      8  C   UNL     1       6.282  24.520  55.165  1.00  0.00    -0.070 CG0
ATOM      9  C   UNL     1       5.096  25.448  55.247  1.00  0.00     0.039 C 
ATOM     10  G   UNL     1       6.279  23.404  54.132  1.00  0.00     0.000 G0
ENDBRANCH   6   7
ENDBRANCH   5   6
ENDBRANCH   3   5
ENDBRANCH   1   3
BRANCH   1  11
ATOM     11  C   UNL     1       6.996  20.664  56.387  1.00  0.00     0.087 C 
BRANCH  11  12
ATOM     12  C   UNL     1       6.681  20.929  54.883  1.00  0.00     0.066 C 
BRANCH  12  13
ATOM     13  C   UNL     1       5.740  22.109  54.643  1.00  0.00     0.140 C 
ATOM     14  O   UNL     1       4.537  21.980  54.810  1.00  0.00    -0.299 OA
BRANCH  13  15
ATOM     15  C   UNL     1       6.273  23.421  54.117  1.00  0.00     0.106 CG0
ATOM     16  G   UNL     1       6.282  24.510  55.180  1.00  0.00     0.000 G0
ENDBRANCH  13  15
ENDBRANCH  12  13
BRANCH  12  17
ATOM     17  C   UNL     1       6.282  19.641  54.094  1.00  0.00    -0.006 C 
ATOM     18  C   UNL     1       7.433  18.985  53.313  1.00  0.00     0.008 C 
ATOM     19  C   UNL     1       5.605  18.606  55.008  1.00  0.00     0.008 C 
ENDBRANCH  12  17
ENDBRANCH  11  12
ENDBRANCH   1  11
TORSDOF 1
ENDMDL
