MODEL 1
REMARK VINA RESULT:    -3.863      0.000      0.000
REMARK INTER + INTRA:          -4.656
REMARK INTER:                  -4.654
REMARK INTRA:                  -0.002
REMARK UNBOUND:                -0.002
REMARK SMILES OCC(O)CO
REMARK SMILES IDX 3 1 5 2 6 3 2 5 1 6 4 8
REMARK H PARENT 6 4 1 7 4 9
REMARK Flexibility Score: inf
ROOT
ATOM      1  C   UNL     1      34.024  12.910  44.964  1.00  0.00     0.165 C 
ENDROOT
BRANCH   1   2
ATOM      2  C   UNL     1      34.279  13.062  46.477  1.00  0.00     0.190 C 
BRANCH   2   3
ATOM      3  O   UNL     1      34.415  11.807  47.088  1.00  0.00    -0.394 OA
ATOM      4  H   UNL     1      33.937  11.156  46.511  1.00  0.00     0.210 HD
ENDBRANCH   2   3
ENDBRANCH   1   2
BRANCH   1   5
ATOM      5  C   UNL     1      32.675  13.506  44.530  1.00  0.00     0.190 C 
BRANCH   5   6
ATOM      6  O   UNL     1      32.176  12.837  43.404  1.00  0.00    -0.394 OA
ATOM      7  H   UNL     1      31.493  12.201  43.742  1.00  0.00     0.210 HD
ENDBRANCH   5   6
ENDBRANCH   1   5
BRANCH   1   8
ATOM      8  O   UNL     1      34.119  11.562  44.578  1.00  0.00    -0.388 OA
ATOM      9  H   UNL     1      34.570  11.067  45.311  1.00  0.00     0.211 HD
ENDBRANCH   1   8
TORSDOF 5
ENDMDL
MODEL 2
REMARK VINA RESULT:    -3.853     12.352     12.714
REMARK INTER + INTRA:          -4.644
REMARK INTER:                  -4.446
REMARK INTRA:                  -0.198
REMARK UNBOUND:                -0.002
REMARK SMILES OCC(O)CO
REMARK SMILES IDX 3 1 5 2 6 3 2 5 1 6 4 8
REMARK H PARENT 6 4 1 7 4 9
REMARK Flexibility Score: inf
ROOT
ATOM      1  C   UNL     1      30.907   0.378  44.146  1.00  0.00     0.165 C 
ENDROOT
BRANCH   1   2
ATOM      2  C   UNL     1      30.904  -0.604  45.335  1.00  0.00     0.190 C 
BRANCH   2   3
ATOM      3  O   UNL     1      31.760  -0.159  46.352  1.00  0.00    -0.394 OA
ATOM      4  H   UNL     1      32.413  -0.889  46.514  1.00  0.00     0.210 HD
ENDBRANCH   2   3
ENDBRANCH   1   2
BRANCH   1   5
ATOM      5  C   UNL     1      32.169   0.249  43.277  1.00  0.00     0.190 C 
BRANCH   5   6
ATOM      6  O   UNL     1      33.299   0.021  44.074  1.00  0.00    -0.394 OA
ATOM      7  H   UNL     1      32.960  -0.155  44.990  1.00  0.00     0.210 HD
ENDBRANCH   5   6
ENDBRANCH   1   5
BRANCH   1   8
ATOM      8  O   UNL     1      30.746   1.700  44.596  1.00  0.00    -0.388 OA
ATOM      9  H   UNL     1      31.635   2.141  44.565  1.00  0.00     0.211 HD
ENDBRANCH   1   8
TORSDOF 5
ENDMDL
MODEL 3
REMARK VINA RESULT:    -3.786     12.216     12.670
REMARK INTER + INTRA:          -4.563
REMARK INTER:                  -4.525
REMARK INTRA:                  -0.038
REMARK UNBOUND:                -0.002
REMARK SMILES OCC(O)CO
REMARK SMILES IDX 3 1 5 2 6 3 2 5 1 6 4 8
REMARK H PARENT 6 4 1 7 4 9
REMARK Flexibility Score: inf
ROOT
ATOM      1  C   UNL     1      31.543   0.098  44.061  1.00  0.00     0.165 C 
ENDROOT
BRANCH   1   2
ATOM      2  C   UNL     1      30.976   1.492  43.722  1.00  0.00     0.190 C 
BRANCH   2   3
ATOM      3  O   UNL     1      29.885   1.801  44.546  1.00  0.00    -0.394 OA
ATOM      4  H   UNL     1      29.368   2.509  44.081  1.00  0.00     0.210 HD
ENDBRANCH   2   3
ENDBRANCH   1   2
BRANCH   1   5
ATOM      5  C   UNL     1      30.944  -0.484  45.352  1.00  0.00     0.190 C 
BRANCH   5   6
ATOM      6  O   UNL     1      31.803  -0.269  46.438  1.00  0.00    -0.394 OA
ATOM      7  H   UNL     1      32.325   0.546  46.220  1.00  0.00     0.210 HD
ENDBRANCH   5   6
ENDBRANCH   1   5
BRANCH   1   8
ATOM      8  O   UNL     1      32.946   0.139  44.138  1.00  0.00    -0.388 OA
ATOM      9  H   UNL     1      33.191   0.416  45.060  1.00  0.00     0.211 HD
ENDBRANCH   1   8
TORSDOF 5
ENDMDL
MODEL 4
REMARK VINA RESULT:    -3.782     12.654     13.019
REMARK INTER + INTRA:          -4.559
REMARK INTER:                  -4.353
REMARK INTRA:                  -0.205
REMARK UNBOUND:                -0.002
REMARK SMILES OCC(O)CO
REMARK SMILES IDX 3 1 5 2 6 3 2 5 1 6 4 8
REMARK H PARENT 6 4 1 7 4 9
REMARK Flexibility Score: inf
ROOT
ATOM      1  C   UNL     1      31.128   0.407  43.877  1.00  0.00     0.165 C 
ENDROOT
BRANCH   1   2
ATOM      2  C   UNL     1      32.421   0.027  43.130  1.00  0.00     0.190 C 
BRANCH   2   3
ATOM      3  O   UNL     1      33.518   0.020  44.003  1.00  0.00    -0.394 OA
ATOM      4  H   UNL     1      33.177  -0.278  44.887  1.00  0.00     0.210 HD
ENDBRANCH   2   3
ENDBRANCH   1   2
BRANCH   1   5
ATOM      5  C   UNL     1      30.903  -0.442  45.139  1.00  0.00     0.190 C 
BRANCH   5   6
ATOM      6  O   UNL     1      31.768  -0.043  46.167  1.00  0.00    -0.394 OA
ATOM      7  H   UNL     1      32.048   0.883  45.946  1.00  0.00     0.210 HD
ENDBRANCH   5   6
ENDBRANCH   1   5
BRANCH   1   8
ATOM      8  O   UNL     1      30.017   0.324  43.018  1.00  0.00    -0.388 OA
ATOM      9  H   UNL     1      30.309  -0.136  42.188  1.00  0.00     0.211 HD
ENDBRANCH   1   8
TORSDOF 5
ENDMDL
MODEL 5
REMARK VINA RESULT:    -3.731     12.192     12.417
REMARK INTER + INTRA:          -4.497
REMARK INTER:                  -4.307
REMARK INTRA:                  -0.191
REMARK UNBOUND:                -0.002
REMARK SMILES OCC(O)CO
REMARK SMILES IDX 3 1 5 2 6 3 2 5 1 6 4 8
REMARK H PARENT 6 4 1 7 4 9
REMARK Flexibility Score: inf
ROOT
ATOM      1  C   UNL     1      31.345   0.462  43.806  1.00  0.00     0.165 C 
ENDROOT
BRANCH   1   2
ATOM      2  C   UNL     1      30.926  -0.360  45.041  1.00  0.00     0.190 C 
BRANCH   2   3
ATOM      3  O   UNL     1      31.716  -0.031  46.152  1.00  0.00    -0.394 OA
ATOM      4  H   UNL     1      32.660  -0.058  45.847  1.00  0.00     0.210 HD
ENDBRANCH   2   3
ENDBRANCH   1   2
BRANCH   1   5
ATOM      5  C   UNL     1      30.446   1.688  43.580  1.00  0.00     0.190 C 
BRANCH   5   6
ATOM      6  O   UNL     1      29.924   2.152  44.795  1.00  0.00    -0.394 OA
ATOM      7  H   UNL     1      30.382   3.012  44.981  1.00  0.00     0.210 HD
ENDBRANCH   5   6
ENDBRANCH   1   5
BRANCH   1   8
ATOM      8  O   UNL     1      31.377  -0.350  42.658  1.00  0.00    -0.388 OA
ATOM      9  H   UNL     1      31.770   0.185  41.919  1.00  0.00     0.211 HD
ENDBRANCH   1   8
TORSDOF 5
ENDMDL
MODEL 6
REMARK VINA RESULT:    -3.730      6.052      6.798
REMARK INTER + INTRA:          -4.496
REMARK INTER:                  -4.278
REMARK INTRA:                  -0.217
REMARK UNBOUND:                -0.002
REMARK SMILES OCC(O)CO
REMARK SMILES IDX 3 1 5 2 6 3 2 5 1 6 4 8
REMARK H PARENT 6 4 1 7 4 9
REMARK Flexibility Score: inf
ROOT
ATOM      1  C   UNL     1      37.440   6.835  44.342  1.00  0.00     0.165 C 
ENDROOT
BRANCH   1   2
ATOM      2  C   UNL     1      38.279   6.983  43.057  1.00  0.00     0.190 C 
BRANCH   2   3
ATOM      3  O   UNL     1      37.962   8.173  42.388  1.00  0.00    -0.394 OA
ATOM      4  H   UNL     1      38.811   8.677  42.285  1.00  0.00     0.210 HD
ENDBRANCH   2   3
ENDBRANCH   1   2
BRANCH   1   5
ATOM      5  C   UNL     1      35.928   6.870  44.067  1.00  0.00     0.190 C 
BRANCH   5   6
ATOM      6  O   UNL     1      35.500   8.180  43.811  1.00  0.00    -0.394 OA
ATOM      7  H   UNL     1      34.524   8.191  43.989  1.00  0.00     0.210 HD
ENDBRANCH   5   6
ENDBRANCH   1   5
BRANCH   1   8
ATOM      8  O   UNL     1      37.797   7.817  45.283  1.00  0.00    -0.388 OA
ATOM      9  H   UNL     1      38.472   8.411  44.861  1.00  0.00     0.211 HD
ENDBRANCH   1   8
TORSDOF 5
ENDMDL
MODEL 7
REMARK VINA RESULT:    -3.704      5.947      6.780
REMARK INTER + INTRA:          -4.464
REMARK INTER:                  -4.461
REMARK INTRA:                  -0.003
REMARK UNBOUND:                -0.002
REMARK SMILES OCC(O)CO
REMARK SMILES IDX 3 1 5 2 6 3 2 5 1 6 4 8
REMARK H PARENT 6 4 1 7 4 9
REMARK Flexibility Score: inf
ROOT
ATOM      1  C   UNL     1      36.303   7.298  44.591  1.00  0.00     0.165 C 
ENDROOT
BRANCH   1   2
ATOM      2  C   UNL     1      37.557   6.943  43.768  1.00  0.00     0.190 C 
BRANCH   2   3
ATOM      3  O   UNL     1      37.798   7.910  42.782  1.00  0.00    -0.394 OA
ATOM      4  H   UNL     1      37.810   7.433  41.912  1.00  0.00     0.210 HD
ENDBRANCH   2   3
ENDBRANCH   1   2
BRANCH   1   5
ATOM      5  C   UNL     1      35.417   6.074  44.875  1.00  0.00     0.190 C 
BRANCH   5   6
ATOM      6  O   UNL     1      35.036   6.038  46.223  1.00  0.00    -0.394 OA
ATOM      7  H   UNL     1      34.150   6.484  46.271  1.00  0.00     0.210 HD
ENDBRANCH   5   6
ENDBRANCH   1   5
BRANCH   1   8
ATOM      8  O   UNL     1      35.563   8.310  43.955  1.00  0.00    -0.388 OA
ATOM      9  H   UNL     1      35.796   9.174  44.387  1.00  0.00     0.211 HD
ENDBRANCH   1   8
TORSDOF 5
ENDMDL
MODEL 8
REMARK VINA RESULT:    -3.693      1.946      3.074
REMARK INTER + INTRA:          -4.451
REMARK INTER:                  -4.235
REMARK INTRA:                  -0.216
REMARK UNBOUND:                -0.002
REMARK SMILES OCC(O)CO
REMARK SMILES IDX 3 1 5 2 6 3 2 5 1 6 4 8
REMARK H PARENT 6 4 1 7 4 9
REMARK Flexibility Score: inf
ROOT
ATOM      1  C   UNL     1      33.920  13.051  45.730  1.00  0.00     0.165 C 
ENDROOT
BRANCH   1   2
ATOM      2  C   UNL     1      32.981  14.035  45.002  1.00  0.00     0.190 C 
BRANCH   2   3
ATOM      3  O   UNL     1      33.612  15.270  44.800  1.00  0.00    -0.394 OA
ATOM      4  H   UNL     1      34.172  15.174  43.986  1.00  0.00     0.210 HD
ENDBRANCH   2   3
ENDBRANCH   1   2
BRANCH   1   5
ATOM      5  C   UNL     1      34.921  13.765  46.653  1.00  0.00     0.190 C 
BRANCH   5   6
ATOM      6  O   UNL     1      36.011  14.254  45.921  1.00  0.00    -0.394 OA
ATOM      7  H   UNL     1      36.095  13.665  45.126  1.00  0.00     0.210 HD
ENDBRANCH   5   6
ENDBRANCH   1   5
BRANCH   1   8
ATOM      8  O   UNL     1      34.593  12.233  44.806  1.00  0.00    -0.388 OA
ATOM      9  H   UNL     1      35.291  11.728  45.299  1.00  0.00     0.211 HD
ENDBRANCH   1   8
TORSDOF 5
ENDMDL
MODEL 9
REMARK VINA RESULT:    -3.688      5.988      6.659
REMARK INTER + INTRA:          -4.445
REMARK INTER:                  -4.221
REMARK INTRA:                  -0.224
REMARK UNBOUND:                -0.002
REMARK SMILES OCC(O)CO
REMARK SMILES IDX 3 1 5 2 6 3 2 5 1 6 4 8
REMARK H PARENT 6 4 1 7 4 9
REMARK Flexibility Score: inf
ROOT
ATOM      1  C   UNL     1      36.088   6.934  43.843  1.00  0.00     0.165 C 
ENDROOT
BRANCH   1   2
ATOM      2  C   UNL     1      35.321   5.959  44.757  1.00  0.00     0.190 C 
BRANCH   2   3
ATOM      3  O   UNL     1      35.301   6.424  46.079  1.00  0.00    -0.394 OA
ATOM      4  H   UNL     1      35.377   5.625  46.663  1.00  0.00     0.210 HD
ENDBRANCH   2   3
ENDBRANCH   1   2
BRANCH   1   5
ATOM      5  C   UNL     1      37.579   7.035  44.206  1.00  0.00     0.190 C 
BRANCH   5   6
ATOM      6  O   UNL     1      37.761   7.843  45.337  1.00  0.00    -0.394 OA
ATOM      7  H   UNL     1      38.737   7.854  45.513  1.00  0.00     0.210 HD
ENDBRANCH   5   6
ENDBRANCH   1   5
BRANCH   1   8
ATOM      8  O   UNL     1      35.487   8.205  43.858  1.00  0.00    -0.388 OA
ATOM      9  H   UNL     1      35.330   8.478  42.916  1.00  0.00     0.211 HD
ENDBRANCH   1   8
TORSDOF 5
ENDMDL
