MODEL 1
REMARK VINA RESULT:    -4.090      0.000      0.000
REMARK INTER + INTRA:          -9.233
REMARK INTER:                  -7.557
REMARK INTRA:                  -1.677
REMARK UNBOUND:                -1.677
REMARK SMILES CCCCCCCCCCCCCCCCO
REMARK SMILES IDX 9 1 8 2 7 3 6 4 5 5 4 6 3 7 2 8 1 9 10 10 11 11 12 12 13 13
REMARK SMILES IDX 14 14 15 15 16 16 17 17
REMARK H PARENT 17 18
REMARK Flexibility Score: inf
ROOT
ATOM      1  C   UNL     1     127.949 142.827 106.233  1.00  0.00     0.000 C 
ENDROOT
BRANCH   1   2
ATOM      2  C   UNL     1     129.436 142.474 106.357  1.00  0.00    -0.000 C 
BRANCH   2   3
ATOM      3  C   UNL     1     130.286 143.338 105.414  1.00  0.00    -0.000 C 
BRANCH   3   4
ATOM      4  C   UNL     1     131.219 144.307 106.163  1.00  0.00    -0.000 C 
BRANCH   4   5
ATOM      5  C   UNL     1     130.865 145.798 106.012  1.00  0.00    -0.000 C 
BRANCH   5   6
ATOM      6  C   UNL     1     132.101 146.710 106.006  1.00  0.00    -0.000 C 
BRANCH   6   7
ATOM      7  C   UNL     1     133.393 145.884 106.078  1.00  0.00    -0.000 C 
BRANCH   7   8
ATOM      8  C   UNL     1     134.266 146.041 104.825  1.00  0.00    -0.003 C 
ATOM      9  C   UNL     1     134.641 144.701 104.193  1.00  0.00     0.004 C 
ENDBRANCH   7   8
ENDBRANCH   6   7
ENDBRANCH   5   6
ENDBRANCH   4   5
ENDBRANCH   3   4
ENDBRANCH   2   3
ENDBRANCH   1   2
BRANCH   1  10
ATOM     10  C   UNL     1     127.723 143.892 105.153  1.00  0.00     0.000 C 
BRANCH  10  11
ATOM     11  C   UNL     1     127.232 145.207 105.770  1.00  0.00     0.000 C 
BRANCH  11  12
ATOM     12  C   UNL     1     127.003 145.053 107.281  1.00  0.00     0.000 C 
BRANCH  12  13
ATOM     13  C   UNL     1     128.029 145.830 108.127  1.00  0.00     0.000 C 
BRANCH  13  14
ATOM     14  C   UNL     1     128.552 145.080 109.366  1.00  0.00     0.002 C 
BRANCH  14  15
ATOM     15  C   UNL     1     127.463 144.843 110.425  1.00  0.00     0.028 C 
BRANCH  15  16
ATOM     16  C   UNL     1     127.671 143.516 111.165  1.00  0.00     0.156 C 
BRANCH  16  17
ATOM     17  O   UNL     1     127.173 142.441 110.417  1.00  0.00    -0.396 OA
ATOM     18  H   UNL     1     127.961 141.940 110.079  1.00  0.00     0.210 HD
ENDBRANCH  16  17
ENDBRANCH  15  16
ENDBRANCH  14  15
ENDBRANCH  13  14
ENDBRANCH  12  13
ENDBRANCH  11  12
ENDBRANCH  10  11
ENDBRANCH   1  10
TORSDOF 15
ENDMDL
MODEL 2
REMARK VINA RESULT:    -4.049      2.896      5.686
REMARK INTER + INTRA:          -9.158
REMARK INTER:                  -7.097
REMARK INTRA:                  -2.061
REMARK UNBOUND:                -1.677
REMARK SMILES CCCCCCCCCCCCCCCCO
REMARK SMILES IDX 9 1 8 2 7 3 6 4 5 5 4 6 3 7 2 8 1 9 10 10 11 11 12 12 13 13
REMARK SMILES IDX 14 14 15 15 16 16 17 17
REMARK H PARENT 17 18
REMARK Flexibility Score: inf
ROOT
ATOM      1  C   UNL     1     129.282 142.608 105.690  1.00  0.00     0.000 C 
ENDROOT
BRANCH   1   2
ATOM      2  C   UNL     1     127.810 143.037 105.663  1.00  0.00    -0.000 C 
BRANCH   2   3
ATOM      3  C   UNL     1     127.631 144.336 104.865  1.00  0.00    -0.000 C 
BRANCH   3   4
ATOM      4  C   UNL     1     127.023 145.477 105.702  1.00  0.00    -0.000 C 
BRANCH   4   5
ATOM      5  C   UNL     1     126.883 145.177 107.206  1.00  0.00    -0.000 C 
BRANCH   5   6
ATOM      6  C   UNL     1     127.532 146.249 108.094  1.00  0.00    -0.000 C 
BRANCH   6   7
ATOM      7  C   UNL     1     128.100 145.628 109.378  1.00  0.00    -0.000 C 
BRANCH   7   8
ATOM      8  C   UNL     1     129.540 146.076 109.665  1.00  0.00    -0.003 C 
ATOM      9  C   UNL     1     130.427 144.935 110.164  1.00  0.00     0.004 C 
ENDBRANCH   7   8
ENDBRANCH   6   7
ENDBRANCH   5   6
ENDBRANCH   4   5
ENDBRANCH   3   4
ENDBRANCH   2   3
ENDBRANCH   1   2
BRANCH   1  10
ATOM     10  C   UNL     1     130.064 143.387 106.755  1.00  0.00     0.000 C 
BRANCH  10  11
ATOM     11  C   UNL     1     131.154 144.254 106.113  1.00  0.00     0.000 C 
BRANCH  11  12
ATOM     12  C   UNL     1     130.741 145.733 106.095  1.00  0.00     0.000 C 
BRANCH  12  13
ATOM     13  C   UNL     1     131.935 146.693 106.253  1.00  0.00     0.000 C 
BRANCH  13  14
ATOM     14  C   UNL     1     132.910 146.337 107.390  1.00  0.00     0.002 C 
BRANCH  14  15
ATOM     15  C   UNL     1     134.349 146.113 106.898  1.00  0.00     0.028 C 
BRANCH  15  16
ATOM     16  C   UNL     1     135.358 146.172 108.050  1.00  0.00     0.156 C 
BRANCH  16  17
ATOM     17  O   UNL     1     136.369 147.107 107.785  1.00  0.00    -0.396 OA
ATOM     18  H   UNL     1     136.954 146.703 107.092  1.00  0.00     0.210 HD
ENDBRANCH  16  17
ENDBRANCH  15  16
ENDBRANCH  14  15
ENDBRANCH  13  14
ENDBRANCH  12  13
ENDBRANCH  11  12
ENDBRANCH  10  11
ENDBRANCH   1  10
TORSDOF 15
ENDMDL
MODEL 3
REMARK VINA RESULT:    -3.993      2.929      6.442
REMARK INTER + INTRA:          -9.055
REMARK INTER:                  -7.197
REMARK INTRA:                  -1.858
REMARK UNBOUND:                -1.677
REMARK SMILES CCCCCCCCCCCCCCCCO
REMARK SMILES IDX 9 1 8 2 7 3 6 4 5 5 4 6 3 7 2 8 1 9 10 10 11 11 12 12 13 13
REMARK SMILES IDX 14 14 15 15 16 16 17 17
REMARK H PARENT 17 18
REMARK Flexibility Score: inf
ROOT
ATOM      1  C   UNL     1     130.714 144.129 107.777  1.00  0.00     0.000 C 
ENDROOT
BRANCH   1   2
ATOM      2  C   UNL     1     130.131 145.330 108.530  1.00  0.00    -0.000 C 
BRANCH   2   3
ATOM      3  C   UNL     1     128.672 145.071 108.932  1.00  0.00    -0.000 C 
BRANCH   3   4
ATOM      4  C   UNL     1     127.678 146.008 108.222  1.00  0.00    -0.000 C 
BRANCH   4   5
ATOM      5  C   UNL     1     126.875 145.359 107.078  1.00  0.00    -0.000 C 
BRANCH   5   6
ATOM      6  C   UNL     1     127.543 145.528 105.705  1.00  0.00    -0.000 C 
BRANCH   6   7
ATOM      7  C   UNL     1     127.618 144.186 104.964  1.00  0.00    -0.000 C 
BRANCH   7   8
ATOM      8  C   UNL     1     127.256 142.994 105.861  1.00  0.00    -0.003 C 
ATOM      9  C   UNL     1     128.438 142.056 106.105  1.00  0.00     0.004 C 
ENDBRANCH   7   8
ENDBRANCH   6   7
ENDBRANCH   5   6
ENDBRANCH   4   5
ENDBRANCH   3   4
ENDBRANCH   2   3
ENDBRANCH   1   2
BRANCH   1  10
ATOM     10  C   UNL     1     131.189 144.534 106.376  1.00  0.00     0.000 C 
BRANCH  10  11
ATOM     11  C   UNL     1     130.929 146.023 106.116  1.00  0.00     0.000 C 
BRANCH  11  12
ATOM     12  C   UNL     1     132.232 146.752 105.753  1.00  0.00     0.000 C 
BRANCH  12  13
ATOM     13  C   UNL     1     133.488 146.041 106.286  1.00  0.00     0.000 C 
BRANCH  13  14
ATOM     14  C   UNL     1     134.665 145.969 105.296  1.00  0.00     0.002 C 
BRANCH  14  15
ATOM     15  C   UNL     1     136.029 146.197 105.969  1.00  0.00     0.028 C 
BRANCH  15  16
ATOM     16  C   UNL     1     135.888 146.395 107.482  1.00  0.00     0.156 C 
BRANCH  16  17
ATOM     17  O   UNL     1     136.969 147.125 107.996  1.00  0.00    -0.396 OA
ATOM     18  H   UNL     1     137.286 146.635 108.799  1.00  0.00     0.210 HD
ENDBRANCH  16  17
ENDBRANCH  15  16
ENDBRANCH  14  15
ENDBRANCH  13  14
ENDBRANCH  12  13
ENDBRANCH  11  12
ENDBRANCH  10  11
ENDBRANCH   1  10
TORSDOF 15
ENDMDL
MODEL 4
REMARK VINA RESULT:    -3.952      1.601      1.910
REMARK INTER + INTRA:          -8.979
REMARK INTER:                  -7.134
REMARK INTRA:                  -1.845
REMARK UNBOUND:                -1.677
REMARK SMILES CCCCCCCCCCCCCCCCO
REMARK SMILES IDX 9 1 8 2 7 3 6 4 5 5 4 6 3 7 2 8 1 9 10 10 11 11 12 12 13 13
REMARK SMILES IDX 14 14 15 15 16 16 17 17
REMARK H PARENT 17 18
REMARK Flexibility Score: inf
ROOT
ATOM      1  C   UNL     1     128.842 143.169 105.148  1.00  0.00     0.000 C 
ENDROOT
BRANCH   1   2
ATOM      2  C   UNL     1     129.814 143.340 106.321  1.00  0.00    -0.000 C 
BRANCH   2   3
ATOM      3  C   UNL     1     131.016 144.206 105.918  1.00  0.00    -0.000 C 
BRANCH   3   4
ATOM      4  C   UNL     1     130.872 145.675 106.354  1.00  0.00    -0.000 C 
BRANCH   4   5
ATOM      5  C   UNL     1     132.198 146.398 106.656  1.00  0.00    -0.000 C 
BRANCH   5   6
ATOM      6  C   UNL     1     133.237 146.238 105.536  1.00  0.00    -0.000 C 
BRANCH   6   7
ATOM      7  C   UNL     1     134.622 145.916 106.115  1.00  0.00    -0.000 C 
BRANCH   7   8
ATOM      8  C   UNL     1     135.313 144.756 105.383  1.00  0.00    -0.003 C 
ATOM      9  C   UNL     1     134.544 144.298 104.143  1.00  0.00     0.004 C 
ENDBRANCH   7   8
ENDBRANCH   6   7
ENDBRANCH   5   6
ENDBRANCH   4   5
ENDBRANCH   3   4
ENDBRANCH   2   3
ENDBRANCH   1   2
BRANCH   1  10
ATOM     10  C   UNL     1     127.461 143.742 105.488  1.00  0.00     0.000 C 
BRANCH  10  11
ATOM     11  C   UNL     1     127.308 145.168 104.945  1.00  0.00     0.000 C 
BRANCH  11  12
ATOM     12  C   UNL     1     126.897 146.140 106.062  1.00  0.00     0.000 C 
BRANCH  12  13
ATOM     13  C   UNL     1     126.920 145.493 107.460  1.00  0.00     0.000 C 
BRANCH  13  14
ATOM     14  C   UNL     1     128.013 146.025 108.404  1.00  0.00     0.002 C 
BRANCH  14  15
ATOM     15  C   UNL     1     128.541 144.954 109.373  1.00  0.00     0.028 C 
BRANCH  15  16
ATOM     16  C   UNL     1     129.791 145.432 110.120  1.00  0.00     0.156 C 
BRANCH  16  17
ATOM     17  O   UNL     1     130.036 146.790 109.872  1.00  0.00    -0.396 OA
ATOM     18  H   UNL     1     130.397 146.850 108.950  1.00  0.00     0.210 HD
ENDBRANCH  16  17
ENDBRANCH  15  16
ENDBRANCH  14  15
ENDBRANCH  13  14
ENDBRANCH  12  13
ENDBRANCH  11  12
ENDBRANCH  10  11
ENDBRANCH   1  10
TORSDOF 15
ENDMDL
MODEL 5
REMARK VINA RESULT:    -3.944      1.320      3.003
REMARK INTER + INTRA:          -8.964
REMARK INTER:                  -6.697
REMARK INTRA:                  -2.267
REMARK UNBOUND:                -1.677
REMARK SMILES CCCCCCCCCCCCCCCCO
REMARK SMILES IDX 9 1 8 2 7 3 6 4 5 5 4 6 3 7 2 8 1 9 10 10 11 11 12 12 13 13
REMARK SMILES IDX 14 14 15 15 16 16 17 17
REMARK H PARENT 17 18
REMARK Flexibility Score: inf
ROOT
ATOM      1  C   UNL     1     127.061 145.853 106.403  1.00  0.00     0.000 C 
ENDROOT
BRANCH   1   2
ATOM      2  C   UNL     1     126.904 144.778 107.484  1.00  0.00    -0.000 C 
BRANCH   2   3
ATOM      3  C   UNL     1     127.757 145.109 108.717  1.00  0.00    -0.000 C 
BRANCH   3   4
ATOM      4  C   UNL     1     128.883 146.114 108.416  1.00  0.00    -0.000 C 
BRANCH   4   5
ATOM      5  C   UNL     1     130.259 145.483 108.129  1.00  0.00    -0.000 C 
BRANCH   5   6
ATOM      6  C   UNL     1     130.851 145.923 106.782  1.00  0.00    -0.000 C 
BRANCH   6   7
ATOM      7  C   UNL     1     132.348 146.235 106.917  1.00  0.00    -0.000 C 
BRANCH   7   8
ATOM      8  C   UNL     1     133.211 145.427 105.936  1.00  0.00    -0.003 C 
ATOM      9  C   UNL     1     132.648 144.032 105.665  1.00  0.00     0.004 C 
ENDBRANCH   7   8
ENDBRANCH   6   7
ENDBRANCH   5   6
ENDBRANCH   4   5
ENDBRANCH   3   4
ENDBRANCH   2   3
ENDBRANCH   1   2
BRANCH   1  10
ATOM     10  C   UNL     1     127.484 145.233 105.065  1.00  0.00     0.000 C 
BRANCH  10  11
ATOM     11  C   UNL     1     127.599 143.708 105.178  1.00  0.00     0.000 C 
BRANCH  11  12
ATOM     12  C   UNL     1     129.069 143.264 105.149  1.00  0.00     0.000 C 
BRANCH  12  13
ATOM     13  C   UNL     1     129.306 141.924 105.868  1.00  0.00     0.000 C 
BRANCH  13  14
ATOM     14  C   UNL     1     129.428 142.020 107.400  1.00  0.00     0.002 C 
BRANCH  14  15
ATOM     15  C   UNL     1     128.217 141.423 108.136  1.00  0.00     0.028 C 
BRANCH  15  16
ATOM     16  C   UNL     1     128.380 141.508 109.658  1.00  0.00     0.156 C 
BRANCH  16  17
ATOM     17  O   UNL     1     127.204 141.973 110.263  1.00  0.00    -0.396 OA
ATOM     18  H   UNL     1     127.055 141.407 111.065  1.00  0.00     0.210 HD
ENDBRANCH  16  17
ENDBRANCH  15  16
ENDBRANCH  14  15
ENDBRANCH  13  14
ENDBRANCH  12  13
ENDBRANCH  11  12
ENDBRANCH  10  11
ENDBRANCH   1  10
TORSDOF 15
ENDMDL
MODEL 6
REMARK VINA RESULT:    -3.899      2.933      6.373
REMARK INTER + INTRA:          -8.880
REMARK INTER:                  -7.065
REMARK INTRA:                  -1.815
REMARK UNBOUND:                -1.677
REMARK SMILES CCCCCCCCCCCCCCCCO
REMARK SMILES IDX 9 1 8 2 7 3 6 4 5 5 4 6 3 7 2 8 1 9 10 10 11 11 12 12 13 13
REMARK SMILES IDX 14 14 15 15 16 16 17 17
REMARK H PARENT 17 18
REMARK Flexibility Score: inf
ROOT
ATOM      1  C   UNL     1     130.501 145.658 107.466  1.00  0.00     0.000 C 
ENDROOT
BRANCH   1   2
ATOM      2  C   UNL     1     128.972 145.571 107.396  1.00  0.00    -0.000 C 
BRANCH   2   3
ATOM      3  C   UNL     1     128.466 145.901 105.985  1.00  0.00    -0.000 C 
BRANCH   3   4
ATOM      4  C   UNL     1     127.273 145.029 105.553  1.00  0.00    -0.000 C 
BRANCH   4   5
ATOM      5  C   UNL     1     127.651 143.672 104.931  1.00  0.00    -0.000 C 
BRANCH   5   6
ATOM      6  C   UNL     1     127.473 142.496 105.902  1.00  0.00    -0.000 C 
BRANCH   6   7
ATOM      7  C   UNL     1     128.833 141.969 106.381  1.00  0.00    -0.000 C 
BRANCH   7   8
ATOM      8  C   UNL     1     129.994 142.440 105.493  1.00  0.00    -0.003 C 
ATOM      9  C   UNL     1     131.363 142.183 106.124  1.00  0.00     0.004 C 
ENDBRANCH   7   8
ENDBRANCH   6   7
ENDBRANCH   5   6
ENDBRANCH   4   5
ENDBRANCH   3   4
ENDBRANCH   2   3
ENDBRANCH   1   2
BRANCH   1  10
ATOM     10  C   UNL     1     131.105 145.877 106.074  1.00  0.00     0.000 C 
BRANCH  10  11
ATOM     11  C   UNL     1     132.598 146.213 106.168  1.00  0.00     0.000 C 
BRANCH  11  12
ATOM     12  C   UNL     1     133.445 145.164 105.433  1.00  0.00     0.000 C 
BRANCH  12  13
ATOM     13  C   UNL     1     134.640 145.776 104.679  1.00  0.00     0.000 C 
BRANCH  13  14
ATOM     14  C   UNL     1     135.787 146.278 105.574  1.00  0.00     0.002 C 
BRANCH  14  15
ATOM     15  C   UNL     1     136.291 145.209 106.558  1.00  0.00     0.028 C 
BRANCH  15  16
ATOM     16  C   UNL     1     136.193 145.685 108.011  1.00  0.00     0.156 C 
BRANCH  16  17
ATOM     17  O   UNL     1     135.643 146.972 108.082  1.00  0.00    -0.396 OA
ATOM     18  H   UNL     1     136.010 147.481 107.312  1.00  0.00     0.210 HD
ENDBRANCH  16  17
ENDBRANCH  15  16
ENDBRANCH  14  15
ENDBRANCH  13  14
ENDBRANCH  12  13
ENDBRANCH  11  12
ENDBRANCH  10  11
ENDBRANCH   1  10
TORSDOF 15
ENDMDL
MODEL 7
REMARK VINA RESULT:    -3.882      1.588      3.210
REMARK INTER + INTRA:          -8.849
REMARK INTER:                  -7.271
REMARK INTRA:                  -1.579
REMARK UNBOUND:                -1.677
REMARK SMILES CCCCCCCCCCCCCCCCO
REMARK SMILES IDX 9 1 8 2 7 3 6 4 5 5 4 6 3 7 2 8 1 9 10 10 11 11 12 12 13 13
REMARK SMILES IDX 14 14 15 15 16 16 17 17
REMARK H PARENT 17 18
REMARK Flexibility Score: inf
ROOT
ATOM      1  C   UNL     1     130.170 145.660 107.283  1.00  0.00     0.000 C 
ENDROOT
BRANCH   1   2
ATOM      2  C   UNL     1     130.697 146.037 105.893  1.00  0.00    -0.000 C 
BRANCH   2   3
ATOM      3  C   UNL     1     131.960 146.903 106.001  1.00  0.00    -0.000 C 
BRANCH   3   4
ATOM      4  C   UNL     1     132.958 146.383 107.052  1.00  0.00    -0.000 C 
BRANCH   4   5
ATOM      5  C   UNL     1     134.321 145.937 106.490  1.00  0.00    -0.000 C 
BRANCH   5   6
ATOM      6  C   UNL     1     134.296 145.701 104.973  1.00  0.00    -0.000 C 
BRANCH   6   7
ATOM      7  C   UNL     1     134.889 144.329 104.621  1.00  0.00    -0.000 C 
BRANCH   7   8
ATOM      8  C   UNL     1     133.855 143.381 103.999  1.00  0.00    -0.003 C 
ATOM      9  C   UNL     1     132.661 143.122 104.918  1.00  0.00     0.004 C 
ENDBRANCH   7   8
ENDBRANCH   6   7
ENDBRANCH   5   6
ENDBRANCH   4   5
ENDBRANCH   3   4
ENDBRANCH   2   3
ENDBRANCH   1   2
BRANCH   1  10
ATOM     10  C   UNL     1     128.658 145.408 107.250  1.00  0.00     0.000 C 
BRANCH  10  11
ATOM     11  C   UNL     1     128.122 145.460 105.814  1.00  0.00     0.000 C 
BRANCH  11  12
ATOM     12  C   UNL     1     127.595 144.086 105.374  1.00  0.00     0.000 C 
BRANCH  12  13
ATOM     13  C   UNL     1     128.680 142.994 105.384  1.00  0.00     0.000 C 
BRANCH  13  14
ATOM     14  C   UNL     1     128.261 141.668 106.046  1.00  0.00     0.002 C 
BRANCH  14  15
ATOM     15  C   UNL     1     127.263 141.863 107.199  1.00  0.00     0.028 C 
BRANCH  15  16
ATOM     16  C   UNL     1     127.965 141.875 108.561  1.00  0.00     0.156 C 
BRANCH  16  17
ATOM     17  O   UNL     1     127.242 142.634 109.493  1.00  0.00    -0.396 OA
ATOM     18  H   UNL     1     127.157 143.546 109.110  1.00  0.00     0.210 HD
ENDBRANCH  16  17
ENDBRANCH  15  16
ENDBRANCH  14  15
ENDBRANCH  13  14
ENDBRANCH  12  13
ENDBRANCH  11  12
ENDBRANCH  10  11
ENDBRANCH   1  10
TORSDOF 15
ENDMDL
MODEL 8
REMARK VINA RESULT:    -3.868      2.367      5.643
REMARK INTER + INTRA:          -8.823
REMARK INTER:                  -6.605
REMARK INTRA:                  -2.218
REMARK UNBOUND:                -1.677
REMARK SMILES CCCCCCCCCCCCCCCCO
REMARK SMILES IDX 9 1 8 2 7 3 6 4 5 5 4 6 3 7 2 8 1 9 10 10 11 11 12 12 13 13
REMARK SMILES IDX 14 14 15 15 16 16 17 17
REMARK H PARENT 17 18
REMARK Flexibility Score: inf
ROOT
ATOM      1  C   UNL     1     127.297 143.107 106.244  1.00  0.00     0.000 C 
ENDROOT
BRANCH   1   2
ATOM      2  C   UNL     1     127.412 144.249 105.226  1.00  0.00    -0.000 C 
BRANCH   2   3
ATOM      3  C   UNL     1     127.358 145.615 105.924  1.00  0.00    -0.000 C 
BRANCH   3   4
ATOM      4  C   UNL     1     127.047 145.510 107.428  1.00  0.00    -0.000 C 
BRANCH   4   5
ATOM      5  C   UNL     1     128.121 146.106 108.358  1.00  0.00    -0.000 C 
BRANCH   5   6
ATOM      6  C   UNL     1     128.661 145.092 109.378  1.00  0.00    -0.000 C 
BRANCH   6   7
ATOM      7  C   UNL     1     127.587 144.734 110.415  1.00  0.00    -0.000 C 
BRANCH   7   8
ATOM      8  C   UNL     1     127.694 143.280 110.898  1.00  0.00    -0.003 C 
ATOM      9  C   UNL     1     128.106 142.316 109.786  1.00  0.00     0.004 C 
ENDBRANCH   7   8
ENDBRANCH   6   7
ENDBRANCH   5   6
ENDBRANCH   4   5
ENDBRANCH   3   4
ENDBRANCH   2   3
ENDBRANCH   1   2
BRANCH   1  10
ATOM     10  C   UNL     1     128.401 142.065 106.030  1.00  0.00     0.000 C 
BRANCH  10  11
ATOM     11  C   UNL     1     129.700 142.728 105.554  1.00  0.00     0.000 C 
BRANCH  11  12
ATOM     12  C   UNL     1     130.475 143.329 106.737  1.00  0.00     0.000 C 
BRANCH  12  13
ATOM     13  C   UNL     1     131.591 144.293 106.296  1.00  0.00     0.000 C 
BRANCH  13  14
ATOM     14  C   UNL     1     131.150 145.756 106.106  1.00  0.00     0.002 C 
BRANCH  14  15
ATOM     15  C   UNL     1     132.043 146.753 106.862  1.00  0.00     0.028 C 
BRANCH  15  16
ATOM     16  C   UNL     1     133.482 146.240 106.992  1.00  0.00     0.156 C 
BRANCH  16  17
ATOM     17  O   UNL     1     134.137 146.849 108.072  1.00  0.00    -0.396 OA
ATOM     18  H   UNL     1     134.953 146.312 108.249  1.00  0.00     0.210 HD
ENDBRANCH  16  17
ENDBRANCH  15  16
ENDBRANCH  14  15
ENDBRANCH  13  14
ENDBRANCH  12  13
ENDBRANCH  11  12
ENDBRANCH  10  11
ENDBRANCH   1  10
TORSDOF 15
ENDMDL
MODEL 9
REMARK VINA RESULT:    -3.829      1.573      2.993
REMARK INTER + INTRA:          -8.751
REMARK INTER:                  -7.260
REMARK INTRA:                  -1.491
REMARK UNBOUND:                -1.677
REMARK SMILES CCCCCCCCCCCCCCCCO
REMARK SMILES IDX 9 1 8 2 7 3 6 4 5 5 4 6 3 7 2 8 1 9 10 10 11 11 12 12 13 13
REMARK SMILES IDX 14 14 15 15 16 16 17 17
REMARK H PARENT 17 18
REMARK Flexibility Score: inf
ROOT
ATOM      1  C   UNL     1     126.898 145.210 107.526  1.00  0.00     0.000 C 
ENDROOT
BRANCH   1   2
ATOM      2  C   UNL     1     128.019 145.032 108.558  1.00  0.00    -0.000 C 
BRANCH   2   3
ATOM      3  C   UNL     1     129.177 146.001 108.284  1.00  0.00    -0.000 C 
BRANCH   3   4
ATOM      4  C   UNL     1     130.462 145.288 107.823  1.00  0.00    -0.000 C 
BRANCH   4   5
ATOM      5  C   UNL     1     130.880 145.575 106.369  1.00  0.00    -0.000 C 
BRANCH   5   6
ATOM      6  C   UNL     1     132.050 146.565 106.265  1.00  0.00    -0.000 C 
BRANCH   6   7
ATOM      7  C   UNL     1     133.389 145.859 106.520  1.00  0.00    -0.000 C 
BRANCH   7   8
ATOM      8  C   UNL     1     133.951 145.185 105.259  1.00  0.00    -0.003 C 
ATOM      9  C   UNL     1     134.718 146.156 104.362  1.00  0.00     0.004 C 
ENDBRANCH   7   8
ENDBRANCH   6   7
ENDBRANCH   5   6
ENDBRANCH   4   5
ENDBRANCH   3   4
ENDBRANCH   2   3
ENDBRANCH   1   2
BRANCH   1  10
ATOM     10  C   UNL     1     127.376 146.046 106.333  1.00  0.00     0.000 C 
BRANCH  10  11
ATOM     11  C   UNL     1     127.376 145.215 105.044  1.00  0.00     0.000 C 
BRANCH  11  12
ATOM     12  C   UNL     1     127.224 143.719 105.354  1.00  0.00     0.000 C 
BRANCH  12  13
ATOM     13  C   UNL     1     128.567 142.967 105.367  1.00  0.00     0.000 C 
BRANCH  13  14
ATOM     14  C   UNL     1     128.534 141.586 106.046  1.00  0.00     0.002 C 
BRANCH  14  15
ATOM     15  C   UNL     1     127.842 141.611 107.420  1.00  0.00     0.028 C 
BRANCH  15  16
ATOM     16  C   UNL     1     128.146 140.345 108.230  1.00  0.00     0.156 C 
BRANCH  16  17
ATOM     17  O   UNL     1     127.228 139.327 107.934  1.00  0.00    -0.396 OA
ATOM     18  H   UNL     1     127.653 138.473 108.210  1.00  0.00     0.210 HD
ENDBRANCH  16  17
ENDBRANCH  15  16
ENDBRANCH  14  15
ENDBRANCH  13  14
ENDBRANCH  12  13
ENDBRANCH  11  12
ENDBRANCH  10  11
ENDBRANCH   1  10
TORSDOF 15
ENDMDL
