MODEL 1
REMARK VINA RESULT:    -6.677      0.000      0.000
REMARK INTER + INTRA:         -11.183
REMARK INTER:                  -9.994
REMARK INTRA:                  -1.189
REMARK UNBOUND:                -1.189
REMARK SMILES COC(=O)C1=CO[C@H](O[C@@H]2O[C@H](CO)[C@H](O)[C@H](O)[C@@H]2O)[C@H]2C(CO)=CC[C@@H]12
REMARK SMILES IDX 9 1 8 2 5 3 6 4 27 5 7 6 21 7 26 8 22 9 25 10 3 11 4 12 2 13
REMARK SMILES IDX 1 14 23 15 24 16 10 18 19 19 11 20 17 21 12 22 15 23 20 24
REMARK SMILES IDX 18 26 13 28 14 29 16 31
REMARK H PARENT 24 17 20 25 18 27 14 30 16 32
REMARK Flexibility Score: inf
ROOT
ATOM      1  O   UNL     1      42.394   0.473  18.574  1.00  0.00    -0.310 OA
ENDROOT
BRANCH   1   2
ATOM      2  C   UNL     1      42.538  -0.730  17.835  1.00  0.00     0.316 C 
ATOM      3  C   UNL     1      41.846  -3.410  17.093  1.00  0.00     0.076 C 
ATOM      4  C   UNL     1      42.386  -3.143  18.294  1.00  0.00     0.202 C 
ATOM      5  C   UNL     1      41.292  -2.285  16.236  1.00  0.00     0.047 C 
ATOM      6  O   UNL     1      42.537  -1.828  18.739  1.00  0.00    -0.471 OA
ATOM      7  C   UNL     1      41.347  -0.875  16.868  1.00  0.00     0.094 C 
ATOM      8  C   UNL     1      42.013  -2.136  14.887  1.00  0.00     0.037 C 
ATOM      9  C   UNL     1      41.528   0.008  15.672  1.00  0.00    -0.039 C 
ATOM     10  C   UNL     1      41.904  -0.680  14.600  1.00  0.00    -0.024 C 
BRANCH   3  11
ATOM     11  C   UNL     1      41.703  -4.810  16.628  1.00  0.00     0.337 C 
ATOM     12  O   UNL     1      42.712  -5.566  16.551  1.00  0.00    -0.246 OA
BRANCH  11  13
ATOM     13  O   UNL     1      40.440  -5.292  16.271  1.00  0.00    -0.466 OA
ATOM     14  C   UNL     1      39.352  -5.347  17.186  1.00  0.00     0.282 C 
ENDBRANCH  11  13
ENDBRANCH   3  11
BRANCH   9  15
ATOM     15  C   UNL     1      41.297   1.492  15.666  1.00  0.00     0.187 C 
BRANCH  15  16
ATOM     16  O   UNL     1      40.815   1.901  16.915  1.00  0.00    -0.392 OA
ATOM     17  H   UNL     1      40.635   2.874  16.836  1.00  0.00     0.211 HD
ENDBRANCH  15  16
ENDBRANCH   9  15
ENDBRANCH   1   2
BRANCH   1  18
ATOM     18  C   UNL     1      43.465   0.752  19.468  1.00  0.00     0.286 C 
ATOM     19  C   UNL     1      44.130   2.126  19.193  1.00  0.00     0.202 C 
ATOM     20  O   UNL     1      43.081   0.618  20.832  1.00  0.00    -0.341 OA
ATOM     21  C   UNL     1      45.325   2.315  20.159  1.00  0.00     0.179 C 
ATOM     22  C   UNL     1      44.222   0.613  21.676  1.00  0.00     0.178 C 
ATOM     23  C   UNL     1      44.958   1.979  21.623  1.00  0.00     0.177 C 
BRANCH  19  24
ATOM     24  O   UNL     1      43.220   3.196  19.277  1.00  0.00    -0.385 OA
ATOM     25  H   UNL     1      42.414   2.961  18.751  1.00  0.00     0.211 HD
ENDBRANCH  19  24
BRANCH  21  26
ATOM     26  O   UNL     1      45.897   3.595  20.040  1.00  0.00    -0.387 OA
ATOM     27  H   UNL     1      45.291   4.156  19.490  1.00  0.00     0.211 HD
ENDBRANCH  21  26
BRANCH  22  28
ATOM     28  C   UNL     1      43.775   0.257  23.102  1.00  0.00     0.191 C 
BRANCH  28  29
ATOM     29  O   UNL     1      44.639   0.814  24.056  1.00  0.00    -0.394 OA
ATOM     30  H   UNL     1      45.436   0.222  24.098  1.00  0.00     0.210 HD
ENDBRANCH  28  29
ENDBRANCH  22  28
BRANCH  23  31
ATOM     31  O   UNL     1      44.153   2.995  22.172  1.00  0.00    -0.387 OA
ATOM     32  H   UNL     1      44.089   2.824  23.148  1.00  0.00     0.211 HD
ENDBRANCH  23  31
ENDBRANCH   1  18
TORSDOF 11
ENDMDL
MODEL 2
REMARK VINA RESULT:    -6.658      1.787      6.946
REMARK INTER + INTRA:         -11.155
REMARK INTER:                 -10.301
REMARK INTRA:                  -0.854
REMARK UNBOUND:                -1.189
REMARK SMILES COC(=O)C1=CO[C@H](O[C@@H]2O[C@H](CO)[C@H](O)[C@H](O)[C@@H]2O)[C@H]2C(CO)=CC[C@@H]12
REMARK SMILES IDX 9 1 8 2 5 3 6 4 27 5 7 6 21 7 26 8 22 9 25 10 3 11 4 12 2 13
REMARK SMILES IDX 1 14 23 15 24 16 10 18 19 19 11 20 17 21 12 22 15 23 20 24
REMARK SMILES IDX 18 26 13 28 14 29 16 31
REMARK H PARENT 24 17 20 25 18 27 14 30 16 32
REMARK Flexibility Score: inf
ROOT
ATOM      1  O   UNL     1      42.380  -0.672  17.558  1.00  0.00    -0.310 OA
ENDROOT
BRANCH   1   2
ATOM      2  C   UNL     1      42.231   0.290  18.590  1.00  0.00     0.316 C 
ATOM      3  C   UNL     1      43.182   2.186  20.516  1.00  0.00     0.076 C 
ATOM      4  C   UNL     1      43.396   0.870  20.679  1.00  0.00     0.202 C 
ATOM      5  C   UNL     1      42.728   2.728  19.171  1.00  0.00     0.047 C 
ATOM      6  O   UNL     1      43.117  -0.036  19.654  1.00  0.00    -0.471 OA
ATOM      7  C   UNL     1      42.598   1.682  18.040  1.00  0.00     0.094 C 
ATOM      8  C   UNL     1      41.355   3.416  19.225  1.00  0.00     0.037 C 
ATOM      9  C   UNL     1      41.478   2.235  17.215  1.00  0.00    -0.039 C 
ATOM     10  C   UNL     1      40.796   3.169  17.869  1.00  0.00    -0.024 C 
BRANCH   3  11
ATOM     11  C   UNL     1      43.471   3.136  21.616  1.00  0.00     0.337 C 
ATOM     12  O   UNL     1      43.107   2.878  22.798  1.00  0.00    -0.246 OA
BRANCH  11  13
ATOM     13  O   UNL     1      44.151   4.326  21.339  1.00  0.00    -0.466 OA
ATOM     14  C   UNL     1      45.534   4.362  21.006  1.00  0.00     0.282 C 
ENDBRANCH  11  13
ENDBRANCH   3  11
BRANCH   9  15
ATOM     15  C   UNL     1      41.165   1.810  15.809  1.00  0.00     0.187 C 
BRANCH  15  16
ATOM     16  O   UNL     1      39.973   2.412  15.387  1.00  0.00    -0.392 OA
ATOM     17  H   UNL     1      40.217   3.330  15.097  1.00  0.00     0.211 HD
ENDBRANCH  15  16
ENDBRANCH   9  15
ENDBRANCH   1   2
BRANCH   1  18
ATOM     18  C   UNL     1      41.915  -1.976  17.889  1.00  0.00     0.286 C 
ATOM     19  C   UNL     1      41.206  -2.677  16.701  1.00  0.00     0.202 C 
ATOM     20  O   UNL     1      42.940  -2.791  18.446  1.00  0.00    -0.341 OA
ATOM     21  C   UNL     1      40.671  -4.052  17.169  1.00  0.00     0.179 C 
ATOM     22  C   UNL     1      42.387  -3.962  19.029  1.00  0.00     0.178 C 
ATOM     23  C   UNL     1      41.731  -4.864  17.949  1.00  0.00     0.177 C 
BRANCH  19  24
ATOM     24  O   UNL     1      42.036  -2.800  15.571  1.00  0.00    -0.385 OA
ATOM     25  H   UNL     1      41.521  -3.252  14.855  1.00  0.00     0.211 HD
ENDBRANCH  19  24
BRANCH  21  26
ATOM     26  O   UNL     1      40.121  -4.790  16.104  1.00  0.00    -0.387 OA
ATOM     27  H   UNL     1      39.187  -5.025  16.339  1.00  0.00     0.211 HD
ENDBRANCH  21  26
BRANCH  22  28
ATOM     28  C   UNL     1      43.497  -4.698  19.794  1.00  0.00     0.191 C 
BRANCH  28  29
ATOM     29  O   UNL     1      43.365  -6.088  19.662  1.00  0.00    -0.394 OA
ATOM     30  H   UNL     1      43.186  -6.267  18.702  1.00  0.00     0.210 HD
ENDBRANCH  28  29
ENDBRANCH  22  28
BRANCH  23  31
ATOM     31  O   UNL     1      42.706  -5.369  17.069  1.00  0.00    -0.387 OA
ATOM     32  H   UNL     1      42.234  -5.917  16.389  1.00  0.00     0.211 HD
ENDBRANCH  23  31
ENDBRANCH   1  18
TORSDOF 11
ENDMDL
MODEL 3
REMARK VINA RESULT:    -6.299      4.368      7.427
REMARK INTER + INTRA:         -10.618
REMARK INTER:                  -9.087
REMARK INTRA:                  -1.530
REMARK UNBOUND:                -1.189
REMARK SMILES COC(=O)C1=CO[C@H](O[C@@H]2O[C@H](CO)[C@H](O)[C@H](O)[C@@H]2O)[C@H]2C(CO)=CC[C@@H]12
REMARK SMILES IDX 9 1 8 2 5 3 6 4 27 5 7 6 21 7 26 8 22 9 25 10 3 11 4 12 2 13
REMARK SMILES IDX 1 14 23 15 24 16 10 18 19 19 11 20 17 21 12 22 15 23 20 24
REMARK SMILES IDX 18 26 13 28 14 29 16 31
REMARK H PARENT 24 17 20 25 18 27 14 30 16 32
REMARK Flexibility Score: inf
ROOT
ATOM      1  O   UNL     1      40.985  -5.814  14.703  1.00  0.00    -0.310 OA
ENDROOT
BRANCH   1   2
ATOM      2  C   UNL     1      39.754  -6.073  14.046  1.00  0.00     0.316 C 
ATOM      3  C   UNL     1      37.006  -5.570  13.408  1.00  0.00     0.076 C 
ATOM      4  C   UNL     1      37.364  -6.003  14.629  1.00  0.00     0.202 C 
ATOM      5  C   UNL     1      38.054  -5.029  12.450  1.00  0.00     0.047 C 
ATOM      6  O   UNL     1      38.707  -6.055  15.008  1.00  0.00    -0.471 OA
ATOM      7  C   UNL     1      39.496  -4.967  13.004  1.00  0.00     0.094 C 
ATOM      8  C   UNL     1      38.169  -5.843  11.152  1.00  0.00     0.037 C 
ATOM      9  C   UNL     1      40.323  -5.197  11.776  1.00  0.00    -0.039 C 
ATOM     10  C   UNL     1      39.600  -5.686  10.776  1.00  0.00    -0.024 C 
BRANCH   3  11
ATOM     11  C   UNL     1      35.578  -5.531  13.014  1.00  0.00     0.337 C 
ATOM     12  O   UNL     1      35.188  -4.753  12.097  1.00  0.00    -0.246 OA
BRANCH  11  13
ATOM     13  O   UNL     1      34.660  -6.361  13.664  1.00  0.00    -0.466 OA
ATOM     14  C   UNL     1      33.352  -5.930  14.020  1.00  0.00     0.282 C 
ENDBRANCH  11  13
ENDBRANCH   3  11
BRANCH   9  15
ATOM     15  C   UNL     1      41.791  -4.895  11.669  1.00  0.00     0.187 C 
BRANCH  15  16
ATOM     16  O   UNL     1      42.095  -3.756  12.424  1.00  0.00    -0.392 OA
ATOM     17  H   UNL     1      42.091  -2.995  11.788  1.00  0.00     0.211 HD
ENDBRANCH  15  16
ENDBRANCH   9  15
ENDBRANCH   1   2
BRANCH   1  18
ATOM     18  C   UNL     1      40.936  -4.767  15.666  1.00  0.00     0.286 C 
ATOM     19  C   UNL     1      41.332  -5.243  17.087  1.00  0.00     0.202 C 
ATOM     20  O   UNL     1      41.688  -3.627  15.264  1.00  0.00    -0.341 OA
ATOM     21  C   UNL     1      41.181  -4.064  18.079  1.00  0.00     0.179 C 
ATOM     22  C   UNL     1      41.384  -2.512  16.089  1.00  0.00     0.178 C 
ATOM     23  C   UNL     1      41.833  -2.764  17.553  1.00  0.00     0.177 C 
BRANCH  19  24
ATOM     24  O   UNL     1      42.624  -5.798  17.133  1.00  0.00    -0.385 OA
ATOM     25  H   UNL     1      42.821  -6.203  16.251  1.00  0.00     0.211 HD
ENDBRANCH  19  24
BRANCH  21  26
ATOM     26  O   UNL     1      41.639  -4.400  19.366  1.00  0.00    -0.387 OA
ATOM     27  H   UNL     1      41.264  -3.746  20.010  1.00  0.00     0.211 HD
ENDBRANCH  21  26
BRANCH  22  28
ATOM     28  C   UNL     1      42.054  -1.265  15.491  1.00  0.00     0.191 C 
BRANCH  28  29
ATOM     29  O   UNL     1      42.657  -1.557  14.259  1.00  0.00    -0.394 OA
ATOM     30  H   UNL     1      41.989  -1.341  13.556  1.00  0.00     0.210 HD
ENDBRANCH  28  29
ENDBRANCH  22  28
BRANCH  23  31
ATOM     31  O   UNL     1      43.236  -2.853  17.631  1.00  0.00    -0.387 OA
ATOM     32  H   UNL     1      43.529  -3.487  16.926  1.00  0.00     0.211 HD
ENDBRANCH  23  31
ENDBRANCH   1  18
TORSDOF 11
ENDMDL
MODEL 4
REMARK VINA RESULT:    -6.282      1.968      7.224
REMARK INTER + INTRA:         -10.593
REMARK INTER:                 -10.493
REMARK INTRA:                  -0.099
REMARK UNBOUND:                -1.189
REMARK SMILES COC(=O)C1=CO[C@H](O[C@@H]2O[C@H](CO)[C@H](O)[C@H](O)[C@@H]2O)[C@H]2C(CO)=CC[C@@H]12
REMARK SMILES IDX 9 1 8 2 5 3 6 4 27 5 7 6 21 7 26 8 22 9 25 10 3 11 4 12 2 13
REMARK SMILES IDX 1 14 23 15 24 16 10 18 19 19 11 20 17 21 12 22 15 23 20 24
REMARK SMILES IDX 18 26 13 28 14 29 16 31
REMARK H PARENT 24 17 20 25 18 27 14 30 16 32
REMARK Flexibility Score: inf
ROOT
ATOM      1  O   UNL     1      41.567  -0.588  16.392  1.00  0.00    -0.310 OA
ENDROOT
BRANCH   1   2
ATOM      2  C   UNL     1      41.733   0.072  17.637  1.00  0.00     0.316 C 
ATOM      3  C   UNL     1      43.259   1.184  19.792  1.00  0.00     0.076 C 
ATOM      4  C   UNL     1      43.209  -0.143  19.595  1.00  0.00     0.202 C 
ATOM      5  C   UNL     1      42.787   2.139  18.708  1.00  0.00     0.047 C 
ATOM      6  O   UNL     1      42.640  -0.677  18.437  1.00  0.00    -0.471 OA
ATOM      7  C   UNL     1      42.322   1.474  17.391  1.00  0.00     0.094 C 
ATOM      8  C   UNL     1      41.602   3.014  19.142  1.00  0.00     0.037 C 
ATOM      9  C   UNL     1      41.261   2.416  16.912  1.00  0.00    -0.039 C 
ATOM     10  C   UNL     1      40.862   3.243  17.872  1.00  0.00    -0.024 C 
BRANCH   3  11
ATOM     11  C   UNL     1      43.855   1.738  21.031  1.00  0.00     0.337 C 
ATOM     12  O   UNL     1      43.455   1.349  22.165  1.00  0.00    -0.246 OA
BRANCH  11  13
ATOM     13  O   UNL     1      44.868   2.698  20.939  1.00  0.00    -0.466 OA
ATOM     14  C   UNL     1      45.764   2.974  22.009  1.00  0.00     0.282 C 
ENDBRANCH  11  13
ENDBRANCH   3  11
BRANCH   9  15
ATOM     15  C   UNL     1      40.718   2.446  15.512  1.00  0.00     0.187 C 
BRANCH  15  16
ATOM     16  O   UNL     1      41.568   1.732  14.660  1.00  0.00    -0.392 OA
ATOM     17  H   UNL     1      41.115   1.708  13.777  1.00  0.00     0.211 HD
ENDBRANCH  15  16
ENDBRANCH   9  15
ENDBRANCH   1   2
BRANCH   1  18
ATOM     18  C   UNL     1      41.780  -1.994  16.432  1.00  0.00     0.286 C 
ATOM     19  C   UNL     1      41.148  -2.658  17.682  1.00  0.00     0.202 C 
ATOM     20  O   UNL     1      41.370  -2.638  15.231  1.00  0.00    -0.341 OA
ATOM     21  C   UNL     1      41.489  -4.168  17.683  1.00  0.00     0.179 C 
ATOM     22  C   UNL     1      41.858  -3.971  15.186  1.00  0.00     0.178 C 
ATOM     23  C   UNL     1      41.226  -4.833  16.311  1.00  0.00     0.177 C 
BRANCH  19  24
ATOM     24  O   UNL     1      39.761  -2.439  17.771  1.00  0.00    -0.385 OA
ATOM     25  H   UNL     1      39.589  -1.473  17.634  1.00  0.00     0.211 HD
ENDBRANCH  19  24
BRANCH  21  26
ATOM     26  O   UNL     1      40.843  -4.851  18.731  1.00  0.00    -0.387 OA
ATOM     27  H   UNL     1      40.588  -5.752  18.404  1.00  0.00     0.211 HD
ENDBRANCH  21  26
BRANCH  22  28
ATOM     28  C   UNL     1      41.572  -4.550  13.791  1.00  0.00     0.191 C 
BRANCH  28  29
ATOM     29  O   UNL     1      42.022  -3.685  12.783  1.00  0.00    -0.394 OA
ATOM     30  H   UNL     1      42.989  -3.873  12.657  1.00  0.00     0.210 HD
ENDBRANCH  28  29
ENDBRANCH  22  28
BRANCH  23  31
ATOM     31  O   UNL     1      39.843  -4.986  16.098  1.00  0.00    -0.387 OA
ATOM     32  H   UNL     1      39.731  -5.484  15.247  1.00  0.00     0.211 HD
ENDBRANCH  23  31
ENDBRANCH   1  18
TORSDOF 11
ENDMDL
MODEL 5
REMARK VINA RESULT:    -6.193      2.827      8.817
REMARK INTER + INTRA:         -10.459
REMARK INTER:                  -9.349
REMARK INTRA:                  -1.110
REMARK UNBOUND:                -1.189
REMARK SMILES COC(=O)C1=CO[C@H](O[C@@H]2O[C@H](CO)[C@H](O)[C@H](O)[C@@H]2O)[C@H]2C(CO)=CC[C@@H]12
REMARK SMILES IDX 9 1 8 2 5 3 6 4 27 5 7 6 21 7 26 8 22 9 25 10 3 11 4 12 2 13
REMARK SMILES IDX 1 14 23 15 24 16 10 18 19 19 11 20 17 21 12 22 15 23 20 24
REMARK SMILES IDX 18 26 13 28 14 29 16 31
REMARK H PARENT 24 17 20 25 18 27 14 30 16 32
REMARK Flexibility Score: inf
ROOT
ATOM      1  O   UNL     1      41.468  -4.822  14.673  1.00  0.00    -0.310 OA
ENDROOT
BRANCH   1   2
ATOM      2  C   UNL     1      41.934  -3.703  15.413  1.00  0.00     0.316 C 
ATOM      3  C   UNL     1      41.754  -1.049  16.476  1.00  0.00     0.076 C 
ATOM      4  C   UNL     1      41.917  -1.255  15.159  1.00  0.00     0.202 C 
ATOM      5  C   UNL     1      41.338  -2.193  17.386  1.00  0.00     0.047 C 
ATOM      6  O   UNL     1      41.802  -2.535  14.612  1.00  0.00    -0.471 OA
ATOM      7  C   UNL     1      41.072  -3.542  16.680  1.00  0.00     0.094 C 
ATOM      8  C   UNL     1      42.378  -2.518  18.469  1.00  0.00     0.037 C 
ATOM      9  C   UNL     1      41.477  -4.538  17.723  1.00  0.00    -0.039 C 
ATOM     10  C   UNL     1      42.199  -3.978  18.687  1.00  0.00    -0.024 C 
BRANCH   3  11
ATOM     11  C   UNL     1      41.890   0.313  17.046  1.00  0.00     0.337 C 
ATOM     12  O   UNL     1      41.477   1.320  16.404  1.00  0.00    -0.246 OA
BRANCH  11  13
ATOM     13  O   UNL     1      42.481   0.479  18.302  1.00  0.00    -0.466 OA
ATOM     14  C   UNL     1      43.245   1.629  18.646  1.00  0.00     0.282 C 
ENDBRANCH  11  13
ENDBRANCH   3  11
BRANCH   9  15
ATOM     15  C   UNL     1      41.101  -5.992  17.705  1.00  0.00     0.187 C 
BRANCH  15  16
ATOM     16  O   UNL     1      39.709  -6.121  17.762  1.00  0.00    -0.392 OA
ATOM     17  H   UNL     1      39.521  -7.095  17.719  1.00  0.00     0.211 HD
ENDBRANCH  15  16
ENDBRANCH   9  15
ENDBRANCH   1   2
BRANCH   1  18
ATOM     18  C   UNL     1      40.132  -4.705  14.198  1.00  0.00     0.286 C 
ATOM     19  C   UNL     1      40.046  -4.701  12.650  1.00  0.00     0.202 C 
ATOM     20  O   UNL     1      39.268  -5.681  14.770  1.00  0.00    -0.341 OA
ATOM     21  C   UNL     1      38.572  -4.498  12.223  1.00  0.00     0.179 C 
ATOM     22  C   UNL     1      37.910  -5.360  14.510  1.00  0.00     0.178 C 
ATOM     23  C   UNL     1      37.603  -5.428  12.989  1.00  0.00     0.177 C 
BRANCH  19  24
ATOM     24  O   UNL     1      40.600  -5.858  12.072  1.00  0.00    -0.385 OA
ATOM     25  H   UNL     1      40.881  -5.641  11.148  1.00  0.00     0.211 HD
ENDBRANCH  19  24
BRANCH  21  26
ATOM     26  O   UNL     1      38.412  -4.604  10.829  1.00  0.00    -0.387 OA
ATOM     27  H   UNL     1      37.728  -5.299  10.647  1.00  0.00     0.211 HD
ENDBRANCH  21  26
BRANCH  22  28
ATOM     28  C   UNL     1      37.018  -6.316  15.318  1.00  0.00     0.191 C 
BRANCH  28  29
ATOM     29  O   UNL     1      36.901  -5.893  16.649  1.00  0.00    -0.394 OA
ATOM     30  H   UNL     1      36.421  -5.023  16.631  1.00  0.00     0.210 HD
ENDBRANCH  28  29
ENDBRANCH  22  28
BRANCH  23  31
ATOM     31  O   UNL     1      37.720  -6.750  12.521  1.00  0.00    -0.387 OA
ATOM     32  H   UNL     1      36.836  -7.010  12.151  1.00  0.00     0.211 HD
ENDBRANCH  23  31
ENDBRANCH   1  18
TORSDOF 11
ENDMDL
MODEL 6
REMARK VINA RESULT:    -6.143      4.479      7.361
REMARK INTER + INTRA:         -10.385
REMARK INTER:                  -8.956
REMARK INTRA:                  -1.428
REMARK UNBOUND:                -1.189
REMARK SMILES COC(=O)C1=CO[C@H](O[C@@H]2O[C@H](CO)[C@H](O)[C@H](O)[C@@H]2O)[C@H]2C(CO)=CC[C@@H]12
REMARK SMILES IDX 9 1 8 2 5 3 6 4 27 5 7 6 21 7 26 8 22 9 25 10 3 11 4 12 2 13
REMARK SMILES IDX 1 14 23 15 24 16 10 18 19 19 11 20 17 21 12 22 15 23 20 24
REMARK SMILES IDX 18 26 13 28 14 29 16 31
REMARK H PARENT 24 17 20 25 18 27 14 30 16 32
REMARK Flexibility Score: inf
ROOT
ATOM      1  O   UNL     1      40.630  -6.545  16.096  1.00  0.00    -0.310 OA
ENDROOT
BRANCH   1   2
ATOM      2  C   UNL     1      39.272  -6.957  16.135  1.00  0.00     0.316 C 
ATOM      3  C   UNL     1      36.615  -7.013  17.206  1.00  0.00     0.076 C 
ATOM      4  C   UNL     1      37.638  -7.580  17.867  1.00  0.00     0.202 C 
ATOM      5  C   UNL     1      36.881  -6.058  16.055  1.00  0.00     0.047 C 
ATOM      6  O   UNL     1      38.958  -7.382  17.455  1.00  0.00    -0.471 OA
ATOM      7  C   UNL     1      38.371  -5.763  15.764  1.00  0.00     0.094 C 
ATOM      8  C   UNL     1      36.313  -6.549  14.714  1.00  0.00     0.037 C 
ATOM      9  C   UNL     1      38.374  -5.540  14.283  1.00  0.00    -0.039 C 
ATOM     10  C   UNL     1      37.258  -5.982  13.714  1.00  0.00    -0.024 C 
BRANCH   3  11
ATOM     11  C   UNL     1      35.218  -7.241  17.646  1.00  0.00     0.337 C 
ATOM     12  O   UNL     1      34.407  -7.866  16.906  1.00  0.00    -0.246 OA
BRANCH  11  13
ATOM     13  O   UNL     1      34.800  -6.758  18.890  1.00  0.00    -0.466 OA
ATOM     14  C   UNL     1      33.450  -6.841  19.332  1.00  0.00     0.282 C 
ENDBRANCH  11  13
ENDBRANCH   3  11
BRANCH   9  15
ATOM     15  C   UNL     1      39.488  -4.880  13.523  1.00  0.00     0.187 C 
BRANCH  15  16
ATOM     16  O   UNL     1      40.181  -4.003  14.366  1.00  0.00    -0.392 OA
ATOM     17  H   UNL     1      40.928  -3.635  13.826  1.00  0.00     0.211 HD
ENDBRANCH  15  16
ENDBRANCH   9  15
ENDBRANCH   1   2
BRANCH   1  18
ATOM     18  C   UNL     1      41.050  -5.780  17.220  1.00  0.00     0.286 C 
ATOM     19  C   UNL     1      42.243  -6.428  17.971  1.00  0.00     0.202 C 
ATOM     20  O   UNL     1      41.316  -4.423  16.883  1.00  0.00    -0.341 OA
ATOM     21  C   UNL     1      42.586  -5.573  19.214  1.00  0.00     0.179 C 
ATOM     22  C   UNL     1      41.445  -3.632  18.054  1.00  0.00     0.178 C 
ATOM     23  C   UNL     1      42.683  -4.065  18.884  1.00  0.00     0.177 C 
BRANCH  19  24
ATOM     24  O   UNL     1      43.366  -6.617  17.145  1.00  0.00    -0.385 OA
ATOM     25  H   UNL     1      43.338  -5.940  16.421  1.00  0.00     0.211 HD
ENDBRANCH  19  24
BRANCH  21  26
ATOM     26  O   UNL     1      43.737  -6.043  19.873  1.00  0.00    -0.387 OA
ATOM     27  H   UNL     1      43.451  -6.547  20.677  1.00  0.00     0.211 HD
ENDBRANCH  21  26
BRANCH  22  28
ATOM     28  C   UNL     1      41.519  -2.154  17.641  1.00  0.00     0.191 C 
BRANCH  28  29
ATOM     29  O   UNL     1      40.696  -1.897  16.535  1.00  0.00    -0.394 OA
ATOM     30  H   UNL     1      39.759  -1.992  16.849  1.00  0.00     0.210 HD
ENDBRANCH  28  29
ENDBRANCH  22  28
BRANCH  23  31
ATOM     31  O   UNL     1      43.870  -3.793  18.178  1.00  0.00    -0.387 OA
ATOM     32  H   UNL     1      44.385  -3.134  18.712  1.00  0.00     0.211 HD
ENDBRANCH  23  31
ENDBRANCH   1  18
TORSDOF 11
ENDMDL
MODEL 7
REMARK VINA RESULT:    -6.128      4.555      9.196
REMARK INTER + INTRA:         -10.362
REMARK INTER:                  -8.842
REMARK INTRA:                  -1.520
REMARK UNBOUND:                -1.189
REMARK SMILES COC(=O)C1=CO[C@H](O[C@@H]2O[C@H](CO)[C@H](O)[C@H](O)[C@@H]2O)[C@H]2C(CO)=CC[C@@H]12
REMARK SMILES IDX 9 1 8 2 5 3 6 4 27 5 7 6 21 7 26 8 22 9 25 10 3 11 4 12 2 13
REMARK SMILES IDX 1 14 23 15 24 16 10 18 19 19 11 20 17 21 12 22 15 23 20 24
REMARK SMILES IDX 18 26 13 28 14 29 16 31
REMARK H PARENT 24 17 20 25 18 27 14 30 16 32
REMARK Flexibility Score: inf
ROOT
ATOM      1  O   UNL     1      44.400   5.673  21.349  1.00  0.00    -0.310 OA
ENDROOT
BRANCH   1   2
ATOM      2  C   UNL     1      45.215   6.629  20.689  1.00  0.00     0.316 C 
ATOM      3  C   UNL     1      46.989   7.534  18.630  1.00  0.00     0.076 C 
ATOM      4  C   UNL     1      47.395   6.640  19.546  1.00  0.00     0.202 C 
ATOM      5  C   UNL     1      45.511   7.841  18.459  1.00  0.00     0.047 C 
ATOM      6  O   UNL     1      46.484   6.045  20.421  1.00  0.00    -0.471 OA
ATOM      7  C   UNL     1      44.553   7.021  19.354  1.00  0.00     0.094 C 
ATOM      8  C   UNL     1      45.157   9.308  18.749  1.00  0.00     0.037 C 
ATOM      9  C   UNL     1      43.427   7.982  19.586  1.00  0.00    -0.039 C 
ATOM     10  C   UNL     1      43.765   9.227  19.269  1.00  0.00    -0.024 C 
BRANCH   3  11
ATOM     11  C   UNL     1      47.968   8.168  17.713  1.00  0.00     0.337 C 
ATOM     12  O   UNL     1      47.604   8.588  16.579  1.00  0.00    -0.246 OA
BRANCH  11  13
ATOM     13  O   UNL     1      49.302   8.297  18.112  1.00  0.00    -0.466 OA
ATOM     14  C   UNL     1      50.283   8.945  17.311  1.00  0.00     0.282 C 
ENDBRANCH  11  13
ENDBRANCH   3  11
BRANCH   9  15
ATOM     15  C   UNL     1      42.069   7.595  20.097  1.00  0.00     0.187 C 
BRANCH  15  16
ATOM     16  O   UNL     1      41.764   6.291  19.689  1.00  0.00    -0.392 OA
ATOM     17  H   UNL     1      40.957   6.363  19.116  1.00  0.00     0.211 HD
ENDBRANCH  15  16
ENDBRANCH   9  15
ENDBRANCH   1   2
BRANCH   1  18
ATOM     18  C   UNL     1      44.444   4.366  20.787  1.00  0.00     0.286 C 
ATOM     19  C   UNL     1      45.138   3.339  21.718  1.00  0.00     0.202 C 
ATOM     20  O   UNL     1      43.162   3.913  20.368  1.00  0.00    -0.341 OA
ATOM     21  C   UNL     1      45.207   1.968  21.002  1.00  0.00     0.179 C 
ATOM     22  C   UNL     1      43.281   2.753  19.559  1.00  0.00     0.178 C 
ATOM     23  C   UNL     1      43.854   1.563  20.374  1.00  0.00     0.177 C 
BRANCH  19  24
ATOM     24  O   UNL     1      44.514   3.237  22.975  1.00  0.00    -0.385 OA
ATOM     25  H   UNL     1      43.570   2.970  22.833  1.00  0.00     0.211 HD
ENDBRANCH  19  24
BRANCH  21  26
ATOM     26  O   UNL     1      45.720   0.963  21.843  1.00  0.00    -0.387 OA
ATOM     27  H   UNL     1      45.884   1.359  22.737  1.00  0.00     0.211 HD
ENDBRANCH  21  26
BRANCH  22  28
ATOM     28  C   UNL     1      41.902   2.429  18.963  1.00  0.00     0.191 C 
BRANCH  28  29
ATOM     29  O   UNL     1      40.970   3.430  19.272  1.00  0.00    -0.394 OA
ATOM     30  H   UNL     1      40.094   2.978  19.389  1.00  0.00     0.210 HD
ENDBRANCH  28  29
ENDBRANCH  22  28
BRANCH  23  31
ATOM     31  O   UNL     1      42.947   1.168  21.375  1.00  0.00    -0.387 OA
ATOM     32  H   UNL     1      42.559   0.298  21.095  1.00  0.00     0.211 HD
ENDBRANCH  23  31
ENDBRANCH   1  18
TORSDOF 11
ENDMDL
MODEL 8
REMARK VINA RESULT:    -6.066      4.773      8.741
REMARK INTER + INTRA:         -10.268
REMARK INTER:                  -8.694
REMARK INTRA:                  -1.575
REMARK UNBOUND:                -1.189
REMARK SMILES COC(=O)C1=CO[C@H](O[C@@H]2O[C@H](CO)[C@H](O)[C@H](O)[C@@H]2O)[C@H]2C(CO)=CC[C@@H]12
REMARK SMILES IDX 9 1 8 2 5 3 6 4 27 5 7 6 21 7 26 8 22 9 25 10 3 11 4 12 2 13
REMARK SMILES IDX 1 14 23 15 24 16 10 18 19 19 11 20 17 21 12 22 15 23 20 24
REMARK SMILES IDX 18 26 13 28 14 29 16 31
REMARK H PARENT 24 17 20 25 18 27 14 30 16 32
REMARK Flexibility Score: inf
ROOT
ATOM      1  O   UNL     1      39.655  -5.025  17.046  1.00  0.00    -0.310 OA
ENDROOT
BRANCH   1   2
ATOM      2  C   UNL     1      40.765  -5.553  17.755  1.00  0.00     0.316 C 
ATOM      3  C   UNL     1      43.203  -7.035  18.012  1.00  0.00     0.076 C 
ATOM      4  C   UNL     1      42.037  -7.660  17.778  1.00  0.00     0.202 C 
ATOM      5  C   UNL     1      43.319  -5.532  17.824  1.00  0.00     0.047 C 
ATOM      6  O   UNL     1      40.888  -6.937  17.452  1.00  0.00    -0.471 OA
ATOM      7  C   UNL     1      42.046  -4.825  17.304  1.00  0.00     0.094 C 
ATOM      8  C   UNL     1      43.679  -4.784  19.117  1.00  0.00     0.037 C 
ATOM      9  C   UNL     1      42.140  -3.476  17.947  1.00  0.00    -0.039 C 
ATOM     10  C   UNL     1      43.020  -3.462  18.942  1.00  0.00    -0.024 C 
BRANCH   3  11
ATOM     11  C   UNL     1      44.414  -7.813  18.368  1.00  0.00     0.337 C 
ATOM     12  O   UNL     1      44.600  -8.199  19.557  1.00  0.00    -0.246 OA
BRANCH  11  13
ATOM     13  O   UNL     1      45.354  -8.117  17.379  1.00  0.00    -0.466 OA
ATOM     14  C   UNL     1      46.397  -9.064  17.576  1.00  0.00     0.282 C 
ENDBRANCH  11  13
ENDBRANCH   3  11
BRANCH   9  15
ATOM     15  C   UNL     1      41.355  -2.270  17.516  1.00  0.00     0.187 C 
BRANCH  15  16
ATOM     16  O   UNL     1      40.890  -2.451  16.208  1.00  0.00    -0.392 OA
ATOM     17  H   UNL     1      40.985  -1.571  15.758  1.00  0.00     0.211 HD
ENDBRANCH  15  16
ENDBRANCH   9  15
ENDBRANCH   1   2
BRANCH   1  18
ATOM     18  C   UNL     1      39.380  -5.670  15.808  1.00  0.00     0.286 C 
ATOM     19  C   UNL     1      37.927  -6.205  15.724  1.00  0.00     0.202 C 
ATOM     20  O   UNL     1      39.706  -4.855  14.688  1.00  0.00    -0.341 OA
ATOM     21  C   UNL     1      37.737  -6.953  14.381  1.00  0.00     0.179 C 
ATOM     22  C   UNL     1      39.699  -5.620  13.493  1.00  0.00     0.178 C 
ATOM     23  C   UNL     1      38.272  -6.145  13.176  1.00  0.00     0.177 C 
BRANCH  19  24
ATOM     24  O   UNL     1      36.965  -5.193  15.894  1.00  0.00    -0.385 OA
ATOM     25  H   UNL     1      36.697  -5.175  16.848  1.00  0.00     0.211 HD
ENDBRANCH  19  24
BRANCH  21  26
ATOM     26  O   UNL     1      36.403  -7.359  14.192  1.00  0.00    -0.387 OA
ATOM     27  H   UNL     1      36.370  -8.349  14.244  1.00  0.00     0.211 HD
ENDBRANCH  21  26
BRANCH  22  28
ATOM     28  C   UNL     1      40.257  -4.754  12.353  1.00  0.00     0.191 C 
BRANCH  28  29
ATOM     29  O   UNL     1      39.704  -3.465  12.381  1.00  0.00    -0.394 OA
ATOM     30  H   UNL     1      40.035  -3.032  13.211  1.00  0.00     0.210 HD
ENDBRANCH  28  29
ENDBRANCH  22  28
BRANCH  23  31
ATOM     31  O   UNL     1      37.407  -5.074  12.880  1.00  0.00    -0.387 OA
ATOM     32  H   UNL     1      37.797  -4.259  13.293  1.00  0.00     0.211 HD
ENDBRANCH  23  31
ENDBRANCH   1  18
TORSDOF 11
ENDMDL
MODEL 9
REMARK VINA RESULT:    -6.045      3.354      6.194
REMARK INTER + INTRA:         -10.238
REMARK INTER:                  -9.081
REMARK INTRA:                  -1.156
REMARK UNBOUND:                -1.189
REMARK SMILES COC(=O)C1=CO[C@H](O[C@@H]2O[C@H](CO)[C@H](O)[C@H](O)[C@@H]2O)[C@H]2C(CO)=CC[C@@H]12
REMARK SMILES IDX 9 1 8 2 5 3 6 4 27 5 7 6 21 7 26 8 22 9 25 10 3 11 4 12 2 13
REMARK SMILES IDX 1 14 23 15 24 16 10 18 19 19 11 20 17 21 12 22 15 23 20 24
REMARK SMILES IDX 18 26 13 28 14 29 16 31
REMARK H PARENT 24 17 20 25 18 27 14 30 16 32
REMARK Flexibility Score: inf
ROOT
ATOM      1  O   UNL     1      44.972   4.263  21.524  1.00  0.00    -0.310 OA
ENDROOT
BRANCH   1   2
ATOM      2  C   UNL     1      44.328   3.721  20.381  1.00  0.00     0.316 C 
ATOM      3  C   UNL     1      42.872   1.721  18.936  1.00  0.00     0.076 C 
ATOM      4  C   UNL     1      44.147   1.516  19.304  1.00  0.00     0.202 C 
ATOM      5  C   UNL     1      42.072   2.860  19.546  1.00  0.00     0.047 C 
ATOM      6  O   UNL     1      44.794   2.393  20.177  1.00  0.00    -0.471 OA
ATOM      7  C   UNL     1      42.807   3.687  20.626  1.00  0.00     0.094 C 
ATOM      8  C   UNL     1      41.604   3.896  18.513  1.00  0.00     0.037 C 
ATOM      9  C   UNL     1      42.214   5.051  20.448  1.00  0.00    -0.039 C 
ATOM     10  C   UNL     1      41.572   5.164  19.291  1.00  0.00    -0.024 C 
BRANCH   3  11
ATOM     11  C   UNL     1      42.200   0.789  18.000  1.00  0.00     0.337 C 
ATOM     12  O   UNL     1      41.596   1.229  16.981  1.00  0.00    -0.246 OA
BRANCH  11  13
ATOM     13  O   UNL     1      42.237  -0.586  18.251  1.00  0.00    -0.466 OA
ATOM     14  C   UNL     1      41.646  -1.543  17.380  1.00  0.00     0.282 C 
ENDBRANCH  11  13
ENDBRANCH   3  11
BRANCH   9  15
ATOM     15  C   UNL     1      42.307   6.159  21.457  1.00  0.00     0.187 C 
BRANCH  15  16
ATOM     16  O   UNL     1      42.864   7.296  20.860  1.00  0.00    -0.392 OA
ATOM     17  H   UNL     1      42.595   8.065  21.427  1.00  0.00     0.211 HD
ENDBRANCH  15  16
ENDBRANCH   9  15
ENDBRANCH   1   2
BRANCH   1  18
ATOM     18  C   UNL     1      45.987   5.218  21.237  1.00  0.00     0.286 C 
ATOM     19  C   UNL     1      47.306   4.560  20.755  1.00  0.00     0.202 C 
ATOM     20  O   UNL     1      45.542   6.226  20.337  1.00  0.00    -0.341 OA
ATOM     21  C   UNL     1      48.373   5.661  20.538  1.00  0.00     0.179 C 
ATOM     22  C   UNL     1      46.463   7.307  20.302  1.00  0.00     0.178 C 
ATOM     23  C   UNL     1      47.829   6.855  19.719  1.00  0.00     0.177 C 
BRANCH  19  24
ATOM     24  O   UNL     1      47.131   3.772  19.603  1.00  0.00    -0.385 OA
ATOM     25  H   UNL     1      46.785   4.353  18.879  1.00  0.00     0.211 HD
ENDBRANCH  19  24
BRANCH  21  26
ATOM     26  O   UNL     1      49.558   5.140  19.985  1.00  0.00    -0.387 OA
ATOM     27  H   UNL     1      50.316   5.703  20.289  1.00  0.00     0.211 HD
ENDBRANCH  21  26
BRANCH  22  28
ATOM     28  C   UNL     1      45.842   8.452  19.486  1.00  0.00     0.191 C 
BRANCH  28  29
ATOM     29  O   UNL     1      44.852   7.974  18.616  1.00  0.00    -0.394 OA
ATOM     30  H   UNL     1      43.978   8.176  19.040  1.00  0.00     0.210 HD
ENDBRANCH  28  29
ENDBRANCH  22  28
BRANCH  23  31
ATOM     31  O   UNL     1      47.694   6.500  18.364  1.00  0.00    -0.387 OA
ATOM     32  H   UNL     1      47.130   7.194  17.933  1.00  0.00     0.211 HD
ENDBRANCH  23  31
ENDBRANCH   1  18
TORSDOF 11
ENDMDL
