MODEL 1
REMARK VINA RESULT:    -7.118      0.000      0.000
REMARK INTER + INTRA:          -8.522
REMARK INTER:                  -8.782
REMARK INTRA:                   0.260
REMARK UNBOUND:                 0.260
REMARK SMILES O=C1c2c(O)cc(O)cc2O[C@H](c2cc(O)c(O)c(O)c2)[C@@H]1O
REMARK SMILES IDX 12 1 22 2 2 3 1 4 3 5 4 6 6 7 7 8 9 9 10 10 11 11 13 12
REMARK SMILES IDX 14 13 15 14 21 15 17 16 19 17 16 18 18 20 20 22 23 24 5 26
REMARK SMILES IDX 8 28
REMARK H PARENT 16 19 18 21 20 23 23 25 5 27 8 29
REMARK Flexibility Score: inf
ROOT
ATOM      1  C   UNL     1      60.204 152.130   4.260  1.00  0.00     0.240 C 
ATOM      2  C   UNL     1      60.193 152.505   5.756  1.00  0.00     0.231 C 
ATOM      3  C   UNL     1      60.886 151.438   6.569  1.00  0.00     0.202 C 
ATOM      4  O   UNL     1      60.577 151.326   7.784  1.00  0.00    -0.291 OA
ATOM      5  C   UNL     1      61.994 150.640   5.965  1.00  0.00     0.105 A 
ATOM      6  C   UNL     1      62.785 149.695   6.679  1.00  0.00     0.133 A 
ATOM      7  C   UNL     1      63.917 149.139   6.069  1.00  0.00     0.093 A 
ATOM      8  C   UNL     1      64.254 149.461   4.754  1.00  0.00     0.123 A 
ATOM      9  C   UNL     1      63.450 150.341   4.027  1.00  0.00     0.093 A 
ATOM     10  C   UNL     1      62.321 150.913   4.617  1.00  0.00     0.138 A 
ATOM     11  O   UNL     1      61.522 151.769   3.851  1.00  0.00    -0.481 OA
ENDROOT
BRANCH   1  12
ATOM     12  C   UNL     1      59.661 153.250   3.399  1.00  0.00     0.003 A 
ATOM     13  C   UNL     1      59.736 153.151   2.001  1.00  0.00     0.058 A 
ATOM     14  C   UNL     1      59.211 154.159   1.185  1.00  0.00     0.161 A 
ATOM     15  C   UNL     1      59.026 154.363   3.973  1.00  0.00     0.058 A 
ATOM     16  C   UNL     1      58.591 155.278   1.764  1.00  0.00     0.200 A 
ATOM     17  C   UNL     1      58.497 155.377   3.163  1.00  0.00     0.161 A 
BRANCH  14  18
ATOM     18  O   UNL     1      59.312 154.027  -0.199  1.00  0.00    -0.504 OA
ATOM     19  H   UNL     1      58.682 154.505  -0.834  1.00  0.00     0.293 HD
ENDBRANCH  14  18
BRANCH  16  20
ATOM     20  O   UNL     1      58.070 156.280   0.944  1.00  0.00    -0.502 OA
ATOM     21  H   UNL     1      57.520 157.047   1.310  1.00  0.00     0.293 HD
ENDBRANCH  16  20
BRANCH  17  22
ATOM     22  O   UNL     1      57.876 156.482   3.745  1.00  0.00    -0.504 OA
ATOM     23  H   UNL     1      57.579 156.477   4.715  1.00  0.00     0.293 HD
ENDBRANCH  17  22
ENDBRANCH   1  12
BRANCH   2  24
ATOM     24  O   UNL     1      60.799 153.753   5.985  1.00  0.00    -0.381 OA
ATOM     25  H   UNL     1      61.713 153.723   5.595  1.00  0.00     0.211 HD
ENDBRANCH   2  24
BRANCH   6  26
ATOM     26  O   UNL     1      62.489 149.261   7.974  1.00  0.00    -0.507 OA
ATOM     27  H   UNL     1      62.736 148.354   8.342  1.00  0.00     0.293 HD
ENDBRANCH   6  26
BRANCH   8  28
ATOM     28  O   UNL     1      65.385 148.890   4.175  1.00  0.00    -0.508 OA
ATOM     29  H   UNL     1      65.325 148.054   3.606  1.00  0.00     0.293 HD
ENDBRANCH   8  28
TORSDOF 7
ENDMDL
MODEL 2
REMARK VINA RESULT:    -7.102      0.076      1.756
REMARK INTER + INTRA:          -8.503
REMARK INTER:                  -8.821
REMARK INTRA:                   0.317
REMARK UNBOUND:                 0.260
REMARK SMILES O=C1c2c(O)cc(O)cc2O[C@H](c2cc(O)c(O)c(O)c2)[C@@H]1O
REMARK SMILES IDX 12 1 22 2 2 3 1 4 3 5 4 6 6 7 7 8 9 9 10 10 11 11 13 12
REMARK SMILES IDX 14 13 15 14 21 15 17 16 19 17 16 18 18 20 20 22 23 24 5 26
REMARK SMILES IDX 8 28
REMARK H PARENT 16 19 18 21 20 23 23 25 5 27 8 29
REMARK Flexibility Score: inf
ROOT
ATOM      1  C   UNL     1      60.146 152.094   4.228  1.00  0.00     0.240 C 
ATOM      2  C   UNL     1      60.127 152.507   5.714  1.00  0.00     0.231 C 
ATOM      3  C   UNL     1      60.836 151.474   6.555  1.00  0.00     0.202 C 
ATOM      4  O   UNL     1      60.527 151.388   7.772  1.00  0.00    -0.291 OA
ATOM      5  C   UNL     1      61.959 150.679   5.973  1.00  0.00     0.105 A 
ATOM      6  C   UNL     1      62.764 149.766   6.712  1.00  0.00     0.133 A 
ATOM      7  C   UNL     1      63.906 149.214   6.118  1.00  0.00     0.093 A 
ATOM      8  C   UNL     1      64.240 149.507   4.795  1.00  0.00     0.123 A 
ATOM      9  C   UNL     1      63.422 150.354   4.045  1.00  0.00     0.093 A 
ATOM     10  C   UNL     1      62.283 150.922   4.618  1.00  0.00     0.138 A 
ATOM     11  O   UNL     1      61.471 151.745   3.830  1.00  0.00    -0.481 OA
ENDROOT
BRANCH   1  12
ATOM     12  C   UNL     1      59.586 153.181   3.338  1.00  0.00     0.003 A 
ATOM     13  C   UNL     1      58.976 154.307   3.912  1.00  0.00     0.058 A 
ATOM     14  C   UNL     1      58.482 155.340   3.109  1.00  0.00     0.161 A 
ATOM     15  C   UNL     1      59.721 153.115   1.941  1.00  0.00     0.058 A 
ATOM     16  C   UNL     1      58.605 155.262   1.712  1.00  0.00     0.200 A 
ATOM     17  C   UNL     1      59.230 154.146   1.128  1.00  0.00     0.161 A 
BRANCH  14  18
ATOM     18  O   UNL     1      57.875 156.437   3.718  1.00  0.00    -0.504 OA
ATOM     19  H   UNL     1      58.299 156.922   4.500  1.00  0.00     0.293 HD
ENDBRANCH  14  18
BRANCH  16  20
ATOM     20  O   UNL     1      58.108 156.295   0.916  1.00  0.00    -0.502 OA
ATOM     21  H   UNL     1      57.918 156.174  -0.070  1.00  0.00     0.293 HD
ENDBRANCH  16  20
BRANCH  17  22
ATOM     22  O   UNL     1      59.362 154.065  -0.258  1.00  0.00    -0.504 OA
ATOM     23  H   UNL     1      60.247 153.834  -0.695  1.00  0.00     0.293 HD
ENDBRANCH  17  22
ENDBRANCH   1  12
BRANCH   2  24
ATOM     24  O   UNL     1      60.712 153.771   5.911  1.00  0.00    -0.381 OA
ATOM     25  H   UNL     1      61.530 153.818   5.349  1.00  0.00     0.211 HD
ENDBRANCH   2  24
BRANCH   6  26
ATOM     26  O   UNL     1      62.474 149.361   8.017  1.00  0.00    -0.507 OA
ATOM     27  H   UNL     1      61.981 148.513   8.255  1.00  0.00     0.293 HD
ENDBRANCH   6  26
BRANCH   8  28
ATOM     28  O   UNL     1      65.381 148.940   4.232  1.00  0.00    -0.508 OA
ATOM     29  H   UNL     1      65.961 149.453   3.579  1.00  0.00     0.293 HD
ENDBRANCH   8  28
TORSDOF 7
ENDMDL
MODEL 3
REMARK VINA RESULT:    -6.846      1.646      7.300
REMARK INTER + INTRA:          -8.187
REMARK INTER:                  -8.317
REMARK INTRA:                   0.130
REMARK UNBOUND:                 0.260
REMARK SMILES O=C1c2c(O)cc(O)cc2O[C@H](c2cc(O)c(O)c(O)c2)[C@@H]1O
REMARK SMILES IDX 12 1 22 2 2 3 1 4 3 5 4 6 6 7 7 8 9 9 10 10 11 11 13 12
REMARK SMILES IDX 14 13 15 14 21 15 17 16 19 17 16 18 18 20 20 22 23 24 5 26
REMARK SMILES IDX 8 28
REMARK H PARENT 16 19 18 21 20 23 23 25 5 27 8 29
REMARK Flexibility Score: inf
ROOT
ATOM      1  C   UNL     1      60.824 151.563   4.067  1.00  0.00     0.240 C 
ATOM      2  C   UNL     1      61.108 152.019   2.621  1.00  0.00     0.231 C 
ATOM      3  C   UNL     1      60.036 152.973   2.152  1.00  0.00     0.202 C 
ATOM      4  O   UNL     1      59.834 153.073   0.914  1.00  0.00    -0.291 OA
ATOM      5  C   UNL     1      59.340 153.857   3.134  1.00  0.00     0.105 A 
ATOM      6  C   UNL     1      58.402 154.868   2.780  1.00  0.00     0.133 A 
ATOM      7  C   UNL     1      57.949 155.764   3.757  1.00  0.00     0.093 A 
ATOM      8  C   UNL     1      58.367 155.651   5.083  1.00  0.00     0.123 A 
ATOM      9  C   UNL     1      59.241 154.626   5.450  1.00  0.00     0.093 A 
ATOM     10  C   UNL     1      59.712 153.725   4.492  1.00  0.00     0.138 A 
ATOM     11  O   UNL     1      60.564 152.694   4.899  1.00  0.00    -0.481 OA
ENDROOT
BRANCH   1  12
ATOM     12  C   UNL     1      61.960 150.735   4.626  1.00  0.00     0.003 A 
ATOM     13  C   UNL     1      63.187 151.346   4.923  1.00  0.00     0.058 A 
ATOM     14  C   UNL     1      64.239 150.606   5.472  1.00  0.00     0.161 A 
ATOM     15  C   UNL     1      61.788 149.370   4.913  1.00  0.00     0.058 A 
ATOM     16  C   UNL     1      64.069 149.238   5.742  1.00  0.00     0.200 A 
ATOM     17  C   UNL     1      62.837 148.621   5.464  1.00  0.00     0.161 A 
BRANCH  14  18
ATOM     18  O   UNL     1      65.446 151.249   5.745  1.00  0.00    -0.504 OA
ATOM     19  H   UNL     1      66.315 150.977   5.299  1.00  0.00     0.293 HD
ENDBRANCH  14  18
BRANCH  16  20
ATOM     20  O   UNL     1      65.123 148.506   6.288  1.00  0.00    -0.502 OA
ATOM     21  H   UNL     1      65.647 147.828   5.749  1.00  0.00     0.293 HD
ENDBRANCH  16  20
BRANCH  17  22
ATOM     22  O   UNL     1      62.658 147.265   5.736  1.00  0.00    -0.504 OA
ATOM     23  H   UNL     1      62.720 146.899   6.680  1.00  0.00     0.293 HD
ENDBRANCH  17  22
ENDBRANCH   1  12
BRANCH   2  24
ATOM     24  O   UNL     1      62.373 152.622   2.504  1.00  0.00    -0.381 OA
ATOM     25  H   UNL     1      62.545 153.132   3.340  1.00  0.00     0.211 HD
ENDBRANCH   2  24
BRANCH   6  26
ATOM     26  O   UNL     1      57.875 155.018   1.494  1.00  0.00    -0.507 OA
ATOM     27  H   UNL     1      56.889 155.031   1.280  1.00  0.00     0.293 HD
ENDBRANCH   6  26
BRANCH   8  28
ATOM     28  O   UNL     1      57.897 156.557   6.032  1.00  0.00    -0.508 OA
ATOM     29  H   UNL     1      57.715 157.525   5.795  1.00  0.00     0.293 HD
ENDBRANCH   8  28
TORSDOF 7
ENDMDL
MODEL 4
REMARK VINA RESULT:    -6.332      1.516      6.964
REMARK INTER + INTRA:          -7.553
REMARK INTER:                  -8.145
REMARK INTRA:                   0.593
REMARK UNBOUND:                 0.260
REMARK SMILES O=C1c2c(O)cc(O)cc2O[C@H](c2cc(O)c(O)c(O)c2)[C@@H]1O
REMARK SMILES IDX 12 1 22 2 2 3 1 4 3 5 4 6 6 7 7 8 9 9 10 10 11 11 13 12
REMARK SMILES IDX 14 13 15 14 21 15 17 16 19 17 16 18 18 20 20 22 23 24 5 26
REMARK SMILES IDX 8 28
REMARK H PARENT 16 19 18 21 20 23 23 25 5 27 8 29
REMARK Flexibility Score: inf
ROOT
ATOM      1  C   UNL     1      60.952 152.270   5.087  1.00  0.00     0.240 C 
ATOM      2  C   UNL     1      60.011 152.653   6.247  1.00  0.00     0.231 C 
ATOM      3  C   UNL     1      59.310 153.956   5.945  1.00  0.00     0.202 C 
ATOM      4  O   UNL     1      58.895 154.643   6.913  1.00  0.00    -0.291 OA
ATOM      5  C   UNL     1      59.012 154.334   4.530  1.00  0.00     0.105 A 
ATOM      6  C   UNL     1      58.257 155.478   4.147  1.00  0.00     0.133 A 
ATOM      7  C   UNL     1      57.876 155.639   2.808  1.00  0.00     0.093 A 
ATOM      8  C   UNL     1      58.268 154.719   1.835  1.00  0.00     0.123 A 
ATOM      9  C   UNL     1      59.059 153.626   2.193  1.00  0.00     0.093 A 
ATOM     10  C   UNL     1      59.444 153.440   3.523  1.00  0.00     0.138 A 
ATOM     11  O   UNL     1      60.259 152.349   3.842  1.00  0.00    -0.481 OA
ENDROOT
BRANCH   1  12
ATOM     12  C   UNL     1      61.549 150.893   5.283  1.00  0.00     0.003 A 
ATOM     13  C   UNL     1      60.774 149.873   5.853  1.00  0.00     0.058 A 
ATOM     14  C   UNL     1      61.294 148.584   6.012  1.00  0.00     0.161 A 
ATOM     15  C   UNL     1      62.851 150.600   4.845  1.00  0.00     0.058 A 
ATOM     16  C   UNL     1      62.603 148.299   5.588  1.00  0.00     0.200 A 
ATOM     17  C   UNL     1      63.381 149.311   5.000  1.00  0.00     0.161 A 
BRANCH  14  18
ATOM     18  O   UNL     1      60.494 147.600   6.591  1.00  0.00    -0.504 OA
ATOM     19  H   UNL     1      60.599 147.321   7.560  1.00  0.00     0.293 HD
ENDBRANCH  14  18
BRANCH  16  20
ATOM     20  O   UNL     1      63.116 147.012   5.751  1.00  0.00    -0.502 OA
ATOM     21  H   UNL     1      63.274 146.604   6.664  1.00  0.00     0.293 HD
ENDBRANCH  16  20
BRANCH  17  22
ATOM     22  O   UNL     1      64.678 149.033   4.570  1.00  0.00    -0.504 OA
ATOM     23  H   UNL     1      65.090 149.514   3.778  1.00  0.00     0.293 HD
ENDBRANCH  17  22
ENDBRANCH   1  12
BRANCH   2  24
ATOM     24  O   UNL     1      59.064 151.646   6.504  1.00  0.00    -0.381 OA
ATOM     25  H   UNL     1      58.623 151.857   7.369  1.00  0.00     0.211 HD
ENDBRANCH   2  24
BRANCH   6  26
ATOM     26  O   UNL     1      57.875 156.486   5.036  1.00  0.00    -0.507 OA
ATOM     27  H   UNL     1      58.511 156.982   5.643  1.00  0.00     0.293 HD
ENDBRANCH   6  26
BRANCH   8  28
ATOM     28  O   UNL     1      57.875 154.908   0.512  1.00  0.00    -0.508 OA
ATOM     29  H   UNL     1      58.336 154.428  -0.251  1.00  0.00     0.293 HD
ENDBRANCH   8  28
TORSDOF 7
ENDMDL
MODEL 5
REMARK VINA RESULT:    -5.990      1.829      3.642
REMARK INTER + INTRA:          -7.131
REMARK INTER:                  -7.666
REMARK INTRA:                   0.535
REMARK UNBOUND:                 0.260
REMARK SMILES O=C1c2c(O)cc(O)cc2O[C@H](c2cc(O)c(O)c(O)c2)[C@@H]1O
REMARK SMILES IDX 12 1 22 2 2 3 1 4 3 5 4 6 6 7 7 8 9 9 10 10 11 11 13 12
REMARK SMILES IDX 14 13 15 14 21 15 17 16 19 17 16 18 18 20 20 22 23 24 5 26
REMARK SMILES IDX 8 28
REMARK H PARENT 16 19 18 21 20 23 23 25 5 27 8 29
REMARK Flexibility Score: inf
ROOT
ATOM      1  C   UNL     1      60.103 152.697   5.394  1.00  0.00     0.240 C 
ATOM      2  C   UNL     1      61.388 151.991   4.915  1.00  0.00     0.231 C 
ATOM      3  C   UNL     1      61.882 151.029   5.969  1.00  0.00     0.202 C 
ATOM      4  O   UNL     1      63.104 150.733   5.973  1.00  0.00    -0.291 OA
ATOM      5  C   UNL     1      60.910 150.361   6.885  1.00  0.00     0.105 A 
ATOM      6  C   UNL     1      61.258 149.356   7.832  1.00  0.00     0.133 A 
ATOM      7  C   UNL     1      60.247 148.662   8.509  1.00  0.00     0.093 A 
ATOM      8  C   UNL     1      58.903 148.975   8.305  1.00  0.00     0.123 A 
ATOM      9  C   UNL     1      58.555 149.999   7.424  1.00  0.00     0.093 A 
ATOM     10  C   UNL     1      59.545 150.699   6.732  1.00  0.00     0.138 A 
ATOM     11  O   UNL     1      59.163 151.739   5.877  1.00  0.00    -0.481 OA
ENDROOT
BRANCH   1  12
ATOM     12  C   UNL     1      59.492 153.548   4.302  1.00  0.00     0.003 A 
ATOM     13  C   UNL     1      58.951 154.803   4.618  1.00  0.00     0.058 A 
ATOM     14  C   UNL     1      58.412 155.620   3.618  1.00  0.00     0.161 A 
ATOM     15  C   UNL     1      59.511 153.128   2.962  1.00  0.00     0.058 A 
ATOM     16  C   UNL     1      58.418 155.190   2.281  1.00  0.00     0.200 A 
ATOM     17  C   UNL     1      58.973 153.940   1.954  1.00  0.00     0.161 A 
BRANCH  14  18
ATOM     18  O   UNL     1      57.876 156.857   3.975  1.00  0.00    -0.504 OA
ATOM     19  H   UNL     1      56.877 157.019   4.022  1.00  0.00     0.293 HD
ENDBRANCH  14  18
BRANCH  16  20
ATOM     20  O   UNL     1      57.876 156.009   1.290  1.00  0.00    -0.502 OA
ATOM     21  H   UNL     1      57.197 155.670   0.620  1.00  0.00     0.293 HD
ENDBRANCH  16  20
BRANCH  17  22
ATOM     22  O   UNL     1      58.989 153.510   0.627  1.00  0.00    -0.504 OA
ATOM     23  H   UNL     1      58.461 152.699   0.324  1.00  0.00     0.293 HD
ENDBRANCH  17  22
ENDBRANCH   1  12
BRANCH   2  24
ATOM     24  O   UNL     1      61.186 151.311   3.701  1.00  0.00    -0.381 OA
ATOM     25  H   UNL     1      60.226 151.059   3.649  1.00  0.00     0.211 HD
ENDBRANCH   2  24
BRANCH   6  26
ATOM     26  O   UNL     1      62.577 149.019   8.151  1.00  0.00    -0.507 OA
ATOM     27  H   UNL     1      63.386 149.327   7.633  1.00  0.00     0.293 HD
ENDBRANCH   6  26
BRANCH   8  28
ATOM     28  O   UNL     1      57.921 148.267   8.995  1.00  0.00    -0.508 OA
ATOM     29  H   UNL     1      57.790 147.272   8.859  1.00  0.00     0.293 HD
ENDBRANCH   8  28
TORSDOF 7
ENDMDL
MODEL 6
REMARK VINA RESULT:    -5.748      2.154      3.474
REMARK INTER + INTRA:          -6.833
REMARK INTER:                  -7.350
REMARK INTRA:                   0.517
REMARK UNBOUND:                 0.260
REMARK SMILES O=C1c2c(O)cc(O)cc2O[C@H](c2cc(O)c(O)c(O)c2)[C@@H]1O
REMARK SMILES IDX 12 1 22 2 2 3 1 4 3 5 4 6 6 7 7 8 9 9 10 10 11 11 13 12
REMARK SMILES IDX 14 13 15 14 21 15 17 16 19 17 16 18 18 20 20 22 23 24 5 26
REMARK SMILES IDX 8 28
REMARK H PARENT 16 19 18 21 20 23 23 25 5 27 8 29
REMARK Flexibility Score: inf
ROOT
ATOM      1  C   UNL     1      60.638 152.379   5.712  1.00  0.00     0.240 C 
ATOM      2  C   UNL     1      61.460 151.768   4.559  1.00  0.00     0.231 C 
ATOM      3  C   UNL     1      62.012 150.422   4.965  1.00  0.00     0.202 C 
ATOM      4  O   UNL     1      63.045 150.006   4.381  1.00  0.00    -0.291 OA
ATOM      5  C   UNL     1      61.265 149.570   5.939  1.00  0.00     0.105 A 
ATOM      6  C   UNL     1      61.638 148.244   6.297  1.00  0.00     0.133 A 
ATOM      7  C   UNL     1      60.769 147.467   7.073  1.00  0.00     0.093 A 
ATOM      8  C   UNL     1      59.563 147.989   7.541  1.00  0.00     0.123 A 
ATOM      9  C   UNL     1      59.217 149.308   7.244  1.00  0.00     0.093 A 
ATOM     10  C   UNL     1      60.064 150.100   6.466  1.00  0.00     0.138 A 
ATOM     11  O   UNL     1      59.700 151.426   6.210  1.00  0.00    -0.481 OA
ENDROOT
BRANCH   1  12
ATOM     12  C   UNL     1      59.937 153.651   5.287  1.00  0.00     0.003 A 
ATOM     13  C   UNL     1      59.282 153.704   4.047  1.00  0.00     0.058 A 
ATOM     14  C   UNL     1      58.599 154.858   3.649  1.00  0.00     0.161 A 
ATOM     15  C   UNL     1      59.878 154.766   6.140  1.00  0.00     0.058 A 
ATOM     16  C   UNL     1      58.556 155.976   4.498  1.00  0.00     0.200 A 
ATOM     17  C   UNL     1      59.196 155.926   5.749  1.00  0.00     0.161 A 
BRANCH  14  18
ATOM     18  O   UNL     1      57.968 154.873   2.406  1.00  0.00    -0.504 OA
ATOM     19  H   UNL     1      57.829 154.029   1.861  1.00  0.00     0.293 HD
ENDBRANCH  14  18
BRANCH  16  20
ATOM     20  O   UNL     1      57.875 157.124   4.093  1.00  0.00    -0.502 OA
ATOM     21  H   UNL     1      56.951 157.088   3.683  1.00  0.00     0.293 HD
ENDBRANCH  16  20
BRANCH  17  22
ATOM     22  O   UNL     1      59.151 157.029   6.600  1.00  0.00    -0.504 OA
ATOM     23  H   UNL     1      59.547 157.924   6.334  1.00  0.00     0.293 HD
ENDBRANCH  17  22
ENDBRANCH   1  12
BRANCH   2  24
ATOM     24  O   UNL     1      60.695 151.639   3.386  1.00  0.00    -0.381 OA
ATOM     25  H   UNL     1      60.833 152.460   2.842  1.00  0.00     0.211 HD
ENDBRANCH   2  24
BRANCH   6  26
ATOM     26  O   UNL     1      62.854 147.658   5.933  1.00  0.00    -0.507 OA
ATOM     27  H   UNL     1      63.444 147.988   5.184  1.00  0.00     0.293 HD
ENDBRANCH   6  26
BRANCH   8  28
ATOM     28  O   UNL     1      58.721 147.190   8.312  1.00  0.00    -0.508 OA
ATOM     29  H   UNL     1      57.797 147.502   8.583  1.00  0.00     0.293 HD
ENDBRANCH   8  28
TORSDOF 7
ENDMDL
MODEL 7
REMARK VINA RESULT:    -5.688      3.041      4.881
REMARK INTER + INTRA:          -6.758
REMARK INTER:                  -6.642
REMARK INTRA:                  -0.116
REMARK UNBOUND:                 0.260
REMARK SMILES O=C1c2c(O)cc(O)cc2O[C@H](c2cc(O)c(O)c(O)c2)[C@@H]1O
REMARK SMILES IDX 12 1 22 2 2 3 1 4 3 5 4 6 6 7 7 8 9 9 10 10 11 11 13 12
REMARK SMILES IDX 14 13 15 14 21 15 17 16 19 17 16 18 18 20 20 22 23 24 5 26
REMARK SMILES IDX 8 28
REMARK H PARENT 16 19 18 21 20 23 23 25 5 27 8 29
REMARK Flexibility Score: inf
ROOT
ATOM      1  C   UNL     1      61.132 151.412   6.957  1.00  0.00     0.240 C 
ATOM      2  C   UNL     1      61.573 150.786   5.618  1.00  0.00     0.231 C 
ATOM      3  C   UNL     1      61.681 149.286   5.751  1.00  0.00     0.202 C 
ATOM      4  O   UNL     1      62.446 148.676   4.960  1.00  0.00    -0.291 OA
ATOM      5  C   UNL     1      60.800 148.555   6.710  1.00  0.00     0.105 A 
ATOM      6  C   UNL     1      60.743 147.137   6.828  1.00  0.00     0.133 A 
ATOM      7  C   UNL     1      59.752 146.549   7.624  1.00  0.00     0.093 A 
ATOM      8  C   UNL     1      58.848 147.333   8.342  1.00  0.00     0.123 A 
ATOM      9  C   UNL     1      58.936 148.724   8.279  1.00  0.00     0.093 A 
ATOM     10  C   UNL     1      59.911 149.334   7.486  1.00  0.00     0.138 A 
ATOM     11  O   UNL     1      59.987 150.730   7.468  1.00  0.00    -0.481 OA
ENDROOT
BRANCH   1  12
ATOM     12  C   UNL     1      60.858 152.894   6.818  1.00  0.00     0.003 A 
ATOM     13  C   UNL     1      61.877 153.819   7.091  1.00  0.00     0.058 A 
ATOM     14  C   UNL     1      61.656 155.191   6.936  1.00  0.00     0.161 A 
ATOM     15  C   UNL     1      59.615 153.361   6.361  1.00  0.00     0.058 A 
ATOM     16  C   UNL     1      60.406 155.655   6.494  1.00  0.00     0.200 A 
ATOM     17  C   UNL     1      59.384 154.734   6.203  1.00  0.00     0.161 A 
BRANCH  14  18
ATOM     18  O   UNL     1      62.692 156.078   7.225  1.00  0.00    -0.504 OA
ATOM     19  H   UNL     1      63.617 155.977   6.823  1.00  0.00     0.293 HD
ENDBRANCH  14  18
BRANCH  16  20
ATOM     20  O   UNL     1      60.191 157.025   6.344  1.00  0.00    -0.502 OA
ATOM     21  H   UNL     1      60.247 157.486   5.445  1.00  0.00     0.293 HD
ENDBRANCH  16  20
BRANCH  17  22
ATOM     22  O   UNL     1      58.143 155.187   5.756  1.00  0.00    -0.504 OA
ATOM     23  H   UNL     1      57.343 154.567   5.689  1.00  0.00     0.293 HD
ENDBRANCH  17  22
ENDBRANCH   1  12
BRANCH   2  24
ATOM     24  O   UNL     1      60.689 151.113   4.574  1.00  0.00    -0.381 OA
ATOM     25  H   UNL     1      59.913 150.495   4.628  1.00  0.00     0.211 HD
ENDBRANCH   2  24
BRANCH   6  26
ATOM     26  O   UNL     1      61.645 146.273   6.201  1.00  0.00    -0.507 OA
ATOM     27  H   UNL     1      61.644 145.270   6.313  1.00  0.00     0.293 HD
ENDBRANCH   6  26
BRANCH   8  28
ATOM     28  O   UNL     1      57.875 146.717   9.125  1.00  0.00    -0.508 OA
ATOM     29  H   UNL     1      58.116 146.019   9.818  1.00  0.00     0.293 HD
ENDBRANCH   8  28
TORSDOF 7
ENDMDL
MODEL 8
REMARK VINA RESULT:    -5.215      2.339      4.203
REMARK INTER + INTRA:          -6.174
REMARK INTER:                  -6.730
REMARK INTRA:                   0.556
REMARK UNBOUND:                 0.260
REMARK SMILES O=C1c2c(O)cc(O)cc2O[C@H](c2cc(O)c(O)c(O)c2)[C@@H]1O
REMARK SMILES IDX 12 1 22 2 2 3 1 4 3 5 4 6 6 7 7 8 9 9 10 10 11 11 13 12
REMARK SMILES IDX 14 13 15 14 21 15 17 16 19 17 16 18 18 20 20 22 23 24 5 26
REMARK SMILES IDX 8 28
REMARK H PARENT 16 19 18 21 20 23 23 25 5 27 8 29
REMARK Flexibility Score: inf
ROOT
ATOM      1  C   UNL     1      61.149 152.264   6.354  1.00  0.00     0.240 C 
ATOM      2  C   UNL     1      61.943 152.220   5.033  1.00  0.00     0.231 C 
ATOM      3  C   UNL     1      62.696 150.917   4.917  1.00  0.00     0.202 C 
ATOM      4  O   UNL     1      63.722 150.889   4.189  1.00  0.00    -0.291 OA
ATOM      5  C   UNL     1      62.150 149.679   5.550  1.00  0.00     0.105 A 
ATOM      6  C   UNL     1      62.720 148.383   5.403  1.00  0.00     0.133 A 
ATOM      7  C   UNL     1      62.027 147.263   5.881  1.00  0.00     0.093 A 
ATOM      8  C   UNL     1      60.807 147.404   6.543  1.00  0.00     0.123 A 
ATOM      9  C   UNL     1      60.270 148.676   6.744  1.00  0.00     0.093 A 
ATOM     10  C   UNL     1      60.939 149.806   6.270  1.00  0.00     0.138 A 
ATOM     11  O   UNL     1      60.386 151.068   6.512  1.00  0.00    -0.481 OA
ENDROOT
BRANCH   1  12
ATOM     12  C   UNL     1      60.257 153.484   6.431  1.00  0.00     0.003 A 
ATOM     13  C   UNL     1      60.078 154.140   7.658  1.00  0.00     0.058 A 
ATOM     14  C   UNL     1      59.285 155.290   7.744  1.00  0.00     0.161 A 
ATOM     15  C   UNL     1      59.649 154.010   5.279  1.00  0.00     0.058 A 
ATOM     16  C   UNL     1      58.667 155.803   6.593  1.00  0.00     0.200 A 
ATOM     17  C   UNL     1      58.854 155.162   5.356  1.00  0.00     0.161 A 
BRANCH  14  18
ATOM     18  O   UNL     1      59.127 155.908   8.984  1.00  0.00    -0.504 OA
ATOM     19  H   UNL     1      59.315 156.894   9.123  1.00  0.00     0.293 HD
ENDBRANCH  14  18
BRANCH  16  20
ATOM     20  O   UNL     1      57.876 156.949   6.687  1.00  0.00    -0.502 OA
ATOM     21  H   UNL     1      58.034 157.764   6.108  1.00  0.00     0.293 HD
ENDBRANCH  16  20
BRANCH  17  22
ATOM     22  O   UNL     1      58.249 155.671   4.207  1.00  0.00    -0.504 OA
ATOM     23  H   UNL     1      57.425 155.239   3.803  1.00  0.00     0.293 HD
ENDBRANCH  17  22
ENDBRANCH   1  12
BRANCH   2  24
ATOM     24  O   UNL     1      61.106 152.392   3.916  1.00  0.00    -0.381 OA
ATOM     25  H   UNL     1      60.719 153.306   3.964  1.00  0.00     0.211 HD
ENDBRANCH   2  24
BRANCH   6  26
ATOM     26  O   UNL     1      63.966 148.149   4.814  1.00  0.00    -0.507 OA
ATOM     27  H   UNL     1      64.519 147.317   4.960  1.00  0.00     0.293 HD
ENDBRANCH   6  26
BRANCH   8  28
ATOM     28  O   UNL     1      60.143 146.271   7.008  1.00  0.00    -0.508 OA
ATOM     29  H   UNL     1      59.203 146.046   6.706  1.00  0.00     0.293 HD
ENDBRANCH   8  28
TORSDOF 7
ENDMDL
