MODEL 1
REMARK VINA RESULT:    -7.938      0.000      0.000
REMARK INTER + INTRA:          -9.785
REMARK INTER:                  -9.794
REMARK INTRA:                   0.008
REMARK UNBOUND:                 0.008
REMARK SMILES O=c1c(O)c(-c2cc(O)c(O)c(O)c2)oc2cc(O)cc(O)c12
REMARK SMILES IDX 5 1 3 2 2 3 1 4 23 5 21 6 20 7 18 8 17 9 16 10 15 11 6 12
REMARK SMILES IDX 7 13 8 14 14 15 10 16 12 17 9 18 11 20 13 22 4 24 22 26
REMARK SMILES IDX 19 28
REMARK H PARENT 9 19 11 21 13 23 4 25 22 27 19 29
REMARK Flexibility Score: inf
ROOT
ATOM      1  C   UNL     1      42.760   1.484  19.832  1.00  0.00     0.180 A 
ATOM      2  C   UNL     1      42.096   2.665  19.447  1.00  0.00     0.208 A 
ATOM      3  C   UNL     1      41.500   2.723  18.178  1.00  0.00     0.238 A 
ATOM      4  O   UNL     1      40.894   3.772  17.826  1.00  0.00    -0.285 OA
ATOM      5  C   UNL     1      41.591   1.615  17.312  1.00  0.00     0.111 A 
ATOM      6  C   UNL     1      41.021   1.595  16.016  1.00  0.00     0.134 A 
ATOM      7  C   UNL     1      41.165   0.456  15.210  1.00  0.00     0.093 A 
ATOM      8  C   UNL     1      41.866  -0.661  15.673  1.00  0.00     0.123 A 
ATOM      9  C   UNL     1      42.431  -0.646  16.952  1.00  0.00     0.094 A 
ATOM     10  C   UNL     1      42.298   0.478  17.770  1.00  0.00     0.146 A 
ATOM     11  O   UNL     1      42.840   0.463  18.983  1.00  0.00    -0.452 OA
ENDROOT
BRANCH   1  12
ATOM     12  C   UNL     1      43.399   1.338  21.161  1.00  0.00     0.029 A 
ATOM     13  C   UNL     1      42.740   1.734  22.336  1.00  0.00     0.062 A 
ATOM     14  C   UNL     1      43.341   1.569  23.589  1.00  0.00     0.162 A 
ATOM     15  C   UNL     1      44.662   0.738  21.257  1.00  0.00     0.062 A 
ATOM     16  C   UNL     1      44.629   0.987  23.674  1.00  0.00     0.200 A 
ATOM     17  C   UNL     1      45.277   0.570  22.503  1.00  0.00     0.162 A 
BRANCH  14  18
ATOM     18  O   UNL     1      42.627   1.988  24.713  1.00  0.00    -0.504 OA
ATOM     19  H   UNL     1      42.070   2.830  24.748  1.00  0.00     0.293 HD
ENDBRANCH  14  18
BRANCH  16  20
ATOM     20  O   UNL     1      45.291   0.804  24.891  1.00  0.00    -0.502 OA
ATOM     21  H   UNL     1      46.053   0.156  25.030  1.00  0.00     0.293 HD
ENDBRANCH  16  20
BRANCH  17  22
ATOM     22  O   UNL     1      46.541  -0.012  22.587  1.00  0.00    -0.504 OA
ATOM     23  H   UNL     1      47.373   0.545  22.744  1.00  0.00     0.293 HD
ENDBRANCH  17  22
ENDBRANCH   1  12
BRANCH   2  24
ATOM     24  O   UNL     1      42.063   3.767  20.304  1.00  0.00    -0.502 OA
ATOM     25  H   UNL     1      42.691   4.554  20.201  1.00  0.00     0.293 HD
ENDBRANCH   2  24
BRANCH   6  26
ATOM     26  O   UNL     1      40.316   2.694  15.525  1.00  0.00    -0.507 OA
ATOM     27  H   UNL     1      40.598   3.173  14.677  1.00  0.00     0.293 HD
ENDBRANCH   6  26
BRANCH   8  28
ATOM     28  O   UNL     1      41.994  -1.779  14.852  1.00  0.00    -0.508 OA
ATOM     29  H   UNL     1      42.899  -2.188  14.652  1.00  0.00     0.293 HD
ENDBRANCH   8  28
TORSDOF 7
ENDMDL
MODEL 2
REMARK VINA RESULT:    -7.249      1.707      6.599
REMARK INTER + INTRA:          -8.935
REMARK INTER:                  -8.661
REMARK INTRA:                  -0.274
REMARK UNBOUND:                 0.008
REMARK SMILES O=c1c(O)c(-c2cc(O)c(O)c(O)c2)oc2cc(O)cc(O)c12
REMARK SMILES IDX 5 1 3 2 2 3 1 4 23 5 21 6 20 7 18 8 17 9 16 10 15 11 6 12
REMARK SMILES IDX 7 13 8 14 14 15 10 16 12 17 9 18 11 20 13 22 4 24 22 26
REMARK SMILES IDX 19 28
REMARK H PARENT 9 19 11 21 13 23 4 25 22 27 19 29
REMARK Flexibility Score: inf
ROOT
ATOM      1  C   UNL     1      42.488   0.632  18.545  1.00  0.00     0.180 A 
ATOM      2  C   UNL     1      41.921   1.921  18.545  1.00  0.00     0.208 A 
ATOM      3  C   UNL     1      42.398   2.871  19.462  1.00  0.00     0.238 A 
ATOM      4  O   UNL     1      41.904   4.032  19.464  1.00  0.00    -0.285 OA
ATOM      5  C   UNL     1      43.414   2.514  20.371  1.00  0.00     0.111 A 
ATOM      6  C   UNL     1      43.948   3.411  21.328  1.00  0.00     0.134 A 
ATOM      7  C   UNL     1      44.952   2.977  22.205  1.00  0.00     0.093 A 
ATOM      8  C   UNL     1      45.433   1.666  22.144  1.00  0.00     0.123 A 
ATOM      9  C   UNL     1      44.910   0.776  21.200  1.00  0.00     0.094 A 
ATOM     10  C   UNL     1      43.911   1.190  20.317  1.00  0.00     0.146 A 
ATOM     11  O   UNL     1      43.435   0.326  19.427  1.00  0.00    -0.452 OA
ENDROOT
BRANCH   1  12
ATOM     12  C   UNL     1      42.051  -0.420  17.597  1.00  0.00     0.029 A 
ATOM     13  C   UNL     1      41.253  -1.496  18.016  1.00  0.00     0.062 A 
ATOM     14  C   UNL     1      40.824  -2.471  17.108  1.00  0.00     0.162 A 
ATOM     15  C   UNL     1      42.391  -0.311  16.242  1.00  0.00     0.062 A 
ATOM     16  C   UNL     1      41.196  -2.367  15.746  1.00  0.00     0.200 A 
ATOM     17  C   UNL     1      41.974  -1.280  15.323  1.00  0.00     0.162 A 
BRANCH  14  18
ATOM     18  O   UNL     1      40.035  -3.513  17.597  1.00  0.00    -0.504 OA
ATOM     19  H   UNL     1      40.318  -4.139  18.337  1.00  0.00     0.293 HD
ENDBRANCH  14  18
BRANCH  16  20
ATOM     20  O   UNL     1      40.812  -3.312  14.790  1.00  0.00    -0.502 OA
ATOM     21  H   UNL     1      40.970  -4.305  14.880  1.00  0.00     0.293 HD
ENDBRANCH  16  20
BRANCH  17  22
ATOM     22  O   UNL     1      42.331  -1.172  13.980  1.00  0.00    -0.504 OA
ATOM     23  H   UNL     1      41.951  -0.444  13.386  1.00  0.00     0.293 HD
ENDBRANCH  17  22
ENDBRANCH   1  12
BRANCH   2  24
ATOM     24  O   UNL     1      40.880   2.234  17.668  1.00  0.00    -0.502 OA
ATOM     25  H   UNL     1      40.870   1.922  16.704  1.00  0.00     0.293 HD
ENDBRANCH   2  24
BRANCH   6  26
ATOM     26  O   UNL     1      43.488   4.726  21.414  1.00  0.00    -0.507 OA
ATOM     27  H   UNL     1      44.091   5.483  21.715  1.00  0.00     0.293 HD
ENDBRANCH   6  26
BRANCH   8  28
ATOM     28  O   UNL     1      46.431   1.260  23.027  1.00  0.00    -0.508 OA
ATOM     29  H   UNL     1      47.115   0.559  22.767  1.00  0.00     0.293 HD
ENDBRANCH   8  28
TORSDOF 7
ENDMDL
MODEL 3
REMARK VINA RESULT:    -7.141      1.691      6.708
REMARK INTER + INTRA:          -8.803
REMARK INTER:                  -8.487
REMARK INTRA:                  -0.316
REMARK UNBOUND:                 0.008
REMARK SMILES O=c1c(O)c(-c2cc(O)c(O)c(O)c2)oc2cc(O)cc(O)c12
REMARK SMILES IDX 5 1 3 2 2 3 1 4 23 5 21 6 20 7 18 8 17 9 16 10 15 11 6 12
REMARK SMILES IDX 7 13 8 14 14 15 10 16 12 17 9 18 11 20 13 22 4 24 22 26
REMARK SMILES IDX 19 28
REMARK H PARENT 9 19 11 21 13 23 4 25 22 27 19 29
REMARK Flexibility Score: inf
ROOT
ATOM      1  C   UNL     1      42.467   0.694  18.571  1.00  0.00     0.180 A 
ATOM      2  C   UNL     1      41.893   1.979  18.619  1.00  0.00     0.208 A 
ATOM      3  C   UNL     1      42.373   2.900  19.563  1.00  0.00     0.238 A 
ATOM      4  O   UNL     1      41.873   4.058  19.609  1.00  0.00    -0.285 OA
ATOM      5  C   UNL     1      43.398   2.519  20.452  1.00  0.00     0.111 A 
ATOM      6  C   UNL     1      43.934   3.385  21.435  1.00  0.00     0.134 A 
ATOM      7  C   UNL     1      44.948   2.927  22.289  1.00  0.00     0.093 A 
ATOM      8  C   UNL     1      45.435   1.622  22.180  1.00  0.00     0.123 A 
ATOM      9  C   UNL     1      44.910   0.762  21.211  1.00  0.00     0.094 A 
ATOM     10  C   UNL     1      43.901   1.200  20.350  1.00  0.00     0.146 A 
ATOM     11  O   UNL     1      43.424   0.364  19.434  1.00  0.00    -0.452 OA
ENDROOT
BRANCH   1  12
ATOM     12  C   UNL     1      42.029  -0.327  17.591  1.00  0.00     0.029 A 
ATOM     13  C   UNL     1      42.413  -0.257  16.242  1.00  0.00     0.062 A 
ATOM     14  C   UNL     1      42.014  -1.240  15.328  1.00  0.00     0.162 A 
ATOM     15  C   UNL     1      41.266  -1.418  18.026  1.00  0.00     0.062 A 
ATOM     16  C   UNL     1      41.220  -2.325  15.772  1.00  0.00     0.200 A 
ATOM     17  C   UNL     1      40.857  -2.406  17.124  1.00  0.00     0.162 A 
BRANCH  14  18
ATOM     18  O   UNL     1      42.431  -1.104  14.003  1.00  0.00    -0.504 OA
ATOM     19  H   UNL     1      43.298  -0.667  13.725  1.00  0.00     0.293 HD
ENDBRANCH  14  18
BRANCH  16  20
ATOM     20  O   UNL     1      40.779  -3.333  14.911  1.00  0.00    -0.502 OA
ATOM     21  H   UNL     1      39.808  -3.507  14.694  1.00  0.00     0.293 HD
ENDBRANCH  16  20
BRANCH  17  22
ATOM     22  O   UNL     1      40.083  -3.480  17.563  1.00  0.00    -0.504 OA
ATOM     23  H   UNL     1      40.131  -4.388  17.115  1.00  0.00     0.293 HD
ENDBRANCH  17  22
ENDBRANCH   1  12
BRANCH   2  24
ATOM     24  O   UNL     1      40.844   2.316  17.761  1.00  0.00    -0.502 OA
ATOM     25  H   UNL     1      40.708   3.258  17.414  1.00  0.00     0.293 HD
ENDBRANCH   2  24
BRANCH   6  26
ATOM     26  O   UNL     1      43.468   4.694  21.570  1.00  0.00    -0.507 OA
ATOM     27  H   UNL     1      42.498   4.934  21.401  1.00  0.00     0.293 HD
ENDBRANCH   6  26
BRANCH   8  28
ATOM     28  O   UNL     1      46.442   1.192  23.041  1.00  0.00    -0.508 OA
ATOM     29  H   UNL     1      46.275   1.068  24.032  1.00  0.00     0.293 HD
ENDBRANCH   8  28
TORSDOF 7
ENDMDL
MODEL 4
REMARK VINA RESULT:    -7.121      2.284      7.688
REMARK INTER + INTRA:          -8.778
REMARK INTER:                  -8.431
REMARK INTRA:                  -0.347
REMARK UNBOUND:                 0.008
REMARK SMILES O=c1c(O)c(-c2cc(O)c(O)c(O)c2)oc2cc(O)cc(O)c12
REMARK SMILES IDX 5 1 3 2 2 3 1 4 23 5 21 6 20 7 18 8 17 9 16 10 15 11 6 12
REMARK SMILES IDX 7 13 8 14 14 15 10 16 12 17 9 18 11 20 13 22 4 24 22 26
REMARK SMILES IDX 19 28
REMARK H PARENT 9 19 11 21 13 23 4 25 22 27 19 29
REMARK Flexibility Score: inf
ROOT
ATOM      1  C   UNL     1      44.147   2.117  21.619  1.00  0.00     0.180 A 
ATOM      2  C   UNL     1      43.704   1.564  22.836  1.00  0.00     0.208 A 
ATOM      3  C   UNL     1      44.560   1.601  23.948  1.00  0.00     0.238 A 
ATOM      4  O   UNL     1      44.169   1.118  25.046  1.00  0.00    -0.285 OA
ATOM      5  C   UNL     1      45.844   2.168  23.822  1.00  0.00     0.111 A 
ATOM      6  C   UNL     1      46.767   2.241  24.893  1.00  0.00     0.134 A 
ATOM      7  C   UNL     1      48.031   2.812  24.684  1.00  0.00     0.093 A 
ATOM      8  C   UNL     1      48.390   3.311  23.429  1.00  0.00     0.123 A 
ATOM      9  C   UNL     1      47.481   3.243  22.368  1.00  0.00     0.094 A 
ATOM     10  C   UNL     1      46.217   2.679  22.556  1.00  0.00     0.146 A 
ATOM     11  O   UNL     1      45.371   2.631  21.533  1.00  0.00    -0.452 OA
ENDROOT
BRANCH   1  12
ATOM     12  C   UNL     1      43.297   2.133  20.406  1.00  0.00     0.029 A 
ATOM     13  C   UNL     1      43.387   1.121  19.437  1.00  0.00     0.062 A 
ATOM     14  C   UNL     1      42.561   1.132  18.306  1.00  0.00     0.162 A 
ATOM     15  C   UNL     1      42.340   3.145  20.248  1.00  0.00     0.062 A 
ATOM     16  C   UNL     1      41.617   2.174  18.141  1.00  0.00     0.200 A 
ATOM     17  C   UNL     1      41.511   3.171  19.121  1.00  0.00     0.162 A 
BRANCH  14  18
ATOM     18  O   UNL     1      42.708   0.095  17.384  1.00  0.00    -0.504 OA
ATOM     19  H   UNL     1      43.586  -0.161  16.955  1.00  0.00     0.293 HD
ENDBRANCH  14  18
BRANCH  16  20
ATOM     20  O   UNL     1      40.770   2.251  17.032  1.00  0.00    -0.502 OA
ATOM     21  H   UNL     1      39.808   2.555  17.073  1.00  0.00     0.293 HD
ENDBRANCH  16  20
BRANCH  17  22
ATOM     22  O   UNL     1      40.574   4.191  18.964  1.00  0.00    -0.504 OA
ATOM     23  H   UNL     1      40.466   4.682  18.084  1.00  0.00     0.293 HD
ENDBRANCH  17  22
ENDBRANCH   1  12
BRANCH   2  24
ATOM     24  O   UNL     1      42.446   0.963  22.922  1.00  0.00    -0.502 OA
ATOM     25  H   UNL     1      41.683   1.374  23.445  1.00  0.00     0.293 HD
ENDBRANCH   2  24
BRANCH   6  26
ATOM     26  O   UNL     1      46.441   1.750  26.157  1.00  0.00    -0.507 OA
ATOM     27  H   UNL     1      46.756   2.208  27.005  1.00  0.00     0.293 HD
ENDBRANCH   6  26
BRANCH   8  28
ATOM     28  O   UNL     1      49.651   3.873  23.248  1.00  0.00    -0.508 OA
ATOM     29  H   UNL     1      49.845   4.502  22.478  1.00  0.00     0.293 HD
ENDBRANCH   8  28
TORSDOF 7
ENDMDL
MODEL 5
REMARK VINA RESULT:    -7.055      2.275      7.483
REMARK INTER + INTRA:          -8.696
REMARK INTER:                  -8.336
REMARK INTRA:                  -0.360
REMARK UNBOUND:                 0.008
REMARK SMILES O=c1c(O)c(-c2cc(O)c(O)c(O)c2)oc2cc(O)cc(O)c12
REMARK SMILES IDX 5 1 3 2 2 3 1 4 23 5 21 6 20 7 18 8 17 9 16 10 15 11 6 12
REMARK SMILES IDX 7 13 8 14 14 15 10 16 12 17 9 18 11 20 13 22 4 24 22 26
REMARK SMILES IDX 19 28
REMARK H PARENT 9 19 11 21 13 23 4 25 22 27 19 29
REMARK Flexibility Score: inf
ROOT
ATOM      1  C   UNL     1      44.089   2.108  21.611  1.00  0.00     0.180 A 
ATOM      2  C   UNL     1      43.669   1.595  22.853  1.00  0.00     0.208 A 
ATOM      3  C   UNL     1      44.550   1.655  23.944  1.00  0.00     0.238 A 
ATOM      4  O   UNL     1      44.180   1.207  25.064  1.00  0.00    -0.285 OA
ATOM      5  C   UNL     1      45.836   2.205  23.773  1.00  0.00     0.111 A 
ATOM      6  C   UNL     1      46.784   2.299  24.820  1.00  0.00     0.134 A 
ATOM      7  C   UNL     1      48.048   2.852  24.567  1.00  0.00     0.093 A 
ATOM      8  C   UNL     1      48.382   3.312  23.290  1.00  0.00     0.123 A 
ATOM      9  C   UNL     1      47.449   3.222  22.252  1.00  0.00     0.094 A 
ATOM     10  C   UNL     1      46.184   2.676  22.485  1.00  0.00     0.146 A 
ATOM     11  O   UNL     1      45.315   2.608  21.483  1.00  0.00    -0.452 OA
ENDROOT
BRANCH   1  12
ATOM     12  C   UNL     1      43.211   2.099  20.418  1.00  0.00     0.029 A 
ATOM     13  C   UNL     1      42.259   3.108  20.203  1.00  0.00     0.062 A 
ATOM     14  C   UNL     1      41.452   3.104  19.059  1.00  0.00     0.162 A 
ATOM     15  C   UNL     1      43.370   1.095  19.453  1.00  0.00     0.062 A 
ATOM     16  C   UNL     1      41.600   2.071  18.103  1.00  0.00     0.200 A 
ATOM     17  C   UNL     1      42.567   1.076  18.307  1.00  0.00     0.162 A 
BRANCH  14  18
ATOM     18  O   UNL     1      40.526   4.139  18.914  1.00  0.00    -0.504 OA
ATOM     19  H   UNL     1      39.553   4.000  18.681  1.00  0.00     0.293 HD
ENDBRANCH  14  18
BRANCH  16  20
ATOM     20  O   UNL     1      40.819   2.001  16.947  1.00  0.00    -0.502 OA
ATOM     21  H   UNL     1      41.139   2.277  16.029  1.00  0.00     0.293 HD
ENDBRANCH  16  20
BRANCH  17  22
ATOM     22  O   UNL     1      42.721   0.064  17.360  1.00  0.00    -0.504 OA
ATOM     23  H   UNL     1      42.932  -0.889  17.632  1.00  0.00     0.293 HD
ENDBRANCH  17  22
ENDBRANCH   1  12
BRANCH   2  24
ATOM     24  O   UNL     1      42.407   1.009  22.984  1.00  0.00    -0.502 OA
ATOM     25  H   UNL     1      41.589   1.538  23.261  1.00  0.00     0.293 HD
ENDBRANCH   2  24
BRANCH   6  26
ATOM     26  O   UNL     1      46.482   1.848  26.105  1.00  0.00    -0.507 OA
ATOM     27  H   UNL     1      45.525   1.730  26.418  1.00  0.00     0.293 HD
ENDBRANCH   6  26
BRANCH   8  28
ATOM     28  O   UNL     1      49.644   3.857  23.065  1.00  0.00    -0.508 OA
ATOM     29  H   UNL     1      50.040   3.908  22.134  1.00  0.00     0.293 HD
ENDBRANCH   8  28
TORSDOF 7
ENDMDL
MODEL 6
REMARK VINA RESULT:    -6.667      2.006      7.514
REMARK INTER + INTRA:          -8.218
REMARK INTER:                  -7.851
REMARK INTRA:                  -0.367
REMARK UNBOUND:                 0.008
REMARK SMILES O=c1c(O)c(-c2cc(O)c(O)c(O)c2)oc2cc(O)cc(O)c12
REMARK SMILES IDX 5 1 3 2 2 3 1 4 23 5 21 6 20 7 18 8 17 9 16 10 15 11 6 12
REMARK SMILES IDX 7 13 8 14 14 15 10 16 12 17 9 18 11 20 13 22 4 24 22 26
REMARK SMILES IDX 19 28
REMARK H PARENT 9 19 11 21 13 23 4 25 22 27 19 29
REMARK Flexibility Score: inf
ROOT
ATOM      1  C   UNL     1      43.857   1.981  21.071  1.00  0.00     0.180 A 
ATOM      2  C   UNL     1      45.201   2.403  21.049  1.00  0.00     0.208 A 
ATOM      3  C   UNL     1      45.833   2.714  22.262  1.00  0.00     0.238 A 
ATOM      4  O   UNL     1      47.040   3.084  22.255  1.00  0.00    -0.285 OA
ATOM      5  C   UNL     1      45.113   2.618  23.470  1.00  0.00     0.111 A 
ATOM      6  C   UNL     1      45.676   2.918  24.734  1.00  0.00     0.134 A 
ATOM      7  C   UNL     1      44.889   2.807  25.890  1.00  0.00     0.093 A 
ATOM      8  C   UNL     1      43.554   2.404  25.807  1.00  0.00     0.123 A 
ATOM      9  C   UNL     1      42.992   2.107  24.561  1.00  0.00     0.094 A 
ATOM     10  C   UNL     1      43.760   2.210  23.398  1.00  0.00     0.146 A 
ATOM     11  O   UNL     1      43.204   1.916  22.228  1.00  0.00    -0.452 OA
ENDROOT
BRANCH   1  12
ATOM     12  C   UNL     1      43.126   1.617  19.836  1.00  0.00     0.029 A 
ATOM     13  C   UNL     1      43.136   0.303  19.341  1.00  0.00     0.062 A 
ATOM     14  C   UNL     1      42.421  -0.037  18.186  1.00  0.00     0.162 A 
ATOM     15  C   UNL     1      42.359   2.588  19.176  1.00  0.00     0.062 A 
ATOM     16  C   UNL     1      41.672   0.957  17.511  1.00  0.00     0.200 A 
ATOM     17  C   UNL     1      41.643   2.263  18.019  1.00  0.00     0.162 A 
BRANCH  14  18
ATOM     18  O   UNL     1      42.479  -1.362  17.752  1.00  0.00    -0.504 OA
ATOM     19  H   UNL     1      42.560  -2.157  18.370  1.00  0.00     0.293 HD
ENDBRANCH  14  18
BRANCH  16  20
ATOM     20  O   UNL     1      40.946   0.688  16.348  1.00  0.00    -0.502 OA
ATOM     21  H   UNL     1      39.945   0.552  16.323  1.00  0.00     0.293 HD
ENDBRANCH  16  20
BRANCH  17  22
ATOM     22  O   UNL     1      40.897   3.240  17.360  1.00  0.00    -0.504 OA
ATOM     23  H   UNL     1      40.210   2.998  16.655  1.00  0.00     0.293 HD
ENDBRANCH  17  22
ENDBRANCH   1  12
BRANCH   2  24
ATOM     24  O   UNL     1      45.878   2.538  19.834  1.00  0.00    -0.502 OA
ATOM     25  H   UNL     1      45.803   1.852  19.092  1.00  0.00     0.293 HD
ENDBRANCH   2  24
BRANCH   6  26
ATOM     26  O   UNL     1      47.006   3.324  24.850  1.00  0.00    -0.507 OA
ATOM     27  H   UNL     1      47.531   3.190  25.706  1.00  0.00     0.293 HD
ENDBRANCH   6  26
BRANCH   8  28
ATOM     28  O   UNL     1      42.794   2.303  26.970  1.00  0.00    -0.508 OA
ATOM     29  H   UNL     1      42.023   2.932  27.156  1.00  0.00     0.293 HD
ENDBRANCH   8  28
TORSDOF 7
ENDMDL
MODEL 7
REMARK VINA RESULT:    -6.640      2.690      3.929
REMARK INTER + INTRA:          -8.184
REMARK INTER:                  -7.850
REMARK INTRA:                  -0.334
REMARK UNBOUND:                 0.008
REMARK SMILES O=c1c(O)c(-c2cc(O)c(O)c(O)c2)oc2cc(O)cc(O)c12
REMARK SMILES IDX 5 1 3 2 2 3 1 4 23 5 21 6 20 7 18 8 17 9 16 10 15 11 6 12
REMARK SMILES IDX 7 13 8 14 14 15 10 16 12 17 9 18 11 20 13 22 4 24 22 26
REMARK SMILES IDX 19 28
REMARK H PARENT 9 19 11 21 13 23 4 25 22 27 19 29
REMARK Flexibility Score: inf
ROOT
ATOM      1  C   UNL     1      44.822   3.137  21.772  1.00  0.00     0.180 A 
ATOM      2  C   UNL     1      43.937   4.229  21.863  1.00  0.00     0.208 A 
ATOM      3  C   UNL     1      42.837   4.283  20.992  1.00  0.00     0.238 A 
ATOM      4  O   UNL     1      42.032   5.251  21.071  1.00  0.00    -0.285 OA
ATOM      5  C   UNL     1      42.651   3.263  20.038  1.00  0.00     0.111 A 
ATOM      6  C   UNL     1      41.572   3.246  19.122  1.00  0.00     0.134 A 
ATOM      7  C   UNL     1      41.462   2.199  18.195  1.00  0.00     0.093 A 
ATOM      8  C   UNL     1      42.409   1.171  18.165  1.00  0.00     0.123 A 
ATOM      9  C   UNL     1      43.477   1.183  19.068  1.00  0.00     0.094 A 
ATOM     10  C   UNL     1      43.603   2.216  20.000  1.00  0.00     0.146 A 
ATOM     11  O   UNL     1      44.624   2.200  20.849  1.00  0.00    -0.452 OA
ENDROOT
BRANCH   1  12
ATOM     12  C   UNL     1      45.994   2.999  22.667  1.00  0.00     0.029 A 
ATOM     13  C   UNL     1      47.275   3.406  22.262  1.00  0.00     0.062 A 
ATOM     14  C   UNL     1      48.373   3.295  23.124  1.00  0.00     0.162 A 
ATOM     15  C   UNL     1      45.816   2.506  23.967  1.00  0.00     0.062 A 
ATOM     16  C   UNL     1      48.187   2.770  24.425  1.00  0.00     0.200 A 
ATOM     17  C   UNL     1      46.904   2.384  24.838  1.00  0.00     0.162 A 
BRANCH  14  18
ATOM     18  O   UNL     1      49.616   3.718  22.652  1.00  0.00    -0.504 OA
ATOM     19  H   UNL     1      49.992   4.644  22.798  1.00  0.00     0.293 HD
ENDBRANCH  14  18
BRANCH  16  20
ATOM     20  O   UNL     1      49.241   2.620  25.331  1.00  0.00    -0.502 OA
ATOM     21  H   UNL     1      50.208   2.810  25.111  1.00  0.00     0.293 HD
ENDBRANCH  16  20
BRANCH  17  22
ATOM     22  O   UNL     1      46.719   1.877  26.123  1.00  0.00    -0.504 OA
ATOM     23  H   UNL     1      47.309   1.141  26.494  1.00  0.00     0.293 HD
ENDBRANCH  17  22
ENDBRANCH   1  12
BRANCH   2  24
ATOM     24  O   UNL     1      44.171   5.253  22.784  1.00  0.00    -0.502 OA
ATOM     25  H   UNL     1      44.857   5.170  23.524  1.00  0.00     0.293 HD
ENDBRANCH   2  24
BRANCH   6  26
ATOM     26  O   UNL     1      40.611   4.258  19.125  1.00  0.00    -0.507 OA
ATOM     27  H   UNL     1      39.737   4.161  19.629  1.00  0.00     0.293 HD
ENDBRANCH   6  26
BRANCH   8  28
ATOM     28  O   UNL     1      42.277   0.143  17.235  1.00  0.00    -0.508 OA
ATOM     29  H   UNL     1      41.760   0.272  16.373  1.00  0.00     0.293 HD
ENDBRANCH   8  28
TORSDOF 7
ENDMDL
MODEL 8
REMARK VINA RESULT:    -6.602      4.244      5.966
REMARK INTER + INTRA:          -8.137
REMARK INTER:                  -8.047
REMARK INTRA:                  -0.090
REMARK UNBOUND:                 0.008
REMARK SMILES O=c1c(O)c(-c2cc(O)c(O)c(O)c2)oc2cc(O)cc(O)c12
REMARK SMILES IDX 5 1 3 2 2 3 1 4 23 5 21 6 20 7 18 8 17 9 16 10 15 11 6 12
REMARK SMILES IDX 7 13 8 14 14 15 10 16 12 17 9 18 11 20 13 22 4 24 22 26
REMARK SMILES IDX 19 28
REMARK H PARENT 9 19 11 21 13 23 4 25 22 27 19 29
REMARK Flexibility Score: inf
ROOT
ATOM      1  C   UNL     1      44.439   4.621  20.596  1.00  0.00     0.180 A 
ATOM      2  C   UNL     1      43.148   5.167  20.464  1.00  0.00     0.208 A 
ATOM      3  C   UNL     1      43.004   6.430  19.870  1.00  0.00     0.238 A 
ATOM      4  O   UNL     1      41.850   6.924  19.738  1.00  0.00    -0.285 OA
ATOM      5  C   UNL     1      44.146   7.132  19.436  1.00  0.00     0.111 A 
ATOM      6  C   UNL     1      44.087   8.410  18.831  1.00  0.00     0.134 A 
ATOM      7  C   UNL     1      45.271   9.049  18.436  1.00  0.00     0.093 A 
ATOM      8  C   UNL     1      46.512   8.436  18.633  1.00  0.00     0.123 A 
ATOM      9  C   UNL     1      46.576   7.172  19.230  1.00  0.00     0.094 A 
ATOM     10  C   UNL     1      45.407   6.520  19.629  1.00  0.00     0.146 A 
ATOM     11  O   UNL     1      45.497   5.318  20.189  1.00  0.00    -0.452 OA
ENDROOT
BRANCH   1  12
ATOM     12  C   UNL     1      44.673   3.286  21.196  1.00  0.00     0.029 A 
ATOM     13  C   UNL     1      43.998   2.147  20.727  1.00  0.00     0.062 A 
ATOM     14  C   UNL     1      44.244   0.886  21.284  1.00  0.00     0.162 A 
ATOM     15  C   UNL     1      45.628   3.144  22.211  1.00  0.00     0.062 A 
ATOM     16  C   UNL     1      45.191   0.756  22.328  1.00  0.00     0.200 A 
ATOM     17  C   UNL     1      45.881   1.890  22.779  1.00  0.00     0.162 A 
BRANCH  14  18
ATOM     18  O   UNL     1      43.535  -0.200  20.769  1.00  0.00    -0.504 OA
ATOM     19  H   UNL     1      43.278  -1.015  21.307  1.00  0.00     0.293 HD
ENDBRANCH  14  18
BRANCH  16  20
ATOM     20  O   UNL     1      45.475  -0.470  22.935  1.00  0.00    -0.502 OA
ATOM     21  H   UNL     1      45.958  -0.567  23.816  1.00  0.00     0.293 HD
ENDBRANCH  16  20
BRANCH  17  22
ATOM     22  O   UNL     1      46.821   1.761  23.800  1.00  0.00    -0.504 OA
ATOM     23  H   UNL     1      47.400   0.933  23.887  1.00  0.00     0.293 HD
ENDBRANCH  17  22
ENDBRANCH   1  12
BRANCH   2  24
ATOM     24  O   UNL     1      42.036   4.472  20.947  1.00  0.00    -0.502 OA
ATOM     25  H   UNL     1      42.111   3.753  21.656  1.00  0.00     0.293 HD
ENDBRANCH   2  24
BRANCH   6  26
ATOM     26  O   UNL     1      42.864   9.050  18.621  1.00  0.00    -0.507 OA
ATOM     27  H   UNL     1      41.999   8.529  18.530  1.00  0.00     0.293 HD
ENDBRANCH   6  26
BRANCH   8  28
ATOM     28  O   UNL     1      47.673   9.091  18.231  1.00  0.00    -0.508 OA
ATOM     29  H   UNL     1      48.086   8.927  17.321  1.00  0.00     0.293 HD
ENDBRANCH   8  28
TORSDOF 7
ENDMDL
MODEL 9
REMARK VINA RESULT:    -6.599      1.276      6.763
REMARK INTER + INTRA:          -8.133
REMARK INTER:                  -8.574
REMARK INTRA:                   0.441
REMARK UNBOUND:                 0.008
REMARK SMILES O=c1c(O)c(-c2cc(O)c(O)c(O)c2)oc2cc(O)cc(O)c12
REMARK SMILES IDX 5 1 3 2 2 3 1 4 23 5 21 6 20 7 18 8 17 9 16 10 15 11 6 12
REMARK SMILES IDX 7 13 8 14 14 15 10 16 12 17 9 18 11 20 13 22 4 24 22 26
REMARK SMILES IDX 19 28
REMARK H PARENT 9 19 11 21 13 23 4 25 22 27 19 29
REMARK Flexibility Score: inf
ROOT
ATOM      1  C   UNL     1      42.491   1.580  19.505  1.00  0.00     0.180 A 
ATOM      2  C   UNL     1      42.331   2.941  19.831  1.00  0.00     0.208 A 
ATOM      3  C   UNL     1      42.693   3.376  21.115  1.00  0.00     0.238 A 
ATOM      4  O   UNL     1      42.564   4.595  21.415  1.00  0.00    -0.285 OA
ATOM      5  C   UNL     1      43.188   2.448  22.053  1.00  0.00     0.111 A 
ATOM      6  C   UNL     1      43.572   2.806  23.368  1.00  0.00     0.134 A 
ATOM      7  C   UNL     1      44.046   1.820  24.247  1.00  0.00     0.093 A 
ATOM      8  C   UNL     1      44.143   0.488  23.838  1.00  0.00     0.123 A 
ATOM      9  C   UNL     1      43.766   0.129  22.539  1.00  0.00     0.094 A 
ATOM     10  C   UNL     1      43.293   1.096  21.649  1.00  0.00     0.146 A 
ATOM     11  O   UNL     1      42.947   0.730  20.420  1.00  0.00    -0.452 OA
ENDROOT
BRANCH   1  12
ATOM     12  C   UNL     1      42.149   1.047  18.166  1.00  0.00     0.029 A 
ATOM     13  C   UNL     1      41.640   1.879  17.156  1.00  0.00     0.062 A 
ATOM     14  C   UNL     1      41.344   1.370  15.885  1.00  0.00     0.162 A 
ATOM     15  C   UNL     1      42.391  -0.304  17.879  1.00  0.00     0.062 A 
ATOM     16  C   UNL     1      41.566  -0.001  15.613  1.00  0.00     0.200 A 
ATOM     17  C   UNL     1      42.095  -0.826  16.614  1.00  0.00     0.162 A 
BRANCH  14  18
ATOM     18  O   UNL     1      40.840   2.257  14.932  1.00  0.00    -0.504 OA
ATOM     19  H   UNL     1      40.720   2.030  13.955  1.00  0.00     0.293 HD
ENDBRANCH  14  18
BRANCH  16  20
ATOM     20  O   UNL     1      41.281  -0.575  14.371  1.00  0.00    -0.502 OA
ATOM     21  H   UNL     1      41.109  -0.045  13.528  1.00  0.00     0.293 HD
ENDBRANCH  16  20
BRANCH  17  22
ATOM     22  O   UNL     1      42.324  -2.175  16.343  1.00  0.00    -0.504 OA
ATOM     23  H   UNL     1      41.630  -2.884  16.553  1.00  0.00     0.293 HD
ENDBRANCH  17  22
ENDBRANCH   1  12
BRANCH   2  24
ATOM     24  O   UNL     1      41.792   3.831  18.899  1.00  0.00    -0.502 OA
ATOM     25  H   UNL     1      41.129   3.540  18.191  1.00  0.00     0.293 HD
ENDBRANCH   2  24
BRANCH   6  26
ATOM     26  O   UNL     1      43.485   4.127  23.808  1.00  0.00    -0.507 OA
ATOM     27  H   UNL     1      42.593   4.599  23.905  1.00  0.00     0.293 HD
ENDBRANCH   6  26
BRANCH   8  28
ATOM     28  O   UNL     1      44.617  -0.471  24.730  1.00  0.00    -0.508 OA
ATOM     29  H   UNL     1      44.019  -1.209  25.082  1.00  0.00     0.293 HD
ENDBRANCH   8  28
TORSDOF 7
ENDMDL
