MODEL 1
REMARK VINA RESULT:    24.130      0.000      0.000
REMARK INTER + INTRA:          40.135
REMARK INTER:                  34.005
REMARK INTRA:                   6.130
REMARK UNBOUND:                 6.130
REMARK SMILES COc1ccc(-c2cc(=O)c3c(OC)c(OC)c(OC)c(OC)c3o2)cc1OC
REMARK SMILES IDX 7 1 8 2 9 3 10 4 11 5 24 6 25 7 21 8 18 9 15 10 12 11 6 12
REMARK SMILES IDX 3 13 27 14 4 15 26 16 5 17 2 18 1 19 28 20 29 21 22 22 23 23
REMARK SMILES IDX 13 24 14 25 19 26 20 27 16 28 17 29
REMARK H PARENT
REMARK Flexibility Score: inf
ROOT
ATOM      1  C   UNL     1      -9.109 -18.040  10.501  1.00  0.00     0.138 A 
ATOM      2  C   UNL     1      -8.442 -19.227  10.168  1.00  0.00     0.100 A 
ATOM      3  C   UNL     1      -8.484 -20.305  11.050  1.00  0.00     0.197 A 
ATOM      4  O   UNL     1      -7.875 -21.365  10.741  1.00  0.00    -0.289 OA
ATOM      5  C   UNL     1      -9.200 -20.191  12.262  1.00  0.00     0.115 A 
ATOM      6  C   UNL     1      -9.871 -18.976  12.514  1.00  0.00     0.188 A 
ATOM      7  O   UNL     1      -9.794 -17.973  11.641  1.00  0.00    -0.452 OA
ATOM      8  C   UNL     1     -10.606 -18.800  13.696  1.00  0.00     0.209 A 
ATOM      9  C   UNL     1     -10.640 -19.825  14.676  1.00  0.00     0.211 A 
ATOM     10  C   UNL     1      -9.989 -21.058  14.411  1.00  0.00     0.208 A 
ATOM     11  C   UNL     1      -9.254 -21.225  13.220  1.00  0.00     0.179 A 
ENDROOT
BRANCH   1  12
ATOM     12  C   UNL     1      -9.077 -16.853   9.609  1.00  0.00     0.021 A 
ATOM     13  C   UNL     1      -8.987 -14.625   7.875  1.00  0.00     0.160 A 
ATOM     14  C   UNL     1     -10.092 -14.810   8.719  1.00  0.00     0.161 A 
ATOM     15  C   UNL     1      -7.937 -15.560   7.894  1.00  0.00     0.051 A 
ATOM     16  C   UNL     1     -10.135 -15.925   9.579  1.00  0.00     0.062 A 
ATOM     17  C   UNL     1      -7.987 -16.663   8.748  1.00  0.00     0.016 A 
BRANCH  13  18
ATOM     18  O   UNL     1      -8.971 -13.502   7.033  1.00  0.00    -0.493 OA
ATOM     19  C   UNL     1      -8.067 -13.322   5.947  1.00  0.00     0.278 C 
ENDBRANCH  13  18
BRANCH  14  20
ATOM     20  O   UNL     1     -11.131 -13.864   8.672  1.00  0.00    -0.493 OA
ATOM     21  C   UNL     1     -12.300 -13.906   9.482  1.00  0.00     0.278 C 
ENDBRANCH  14  20
ENDBRANCH   1  12
BRANCH   8  22
ATOM     22  O   UNL     1     -11.296 -17.601  13.894  1.00  0.00    -0.490 OA
ATOM     23  C   UNL     1     -12.150 -17.395  15.013  1.00  0.00     0.278 C 
ENDBRANCH   8  22
BRANCH  11  24
ATOM     24  O   UNL     1      -8.587 -22.433  12.976  1.00  0.00    -0.492 OA
ATOM     25  C   UNL     1      -8.391 -22.952  11.665  1.00  0.00     0.278 C 
ENDBRANCH  11  24
BRANCH   9  26
ATOM     26  O   UNL     1     -11.303 -19.667  15.908  1.00  0.00    -0.490 OA
ATOM     27  C   UNL     1     -12.611 -19.149  16.122  1.00  0.00     0.279 C 
ENDBRANCH   9  26
BRANCH  10  28
ATOM     28  O   UNL     1     -10.048 -22.168  15.277  1.00  0.00    -0.490 OA
ATOM     29  C   UNL     1     -11.189 -22.961  15.584  1.00  0.00     0.278 C 
ENDBRANCH  10  28
TORSDOF 7
ENDMDL
MODEL 2
REMARK VINA RESULT:    26.235      1.450      2.108
REMARK INTER + INTRA:          43.101
REMARK INTER:                  40.215
REMARK INTRA:                   2.886
REMARK UNBOUND:                 6.130
REMARK SMILES COc1ccc(-c2cc(=O)c3c(OC)c(OC)c(OC)c(OC)c3o2)cc1OC
REMARK SMILES IDX 7 1 8 2 9 3 10 4 11 5 24 6 25 7 21 8 18 9 15 10 12 11 6 12
REMARK SMILES IDX 3 13 27 14 4 15 26 16 5 17 2 18 1 19 28 20 29 21 22 22 23 23
REMARK SMILES IDX 13 24 14 25 19 26 20 27 16 28 17 29
REMARK H PARENT
REMARK Flexibility Score: inf
ROOT
ATOM      1  C   UNL     1      -9.816 -17.598  10.497  1.00  0.00     0.138 A 
ATOM      2  C   UNL     1      -9.093 -18.488   9.691  1.00  0.00     0.100 A 
ATOM      3  C   UNL     1      -8.696 -19.716  10.216  1.00  0.00     0.197 A 
ATOM      4  O   UNL     1      -8.041 -20.506   9.483  1.00  0.00    -0.289 OA
ATOM      5  C   UNL     1      -9.031 -20.050  11.547  1.00  0.00     0.115 A 
ATOM      6  C   UNL     1      -9.786 -19.116  12.286  1.00  0.00     0.188 A 
ATOM      7  O   UNL     1     -10.135 -17.953  11.739  1.00  0.00    -0.452 OA
ATOM      8  C   UNL     1     -10.158 -19.389  13.611  1.00  0.00     0.209 A 
ATOM      9  C   UNL     1      -9.733 -20.588  14.240  1.00  0.00     0.211 A 
ATOM     10  C   UNL     1      -8.997 -21.540  13.488  1.00  0.00     0.208 A 
ATOM     11  C   UNL     1      -8.629 -21.257  12.158  1.00  0.00     0.179 A 
ENDROOT
BRANCH   1  12
ATOM     12  C   UNL     1     -10.244 -16.267   9.995  1.00  0.00     0.021 A 
ATOM     13  C   UNL     1     -11.026 -13.744   8.995  1.00  0.00     0.160 A 
ATOM     14  C   UNL     1     -11.906 -14.479   9.804  1.00  0.00     0.161 A 
ATOM     15  C   UNL     1      -9.763 -14.277   8.681  1.00  0.00     0.051 A 
ATOM     16  C   UNL     1     -11.513 -15.739  10.297  1.00  0.00     0.062 A 
ATOM     17  C   UNL     1      -9.382 -15.527   9.172  1.00  0.00     0.016 A 
BRANCH  13  18
ATOM     18  O   UNL     1     -11.444 -12.490   8.523  1.00  0.00    -0.493 OA
ATOM     19  C   UNL     1     -12.650 -11.841   8.916  1.00  0.00     0.278 C 
ENDBRANCH  13  18
BRANCH  14  20
ATOM     20  O   UNL     1     -13.164 -13.924  10.093  1.00  0.00    -0.493 OA
ATOM     21  C   UNL     1     -13.987 -14.313  11.187  1.00  0.00     0.278 C 
ENDBRANCH  14  20
ENDBRANCH   1  12
BRANCH   8  22
ATOM     22  O   UNL     1     -10.945 -18.463  14.299  1.00  0.00    -0.490 OA
ATOM     23  C   UNL     1     -10.491 -17.816  15.483  1.00  0.00     0.278 C 
ENDBRANCH   8  22
BRANCH  11  24
ATOM     24  O   UNL     1      -7.875 -22.188  11.430  1.00  0.00    -0.492 OA
ATOM     25  C   UNL     1      -8.350 -22.791  10.230  1.00  0.00     0.278 C 
ENDBRANCH  11  24
BRANCH   9  26
ATOM     26  O   UNL     1     -10.019 -20.872  15.588  1.00  0.00    -0.490 OA
ATOM     27  C   UNL     1     -10.706 -22.008  16.103  1.00  0.00     0.279 C 
ENDBRANCH   9  26
BRANCH  10  28
ATOM     28  O   UNL     1      -8.615 -22.800  13.995  1.00  0.00    -0.490 OA
ATOM     29  C   UNL     1      -7.878 -23.063  15.183  1.00  0.00     0.278 C 
ENDBRANCH  10  28
TORSDOF 7
ENDMDL
MODEL 3
REMARK VINA RESULT:    26.723      1.748      7.565
REMARK INTER + INTRA:          43.788
REMARK INTER:                  41.153
REMARK INTRA:                   2.635
REMARK UNBOUND:                 6.130
REMARK SMILES COc1ccc(-c2cc(=O)c3c(OC)c(OC)c(OC)c(OC)c3o2)cc1OC
REMARK SMILES IDX 7 1 8 2 9 3 10 4 11 5 24 6 25 7 21 8 18 9 15 10 12 11 6 12
REMARK SMILES IDX 3 13 27 14 4 15 26 16 5 17 2 18 1 19 28 20 29 21 22 22 23 23
REMARK SMILES IDX 13 24 14 25 19 26 20 27 16 28 17 29
REMARK H PARENT
REMARK Flexibility Score: inf
ROOT
ATOM      1  C   UNL     1      -9.343 -18.619  11.409  1.00  0.00     0.138 A 
ATOM      2  C   UNL     1      -8.646 -18.429  10.208  1.00  0.00     0.100 A 
ATOM      3  C   UNL     1      -8.943 -17.324   9.413  1.00  0.00     0.197 A 
ATOM      4  O   UNL     1      -8.313 -17.167   8.332  1.00  0.00    -0.289 OA
ATOM      5  C   UNL     1      -9.937 -16.410   9.828  1.00  0.00     0.115 A 
ATOM      6  C   UNL     1     -10.574 -16.651  11.062  1.00  0.00     0.188 A 
ATOM      7  O   UNL     1     -10.257 -17.726  11.782  1.00  0.00    -0.452 OA
ATOM      8  C   UNL     1     -11.565 -15.778  11.537  1.00  0.00     0.209 A 
ATOM      9  C   UNL     1     -11.973 -14.668  10.753  1.00  0.00     0.211 A 
ATOM     10  C   UNL     1     -11.313 -14.409   9.523  1.00  0.00     0.208 A 
ATOM     11  C   UNL     1     -10.319 -15.292   9.057  1.00  0.00     0.179 A 
ENDROOT
BRANCH   1  12
ATOM     12  C   UNL     1      -9.083 -19.792  12.282  1.00  0.00     0.021 A 
ATOM     13  C   UNL     1      -8.534 -22.024  13.925  1.00  0.00     0.160 A 
ATOM     14  C   UNL     1      -9.463 -21.059  14.343  1.00  0.00     0.161 A 
ATOM     15  C   UNL     1      -7.876 -21.864  12.692  1.00  0.00     0.051 A 
ATOM     16  C   UNL     1      -9.730 -19.945  13.523  1.00  0.00     0.062 A 
ATOM     17  C   UNL     1      -8.145 -20.756  11.885  1.00  0.00     0.016 A 
BRANCH  13  18
ATOM     18  O   UNL     1      -8.292 -23.124  14.761  1.00  0.00    -0.493 OA
ATOM     19  C   UNL     1      -7.885 -23.028  16.123  1.00  0.00     0.278 C 
ENDBRANCH  13  18
BRANCH  14  20
ATOM     20  O   UNL     1     -10.097 -21.241  15.583  1.00  0.00    -0.493 OA
ATOM     21  C   UNL     1     -11.477 -21.545  15.748  1.00  0.00     0.278 C 
ENDBRANCH  14  20
ENDBRANCH   1  12
BRANCH   8  22
ATOM     22  O   UNL     1     -12.144 -16.021  12.784  1.00  0.00    -0.490 OA
ATOM     23  C   UNL     1     -11.361 -16.296  13.941  1.00  0.00     0.278 C 
ENDBRANCH   8  22
BRANCH  11  24
ATOM     24  O   UNL     1      -9.691 -15.048   7.827  1.00  0.00    -0.492 OA
ATOM     25  C   UNL     1      -8.282 -14.888   7.702  1.00  0.00     0.278 C 
ENDBRANCH  11  24
BRANCH   9  26
ATOM     26  O   UNL     1     -13.012 -13.807  11.151  1.00  0.00    -0.490 OA
ATOM     27  C   UNL     1     -14.200 -14.156  11.856  1.00  0.00     0.279 C 
ENDBRANCH   9  26
BRANCH  10  28
ATOM     28  O   UNL     1     -11.580 -13.279   8.723  1.00  0.00    -0.490 OA
ATOM     29  C   UNL     1     -12.812 -12.576   8.610  1.00  0.00     0.278 C 
ENDBRANCH  10  28
TORSDOF 7
ENDMDL
