MODEL 1
REMARK VINA RESULT:    -5.392      0.000      0.000
REMARK INTER + INTRA:          -6.512
REMARK INTER:                  -6.338
REMARK INTRA:                  -0.174
REMARK UNBOUND:                -0.174
REMARK SMILES CC1(C)CC[C@@]2(C(=O)[O-])CC[C@@]3(C)C(=CC[C@H]4[C@@]5(C)CC[C@H](O)[C@](C)(CO)[C@@H]5CC[C@@]43C)[C@@H]2C1
REMARK SMILES IDX 6 1 5 2 10 3 33 4 4 5 11 6 14 7 34 8 2 9 12 10 15 11 1 12
REMARK SMILES IDX 3 13 13 14 31 15 16 16 17 17 30 18 32 19 18 20 29 21 28 22
REMARK SMILES IDX 20 23 19 24 24 25 21 26 22 27 25 28 7 29 8 30 9 31 26 32
REMARK SMILES IDX 27 33 23 35
REMARK H PARENT 27 34 23 36
REMARK Flexibility Score: inf
ROOT
ATOM      1  C   UNL     1      11.813  45.802   9.415  1.00  0.00     0.017 C 
ATOM      2  C   UNL     1      13.001  45.059  10.208  1.00  0.00     0.014 C 
ATOM      3  C   UNL     1      12.077  47.380   9.398  1.00  0.00     0.014 C 
ATOM      4  C   UNL     1      11.791  45.209   7.972  1.00  0.00     0.028 C 
ATOM      5  C   UNL     1      13.988  44.250   9.353  1.00  0.00     0.007 C 
ATOM      6  C   UNL     1      11.747  48.177   8.062  1.00  0.00     0.013 C 
ATOM      7  C   UNL     1      11.212  46.159   6.975  1.00  0.00    -0.064 C 
ATOM      8  C   UNL     1      11.800  43.690   7.884  1.00  0.00     0.015 C 
ATOM      9  C   UNL     1      13.234  43.181   8.378  1.00  0.00    -0.035 C 
ATOM     10  C   UNL     1      12.113  47.396   6.736  1.00  0.00    -0.006 C 
ATOM     11  C   UNL     1       9.903  46.149   6.822  1.00  0.00    -0.027 C 
ATOM     12  C   UNL     1      13.070  41.877   9.142  1.00  0.00     0.011 C 
ATOM     13  C   UNL     1      14.125  43.011   7.132  1.00  0.00     0.011 C 
ATOM     14  C   UNL     1      13.718  47.306   6.854  1.00  0.00     0.017 C 
ATOM     15  C   UNL     1      11.681  47.993   5.270  1.00  0.00    -0.020 C 
ATOM     16  C   UNL     1       9.259  47.260   6.030  1.00  0.00     0.032 C 
ATOM     17  C   UNL     1      10.215  47.578   4.853  1.00  0.00     0.006 C 
ATOM     18  C   UNL     1      12.661  47.394   4.175  1.00  0.00     0.008 C 
ATOM     19  C   UNL     1      11.853  49.553   5.373  1.00  0.00     0.012 C 
ATOM     20  C   UNL     1       9.695  47.905   3.334  1.00  0.00    -0.025 C 
ATOM     21  C   UNL     1      11.983  46.766   2.896  1.00  0.00     0.005 C 
ATOM     22  C   UNL     1      10.978  47.811   2.357  1.00  0.00     0.006 C 
ATOM     23  C   UNL     1       9.059  49.302   3.088  1.00  0.00     0.010 C 
ATOM     24  C   UNL     1       8.544  46.858   3.052  1.00  0.00     0.012 C 
ATOM     25  C   UNL     1      10.700  47.880   0.799  1.00  0.00     0.020 C 
ATOM     26  C   UNL     1       8.795  49.534   1.587  1.00  0.00     0.033 C 
ATOM     27  C   UNL     1       9.989  49.227   0.604  1.00  0.00     0.123 C 
ATOM     28  C   UNL     1      12.077  47.933   0.057  1.00  0.00     0.017 C 
ENDROOT
BRANCH   1  29
ATOM     29  C   UNL     1      10.407  45.526   9.983  1.00  0.00     0.048 C 
ATOM     30  O   UNL     1      10.262  44.667  10.931  1.00  0.00    -0.550 OA
ATOM     31  O   UNL     1       9.307  46.386   9.738  1.00  0.00    -0.550 OA
ENDBRANCH   1  29
BRANCH  25  32
ATOM     32  C   UNL     1       9.833  46.659   0.209  1.00  0.00     0.165 C 
BRANCH  32  33
ATOM     33  O   UNL     1       9.644  46.580  -1.192  1.00  0.00    -0.396 OA
ATOM     34  H   UNL     1      10.140  45.795  -1.550  1.00  0.00     0.210 HD
ENDBRANCH  32  33
ENDBRANCH  25  32
BRANCH  27  35
ATOM     35  O   UNL     1       9.508  49.343  -0.722  1.00  0.00    -0.392 OA
ATOM     36  H   UNL     1       9.748  50.242  -1.026  1.00  0.00     0.210 HD
ENDBRANCH  27  35
TORSDOF 4
ENDMDL
MODEL 2
REMARK VINA RESULT:    -5.314      5.565      9.634
REMARK INTER + INTRA:          -6.420
REMARK INTER:                  -6.299
REMARK INTRA:                  -0.121
REMARK UNBOUND:                -0.174
REMARK SMILES CC1(C)CC[C@@]2(C(=O)[O-])CC[C@@]3(C)C(=CC[C@H]4[C@@]5(C)CC[C@H](O)[C@](C)(CO)[C@@H]5CC[C@@]43C)[C@@H]2C1
REMARK SMILES IDX 6 1 5 2 10 3 33 4 4 5 11 6 14 7 34 8 2 9 12 10 15 11 1 12
REMARK SMILES IDX 3 13 13 14 31 15 16 16 17 17 30 18 32 19 18 20 29 21 28 22
REMARK SMILES IDX 20 23 19 24 24 25 21 26 22 27 25 28 7 29 8 30 9 31 26 32
REMARK SMILES IDX 27 33 23 35
REMARK H PARENT 27 34 23 36
REMARK Flexibility Score: inf
ROOT
ATOM      1  C   UNL     1       6.852  37.642  11.326  1.00  0.00     0.017 C 
ATOM      2  C   UNL     1       6.654  36.165  10.715  1.00  0.00     0.014 C 
ATOM      3  C   UNL     1       7.802  37.574  12.612  1.00  0.00     0.014 C 
ATOM      4  C   UNL     1       7.477  38.520  10.197  1.00  0.00     0.028 C 
ATOM      5  C   UNL     1       7.374  35.875   9.390  1.00  0.00     0.007 C 
ATOM      6  C   UNL     1       8.873  38.733  12.810  1.00  0.00     0.013 C 
ATOM      7  C   UNL     1       8.262  39.670  10.738  1.00  0.00    -0.064 C 
ATOM      8  C   UNL     1       6.783  38.447   8.845  1.00  0.00     0.015 C 
ATOM      9  C   UNL     1       7.036  36.987   8.244  1.00  0.00    -0.035 C 
ATOM     10  C   UNL     1       9.552  39.221  11.467  1.00  0.00    -0.006 C 
ATOM     11  C   UNL     1       7.600  40.778  11.007  1.00  0.00    -0.027 C 
ATOM     12  C   UNL     1       5.798  36.529   7.490  1.00  0.00     0.011 C 
ATOM     13  C   UNL     1       8.272  37.067   7.326  1.00  0.00     0.011 C 
ATOM     14  C   UNL     1      10.358  37.898  11.020  1.00  0.00     0.017 C 
ATOM     15  C   UNL     1      10.549  40.524  11.464  1.00  0.00    -0.020 C 
ATOM     16  C   UNL     1       8.295  41.862  11.793  1.00  0.00     0.032 C 
ATOM     17  C   UNL     1       9.766  41.888  11.310  1.00  0.00     0.006 C 
ATOM     18  C   UNL     1      11.525  40.407  10.217  1.00  0.00     0.008 C 
ATOM     19  C   UNL     1      11.360  40.451  12.809  1.00  0.00     0.012 C 
ATOM     20  C   UNL     1      10.611  43.271  11.073  1.00  0.00    -0.025 C 
ATOM     21  C   UNL     1      11.648  41.686   9.301  1.00  0.00     0.005 C 
ATOM     22  C   UNL     1      11.937  42.885  10.234  1.00  0.00     0.006 C 
ATOM     23  C   UNL     1      11.100  44.029  12.340  1.00  0.00     0.010 C 
ATOM     24  C   UNL     1       9.608  44.255  10.349  1.00  0.00     0.012 C 
ATOM     25  C   UNL     1      12.819  44.086   9.694  1.00  0.00     0.020 C 
ATOM     26  C   UNL     1      12.034  45.195  11.961  1.00  0.00     0.033 C 
ATOM     27  C   UNL     1      13.207  44.865  10.959  1.00  0.00     0.123 C 
ATOM     28  C   UNL     1      14.120  43.491   9.059  1.00  0.00     0.017 C 
ENDROOT
BRANCH   1  29
ATOM     29  C   UNL     1       5.536  38.350  11.701  1.00  0.00     0.048 C 
ATOM     30  O   UNL     1       4.415  37.866  11.292  1.00  0.00    -0.550 OA
ATOM     31  O   UNL     1       5.465  39.326  12.726  1.00  0.00    -0.550 OA
ENDBRANCH   1  29
BRANCH  25  32
ATOM     32  C   UNL     1      12.092  45.030   8.613  1.00  0.00     0.165 C 
BRANCH  32  33
ATOM     33  O   UNL     1      11.622  44.445   7.412  1.00  0.00    -0.396 OA
ATOM     34  H   UNL     1      12.217  44.709   6.659  1.00  0.00     0.210 HD
ENDBRANCH  32  33
ENDBRANCH  25  32
BRANCH  27  35
ATOM     35  O   UNL     1      13.844  46.081  10.614  1.00  0.00    -0.392 OA
ATOM     36  H   UNL     1      13.287  46.500   9.928  1.00  0.00     0.210 HD
ENDBRANCH  27  35
TORSDOF 4
ENDMDL
MODEL 3
REMARK VINA RESULT:    -4.974      4.387      9.588
REMARK INTER + INTRA:          -6.021
REMARK INTER:                  -5.662
REMARK INTRA:                  -0.358
REMARK UNBOUND:                -0.174
REMARK SMILES CC1(C)CC[C@@]2(C(=O)[O-])CC[C@@]3(C)C(=CC[C@H]4[C@@]5(C)CC[C@H](O)[C@](C)(CO)[C@@H]5CC[C@@]43C)[C@@H]2C1
REMARK SMILES IDX 6 1 5 2 10 3 33 4 4 5 11 6 14 7 34 8 2 9 12 10 15 11 1 12
REMARK SMILES IDX 3 13 13 14 31 15 16 16 17 17 30 18 32 19 18 20 29 21 28 22
REMARK SMILES IDX 20 23 19 24 24 25 21 26 22 27 25 28 7 29 8 30 9 31 26 32
REMARK SMILES IDX 27 33 23 35
REMARK H PARENT 27 34 23 36
REMARK Flexibility Score: inf
ROOT
ATOM      1  C   UNL     1      11.939  46.104   8.813  1.00  0.00     0.017 C 
ATOM      2  C   UNL     1      11.568  47.457   8.024  1.00  0.00     0.014 C 
ATOM      3  C   UNL     1      11.834  46.352  10.391  1.00  0.00     0.014 C 
ATOM      4  C   UNL     1      10.934  45.009   8.337  1.00  0.00     0.028 C 
ATOM      5  C   UNL     1      10.215  47.470   7.296  1.00  0.00     0.007 C 
ATOM      6  C   UNL     1      11.214  45.194  11.288  1.00  0.00     0.013 C 
ATOM      7  C   UNL     1      10.735  43.936   9.356  1.00  0.00    -0.064 C 
ATOM      8  C   UNL     1      10.772  44.876   6.830  1.00  0.00     0.015 C 
ATOM      9  C   UNL     1      10.033  46.191   6.300  1.00  0.00    -0.035 C 
ATOM     10  C   UNL     1       9.994  44.442  10.619  1.00  0.00    -0.006 C 
ATOM     11  C   UNL     1      11.585  42.928   9.344  1.00  0.00    -0.027 C 
ATOM     12  C   UNL     1      10.591  46.569   4.937  1.00  0.00     0.011 C 
ATOM     13  C   UNL     1       8.523  45.887   6.239  1.00  0.00     0.011 C 
ATOM     14  C   UNL     1       8.899  45.622  10.538  1.00  0.00     0.017 C 
ATOM     15  C   UNL     1       9.346  43.110  11.326  1.00  0.00    -0.020 C 
ATOM     16  C   UNL     1      11.583  41.967  10.507  1.00  0.00     0.032 C 
ATOM     17  C   UNL     1      10.104  41.782  10.929  1.00  0.00     0.006 C 
ATOM     18  C   UNL     1       7.848  42.955  10.827  1.00  0.00     0.008 C 
ATOM     19  C   UNL     1       9.389  43.381  12.874  1.00  0.00     0.012 C 
ATOM     20  C   UNL     1       9.468  40.338  11.369  1.00  0.00    -0.025 C 
ATOM     21  C   UNL     1       7.431  41.529  10.295  1.00  0.00     0.005 C 
ATOM     22  C   UNL     1       7.861  40.502  11.368  1.00  0.00     0.006 C 
ATOM     23  C   UNL     1       9.852  39.794  12.774  1.00  0.00     0.010 C 
ATOM     24  C   UNL     1      10.049  39.293  10.335  1.00  0.00     0.012 C 
ATOM     25  C   UNL     1       7.006  39.181  11.557  1.00  0.00     0.020 C 
ATOM     26  C   UNL     1       9.035  38.533  13.122  1.00  0.00     0.033 C 
ATOM     27  C   UNL     1       7.475  38.621  12.908  1.00  0.00     0.123 C 
ATOM     28  C   UNL     1       5.499  39.587  11.685  1.00  0.00     0.017 C 
ENDROOT
BRANCH   1  29
ATOM     29  C   UNL     1      13.334  45.541   8.478  1.00  0.00     0.048 C 
ATOM     30  O   UNL     1      13.943  45.943   7.416  1.00  0.00    -0.550 OA
ATOM     31  O   UNL     1      14.118  44.840   9.427  1.00  0.00    -0.550 OA
ENDBRANCH   1  29
BRANCH  25  32
ATOM     32  C   UNL     1       7.158  38.098  10.378  1.00  0.00     0.165 C 
BRANCH  32  33
ATOM     33  O   UNL     1       6.297  36.973  10.378  1.00  0.00    -0.396 OA
ATOM     34  H   UNL     1       6.277  36.571   9.467  1.00  0.00     0.210 HD
ENDBRANCH  32  33
ENDBRANCH  25  32
BRANCH  27  35
ATOM     35  O   UNL     1       6.929  37.333  13.124  1.00  0.00    -0.392 OA
ATOM     36  H   UNL     1       6.881  36.903  12.246  1.00  0.00     0.210 HD
ENDBRANCH  27  35
TORSDOF 4
ENDMDL
MODEL 4
REMARK VINA RESULT:    -4.905      2.216      3.547
REMARK INTER + INTRA:          -5.940
REMARK INTER:                  -5.667
REMARK INTRA:                  -0.272
REMARK UNBOUND:                -0.174
REMARK SMILES CC1(C)CC[C@@]2(C(=O)[O-])CC[C@@]3(C)C(=CC[C@H]4[C@@]5(C)CC[C@H](O)[C@](C)(CO)[C@@H]5CC[C@@]43C)[C@@H]2C1
REMARK SMILES IDX 6 1 5 2 10 3 33 4 4 5 11 6 14 7 34 8 2 9 12 10 15 11 1 12
REMARK SMILES IDX 3 13 13 14 31 15 16 16 17 17 30 18 32 19 18 20 29 21 28 22
REMARK SMILES IDX 20 23 19 24 24 25 21 26 22 27 25 28 7 29 8 30 9 31 26 32
REMARK SMILES IDX 27 33 23 35
REMARK H PARENT 27 34 23 36
REMARK Flexibility Score: inf
ROOT
ATOM      1  C   UNL     1      11.866  42.995  11.803  1.00  0.00     0.017 C 
ATOM      2  C   UNL     1      12.905  41.941  12.436  1.00  0.00     0.014 C 
ATOM      3  C   UNL     1      12.269  44.481  12.238  1.00  0.00     0.014 C 
ATOM      4  C   UNL     1      11.925  42.815  10.253  1.00  0.00     0.028 C 
ATOM      5  C   UNL     1      13.892  41.286  11.458  1.00  0.00     0.007 C 
ATOM      6  C   UNL     1      12.135  45.637  11.154  1.00  0.00     0.013 C 
ATOM      7  C   UNL     1      11.527  44.054   9.521  1.00  0.00    -0.064 C 
ATOM      8  C   UNL     1      11.809  41.383   9.752  1.00  0.00     0.015 C 
ATOM      9  C   UNL     1      13.140  40.606  10.180  1.00  0.00    -0.035 C 
ATOM     10  C   UNL     1      12.552  45.203   9.691  1.00  0.00    -0.006 C 
ATOM     11  C   UNL     1      10.242  44.230   9.286  1.00  0.00    -0.027 C 
ATOM     12  C   UNL     1      12.792  39.172  10.542  1.00  0.00     0.011 C 
ATOM     13  C   UNL     1      14.124  40.678   8.995  1.00  0.00     0.011 C 
ATOM     14  C   UNL     1      14.125  44.909   9.883  1.00  0.00     0.017 C 
ATOM     15  C   UNL     1      12.312  46.214   8.421  1.00  0.00    -0.020 C 
ATOM     16  C   UNL     1       9.775  45.575   8.790  1.00  0.00     0.032 C 
ATOM     17  C   UNL     1      10.860  46.090   7.811  1.00  0.00     0.006 C 
ATOM     18  C   UNL     1      13.332  45.825   7.269  1.00  0.00     0.008 C 
ATOM     19  C   UNL     1      12.611  47.661   8.959  1.00  0.00     0.012 C 
ATOM     20  C   UNL     1      10.513  46.865   6.411  1.00  0.00    -0.025 C 
ATOM     21  C   UNL     1      12.723  45.640   5.826  1.00  0.00     0.005 C 
ATOM     22  C   UNL     1      11.868  46.895   5.531  1.00  0.00     0.006 C 
ATOM     23  C   UNL     1      10.028  48.339   6.517  1.00  0.00     0.010 C 
ATOM     24  C   UNL     1       9.306  46.065   5.777  1.00  0.00     0.012 C 
ATOM     25  C   UNL     1      11.742  47.408   4.037  1.00  0.00     0.020 C 
ATOM     26  C   UNL     1       9.926  48.990   5.124  1.00  0.00     0.033 C 
ATOM     27  C   UNL     1      11.174  48.828   4.174  1.00  0.00     0.123 C 
ATOM     28  C   UNL     1      13.181  47.505   3.429  1.00  0.00     0.017 C 
ENDROOT
BRANCH   1  29
ATOM     29  C   UNL     1      10.395  42.734  12.180  1.00  0.00     0.048 C 
ATOM     30  O   UNL     1      10.004  41.530  12.418  1.00  0.00    -0.550 OA
ATOM     31  O   UNL     1       9.519  43.772  12.583  1.00  0.00    -0.550 OA
ENDBRANCH   1  29
BRANCH  25  32
ATOM     32  C   UNL     1      10.830  46.492   3.079  1.00  0.00     0.165 C 
BRANCH  32  33
ATOM     33  O   UNL     1      11.399  45.322   2.520  1.00  0.00    -0.396 OA
ATOM     34  H   UNL     1      10.736  44.581   2.556  1.00  0.00     0.210 HD
ENDBRANCH  32  33
ENDBRANCH  25  32
BRANCH  27  35
ATOM     35  O   UNL     1      10.829  49.346   2.903  1.00  0.00    -0.392 OA
ATOM     36  H   UNL     1      11.441  50.090   2.733  1.00  0.00     0.210 HD
ENDBRANCH  27  35
TORSDOF 4
ENDMDL
MODEL 5
REMARK VINA RESULT:    -4.855      1.913      3.663
REMARK INTER + INTRA:          -5.881
REMARK INTER:                  -5.484
REMARK INTRA:                  -0.397
REMARK UNBOUND:                -0.174
REMARK SMILES CC1(C)CC[C@@]2(C(=O)[O-])CC[C@@]3(C)C(=CC[C@H]4[C@@]5(C)CC[C@H](O)[C@](C)(CO)[C@@H]5CC[C@@]43C)[C@@H]2C1
REMARK SMILES IDX 6 1 5 2 10 3 33 4 4 5 11 6 14 7 34 8 2 9 12 10 15 11 1 12
REMARK SMILES IDX 3 13 13 14 31 15 16 16 17 17 30 18 32 19 18 20 29 21 28 22
REMARK SMILES IDX 20 23 19 24 24 25 21 26 22 27 25 28 7 29 8 30 9 31 26 32
REMARK SMILES IDX 27 33 23 35
REMARK H PARENT 27 34 23 36
REMARK Flexibility Score: inf
ROOT
ATOM      1  C   UNL     1      12.742  44.770  11.043  1.00  0.00     0.017 C 
ATOM      2  C   UNL     1      12.303  43.450  11.853  1.00  0.00     0.014 C 
ATOM      3  C   UNL     1      14.020  44.449  10.135  1.00  0.00     0.014 C 
ATOM      4  C   UNL     1      11.516  45.199  10.177  1.00  0.00     0.028 C 
ATOM      5  C   UNL     1      11.013  42.761  11.384  1.00  0.00     0.007 C 
ATOM      6  C   UNL     1      14.077  45.084   8.678  1.00  0.00     0.013 C 
ATOM      7  C   UNL     1      11.918  45.977   8.967  1.00  0.00    -0.064 C 
ATOM      8  C   UNL     1      10.187  45.282  10.912  1.00  0.00     0.015 C 
ATOM      9  C   UNL     1       9.752  43.793  11.303  1.00  0.00    -0.035 C 
ATOM     10  C   UNL     1      12.683  45.116   7.931  1.00  0.00    -0.006 C 
ATOM     11  C   UNL     1      12.065  47.279   9.108  1.00  0.00    -0.027 C 
ATOM     12  C   UNL     1       9.064  43.808  12.659  1.00  0.00     0.011 C 
ATOM     13  C   UNL     1       8.821  43.270  10.191  1.00  0.00     0.011 C 
ATOM     14  C   UNL     1      12.382  43.542   7.755  1.00  0.00     0.017 C 
ATOM     15  C   UNL     1      12.525  45.891   6.494  1.00  0.00    -0.020 C 
ATOM     16  C   UNL     1      12.718  48.058   7.994  1.00  0.00     0.032 C 
ATOM     17  C   UNL     1      12.224  47.433   6.665  1.00  0.00     0.006 C 
ATOM     18  C   UNL     1      11.292  45.263   5.717  1.00  0.00     0.008 C 
ATOM     19  C   UNL     1      13.864  45.629   5.712  1.00  0.00     0.012 C 
ATOM     20  C   UNL     1      11.826  48.320   5.347  1.00  0.00    -0.025 C 
ATOM     21  C   UNL     1      10.237  46.282   5.135  1.00  0.00     0.005 C 
ATOM     22  C   UNL     1      11.026  47.345   4.337  1.00  0.00     0.006 C 
ATOM     23  C   UNL     1      12.996  48.935   4.527  1.00  0.00     0.010 C 
ATOM     24  C   UNL     1      11.004  49.550   5.903  1.00  0.00     0.012 C 
ATOM     25  C   UNL     1      10.347  48.021   3.075  1.00  0.00     0.020 C 
ATOM     26  C   UNL     1      12.480  49.575   3.222  1.00  0.00     0.033 C 
ATOM     27  C   UNL     1      11.513  48.697   2.338  1.00  0.00     0.123 C 
ATOM     28  C   UNL     1       9.773  46.888   2.161  1.00  0.00     0.017 C 
ENDROOT
BRANCH   1  29
ATOM     29  C   UNL     1      13.045  45.988  11.938  1.00  0.00     0.048 C 
ATOM     30  O   UNL     1      12.548  46.043  13.125  1.00  0.00    -0.550 OA
ATOM     31  O   UNL     1      14.088  46.902  11.647  1.00  0.00    -0.550 OA
ENDBRANCH   1  29
BRANCH  25  32
ATOM     32  C   UNL     1       9.172  49.067   3.414  1.00  0.00     0.165 C 
BRANCH  32  33
ATOM     33  O   UNL     1       8.439  49.630   2.341  1.00  0.00    -0.396 OA
ATOM     34  H   UNL     1       7.530  49.226   2.312  1.00  0.00     0.210 HD
ENDBRANCH  32  33
ENDBRANCH  25  32
BRANCH  27  35
ATOM     35  O   UNL     1      11.028  49.505   1.283  1.00  0.00    -0.392 OA
ATOM     36  H   UNL     1      11.212  49.018   0.454  1.00  0.00     0.210 HD
ENDBRANCH  27  35
TORSDOF 4
ENDMDL
MODEL 6
REMARK VINA RESULT:    -3.927      2.448      8.404
REMARK INTER + INTRA:          -4.790
REMARK INTER:                  -5.193
REMARK INTRA:                   0.403
REMARK UNBOUND:                -0.174
REMARK SMILES CC1(C)CC[C@@]2(C(=O)[O-])CC[C@@]3(C)C(=CC[C@H]4[C@@]5(C)CC[C@H](O)[C@](C)(CO)[C@@H]5CC[C@@]43C)[C@@H]2C1
REMARK SMILES IDX 6 1 5 2 10 3 33 4 4 5 11 6 14 7 34 8 2 9 12 10 15 11 1 12
REMARK SMILES IDX 3 13 13 14 31 15 16 16 17 17 30 18 32 19 18 20 29 21 28 22
REMARK SMILES IDX 20 23 19 24 24 25 21 26 22 27 25 28 7 29 8 30 9 31 26 32
REMARK SMILES IDX 27 33 23 35
REMARK H PARENT 27 34 23 36
REMARK Flexibility Score: inf
ROOT
ATOM      1  C   UNL     1      11.963  48.216   4.625  1.00  0.00     0.017 C 
ATOM      2  C   UNL     1      10.900  49.160   3.868  1.00  0.00     0.014 C 
ATOM      3  C   UNL     1      12.572  48.990   5.886  1.00  0.00     0.014 C 
ATOM      4  C   UNL     1      11.197  46.927   5.057  1.00  0.00     0.028 C 
ATOM      5  C   UNL     1       9.420  48.778   4.022  1.00  0.00     0.007 C 
ATOM      6  C   UNL     1      12.808  48.164   7.224  1.00  0.00     0.013 C 
ATOM      7  C   UNL     1      11.820  46.266   6.243  1.00  0.00    -0.064 C 
ATOM      8  C   UNL     1      10.369  46.257   3.972  1.00  0.00     0.015 C 
ATOM      9  C   UNL     1       9.137  47.219   3.633  1.00  0.00    -0.035 C 
ATOM     10  C   UNL     1      11.677  47.103   7.538  1.00  0.00    -0.006 C 
ATOM     11  C   UNL     1      12.796  45.410   6.012  1.00  0.00    -0.027 C 
ATOM     12  C   UNL     1       8.837  47.150   2.144  1.00  0.00     0.011 C 
ATOM     13  C   UNL     1       7.937  46.760   4.484  1.00  0.00     0.011 C 
ATOM     14  C   UNL     1      10.405  48.061   7.787  1.00  0.00     0.017 C 
ATOM     15  C   UNL     1      11.847  46.046   8.781  1.00  0.00    -0.020 C 
ATOM     16  C   UNL     1      13.622  44.924   7.177  1.00  0.00     0.032 C 
ATOM     17  C   UNL     1      12.648  44.748   8.370  1.00  0.00     0.006 C 
ATOM     18  C   UNL     1      10.403  45.572   9.239  1.00  0.00     0.008 C 
ATOM     19  C   UNL     1      12.558  46.846   9.933  1.00  0.00     0.012 C 
ATOM     20  C   UNL     1      12.730  43.494   9.420  1.00  0.00    -0.025 C 
ATOM     21  C   UNL     1      10.190  44.016   9.386  1.00  0.00     0.005 C 
ATOM     22  C   UNL     1      11.349  43.480  10.259  1.00  0.00     0.006 C 
ATOM     23  C   UNL     1      13.878  43.520  10.468  1.00  0.00     0.010 C 
ATOM     24  C   UNL     1      12.997  42.217   8.527  1.00  0.00     0.012 C 
ATOM     25  C   UNL     1      11.092  42.231  11.198  1.00  0.00     0.020 C 
ATOM     26  C   UNL     1      13.714  42.385  11.498  1.00  0.00     0.033 C 
ATOM     27  C   UNL     1      12.290  42.231  12.159  1.00  0.00     0.123 C 
ATOM     28  C   UNL     1       9.791  42.499  12.026  1.00  0.00     0.017 C 
ENDROOT
BRANCH   1  29
ATOM     29  C   UNL     1      13.113  47.717   3.729  1.00  0.00     0.048 C 
ATOM     30  O   UNL     1      14.123  47.124   4.264  1.00  0.00    -0.550 OA
ATOM     31  O   UNL     1      12.981  47.594   2.323  1.00  0.00    -0.550 OA
ENDBRANCH   1  29
BRANCH  25  32
ATOM     32  C   UNL     1      10.945  40.824  10.432  1.00  0.00     0.165 C 
BRANCH  32  33
ATOM     33  O   UNL     1       9.658  40.243  10.327  1.00  0.00    -0.396 OA
ATOM     34  H   UNL     1       9.431  39.782  11.180  1.00  0.00     0.210 HD
ENDBRANCH  32  33
ENDBRANCH  25  32
BRANCH  27  35
ATOM     35  O   UNL     1      12.295  41.052  12.942  1.00  0.00    -0.392 OA
ATOM     36  H   UNL     1      11.391  40.681  12.888  1.00  0.00     0.210 HD
ENDBRANCH  27  35
TORSDOF 4
ENDMDL
MODEL 7
REMARK VINA RESULT:    -3.880      2.005      8.135
REMARK INTER + INTRA:          -4.734
REMARK INTER:                  -5.442
REMARK INTRA:                   0.708
REMARK UNBOUND:                -0.174
REMARK SMILES CC1(C)CC[C@@]2(C(=O)[O-])CC[C@@]3(C)C(=CC[C@H]4[C@@]5(C)CC[C@H](O)[C@](C)(CO)[C@@H]5CC[C@@]43C)[C@@H]2C1
REMARK SMILES IDX 6 1 5 2 10 3 33 4 4 5 11 6 14 7 34 8 2 9 12 10 15 11 1 12
REMARK SMILES IDX 3 13 13 14 31 15 16 16 17 17 30 18 32 19 18 20 29 21 28 22
REMARK SMILES IDX 20 23 19 24 24 25 21 26 22 27 25 28 7 29 8 30 9 31 26 32
REMARK SMILES IDX 27 33 23 35
REMARK H PARENT 27 34 23 36
REMARK Flexibility Score: inf
ROOT
ATOM      1  C   UNL     1      12.223  48.913   3.299  1.00  0.00     0.017 C 
ATOM      2  C   UNL     1      11.328  49.734   2.242  1.00  0.00     0.014 C 
ATOM      3  C   UNL     1      12.787  49.908   4.419  1.00  0.00     0.014 C 
ATOM      4  C   UNL     1      11.302  47.816   3.919  1.00  0.00     0.028 C 
ATOM      5  C   UNL     1       9.811  49.507   2.314  1.00  0.00     0.007 C 
ATOM      6  C   UNL     1      12.823  49.394   5.923  1.00  0.00     0.013 C 
ATOM      7  C   UNL     1      11.750  47.400   5.281  1.00  0.00    -0.064 C 
ATOM      8  C   UNL     1      10.514  46.978   2.923  1.00  0.00     0.015 C 
ATOM      9  C   UNL     1       9.416  47.925   2.249  1.00  0.00    -0.035 C 
ATOM     10  C   UNL     1      11.571  48.519   6.337  1.00  0.00    -0.006 C 
ATOM     11  C   UNL     1      12.656  46.445   5.352  1.00  0.00    -0.027 C 
ATOM     12  C   UNL     1       9.245  47.540   0.788  1.00  0.00     0.011 C 
ATOM     13  C   UNL     1       8.105  47.761   3.044  1.00  0.00     0.011 C 
ATOM     14  C   UNL     1      10.379  49.599   6.229  1.00  0.00     0.017 C 
ATOM     15  C   UNL     1      11.527  47.764   7.793  1.00  0.00    -0.020 C 
ATOM     16  C   UNL     1      13.323  46.179   6.678  1.00  0.00     0.032 C 
ATOM     17  C   UNL     1      12.234  46.352   7.767  1.00  0.00     0.006 C 
ATOM     18  C   UNL     1      10.009  47.514   8.183  1.00  0.00     0.008 C 
ATOM     19  C   UNL     1      12.205  48.752   8.812  1.00  0.00     0.012 C 
ATOM     20  C   UNL     1      12.100  45.368   9.070  1.00  0.00    -0.025 C 
ATOM     21  C   UNL     1       9.636  46.052   8.645  1.00  0.00     0.005 C 
ATOM     22  C   UNL     1      10.655  45.647   9.735  1.00  0.00     0.006 C 
ATOM     23  C   UNL     1      13.147  45.548  10.205  1.00  0.00     0.010 C 
ATOM     24  C   UNL     1      12.324  43.905   8.514  1.00  0.00     0.012 C 
ATOM     25  C   UNL     1      10.196  44.667  10.892  1.00  0.00     0.020 C 
ATOM     26  C   UNL     1      12.783  44.694  11.436  1.00  0.00     0.033 C 
ATOM     27  C   UNL     1      11.297  44.800  11.955  1.00  0.00     0.123 C 
ATOM     28  C   UNL     1       8.858  45.212  11.494  1.00  0.00     0.017 C 
ENDROOT
BRANCH   1  29
ATOM     29  C   UNL     1      13.396  48.140   2.666  1.00  0.00     0.048 C 
ATOM     30  O   UNL     1      14.124  47.375   3.403  1.00  0.00    -0.550 OA
ATOM     31  O   UNL     1      13.530  47.979   1.264  1.00  0.00    -0.550 OA
ENDBRANCH   1  29
BRANCH  25  32
ATOM     32  C   UNL     1       9.985  43.137  10.443  1.00  0.00     0.165 C 
BRANCH  32  33
ATOM     33  O   UNL     1       8.678  42.707  10.104  1.00  0.00    -0.396 OA
ATOM     34  H   UNL     1       8.028  43.070  10.764  1.00  0.00     0.210 HD
ENDBRANCH  32  33
ENDBRANCH  25  32
BRANCH  27  35
ATOM     35  O   UNL     1      11.119  43.834  12.974  1.00  0.00    -0.392 OA
ATOM     36  H   UNL     1      10.333  43.308  12.721  1.00  0.00     0.210 HD
ENDBRANCH  27  35
TORSDOF 4
ENDMDL
MODEL 8
REMARK VINA RESULT:    -3.870      1.871      8.191
REMARK INTER + INTRA:          -4.722
REMARK INTER:                  -4.318
REMARK INTRA:                  -0.404
REMARK UNBOUND:                -0.174
REMARK SMILES CC1(C)CC[C@@]2(C(=O)[O-])CC[C@@]3(C)C(=CC[C@H]4[C@@]5(C)CC[C@H](O)[C@](C)(CO)[C@@H]5CC[C@@]43C)[C@@H]2C1
REMARK SMILES IDX 6 1 5 2 10 3 33 4 4 5 11 6 14 7 34 8 2 9 12 10 15 11 1 12
REMARK SMILES IDX 3 13 13 14 31 15 16 16 17 17 30 18 32 19 18 20 29 21 28 22
REMARK SMILES IDX 20 23 19 24 24 25 21 26 22 27 25 28 7 29 8 30 9 31 26 32
REMARK SMILES IDX 27 33 23 35
REMARK H PARENT 27 34 23 36
REMARK Flexibility Score: inf
ROOT
ATOM      1  C   UNL     1       9.939  48.577   1.061  1.00  0.00     0.017 C 
ATOM      2  C   UNL     1      10.688  48.688  -0.360  1.00  0.00     0.014 C 
ATOM      3  C   UNL     1       9.353  47.100   1.251  1.00  0.00     0.014 C 
ATOM      4  C   UNL     1      10.995  48.920   2.158  1.00  0.00     0.028 C 
ATOM      5  C   UNL     1      12.222  48.763  -0.317  1.00  0.00     0.007 C 
ATOM      6  C   UNL     1       9.457  46.436   2.692  1.00  0.00     0.013 C 
ATOM      7  C   UNL     1      10.671  48.294   3.476  1.00  0.00    -0.064 C 
ATOM      8  C   UNL     1      11.796  50.192   1.927  1.00  0.00     0.015 C 
ATOM      9  C   UNL     1      12.759  49.942   0.674  1.00  0.00    -0.035 C 
ATOM     10  C   UNL     1      10.807  46.751   3.453  1.00  0.00    -0.006 C 
ATOM     11  C   UNL     1       9.865  48.960   4.278  1.00  0.00    -0.027 C 
ATOM     12  C   UNL     1      12.876  51.224  -0.135  1.00  0.00     0.011 C 
ATOM     13  C   UNL     1      14.124  49.478   1.218  1.00  0.00     0.011 C 
ATOM     14  C   UNL     1      11.884  46.012   2.508  1.00  0.00     0.017 C 
ATOM     15  C   UNL     1      11.010  46.293   5.015  1.00  0.00    -0.020 C 
ATOM     16  C   UNL     1       9.306  48.256   5.489  1.00  0.00     0.032 C 
ATOM     17  C   UNL     1      10.438  47.352   6.038  1.00  0.00     0.006 C 
ATOM     18  C   UNL     1      12.565  46.164   5.303  1.00  0.00     0.008 C 
ATOM     19  C   UNL     1      10.305  44.893   5.149  1.00  0.00     0.012 C 
ATOM     20  C   UNL     1      10.742  47.162   7.637  1.00  0.00    -0.025 C 
ATOM     21  C   UNL     1      13.101  46.894   6.596  1.00  0.00     0.005 C 
ATOM     22  C   UNL     1      12.193  46.463   7.770  1.00  0.00     0.006 C 
ATOM     23  C   UNL     1       9.753  46.276   8.447  1.00  0.00     0.010 C 
ATOM     24  C   UNL     1      10.623  48.610   8.260  1.00  0.00     0.012 C 
ATOM     25  C   UNL     1      12.810  46.363   9.225  1.00  0.00     0.020 C 
ATOM     26  C   UNL     1      10.270  46.037   9.879  1.00  0.00     0.033 C 
ATOM     27  C   UNL     1      11.767  45.563  10.021  1.00  0.00     0.123 C 
ATOM     28  C   UNL     1      14.125  45.518   9.143  1.00  0.00     0.017 C 
ENDROOT
BRANCH   1  29
ATOM     29  C   UNL     1       8.808  49.604   1.260  1.00  0.00     0.048 C 
ATOM     30  O   UNL     1       8.817  50.698   0.580  1.00  0.00    -0.550 OA
ATOM     31  O   UNL     1       7.595  49.280   1.918  1.00  0.00    -0.550 OA
ENDBRANCH   1  29
BRANCH  25  32
ATOM     32  C   UNL     1      13.137  47.775   9.924  1.00  0.00     0.165 C 
BRANCH  32  33
ATOM     33  O   UNL     1      13.787  47.772  11.181  1.00  0.00    -0.396 OA
ATOM     34  H   UNL     1      13.313  47.152  11.799  1.00  0.00     0.210 HD
ENDBRANCH  32  33
ENDBRANCH  25  32
BRANCH  27  35
ATOM     35  O   UNL     1      12.097  45.556  11.397  1.00  0.00    -0.392 OA
ATOM     36  H   UNL     1      12.275  44.623  11.633  1.00  0.00     0.210 HD
ENDBRANCH  27  35
TORSDOF 4
ENDMDL
MODEL 9
REMARK VINA RESULT:    -3.790      4.875      8.072
REMARK INTER + INTRA:          -4.629
REMARK INTER:                  -4.825
REMARK INTRA:                   0.196
REMARK UNBOUND:                -0.174
REMARK SMILES CC1(C)CC[C@@]2(C(=O)[O-])CC[C@@]3(C)C(=CC[C@H]4[C@@]5(C)CC[C@H](O)[C@](C)(CO)[C@@H]5CC[C@@]43C)[C@@H]2C1
REMARK SMILES IDX 6 1 5 2 10 3 33 4 4 5 11 6 14 7 34 8 2 9 12 10 15 11 1 12
REMARK SMILES IDX 3 13 13 14 31 15 16 16 17 17 30 18 32 19 18 20 29 21 28 22
REMARK SMILES IDX 20 23 19 24 24 25 21 26 22 27 25 28 7 29 8 30 9 31 26 32
REMARK SMILES IDX 27 33 23 35
REMARK H PARENT 27 34 23 36
REMARK Flexibility Score: inf
ROOT
ATOM      1  C   UNL     1       7.458  38.811  11.760  1.00  0.00     0.017 C 
ATOM      2  C   UNL     1       7.597  37.212  11.874  1.00  0.00     0.014 C 
ATOM      3  C   UNL     1       8.136  39.506  13.032  1.00  0.00     0.014 C 
ATOM      4  C   UNL     1       8.162  39.234  10.433  1.00  0.00     0.028 C 
ATOM      5  C   UNL     1       8.597  36.545  10.918  1.00  0.00     0.007 C 
ATOM      6  C   UNL     1       8.971  40.839  12.798  1.00  0.00     0.013 C 
ATOM      7  C   UNL     1       8.653  40.644  10.473  1.00  0.00    -0.064 C 
ATOM      8  C   UNL     1       7.765  38.443   9.196  1.00  0.00     0.015 C 
ATOM      9  C   UNL     1       8.337  36.959   9.361  1.00  0.00    -0.035 C 
ATOM     10  C   UNL     1       9.825  40.840  11.466  1.00  0.00    -0.006 C 
ATOM     11  C   UNL     1       7.801  41.590  10.129  1.00  0.00    -0.027 C 
ATOM     12  C   UNL     1       7.350  35.968   8.766  1.00  0.00     0.011 C 
ATOM     13  C   UNL     1       9.706  36.903   8.653  1.00  0.00     0.011 C 
ATOM     14  C   UNL     1      10.883  39.661  11.766  1.00  0.00     0.017 C 
ATOM     15  C   UNL     1      10.608  42.198  10.979  1.00  0.00    -0.020 C 
ATOM     16  C   UNL     1       8.165  43.027  10.405  1.00  0.00     0.032 C 
ATOM     17  C   UNL     1       9.685  43.160  10.132  1.00  0.00     0.006 C 
ATOM     18  C   UNL     1      11.816  41.773  10.042  1.00  0.00     0.008 C 
ATOM     19  C   UNL     1      11.139  42.883  12.291  1.00  0.00     0.012 C 
ATOM     20  C   UNL     1      10.354  44.456   9.386  1.00  0.00    -0.025 C 
ATOM     21  C   UNL     1      11.934  42.531   8.663  1.00  0.00     0.005 C 
ATOM     22  C   UNL     1      11.860  44.044   8.970  1.00  0.00     0.006 C 
ATOM     23  C   UNL     1      10.471  45.768  10.212  1.00  0.00     0.010 C 
ATOM     24  C   UNL     1       9.384  44.794   8.185  1.00  0.00     0.012 C 
ATOM     25  C   UNL     1      12.651  45.058   8.045  1.00  0.00     0.020 C 
ATOM     26  C   UNL     1      11.286  46.832   9.450  1.00  0.00     0.033 C 
ATOM     27  C   UNL     1      12.667  46.366   8.848  1.00  0.00     0.123 C 
ATOM     28  C   UNL     1      14.123  44.545   7.902  1.00  0.00     0.017 C 
ENDROOT
BRANCH   1  29
ATOM     29  C   UNL     1       6.007  39.310  11.620  1.00  0.00     0.048 C 
ATOM     30  O   UNL     1       5.037  38.464  11.669  1.00  0.00    -0.550 OA
ATOM     31  O   UNL     1       5.658  40.678  11.750  1.00  0.00    -0.550 OA
ENDBRANCH   1  29
BRANCH  25  32
ATOM     32  C   UNL     1      12.025  45.268   6.578  1.00  0.00     0.165 C 
BRANCH  32  33
ATOM     33  O   UNL     1      12.145  44.219   5.634  1.00  0.00    -0.396 OA
ATOM     34  H   UNL     1      11.525  43.480   5.879  1.00  0.00     0.210 HD
ENDBRANCH  32  33
ENDBRANCH  25  32
BRANCH  27  35
ATOM     35  O   UNL     1      13.181  47.424   8.059  1.00  0.00    -0.392 OA
ATOM     36  H   UNL     1      13.871  47.861   8.598  1.00  0.00     0.210 HD
ENDBRANCH  27  35
TORSDOF 4
ENDMDL
