MODEL 1
REMARK VINA RESULT:    -3.547      0.000      0.000
REMARK INTER + INTRA:          -3.929
REMARK INTER:                  -3.754
REMARK INTRA:                  -0.174
REMARK UNBOUND:                -0.174
REMARK SMILES CC(C)[C@H]1CC[C@H](C)CC1=O
REMARK SMILES IDX 8 1 7 2 6 3 5 4 4 5 10 6 11 7 9 8 2 9 1 10 3 11
REMARK H PARENT
REMARK Flexibility Score: inf
ROOT
ATOM      1  C   UNL     1      14.270  -5.941  -0.257  1.00  0.00     0.008 C 
ATOM      2  C   UNL     1      13.296  -5.611  -1.393  1.00  0.00    -0.007 C 
ATOM      3  C   UNL     1      11.869  -6.081  -1.038  1.00  0.00     0.004 C 
ATOM      4  C   UNL     1      10.866  -5.745  -2.158  1.00  0.00     0.012 C 
ATOM      5  C   UNL     1      10.843  -4.229  -2.472  1.00  0.00     0.058 C 
ATOM      6  C   UNL     1      12.276  -3.798  -2.739  1.00  0.00     0.136 C 
ATOM      7  O   UNL     1      12.613  -3.291  -3.798  1.00  0.00    -0.299 OA
ATOM      8  C   UNL     1      13.311  -4.102  -1.696  1.00  0.00     0.079 C 
ENDROOT
BRANCH   5   9
ATOM      9  C   UNL     1       9.868  -3.855  -3.638  1.00  0.00    -0.007 C 
ATOM     10  C   UNL     1       9.420  -5.079  -4.455  1.00  0.00     0.008 C 
ATOM     11  C   UNL     1       8.615  -3.143  -3.097  1.00  0.00     0.008 C 
ENDBRANCH   5   9
TORSDOF 1
ENDMDL
MODEL 2
REMARK VINA RESULT:    -3.371      1.835      2.561
REMARK INTER + INTRA:          -3.743
REMARK INTER:                  -3.568
REMARK INTRA:                  -0.175
REMARK UNBOUND:                -0.174
REMARK SMILES CC(C)[C@H]1CC[C@H](C)CC1=O
REMARK SMILES IDX 8 1 7 2 6 3 5 4 4 5 10 6 11 7 9 8 2 9 1 10 3 11
REMARK H PARENT
REMARK Flexibility Score: inf
ROOT
ATOM      1  C   UNL     1      13.673  -4.273  -0.231  1.00  0.00     0.008 C 
ATOM      2  C   UNL     1      12.383  -4.103  -1.040  1.00  0.00    -0.007 C 
ATOM      3  C   UNL     1      12.697  -3.988  -2.546  1.00  0.00     0.004 C 
ATOM      4  C   UNL     1      11.414  -3.834  -3.384  1.00  0.00     0.012 C 
ATOM      5  C   UNL     1      10.433  -5.009  -3.154  1.00  0.00     0.058 C 
ATOM      6  C   UNL     1      10.214  -5.133  -1.655  1.00  0.00     0.136 C 
ATOM      7  O   UNL     1       9.104  -5.039  -1.153  1.00  0.00    -0.299 OA
ATOM      8  C   UNL     1      11.420  -5.275  -0.774  1.00  0.00     0.079 C 
ENDROOT
BRANCH   5   9
ATOM      9  C   UNL     1       9.096  -4.863  -3.954  1.00  0.00    -0.007 C 
ATOM     10  C   UNL     1       8.778  -3.403  -4.322  1.00  0.00     0.008 C 
ATOM     11  C   UNL     1       9.139  -5.695  -5.249  1.00  0.00     0.008 C 
ENDBRANCH   5   9
TORSDOF 1
ENDMDL
MODEL 3
REMARK VINA RESULT:    -3.249      1.488      1.641
REMARK INTER + INTRA:          -3.614
REMARK INTER:                  -3.450
REMARK INTRA:                  -0.164
REMARK UNBOUND:                -0.174
REMARK SMILES CC(C)[C@H]1CC[C@H](C)CC1=O
REMARK SMILES IDX 8 1 7 2 6 3 5 4 4 5 10 6 11 7 9 8 2 9 1 10 3 11
REMARK H PARENT
REMARK Flexibility Score: inf
ROOT
ATOM      1  C   UNL     1      14.951  -5.096  -1.355  1.00  0.00     0.008 C 
ATOM      2  C   UNL     1      13.472  -5.302  -1.696  1.00  0.00    -0.007 C 
ATOM      3  C   UNL     1      12.572  -4.709  -0.591  1.00  0.00     0.004 C 
ATOM      4  C   UNL     1      11.077  -4.889  -0.919  1.00  0.00     0.012 C 
ATOM      5  C   UNL     1      10.707  -4.250  -2.279  1.00  0.00     0.058 C 
ATOM      6  C   UNL     1      11.667  -4.804  -3.319  1.00  0.00     0.136 C 
ATOM      7  O   UNL     1      11.274  -5.413  -4.303  1.00  0.00    -0.299 OA
ATOM      8  C   UNL     1      13.139  -4.675  -3.062  1.00  0.00     0.079 C 
ENDROOT
BRANCH   5   9
ATOM      9  C   UNL     1       9.205  -4.453  -2.668  1.00  0.00    -0.007 C 
ATOM     10  C   UNL     1       8.356  -4.994  -1.504  1.00  0.00     0.008 C 
ATOM     11  C   UNL     1       8.581  -3.131  -3.154  1.00  0.00     0.008 C 
ENDBRANCH   5   9
TORSDOF 1
ENDMDL
MODEL 4
REMARK VINA RESULT:    -3.166      1.536      4.186
REMARK INTER + INTRA:          -3.525
REMARK INTER:                  -3.364
REMARK INTRA:                  -0.161
REMARK UNBOUND:                -0.174
REMARK SMILES CC(C)[C@H]1CC[C@H](C)CC1=O
REMARK SMILES IDX 8 1 7 2 6 3 5 4 4 5 10 6 11 7 9 8 2 9 1 10 3 11
REMARK H PARENT
REMARK Flexibility Score: inf
ROOT
ATOM      1  C   UNL     1       7.200  -5.268  -2.241  1.00  0.00     0.008 C 
ATOM      2  C   UNL     1       8.605  -4.691  -2.042  1.00  0.00    -0.007 C 
ATOM      3  C   UNL     1       9.361  -5.470  -0.945  1.00  0.00     0.004 C 
ATOM      4  C   UNL     1      10.785  -4.921  -0.736  1.00  0.00     0.012 C 
ATOM      5  C   UNL     1      11.610  -4.950  -2.046  1.00  0.00     0.058 C 
ATOM      6  C   UNL     1      10.793  -4.240  -3.114  1.00  0.00     0.136 C 
ATOM      7  O   UNL     1      11.216  -3.258  -3.706  1.00  0.00    -0.299 OA
ATOM      8  C   UNL     1       9.392  -4.715  -3.364  1.00  0.00     0.079 C 
ENDROOT
BRANCH   5   9
ATOM      9  C   UNL     1      13.048  -4.356  -1.884  1.00  0.00    -0.007 C 
ATOM     10  C   UNL     1      13.480  -4.233  -0.412  1.00  0.00     0.008 C 
ATOM     11  C   UNL     1      14.085  -5.218  -2.627  1.00  0.00     0.008 C 
ENDBRANCH   5   9
TORSDOF 1
ENDMDL
MODEL 5
REMARK VINA RESULT:    -3.086      9.667     10.742
REMARK INTER + INTRA:          -3.440
REMARK INTER:                  -3.302
REMARK INTRA:                  -0.139
REMARK UNBOUND:                -0.174
REMARK SMILES CC(C)[C@H]1CC[C@H](C)CC1=O
REMARK SMILES IDX 8 1 7 2 6 3 5 4 4 5 10 6 11 7 9 8 2 9 1 10 3 11
REMARK H PARENT
REMARK Flexibility Score: inf
ROOT
ATOM      1  C   UNL     1       6.301  -5.074   3.671  1.00  0.00     0.008 C 
ATOM      2  C   UNL     1       6.316  -3.787   4.502  1.00  0.00    -0.007 C 
ATOM      3  C   UNL     1       6.240  -2.547   3.585  1.00  0.00     0.004 C 
ATOM      4  C   UNL     1       6.236  -1.239   4.398  1.00  0.00     0.012 C 
ATOM      5  C   UNL     1       5.069  -1.198   5.415  1.00  0.00     0.058 C 
ATOM      6  C   UNL     1       5.139  -2.471   6.241  1.00  0.00     0.136 C 
ATOM      7  O   UNL     1       5.261  -2.448   7.457  1.00  0.00    -0.299 OA
ATOM      8  C   UNL     1       5.158  -3.785   5.516  1.00  0.00     0.079 C 
ENDROOT
BRANCH   5   9
ATOM      9  C   UNL     1       5.059   0.098   6.292  1.00  0.00    -0.007 C 
ATOM     10  C   UNL     1       6.474   0.617   6.603  1.00  0.00     0.008 C 
ATOM     11  C   UNL     1       4.268   1.223   5.600  1.00  0.00     0.008 C 
ENDBRANCH   5   9
TORSDOF 1
ENDMDL
MODEL 6
REMARK VINA RESULT:    -3.019      2.085      4.769
REMARK INTER + INTRA:          -3.370
REMARK INTER:                  -3.198
REMARK INTRA:                  -0.172
REMARK UNBOUND:                -0.174
REMARK SMILES CC(C)[C@H]1CC[C@H](C)CC1=O
REMARK SMILES IDX 8 1 7 2 6 3 5 4 4 5 10 6 11 7 9 8 2 9 1 10 3 11
REMARK H PARENT
REMARK Flexibility Score: inf
ROOT
ATOM      1  C   UNL     1       7.957  -4.978  -6.764  1.00  0.00     0.008 C 
ATOM      2  C   UNL     1       8.278  -4.930  -5.267  1.00  0.00    -0.007 C 
ATOM      3  C   UNL     1       9.515  -5.797  -4.949  1.00  0.00     0.004 C 
ATOM      4  C   UNL     1       9.870  -5.752  -3.450  1.00  0.00     0.012 C 
ATOM      5  C   UNL     1      10.120  -4.304  -2.962  1.00  0.00     0.058 C 
ATOM      6  C   UNL     1       8.912  -3.474  -3.365  1.00  0.00     0.136 C 
ATOM      7  O   UNL     1       8.233  -2.877  -2.543  1.00  0.00    -0.299 OA
ATOM      8  C   UNL     1       8.501  -3.478  -4.808  1.00  0.00     0.079 C 
ENDROOT
BRANCH   5   9
ATOM      9  C   UNL     1      10.438  -4.214  -1.433  1.00  0.00    -0.007 C 
ATOM     10  C   UNL     1       9.852  -5.391  -0.633  1.00  0.00     0.008 C 
ATOM     11  C   UNL     1      11.958  -4.168  -1.191  1.00  0.00     0.008 C 
ENDBRANCH   5   9
TORSDOF 1
ENDMDL
MODEL 7
REMARK VINA RESULT:    -2.921      2.740      4.634
REMARK INTER + INTRA:          -3.266
REMARK INTER:                  -3.094
REMARK INTRA:                  -0.172
REMARK UNBOUND:                -0.174
REMARK SMILES CC(C)[C@H]1CC[C@H](C)CC1=O
REMARK SMILES IDX 8 1 7 2 6 3 5 4 4 5 10 6 11 7 9 8 2 9 1 10 3 11
REMARK H PARENT
REMARK Flexibility Score: inf
ROOT
ATOM      1  C   UNL     1       5.798  -5.810  -0.156  1.00  0.00     0.008 C 
ATOM      2  C   UNL     1       7.119  -5.120  -0.510  1.00  0.00    -0.007 C 
ATOM      3  C   UNL     1       8.312  -6.065  -0.250  1.00  0.00     0.004 C 
ATOM      4  C   UNL     1       9.653  -5.401  -0.615  1.00  0.00     0.012 C 
ATOM      5  C   UNL     1       9.680  -4.935  -2.091  1.00  0.00     0.058 C 
ATOM      6  C   UNL     1       8.449  -4.073  -2.319  1.00  0.00     0.136 C 
ATOM      7  O   UNL     1       8.532  -2.913  -2.693  1.00  0.00    -0.299 OA
ATOM      8  C   UNL     1       7.108  -4.651  -1.976  1.00  0.00     0.079 C 
ENDROOT
BRANCH   5   9
ATOM      9  C   UNL     1      11.011  -4.213  -2.486  1.00  0.00    -0.007 C 
ATOM     10  C   UNL     1      11.940  -3.975  -1.283  1.00  0.00     0.008 C 
ATOM     11  C   UNL     1      11.781  -5.024  -3.545  1.00  0.00     0.008 C 
ENDBRANCH   5   9
TORSDOF 1
ENDMDL
MODEL 8
REMARK VINA RESULT:    -2.919     11.581     13.411
REMARK INTER + INTRA:          -3.264
REMARK INTER:                  -3.091
REMARK INTRA:                  -0.173
REMARK UNBOUND:                -0.174
REMARK SMILES CC(C)[C@H]1CC[C@H](C)CC1=O
REMARK SMILES IDX 8 1 7 2 6 3 5 4 4 5 10 6 11 7 9 8 2 9 1 10 3 11
REMARK H PARENT
REMARK Flexibility Score: inf
ROOT
ATOM      1  C   UNL     1      20.463   3.665   7.572  1.00  0.00     0.008 C 
ATOM      2  C   UNL     1      19.276   2.755   7.238  1.00  0.00    -0.007 C 
ATOM      3  C   UNL     1      19.639   1.276   7.483  1.00  0.00     0.004 C 
ATOM      4  C   UNL     1      18.456   0.341   7.171  1.00  0.00     0.012 C 
ATOM      5  C   UNL     1      17.202   0.705   8.002  1.00  0.00     0.058 C 
ATOM      6  C   UNL     1      16.929   2.185   7.790  1.00  0.00     0.136 C 
ATOM      7  O   UNL     1      15.870   2.588   7.333  1.00  0.00    -0.299 OA
ATOM      8  C   UNL     1      18.040   3.155   8.064  1.00  0.00     0.079 C 
ENDROOT
BRANCH   5   9
ATOM      9  C   UNL     1      15.963  -0.196   7.678  1.00  0.00    -0.007 C 
ATOM     10  C   UNL     1      16.179  -1.080   6.438  1.00  0.00     0.008 C 
ATOM     11  C   UNL     1      15.619  -1.104   8.872  1.00  0.00     0.008 C 
ENDBRANCH   5   9
TORSDOF 1
ENDMDL
MODEL 9
REMARK VINA RESULT:    -2.861     10.803     13.115
REMARK INTER + INTRA:          -3.203
REMARK INTER:                  -3.028
REMARK INTRA:                  -0.175
REMARK UNBOUND:                -0.174
REMARK SMILES CC(C)[C@H]1CC[C@H](C)CC1=O
REMARK SMILES IDX 8 1 7 2 6 3 5 4 4 5 10 6 11 7 9 8 2 9 1 10 3 11
REMARK H PARENT
REMARK Flexibility Score: inf
ROOT
ATOM      1  C   UNL     1       6.101   9.230  -6.129  1.00  0.00     0.008 C 
ATOM      2  C   UNL     1       7.089   8.073  -6.312  1.00  0.00    -0.007 C 
ATOM      3  C   UNL     1       6.350   6.794  -6.758  1.00  0.00     0.004 C 
ATOM      4  C   UNL     1       7.324   5.619  -6.966  1.00  0.00     0.012 C 
ATOM      5  C   UNL     1       8.425   5.962  -8.000  1.00  0.00     0.058 C 
ATOM      6  C   UNL     1       9.071   7.266  -7.561  1.00  0.00     0.136 C 
ATOM      7  O   UNL     1      10.266   7.347  -7.320  1.00  0.00    -0.299 OA
ATOM      8  C   UNL     1       8.182   8.452  -7.328  1.00  0.00     0.079 C 
ENDROOT
BRANCH   5   9
ATOM      9  C   UNL     1       9.462   4.807  -8.204  1.00  0.00    -0.007 C 
ATOM     10  C   UNL     1       9.514   3.836  -7.011  1.00  0.00     0.008 C 
ATOM     11  C   UNL     1       9.142   4.001  -9.476  1.00  0.00     0.008 C 
ENDBRANCH   5   9
TORSDOF 1
ENDMDL
