MODEL 1
REMARK VINA RESULT:    -5.522      0.000      0.000
REMARK INTER + INTRA:          -6.593
REMARK INTER:                  -6.329
REMARK INTRA:                  -0.264
REMARK UNBOUND:                -0.264
REMARK SMILES O=C([O-])C=Cc1ccc(O)cc1
REMARK SMILES IDX 6 1 7 2 12 3 8 4 11 5 9 6 5 7 4 8 2 9 1 10 3 11 10 12
REMARK H PARENT 10 13
REMARK Flexibility Score: inf
ROOT
ATOM      1  C   UNL     1      64.159  21.069  70.012  1.00  0.00    -0.025 A 
ATOM      2  C   UNL     1      64.883  21.425  68.864  1.00  0.00     0.012 A 
ATOM      3  C   UNL     1      64.294  21.843  71.178  1.00  0.00     0.012 A 
ATOM      4  C   UNL     1      65.687  22.568  68.863  1.00  0.00     0.047 A 
ATOM      5  C   UNL     1      65.100  22.987  71.175  1.00  0.00     0.047 A 
ATOM      6  C   UNL     1      65.795  23.354  70.019  1.00  0.00     0.115 A 
ENDROOT
BRANCH   1   7
ATOM      7  C   UNL     1      63.358  19.827  70.006  1.00  0.00     0.010 C 
ATOM      8  C   UNL     1      62.071  19.736  69.636  1.00  0.00     0.025 C 
BRANCH   8   9
ATOM      9  C   UNL     1      61.287  20.807  68.994  1.00  0.00     0.064 C 
ATOM     10  O   UNL     1      61.106  20.774  67.748  1.00  0.00    -0.545 OA
ATOM     11  O   UNL     1      60.806  21.890  69.719  1.00  0.00    -0.545 OA
ENDBRANCH   8   9
ENDBRANCH   1   7
BRANCH   6  12
ATOM     12  O   UNL     1      66.593  24.496  70.029  1.00  0.00    -0.508 OA
ATOM     13  H   UNL     1      66.233  25.390  70.346  1.00  0.00     0.293 HD
ENDBRANCH   6  12
TORSDOF 3
ENDMDL
MODEL 2
REMARK VINA RESULT:    -5.466      2.207      2.911
REMARK INTER + INTRA:          -6.529
REMARK INTER:                  -6.264
REMARK INTRA:                  -0.265
REMARK UNBOUND:                -0.264
REMARK SMILES O=C([O-])C=Cc1ccc(O)cc1
REMARK SMILES IDX 6 1 7 2 12 3 8 4 11 5 9 6 5 7 4 8 2 9 1 10 3 11 10 12
REMARK H PARENT 10 13
REMARK Flexibility Score: inf
ROOT
ATOM      1  C   UNL     1      63.822  21.436  70.047  1.00  0.00    -0.025 A 
ATOM      2  C   UNL     1      64.278  22.184  71.143  1.00  0.00     0.012 A 
ATOM      3  C   UNL     1      64.527  21.496  68.832  1.00  0.00     0.012 A 
ATOM      4  C   UNL     1      65.451  22.938  71.043  1.00  0.00     0.047 A 
ATOM      5  C   UNL     1      65.701  22.251  68.734  1.00  0.00     0.047 A 
ATOM      6  C   UNL     1      66.168  22.971  69.838  1.00  0.00     0.115 A 
ENDROOT
BRANCH   1   7
ATOM      7  C   UNL     1      62.552  20.690  70.159  1.00  0.00     0.010 C 
ATOM      8  C   UNL     1      62.442  19.378  70.418  1.00  0.00     0.025 C 
BRANCH   8   9
ATOM      9  C   UNL     1      63.549  18.491  70.824  1.00  0.00     0.064 C 
ATOM     10  O   UNL     1      63.660  18.160  72.034  1.00  0.00    -0.545 OA
ATOM     11  O   UNL     1      64.513  18.070  69.916  1.00  0.00    -0.545 OA
ENDBRANCH   8   9
ENDBRANCH   1   7
BRANCH   6  12
ATOM     12  O   UNL     1      67.338  23.717  69.728  1.00  0.00    -0.508 OA
ATOM     13  H   UNL     1      67.321  24.689  69.440  1.00  0.00     0.293 HD
ENDBRANCH   6  12
TORSDOF 3
ENDMDL
MODEL 3
REMARK VINA RESULT:    -5.443      1.566      4.807
REMARK INTER + INTRA:          -6.502
REMARK INTER:                  -6.231
REMARK INTRA:                  -0.271
REMARK UNBOUND:                -0.264
REMARK SMILES O=C([O-])C=Cc1ccc(O)cc1
REMARK SMILES IDX 6 1 7 2 12 3 8 4 11 5 9 6 5 7 4 8 2 9 1 10 3 11 10 12
REMARK H PARENT 10 13
REMARK Flexibility Score: inf
ROOT
ATOM      1  C   UNL     1      63.282  21.040  70.065  1.00  0.00    -0.025 A 
ATOM      2  C   UNL     1      61.969  21.480  69.839  1.00  0.00     0.012 A 
ATOM      3  C   UNL     1      63.762  19.919  69.364  1.00  0.00     0.012 A 
ATOM      4  C   UNL     1      61.166  20.844  68.888  1.00  0.00     0.047 A 
ATOM      5  C   UNL     1      62.956  19.284  68.412  1.00  0.00     0.047 A 
ATOM      6  C   UNL     1      61.659  19.746  68.169  1.00  0.00     0.115 A 
ENDROOT
BRANCH   1   7
ATOM      7  C   UNL     1      64.094  21.692  71.112  1.00  0.00     0.010 C 
ATOM      8  C   UNL     1      65.092  22.562  70.892  1.00  0.00     0.025 C 
BRANCH   8   9
ATOM      9  C   UNL     1      65.429  23.165  69.588  1.00  0.00     0.064 C 
ATOM     10  O   UNL     1      64.970  24.301  69.299  1.00  0.00    -0.545 OA
ATOM     11  O   UNL     1      66.180  22.478  68.642  1.00  0.00    -0.545 OA
ENDBRANCH   8   9
ENDBRANCH   1   7
BRANCH   6  12
ATOM     12  O   UNL     1      60.868  19.106  67.218  1.00  0.00    -0.508 OA
ATOM     13  H   UNL     1      61.274  18.506  66.509  1.00  0.00     0.293 HD
ENDBRANCH   6  12
TORSDOF 3
ENDMDL
MODEL 4
REMARK VINA RESULT:    -5.370      1.578      4.812
REMARK INTER + INTRA:          -6.419
REMARK INTER:                  -6.128
REMARK INTRA:                  -0.291
REMARK UNBOUND:                -0.264
REMARK SMILES O=C([O-])C=Cc1ccc(O)cc1
REMARK SMILES IDX 6 1 7 2 12 3 8 4 11 5 9 6 5 7 4 8 2 9 1 10 3 11 10 12
REMARK H PARENT 10 13
REMARK Flexibility Score: inf
ROOT
ATOM      1  C   UNL     1      62.930  20.753  69.514  1.00  0.00    -0.025 A 
ATOM      2  C   UNL     1      61.916  21.545  70.072  1.00  0.00     0.012 A 
ATOM      3  C   UNL     1      62.665  20.022  68.342  1.00  0.00     0.012 A 
ATOM      4  C   UNL     1      60.673  21.650  69.441  1.00  0.00     0.047 A 
ATOM      5  C   UNL     1      61.420  20.128  67.712  1.00  0.00     0.047 A 
ATOM      6  C   UNL     1      60.423  20.943  68.256  1.00  0.00     0.115 A 
ENDROOT
BRANCH   1   7
ATOM      7  C   UNL     1      64.216  20.616  70.227  1.00  0.00     0.010 C 
ATOM      8  C   UNL     1      65.330  21.316  69.961  1.00  0.00     0.025 C 
BRANCH   8   9
ATOM      9  C   UNL     1      65.415  22.473  69.049  1.00  0.00     0.064 C 
ATOM     10  O   UNL     1      65.978  22.334  67.931  1.00  0.00    -0.545 OA
ATOM     11  O   UNL     1      64.955  23.729  69.424  1.00  0.00    -0.545 OA
ENDBRANCH   8   9
ENDBRANCH   1   7
BRANCH   6  12
ATOM     12  O   UNL     1      59.189  21.041  67.617  1.00  0.00    -0.508 OA
ATOM     13  H   UNL     1      58.548  21.800  67.817  1.00  0.00     0.293 HD
ENDBRANCH   6  12
TORSDOF 3
ENDMDL
MODEL 5
REMARK VINA RESULT:    -5.343      2.538      4.828
REMARK INTER + INTRA:          -6.388
REMARK INTER:                  -6.131
REMARK INTRA:                  -0.257
REMARK UNBOUND:                -0.264
REMARK SMILES O=C([O-])C=Cc1ccc(O)cc1
REMARK SMILES IDX 6 1 7 2 12 3 8 4 11 5 9 6 5 7 4 8 2 9 1 10 3 11 10 12
REMARK H PARENT 10 13
REMARK Flexibility Score: inf
ROOT
ATOM      1  C   UNL     1      63.877  20.457  69.824  1.00  0.00    -0.025 A 
ATOM      2  C   UNL     1      64.306  19.130  69.973  1.00  0.00     0.012 A 
ATOM      3  C   UNL     1      62.793  20.919  70.592  1.00  0.00     0.012 A 
ATOM      4  C   UNL     1      63.698  18.292  70.913  1.00  0.00     0.047 A 
ATOM      5  C   UNL     1      62.186  20.080  71.532  1.00  0.00     0.047 A 
ATOM      6  C   UNL     1      62.638  18.767  71.698  1.00  0.00     0.115 A 
ENDROOT
BRANCH   1   7
ATOM      7  C   UNL     1      64.498  21.306  68.787  1.00  0.00     0.010 C 
ATOM      8  C   UNL     1      65.361  22.308  69.019  1.00  0.00     0.025 C 
BRANCH   8   9
ATOM      9  C   UNL     1      65.987  22.614  70.319  1.00  0.00     0.064 C 
ATOM     10  O   UNL     1      67.138  22.168  70.567  1.00  0.00    -0.545 OA
ATOM     11  O   UNL     1      65.308  23.322  71.303  1.00  0.00    -0.545 OA
ENDBRANCH   8   9
ENDBRANCH   1   7
BRANCH   6  12
ATOM     12  O   UNL     1      62.026  17.942  72.639  1.00  0.00    -0.508 OA
ATOM     13  H   UNL     1      62.461  17.745  73.533  1.00  0.00     0.293 HD
ENDBRANCH   6  12
TORSDOF 3
ENDMDL
MODEL 6
REMARK VINA RESULT:    -5.332      2.674      4.930
REMARK INTER + INTRA:          -6.375
REMARK INTER:                  -6.101
REMARK INTRA:                  -0.274
REMARK UNBOUND:                -0.264
REMARK SMILES O=C([O-])C=Cc1ccc(O)cc1
REMARK SMILES IDX 6 1 7 2 12 3 8 4 11 5 9 6 5 7 4 8 2 9 1 10 3 11 10 12
REMARK H PARENT 10 13
REMARK Flexibility Score: inf
ROOT
ATOM      1  C   UNL     1      63.621  20.028  70.223  1.00  0.00    -0.025 A 
ATOM      2  C   UNL     1      64.315  18.942  69.668  1.00  0.00     0.012 A 
ATOM      3  C   UNL     1      62.963  19.867  71.454  1.00  0.00     0.012 A 
ATOM      4  C   UNL     1      64.396  17.729  70.359  1.00  0.00     0.047 A 
ATOM      5  C   UNL     1      63.045  18.652  72.144  1.00  0.00     0.047 A 
ATOM      6  C   UNL     1      63.763  17.582  71.601  1.00  0.00     0.115 A 
ENDROOT
BRANCH   1   7
ATOM      7  C   UNL     1      63.504  21.282  69.450  1.00  0.00     0.010 C 
ATOM      8  C   UNL     1      64.190  22.410  69.693  1.00  0.00     0.025 C 
BRANCH   8   9
ATOM      9  C   UNL     1      65.313  22.541  70.641  1.00  0.00     0.064 C 
ATOM     10  O   UNL     1      65.099  23.026  71.783  1.00  0.00    -0.545 OA
ATOM     11  O   UNL     1      66.612  22.210  70.279  1.00  0.00    -0.545 OA
ENDBRANCH   8   9
ENDBRANCH   1   7
BRANCH   6  12
ATOM     12  O   UNL     1      63.838  16.379  72.299  1.00  0.00    -0.508 OA
ATOM     13  H   UNL     1      63.003  15.881  72.587  1.00  0.00     0.293 HD
ENDBRANCH   6  12
TORSDOF 3
ENDMDL
MODEL 7
REMARK VINA RESULT:    -5.123      3.168      4.346
REMARK INTER + INTRA:          -6.136
REMARK INTER:                  -5.916
REMARK INTRA:                  -0.220
REMARK UNBOUND:                -0.264
REMARK SMILES O=C([O-])C=Cc1ccc(O)cc1
REMARK SMILES IDX 6 1 7 2 12 3 8 4 11 5 9 6 5 7 4 8 2 9 1 10 3 11 10 12
REMARK H PARENT 10 13
REMARK Flexibility Score: inf
ROOT
ATOM      1  C   UNL     1      62.706  19.819  70.659  1.00  0.00    -0.025 A 
ATOM      2  C   UNL     1      62.359  18.912  71.672  1.00  0.00     0.012 A 
ATOM      3  C   UNL     1      63.802  19.535  69.827  1.00  0.00     0.012 A 
ATOM      4  C   UNL     1      63.062  17.712  71.815  1.00  0.00     0.047 A 
ATOM      5  C   UNL     1      64.505  18.334  69.972  1.00  0.00     0.047 A 
ATOM      6  C   UNL     1      64.136  17.418  70.963  1.00  0.00     0.115 A 
ENDROOT
BRANCH   1   7
ATOM      7  C   UNL     1      61.983  21.104  70.561  1.00  0.00     0.010 C 
ATOM      8  C   UNL     1      61.169  21.462  69.555  1.00  0.00     0.025 C 
BRANCH   8   9
ATOM      9  C   UNL     1      60.703  20.573  68.475  1.00  0.00     0.064 C 
ATOM     10  O   UNL     1      59.618  19.949  68.617  1.00  0.00    -0.545 OA
ATOM     11  O   UNL     1      61.466  20.351  67.335  1.00  0.00    -0.545 OA
ENDBRANCH   8   9
ENDBRANCH   1   7
BRANCH   6  12
ATOM     12  O   UNL     1      64.843  16.226  71.096  1.00  0.00    -0.508 OA
ATOM     13  H   UNL     1      65.105  15.673  70.288  1.00  0.00     0.293 HD
ENDBRANCH   6  12
TORSDOF 3
ENDMDL
MODEL 8
REMARK VINA RESULT:    -5.036      3.307      4.789
REMARK INTER + INTRA:          -6.037
REMARK INTER:                  -5.778
REMARK INTRA:                  -0.259
REMARK UNBOUND:                -0.264
REMARK SMILES O=C([O-])C=Cc1ccc(O)cc1
REMARK SMILES IDX 6 1 7 2 12 3 8 4 11 5 9 6 5 7 4 8 2 9 1 10 3 11 10 12
REMARK H PARENT 10 13
REMARK Flexibility Score: inf
ROOT
ATOM      1  C   UNL     1      62.869  19.783  69.173  1.00  0.00    -0.025 A 
ATOM      2  C   UNL     1      62.415  20.902  69.888  1.00  0.00     0.012 A 
ATOM      3  C   UNL     1      62.081  19.268  68.130  1.00  0.00     0.012 A 
ATOM      4  C   UNL     1      61.218  21.530  69.531  1.00  0.00     0.047 A 
ATOM      5  C   UNL     1      60.883  19.897  67.774  1.00  0.00     0.047 A 
ATOM      6  C   UNL     1      60.450  21.030  68.470  1.00  0.00     0.115 A 
ENDROOT
BRANCH   1   7
ATOM      7  C   UNL     1      64.109  19.105  69.602  1.00  0.00     0.010 C 
ATOM      8  C   UNL     1      64.221  18.288  70.662  1.00  0.00     0.025 C 
BRANCH   8   9
ATOM      9  C   UNL     1      63.097  17.773  71.466  1.00  0.00     0.064 C 
ATOM     10  O   UNL     1      62.572  16.671  71.154  1.00  0.00    -0.545 OA
ATOM     11  O   UNL     1      62.557  18.507  72.515  1.00  0.00    -0.545 OA
ENDBRANCH   8   9
ENDBRANCH   1   7
BRANCH   6  12
ATOM     12  O   UNL     1      59.256  21.648  68.104  1.00  0.00    -0.508 OA
ATOM     13  H   UNL     1      59.248  22.538  67.619  1.00  0.00     0.293 HD
ENDBRANCH   6  12
TORSDOF 3
ENDMDL
MODEL 9
REMARK VINA RESULT:    -4.876      2.631      5.573
REMARK INTER + INTRA:          -5.852
REMARK INTER:                  -5.619
REMARK INTRA:                  -0.234
REMARK UNBOUND:                -0.264
REMARK SMILES O=C([O-])C=Cc1ccc(O)cc1
REMARK SMILES IDX 6 1 7 2 12 3 8 4 11 5 9 6 5 7 4 8 2 9 1 10 3 11 10 12
REMARK H PARENT 10 13
REMARK Flexibility Score: inf
ROOT
ATOM      1  C   UNL     1      61.921  19.273  68.618  1.00  0.00    -0.025 A 
ATOM      2  C   UNL     1      61.164  18.130  68.918  1.00  0.00     0.012 A 
ATOM      3  C   UNL     1      61.268  20.430  68.160  1.00  0.00     0.012 A 
ATOM      4  C   UNL     1      59.770  18.160  68.813  1.00  0.00     0.047 A 
ATOM      5  C   UNL     1      59.873  20.458  68.055  1.00  0.00     0.047 A 
ATOM      6  C   UNL     1      59.121  19.326  68.384  1.00  0.00     0.115 A 
ENDROOT
BRANCH   1   7
ATOM      7  C   UNL     1      63.395  19.201  68.685  1.00  0.00     0.010 C 
ATOM      8  C   UNL     1      64.161  19.805  69.607  1.00  0.00     0.025 C 
BRANCH   8   9
ATOM      9  C   UNL     1      63.665  20.483  70.820  1.00  0.00     0.064 C 
ATOM     10  O   UNL     1      63.834  21.725  70.943  1.00  0.00    -0.545 OA
ATOM     11  O   UNL     1      63.080  19.773  71.861  1.00  0.00    -0.545 OA
ENDBRANCH   8   9
ENDBRANCH   1   7
BRANCH   6  12
ATOM     12  O   UNL     1      57.733  19.368  68.277  1.00  0.00    -0.508 OA
ATOM     13  H   UNL     1      57.150  19.655  69.055  1.00  0.00     0.293 HD
ENDBRANCH   6  12
TORSDOF 3
ENDMDL
