MODEL 1
REMARK VINA RESULT:    -3.462      0.000      0.000
REMARK INTER + INTRA:          -5.032
REMARK INTER:                  -4.474
REMARK INTRA:                  -0.557
REMARK UNBOUND:                -0.557
REMARK SMILES C=CC(=O)CCCCC
REMARK SMILES IDX 6 1 7 2 8 3 9 4 5 5 3 6 4 7 2 8 1 9
REMARK H PARENT
REMARK Flexibility Score: inf
ROOT
ATOM      1  C   UNL     1      27.280  11.451  23.944  1.00  0.00     0.008 C 
ENDROOT
BRANCH   1   2
ATOM      2  C   UNL     1      27.865  11.171  25.339  1.00  0.00     0.000 C 
BRANCH   2   3
ATOM      3  C   UNL     1      28.276  12.456  26.074  1.00  0.00    -0.003 C 
ATOM      4  C   UNL     1      29.718  12.871  25.782  1.00  0.00     0.004 C 
ENDBRANCH   2   3
ENDBRANCH   1   2
BRANCH   1   5
ATOM      5  C   UNL     1      28.203  10.959  22.818  1.00  0.00     0.080 C 
BRANCH   5   6
ATOM      6  C   UNL     1      28.828  12.100  22.056  1.00  0.00     0.155 C 
ATOM      7  O   UNL     1      29.731  11.840  21.217  1.00  0.00    -0.295 OA
BRANCH   6   8
ATOM      8  C   UNL     1      28.450  13.516  22.262  1.00  0.00     0.039 C 
ATOM      9  C   UNL     1      29.327  14.510  22.396  1.00  0.00     0.012 C 
ENDBRANCH   6   8
ENDBRANCH   5   6
ENDBRANCH   1   5
TORSDOF 5
ENDMDL
MODEL 2
REMARK VINA RESULT:    -3.404      2.230      4.261
REMARK INTER + INTRA:          -4.957
REMARK INTER:                  -4.863
REMARK INTRA:                  -0.093
REMARK UNBOUND:                -0.557
REMARK SMILES C=CC(=O)CCCCC
REMARK SMILES IDX 6 1 7 2 8 3 9 4 5 5 3 6 4 7 2 8 1 9
REMARK H PARENT
REMARK Flexibility Score: inf
ROOT
ATOM      1  C   UNL     1      27.858  12.487  22.838  1.00  0.00     0.008 C 
ENDROOT
BRANCH   1   2
ATOM      2  C   UNL     1      28.865  13.257  21.965  1.00  0.00     0.000 C 
BRANCH   2   3
ATOM      3  C   UNL     1      29.667  14.293  22.767  1.00  0.00    -0.003 C 
ATOM      4  C   UNL     1      29.699  15.666  22.095  1.00  0.00     0.004 C 
ENDBRANCH   2   3
ENDBRANCH   1   2
BRANCH   1   5
ATOM      5  C   UNL     1      28.120  10.973  22.827  1.00  0.00     0.080 C 
BRANCH   5   6
ATOM      6  C   UNL     1      27.924  10.352  24.187  1.00  0.00     0.155 C 
ATOM      7  O   UNL     1      27.855  11.109  25.190  1.00  0.00    -0.295 OA
BRANCH   6   8
ATOM      8  C   UNL     1      27.830   8.891  24.404  1.00  0.00     0.039 C 
ATOM      9  C   UNL     1      27.373   8.332  25.524  1.00  0.00     0.012 C 
ENDBRANCH   6   8
ENDBRANCH   5   6
ENDBRANCH   1   5
TORSDOF 5
ENDMDL
MODEL 3
REMARK VINA RESULT:    -3.395      1.939      3.639
REMARK INTER + INTRA:          -4.945
REMARK INTER:                  -4.331
REMARK INTRA:                  -0.613
REMARK UNBOUND:                -0.557
REMARK SMILES C=CC(=O)CCCCC
REMARK SMILES IDX 6 1 7 2 8 3 9 4 5 5 3 6 4 7 2 8 1 9
REMARK H PARENT
REMARK Flexibility Score: inf
ROOT
ATOM      1  C   UNL     1      27.702  11.851  22.752  1.00  0.00     0.008 C 
ENDROOT
BRANCH   1   2
ATOM      2  C   UNL     1      29.146  11.668  22.256  1.00  0.00     0.000 C 
BRANCH   2   3
ATOM      3  C   UNL     1      29.861  13.006  22.015  1.00  0.00    -0.003 C 
ATOM      4  C   UNL     1      29.011  14.212  22.413  1.00  0.00     0.004 C 
ENDBRANCH   2   3
ENDBRANCH   1   2
BRANCH   1   5
ATOM      5  C   UNL     1      27.476  11.207  24.130  1.00  0.00     0.080 C 
BRANCH   5   6
ATOM      6  C   UNL     1      27.658  12.193  25.256  1.00  0.00     0.155 C 
ATOM      7  O   UNL     1      26.731  13.011  25.494  1.00  0.00    -0.295 OA
BRANCH   6   8
ATOM      8  C   UNL     1      28.883  12.262  26.082  1.00  0.00     0.039 C 
ATOM      9  C   UNL     1      29.929  13.038  25.802  1.00  0.00     0.012 C 
ENDBRANCH   6   8
ENDBRANCH   5   6
ENDBRANCH   1   5
TORSDOF 5
ENDMDL
MODEL 4
REMARK VINA RESULT:    -3.378      1.899      2.635
REMARK INTER + INTRA:          -4.922
REMARK INTER:                  -4.816
REMARK INTRA:                  -0.107
REMARK UNBOUND:                -0.557
REMARK SMILES C=CC(=O)CCCCC
REMARK SMILES IDX 6 1 7 2 8 3 9 4 5 5 3 6 4 7 2 8 1 9
REMARK H PARENT
REMARK Flexibility Score: inf
ROOT
ATOM      1  C   UNL     1      28.159  10.898  23.033  1.00  0.00     0.008 C 
ENDROOT
BRANCH   1   2
ATOM      2  C   UNL     1      28.278  10.273  24.433  1.00  0.00     0.000 C 
BRANCH   2   3
ATOM      3  C   UNL     1      27.834   8.802  24.461  1.00  0.00    -0.003 C 
ATOM      4  C   UNL     1      27.442   8.328  25.860  1.00  0.00     0.004 C 
ENDBRANCH   2   3
ENDBRANCH   1   2
BRANCH   1   5
ATOM      5  C   UNL     1      29.369  11.781  22.687  1.00  0.00     0.080 C 
BRANCH   5   6
ATOM      6  C   UNL     1      28.994  13.235  22.559  1.00  0.00     0.155 C 
ATOM      7  O   UNL     1      27.782  13.557  22.675  1.00  0.00    -0.295 OA
BRANCH   6   8
ATOM      8  C   UNL     1      29.978  14.304  22.280  1.00  0.00     0.039 C 
ATOM      9  C   UNL     1      29.657  15.584  22.092  1.00  0.00     0.012 C 
ENDBRANCH   6   8
ENDBRANCH   5   6
ENDBRANCH   1   5
TORSDOF 5
ENDMDL
MODEL 5
REMARK VINA RESULT:    -3.359      1.999      4.238
REMARK INTER + INTRA:          -4.898
REMARK INTER:                  -4.556
REMARK INTRA:                  -0.342
REMARK UNBOUND:                -0.557
REMARK SMILES C=CC(=O)CCCCC
REMARK SMILES IDX 6 1 7 2 8 3 9 4 5 5 3 6 4 7 2 8 1 9
REMARK H PARENT
REMARK Flexibility Score: inf
ROOT
ATOM      1  C   UNL     1      27.499  11.651  22.738  1.00  0.00     0.008 C 
ENDROOT
BRANCH   1   2
ATOM      2  C   UNL     1      28.096  13.026  22.392  1.00  0.00     0.000 C 
BRANCH   2   3
ATOM      3  C   UNL     1      29.590  12.947  22.041  1.00  0.00    -0.003 C 
ATOM      4  C   UNL     1      29.938  11.715  21.206  1.00  0.00     0.004 C 
ENDBRANCH   2   3
ENDBRANCH   1   2
BRANCH   1   5
ATOM      5  C   UNL     1      27.588  11.341  24.240  1.00  0.00     0.080 C 
BRANCH   5   6
ATOM      6  C   UNL     1      28.520  10.192  24.530  1.00  0.00     0.155 C 
ATOM      7  O   UNL     1      29.744  10.438  24.695  1.00  0.00    -0.295 OA
BRANCH   6   8
ATOM      8  C   UNL     1      28.072   8.784  24.608  1.00  0.00     0.039 C 
ATOM      9  C   UNL     1      27.305   8.299  25.583  1.00  0.00     0.012 C 
ENDBRANCH   6   8
ENDBRANCH   5   6
ENDBRANCH   1   5
TORSDOF 5
ENDMDL
MODEL 6
REMARK VINA RESULT:    -3.319      1.699      3.604
REMARK INTER + INTRA:          -4.846
REMARK INTER:                  -4.451
REMARK INTRA:                  -0.395
REMARK UNBOUND:                -0.557
REMARK SMILES C=CC(=O)CCCCC
REMARK SMILES IDX 6 1 7 2 8 3 9 4 5 5 3 6 4 7 2 8 1 9
REMARK H PARENT
REMARK Flexibility Score: inf
ROOT
ATOM      1  C   UNL     1      28.019  12.768  22.353  1.00  0.00     0.008 C 
ENDROOT
BRANCH   1   2
ATOM      2  C   UNL     1      29.475  13.166  22.057  1.00  0.00     0.000 C 
BRANCH   2   3
ATOM      3  C   UNL     1      29.924  14.397  22.858  1.00  0.00    -0.003 C 
ATOM      4  C   UNL     1      29.712  15.707  22.101  1.00  0.00     0.004 C 
ENDBRANCH   2   3
ENDBRANCH   1   2
BRANCH   1   5
ATOM      5  C   UNL     1      27.889  11.286  22.740  1.00  0.00     0.080 C 
BRANCH   5   6
ATOM      6  C   UNL     1      27.734  11.098  24.228  1.00  0.00     0.155 C 
ATOM      7  O   UNL     1      27.708   9.925  24.686  1.00  0.00    -0.295 OA
BRANCH   6   8
ATOM      8  C   UNL     1      27.587  12.224  25.176  1.00  0.00     0.039 C 
ATOM      9  C   UNL     1      28.480  12.528  26.117  1.00  0.00     0.012 C 
ENDBRANCH   6   8
ENDBRANCH   5   6
ENDBRANCH   1   5
TORSDOF 5
ENDMDL
MODEL 7
REMARK VINA RESULT:    -3.304      1.615      3.494
REMARK INTER + INTRA:          -4.827
REMARK INTER:                  -4.246
REMARK INTRA:                  -0.581
REMARK UNBOUND:                -0.557
REMARK SMILES C=CC(=O)CCCCC
REMARK SMILES IDX 6 1 7 2 8 3 9 4 5 5 3 6 4 7 2 8 1 9
REMARK H PARENT
REMARK Flexibility Score: inf
ROOT
ATOM      1  C   UNL     1      28.159  10.920  22.782  1.00  0.00     0.008 C 
ENDROOT
BRANCH   1   2
ATOM      2  C   UNL     1      29.152  11.985  22.286  1.00  0.00     0.000 C 
BRANCH   2   3
ATOM      3  C   UNL     1      28.483  13.344  22.037  1.00  0.00    -0.003 C 
ATOM      4  C   UNL     1      29.396  14.525  22.368  1.00  0.00     0.004 C 
ENDBRANCH   2   3
ENDBRANCH   1   2
BRANCH   1   5
ATOM      5  C   UNL     1      27.570  11.272  24.158  1.00  0.00     0.080 C 
BRANCH   5   6
ATOM      6  C   UNL     1      28.614  11.255  25.245  1.00  0.00     0.155 C 
ATOM      7  O   UNL     1      29.171  10.161  25.527  1.00  0.00    -0.295 OA
BRANCH   6   8
ATOM      8  C   UNL     1      29.003  12.457  26.015  1.00  0.00     0.039 C 
ATOM      9  C   UNL     1      30.096  13.178  25.771  1.00  0.00     0.012 C 
ENDBRANCH   6   8
ENDBRANCH   5   6
ENDBRANCH   1   5
TORSDOF 5
ENDMDL
MODEL 8
REMARK VINA RESULT:    -3.266      1.774      2.748
REMARK INTER + INTRA:          -4.778
REMARK INTER:                  -4.387
REMARK INTRA:                  -0.392
REMARK UNBOUND:                -0.557
REMARK SMILES C=CC(=O)CCCCC
REMARK SMILES IDX 6 1 7 2 8 3 9 4 5 5 3 6 4 7 2 8 1 9
REMARK H PARENT
REMARK Flexibility Score: inf
ROOT
ATOM      1  C   UNL     1      28.634  12.372  24.948  1.00  0.00     0.008 C 
ENDROOT
BRANCH   1   2
ATOM      2  C   UNL     1      27.988  11.025  25.314  1.00  0.00     0.000 C 
BRANCH   2   3
ATOM      3  C   UNL     1      28.101   9.991  24.183  1.00  0.00    -0.003 C 
ATOM      4  C   UNL     1      27.580   8.612  24.586  1.00  0.00     0.004 C 
ENDBRANCH   2   3
ENDBRANCH   1   2
BRANCH   1   5
ATOM      5  C   UNL     1      28.013  12.990  23.685  1.00  0.00     0.080 C 
BRANCH   5   6
ATOM      6  C   UNL     1      29.059  13.480  22.717  1.00  0.00     0.155 C 
ATOM      7  O   UNL     1      29.019  14.682  22.345  1.00  0.00    -0.295 OA
BRANCH   6   8
ATOM      8  C   UNL     1      30.120  12.610  22.162  1.00  0.00     0.039 C 
ATOM      9  C   UNL     1      29.915  11.693  21.217  1.00  0.00     0.012 C 
ENDBRANCH   6   8
ENDBRANCH   5   6
ENDBRANCH   1   5
TORSDOF 5
ENDMDL
MODEL 9
REMARK VINA RESULT:    -3.217      2.349      3.383
REMARK INTER + INTRA:          -4.715
REMARK INTER:                  -4.170
REMARK INTRA:                  -0.545
REMARK UNBOUND:                -0.557
REMARK SMILES C=CC(=O)CCCCC
REMARK SMILES IDX 6 1 7 2 8 3 9 4 5 5 3 6 4 7 2 8 1 9
REMARK H PARENT
REMARK Flexibility Score: inf
ROOT
ATOM      1  C   UNL     1      28.724  10.829  26.094  1.00  0.00     0.008 C 
ENDROOT
BRANCH   1   2
ATOM      2  C   UNL     1      29.730   9.725  25.725  1.00  0.00     0.000 C 
BRANCH   2   3
ATOM      3  C   UNL     1      29.045   8.393  25.383  1.00  0.00    -0.003 C 
ATOM      4  C   UNL     1      27.719   8.581  24.647  1.00  0.00     0.004 C 
ENDBRANCH   2   3
ENDBRANCH   1   2
BRANCH   1   5
ATOM      5  C   UNL     1      28.952  12.115  25.284  1.00  0.00     0.080 C 
BRANCH   5   6
ATOM      6  C   UNL     1      27.825  12.388  24.320  1.00  0.00     0.155 C 
ATOM      7  O   UNL     1      26.825  13.033  24.730  1.00  0.00    -0.295 OA
BRANCH   6   8
ATOM      8  C   UNL     1      27.827  11.915  22.918  1.00  0.00     0.039 C 
ATOM      9  C   UNL     1      28.918  11.515  22.267  1.00  0.00     0.012 C 
ENDBRANCH   6   8
ENDBRANCH   5   6
ENDBRANCH   1   5
TORSDOF 5
ENDMDL
