MODEL 1
REMARK VINA RESULT:    -4.898      0.000      0.000
REMARK INTER + INTRA:          -5.184
REMARK INTER:                  -5.184
REMARK INTRA:                   0.000
REMARK UNBOUND:                 0.000
REMARK SMILES O=c1ccc2cc(O)c(O)cc2o1
REMARK SMILES IDX 4 1 3 2 2 3 1 4 13 5 12 6 11 7 9 8 7 9 6 10 5 11 8 12 10 14
REMARK H PARENT 8 13 10 15
REMARK Flexibility Score: inf
ROOT
ATOM      1  C   UNL     1      -0.015   7.439   3.861  1.00  0.00     0.019 A 
ATOM      2  C   UNL     1       0.285   7.875   5.150  1.00  0.00     0.094 A 
ATOM      3  C   UNL     1       1.627   8.005   5.528  1.00  0.00     0.336 A 
ATOM      4  O   UNL     1       1.918   8.397   6.688  1.00  0.00    -0.246 OA
ATOM      5  O   UNL     1       2.600   7.716   4.666  1.00  0.00    -0.423 OA
ATOM      6  C   UNL     1       2.357   7.298   3.427  1.00  0.00     0.142 A 
ATOM      7  C   UNL     1       3.419   7.011   2.565  1.00  0.00     0.098 A 
ATOM      8  C   UNL     1       3.173   6.570   1.260  1.00  0.00     0.161 A 
ATOM      9  C   UNL     1       1.849   6.415   0.808  1.00  0.00     0.158 A 
ATOM     10  C   UNL     1       0.779   6.703   1.670  1.00  0.00     0.062 A 
ATOM     11  C   UNL     1       1.028   7.144   2.976  1.00  0.00     0.022 A 
ENDROOT
BRANCH   9  12
ATOM     12  O   UNL     1       1.602   5.976  -0.491  1.00  0.00    -0.504 OA
ATOM     13  H   UNL     1       1.870   5.048  -0.798  1.00  0.00     0.293 HD
ENDBRANCH   9  12
BRANCH   8  14
ATOM     14  O   UNL     1       4.254   6.291   0.424  1.00  0.00    -0.504 OA
ATOM     15  H   UNL     1       4.324   5.424  -0.094  1.00  0.00     0.293 HD
ENDBRANCH   8  14
TORSDOF 2
ENDMDL
MODEL 2
REMARK VINA RESULT:    -4.419      1.066      2.247
REMARK INTER + INTRA:          -4.678
REMARK INTER:                  -4.678
REMARK INTRA:                   0.000
REMARK UNBOUND:                 0.000
REMARK SMILES O=c1ccc2cc(O)c(O)cc2o1
REMARK SMILES IDX 4 1 3 2 2 3 1 4 13 5 12 6 11 7 9 8 7 9 6 10 5 11 8 12 10 14
REMARK H PARENT 8 13 10 15
REMARK Flexibility Score: inf
ROOT
ATOM      1  C   UNL     1       2.951   7.864   4.736  1.00  0.00     0.019 A 
ATOM      2  C   UNL     1       1.892   8.153   5.595  1.00  0.00     0.094 A 
ATOM      3  C   UNL     1       0.580   7.971   5.141  1.00  0.00     0.336 A 
ATOM      4  O   UNL     1      -0.389   8.227   5.902  1.00  0.00    -0.246 OA
ATOM      5  O   UNL     1       0.351   7.530   3.906  1.00  0.00    -0.423 OA
ATOM      6  C   UNL     1       1.333   7.243   3.055  1.00  0.00     0.142 A 
ATOM      7  C   UNL     1       1.032   6.782   1.770  1.00  0.00     0.098 A 
ATOM      8  C   UNL     1       2.058   6.477   0.868  1.00  0.00     0.161 A 
ATOM      9  C   UNL     1       3.402   6.635   1.254  1.00  0.00     0.158 A 
ATOM     10  C   UNL     1       3.709   7.097   2.543  1.00  0.00     0.062 A 
ATOM     11  C   UNL     1       2.681   7.401   3.445  1.00  0.00     0.022 A 
ENDROOT
BRANCH   9  12
ATOM     12  O   UNL     1       4.425   6.332   0.358  1.00  0.00    -0.504 OA
ATOM     13  H   UNL     1       4.462   5.442  -0.125  1.00  0.00     0.293 HD
ENDBRANCH   9  12
BRANCH   8  14
ATOM     14  O   UNL     1       1.725   6.020  -0.407  1.00  0.00    -0.504 OA
ATOM     15  H   UNL     1       0.767   5.980  -0.731  1.00  0.00     0.293 HD
ENDBRANCH   8  14
TORSDOF 2
ENDMDL
MODEL 3
REMARK VINA RESULT:    -4.395      1.835      4.395
REMARK INTER + INTRA:          -4.651
REMARK INTER:                  -4.651
REMARK INTRA:                   0.000
REMARK UNBOUND:                 0.000
REMARK SMILES O=c1ccc2cc(O)c(O)cc2o1
REMARK SMILES IDX 4 1 3 2 2 3 1 4 13 5 12 6 11 7 9 8 7 9 6 10 5 11 8 12 10 14
REMARK H PARENT 8 13 10 15
REMARK Flexibility Score: inf
ROOT
ATOM      1  C   UNL     1       1.149   7.310   2.092  1.00  0.00     0.019 A 
ATOM      2  C   UNL     1       0.678   6.703   0.929  1.00  0.00     0.094 A 
ATOM      3  C   UNL     1       1.562   5.945   0.152  1.00  0.00     0.336 A 
ATOM      4  O   UNL     1       1.155   5.390  -0.901  1.00  0.00    -0.246 OA
ATOM      5  O   UNL     1       2.833   5.808   0.521  1.00  0.00    -0.423 OA
ATOM      6  C   UNL     1       3.324   6.369   1.624  1.00  0.00     0.142 A 
ATOM      7  C   UNL     1       4.668   6.189   1.962  1.00  0.00     0.098 A 
ATOM      8  C   UNL     1       5.192   6.776   3.119  1.00  0.00     0.161 A 
ATOM      9  C   UNL     1       4.363   7.553   3.950  1.00  0.00     0.158 A 
ATOM     10  C   UNL     1       3.012   7.736   3.615  1.00  0.00     0.062 A 
ATOM     11  C   UNL     1       2.490   7.147   2.456  1.00  0.00     0.022 A 
ENDROOT
BRANCH   9  12
ATOM     12  O   UNL     1       4.883   8.138   5.102  1.00  0.00    -0.504 OA
ATOM     13  H   UNL     1       5.834   8.486   5.138  1.00  0.00     0.293 HD
ENDBRANCH   9  12
BRANCH   8  14
ATOM     14  O   UNL     1       6.537   6.579   3.428  1.00  0.00    -0.504 OA
ATOM     15  H   UNL     1       7.124   5.946   2.899  1.00  0.00     0.293 HD
ENDBRANCH   8  14
TORSDOF 2
ENDMDL
MODEL 4
REMARK VINA RESULT:    -4.391      1.176      5.017
REMARK INTER + INTRA:          -4.648
REMARK INTER:                  -4.648
REMARK INTRA:                   0.000
REMARK UNBOUND:                 0.000
REMARK SMILES O=c1ccc2cc(O)c(O)cc2o1
REMARK SMILES IDX 4 1 3 2 2 3 1 4 13 5 12 6 11 7 9 8 7 9 6 10 5 11 8 12 10 14
REMARK H PARENT 8 13 10 15
REMARK Flexibility Score: inf
ROOT
ATOM      1  C   UNL     1       3.526   6.799   1.926  1.00  0.00     0.019 A 
ATOM      2  C   UNL     1       3.093   6.238   0.725  1.00  0.00     0.094 A 
ATOM      3  C   UNL     1       1.722   6.042   0.523  1.00  0.00     0.336 A 
ATOM      4  O   UNL     1       1.312   5.537  -0.554  1.00  0.00    -0.246 OA
ATOM      5  O   UNL     1       0.847   6.386   1.465  1.00  0.00    -0.423 OA
ATOM      6  C   UNL     1       1.217   6.925   2.624  1.00  0.00     0.142 A 
ATOM      7  C   UNL     1       0.253   7.268   3.576  1.00  0.00     0.098 A 
ATOM      8  C   UNL     1       0.634   7.834   4.798  1.00  0.00     0.161 A 
ATOM      9  C   UNL     1       1.996   8.061   5.073  1.00  0.00     0.158 A 
ATOM     10  C   UNL     1       2.968   7.719   4.120  1.00  0.00     0.062 A 
ATOM     11  C   UNL     1       2.584   7.152   2.897  1.00  0.00     0.022 A 
ENDROOT
BRANCH   9  12
ATOM     12  O   UNL     1       2.377   8.625   6.289  1.00  0.00    -0.504 OA
ATOM     13  H   UNL     1       1.929   9.458   6.652  1.00  0.00     0.293 HD
ENDBRANCH   9  12
BRANCH   8  14
ATOM     14  O   UNL     1      -0.352   8.165   5.728  1.00  0.00    -0.504 OA
ATOM     15  H   UNL     1      -1.248   7.695   5.752  1.00  0.00     0.293 HD
ENDBRANCH   8  14
TORSDOF 2
ENDMDL
MODEL 5
REMARK VINA RESULT:    -4.359      1.127      4.507
REMARK INTER + INTRA:          -4.614
REMARK INTER:                  -4.614
REMARK INTRA:                   0.000
REMARK UNBOUND:                 0.000
REMARK SMILES O=c1ccc2cc(O)c(O)cc2o1
REMARK SMILES IDX 4 1 3 2 2 3 1 4 13 5 12 6 11 7 9 8 7 9 6 10 5 11 8 12 10 14
REMARK H PARENT 8 13 10 15
REMARK Flexibility Score: inf
ROOT
ATOM      1  C   UNL     1       1.132   6.303   1.590  1.00  0.00     0.019 A 
ATOM      2  C   UNL     1       2.196   6.044   0.727  1.00  0.00     0.094 A 
ATOM      3  C   UNL     1       3.488   6.424   1.109  1.00  0.00     0.336 A 
ATOM      4  O   UNL     1       4.461   6.198   0.344  1.00  0.00    -0.246 OA
ATOM      5  O   UNL     1       3.695   7.024   2.280  1.00  0.00    -0.423 OA
ATOM      6  C   UNL     1       2.708   7.289   3.133  1.00  0.00     0.142 A 
ATOM      7  C   UNL     1       2.986   7.920   4.348  1.00  0.00     0.098 A 
ATOM      8  C   UNL     1       1.954   8.203   5.251  1.00  0.00     0.161 A 
ATOM      9  C   UNL     1       0.628   7.851   4.935  1.00  0.00     0.158 A 
ATOM     10  C   UNL     1       0.345   7.216   3.716  1.00  0.00     0.062 A 
ATOM     11  C   UNL     1       1.379   6.934   2.814  1.00  0.00     0.022 A 
ENDROOT
BRANCH   9  12
ATOM     12  O   UNL     1      -0.400   8.132   5.833  1.00  0.00    -0.504 OA
ATOM     13  H   UNL     1      -0.212   8.347   6.805  1.00  0.00     0.293 HD
ENDBRANCH   9  12
BRANCH   8  14
ATOM     14  O   UNL     1       2.263   8.834   6.455  1.00  0.00    -0.504 OA
ATOM     15  H   UNL     1       2.436   8.315   7.306  1.00  0.00     0.293 HD
ENDBRANCH   8  14
TORSDOF 2
ENDMDL
MODEL 6
REMARK VINA RESULT:    -4.338      3.019      5.102
REMARK INTER + INTRA:          -4.591
REMARK INTER:                  -4.591
REMARK INTRA:                   0.000
REMARK UNBOUND:                 0.000
REMARK SMILES O=c1ccc2cc(O)c(O)cc2o1
REMARK SMILES IDX 4 1 3 2 2 3 1 4 13 5 12 6 11 7 9 8 7 9 6 10 5 11 8 12 10 14
REMARK H PARENT 8 13 10 15
REMARK Flexibility Score: inf
ROOT
ATOM      1  C   UNL     1       3.556   7.324   2.824  1.00  0.00     0.019 A 
ATOM      2  C   UNL     1       2.609   7.261   1.804  1.00  0.00     0.094 A 
ATOM      3  C   UNL     1       2.822   6.387   0.732  1.00  0.00     0.336 A 
ATOM      4  O   UNL     1       1.978   6.316  -0.199  1.00  0.00    -0.246 OA
ATOM      5  O   UNL     1       3.915   5.628   0.690  1.00  0.00    -0.423 OA
ATOM      6  C   UNL     1       4.843   5.656   1.643  1.00  0.00     0.142 A 
ATOM      7  C   UNL     1       5.970   4.835   1.546  1.00  0.00     0.098 A 
ATOM      8  C   UNL     1       6.952   4.859   2.543  1.00  0.00     0.161 A 
ATOM      9  C   UNL     1       6.806   5.714   3.653  1.00  0.00     0.158 A 
ATOM     10  C   UNL     1       5.676   6.540   3.754  1.00  0.00     0.062 A 
ATOM     11  C   UNL     1       4.694   6.514   2.755  1.00  0.00     0.022 A 
ENDROOT
BRANCH   9  12
ATOM     12  O   UNL     1       7.782   5.739   4.646  1.00  0.00    -0.504 OA
ATOM     13  H   UNL     1       8.278   4.900   4.925  1.00  0.00     0.293 HD
ENDBRANCH   9  12
BRANCH   8  14
ATOM     14  O   UNL     1       8.065   4.028   2.418  1.00  0.00    -0.504 OA
ATOM     15  H   UNL     1       7.981   3.050   2.173  1.00  0.00     0.293 HD
ENDBRANCH   8  14
TORSDOF 2
ENDMDL
MODEL 7
REMARK VINA RESULT:    -4.211      2.038      2.417
REMARK INTER + INTRA:          -4.457
REMARK INTER:                  -4.457
REMARK INTRA:                   0.000
REMARK UNBOUND:                 0.000
REMARK SMILES O=c1ccc2cc(O)c(O)cc2o1
REMARK SMILES IDX 4 1 3 2 2 3 1 4 13 5 12 6 11 7 9 8 7 9 6 10 5 11 8 12 10 14
REMARK H PARENT 8 13 10 15
REMARK Flexibility Score: inf
ROOT
ATOM      1  C   UNL     1       0.870   6.733   3.251  1.00  0.00     0.019 A 
ATOM      2  C   UNL     1      -0.013   7.695   3.738  1.00  0.00     0.094 A 
ATOM      3  C   UNL     1       0.192   9.038   3.400  1.00  0.00     0.336 A 
ATOM      4  O   UNL     1      -0.595   9.920   3.831  1.00  0.00    -0.246 OA
ATOM      5  O   UNL     1       1.217   9.388   2.626  1.00  0.00    -0.423 OA
ATOM      6  C   UNL     1       2.082   8.502   2.140  1.00  0.00     0.142 A 
ATOM      7  C   UNL     1       3.139   8.929   1.330  1.00  0.00     0.098 A 
ATOM      8  C   UNL     1       4.055   8.004   0.815  1.00  0.00     0.161 A 
ATOM      9  C   UNL     1       3.913   6.635   1.112  1.00  0.00     0.158 A 
ATOM     10  C   UNL     1       2.853   6.202   1.924  1.00  0.00     0.062 A 
ATOM     11  C   UNL     1       1.938   7.130   2.438  1.00  0.00     0.022 A 
ENDROOT
BRANCH   9  12
ATOM     12  O   UNL     1       4.823   5.713   0.600  1.00  0.00    -0.504 OA
ATOM     13  H   UNL     1       5.644   6.008   0.084  1.00  0.00     0.293 HD
ENDBRANCH   9  12
BRANCH   8  14
ATOM     14  O   UNL     1       5.098   8.461   0.011  1.00  0.00    -0.504 OA
ATOM     15  H   UNL     1       6.062   8.449   0.322  1.00  0.00     0.293 HD
ENDBRANCH   8  14
TORSDOF 2
ENDMDL
MODEL 8
REMARK VINA RESULT:    -4.182     15.258     16.251
REMARK INTER + INTRA:          -4.427
REMARK INTER:                  -4.427
REMARK INTRA:                   0.000
REMARK UNBOUND:                 0.000
REMARK SMILES O=c1ccc2cc(O)c(O)cc2o1
REMARK SMILES IDX 4 1 3 2 2 3 1 4 13 5 12 6 11 7 9 8 7 9 6 10 5 11 8 12 10 14
REMARK H PARENT 8 13 10 15
REMARK Flexibility Score: inf
ROOT
ATOM      1  C   UNL     1       7.448  -4.218  -7.764  1.00  0.00     0.019 A 
ATOM      2  C   UNL     1       7.894  -5.312  -7.026  1.00  0.00     0.094 A 
ATOM      3  C   UNL     1       6.960  -6.090  -6.331  1.00  0.00     0.336 A 
ATOM      4  O   UNL     1       7.345  -7.082  -5.659  1.00  0.00    -0.246 OA
ATOM      5  O   UNL     1       5.665  -5.785  -6.375  1.00  0.00    -0.423 OA
ATOM      6  C   UNL     1       5.197  -4.749  -7.068  1.00  0.00     0.142 A 
ATOM      7  C   UNL     1       3.826  -4.478  -7.079  1.00  0.00     0.098 A 
ATOM      8  C   UNL     1       3.325  -3.391  -7.803  1.00  0.00     0.161 A 
ATOM      9  C   UNL     1       4.204  -2.564  -8.528  1.00  0.00     0.158 A 
ATOM     10  C   UNL     1       5.581  -2.833  -8.520  1.00  0.00     0.062 A 
ATOM     11  C   UNL     1       6.081  -3.921  -7.793  1.00  0.00     0.022 A 
ENDROOT
BRANCH   9  12
ATOM     12  O   UNL     1       3.706  -1.481  -9.250  1.00  0.00    -0.504 OA
ATOM     13  H   UNL     1       4.093  -0.551  -9.146  1.00  0.00     0.293 HD
ENDBRANCH   9  12
BRANCH   8  14
ATOM     14  O   UNL     1       1.952  -3.146  -7.794  1.00  0.00    -0.504 OA
ATOM     15  H   UNL     1       1.402  -3.132  -8.644  1.00  0.00     0.293 HD
ENDBRANCH   8  14
TORSDOF 2
ENDMDL
MODEL 9
REMARK VINA RESULT:    -4.156      1.897      4.748
REMARK INTER + INTRA:          -4.399
REMARK INTER:                  -4.399
REMARK INTRA:                   0.000
REMARK UNBOUND:                 0.000
REMARK SMILES O=c1ccc2cc(O)c(O)cc2o1
REMARK SMILES IDX 4 1 3 2 2 3 1 4 13 5 12 6 11 7 9 8 7 9 6 10 5 11 8 12 10 14
REMARK H PARENT 8 13 10 15
REMARK Flexibility Score: inf
ROOT
ATOM      1  C   UNL     1       5.002   6.498   3.033  1.00  0.00     0.019 A 
ATOM      2  C   UNL     1       6.000   5.955   2.227  1.00  0.00     0.094 A 
ATOM      3  C   UNL     1       5.729   5.721   0.874  1.00  0.00     0.336 A 
ATOM      4  O   UNL     1       6.617   5.230   0.131  1.00  0.00    -0.246 OA
ATOM      5  O   UNL     1       4.533   6.015   0.368  1.00  0.00    -0.423 OA
ATOM      6  C   UNL     1       3.553   6.536   1.101  1.00  0.00     0.142 A 
ATOM      7  C   UNL     1       2.318   6.826   0.514  1.00  0.00     0.098 A 
ATOM      8  C   UNL     1       1.281   7.373   1.278  1.00  0.00     0.161 A 
ATOM      9  C   UNL     1       1.480   7.636   2.647  1.00  0.00     0.158 A 
ATOM     10  C   UNL     1       2.719   7.347   3.241  1.00  0.00     0.062 A 
ATOM     11  C   UNL     1       3.755   6.799   2.474  1.00  0.00     0.022 A 
ENDROOT
BRANCH   9  12
ATOM     12  O   UNL     1       0.449   8.181   3.409  1.00  0.00    -0.504 OA
ATOM     13  H   UNL     1      -0.417   7.680   3.565  1.00  0.00     0.293 HD
ENDBRANCH   9  12
BRANCH   8  14
ATOM     14  O   UNL     1       0.061   7.651   0.663  1.00  0.00    -0.504 OA
ATOM     15  H   UNL     1      -0.055   8.424   0.021  1.00  0.00     0.293 HD
ENDBRANCH   8  14
TORSDOF 2
ENDMDL
