MODEL 1
REMARK VINA RESULT:     2.105      0.000      0.000
REMARK INTER + INTRA:           2.185
REMARK INTER:                   2.228
REMARK INTRA:                  -0.043
REMARK UNBOUND:                -0.043
REMARK SMILES COc1ccc2ccc(=O)oc2c1
REMARK SMILES IDX 3 1 13 2 12 3 6 4 5 5 4 6 7 7 8 8 9 9 10 10 11 11 2 12 1 13
REMARK H PARENT
REMARK Flexibility Score: inf
ROOT
ATOM      1  C   UNL     1      -8.785  -7.463  21.899  1.00  0.00     0.122 A 
ATOM      2  C   UNL     1      -8.081  -6.278  22.154  1.00  0.00     0.094 A 
ATOM      3  C   UNL     1      -7.718  -5.427  21.105  1.00  0.00     0.142 A 
ATOM      4  C   UNL     1      -8.062  -5.763  19.777  1.00  0.00     0.018 A 
ATOM      5  C   UNL     1      -8.765  -6.947  19.517  1.00  0.00     0.016 A 
ATOM      6  C   UNL     1      -9.125  -7.792  20.571  1.00  0.00     0.047 A 
ATOM      7  C   UNL     1      -7.684  -4.894  18.750  1.00  0.00     0.019 A 
ATOM      8  C   UNL     1      -6.986  -3.728  19.062  1.00  0.00     0.094 A 
ATOM      9  C   UNL     1      -6.679  -3.459  20.401  1.00  0.00     0.336 A 
ATOM     10  O   UNL     1      -6.048  -2.412  20.703  1.00  0.00    -0.246 OA
ATOM     11  O   UNL     1      -7.050  -4.305  21.359  1.00  0.00    -0.423 OA
ENDROOT
BRANCH   1  12
ATOM     12  O   UNL     1      -9.125  -8.280  22.986  1.00  0.00    -0.497 OA
ATOM     13  C   UNL     1      -9.122  -7.855  24.345  1.00  0.00     0.278 C 
ENDBRANCH   1  12
TORSDOF 1
ENDMDL
MODEL 2
REMARK VINA RESULT:     2.186      1.001      4.555
REMARK INTER + INTRA:           2.271
REMARK INTER:                   2.311
REMARK INTRA:                  -0.039
REMARK UNBOUND:                -0.043
REMARK SMILES COc1ccc2ccc(=O)oc2c1
REMARK SMILES IDX 3 1 13 2 12 3 6 4 5 5 4 6 7 7 8 8 9 9 10 10 11 11 2 12 1 13
REMARK H PARENT
REMARK Flexibility Score: inf
ROOT
ATOM      1  C   UNL     1      -6.804  -3.562  20.257  1.00  0.00     0.122 A 
ATOM      2  C   UNL     1      -7.181  -4.348  21.354  1.00  0.00     0.094 A 
ATOM      3  C   UNL     1      -7.835  -5.570  21.161  1.00  0.00     0.142 A 
ATOM      4  C   UNL     1      -8.119  -6.016  19.852  1.00  0.00     0.018 A 
ATOM      5  C   UNL     1      -7.744  -5.232  18.752  1.00  0.00     0.016 A 
ATOM      6  C   UNL     1      -7.090  -4.013  18.953  1.00  0.00     0.047 A 
ATOM      7  C   UNL     1      -8.775  -7.239  19.691  1.00  0.00     0.019 A 
ATOM      8  C   UNL     1      -9.125  -7.981  20.819  1.00  0.00     0.094 A 
ATOM      9  C   UNL     1      -8.812  -7.478  22.087  1.00  0.00     0.336 A 
ATOM     10  O   UNL     1      -9.121  -8.132  23.117  1.00  0.00    -0.246 OA
ATOM     11  O   UNL     1      -8.188  -6.308  22.211  1.00  0.00    -0.423 OA
ENDROOT
BRANCH   1  12
ATOM     12  O   UNL     1      -6.150  -2.346  20.505  1.00  0.00    -0.497 OA
ATOM     13  C   UNL     1      -6.503  -1.440  21.545  1.00  0.00     0.278 C 
ENDBRANCH   1  12
TORSDOF 1
ENDMDL
