MODEL 1
REMARK VINA RESULT:    -3.706      0.000      0.000
REMARK INTER + INTRA:          -4.017
REMARK INTER:                  -3.923
REMARK INTRA:                  -0.094
REMARK UNBOUND:                -0.094
REMARK SMILES C=C(C)[C@H]1CC=C(C)C(=O)C1
REMARK SMILES IDX 8 1 7 2 6 3 5 4 4 5 11 6 9 7 10 8 2 9 1 10 3 11
REMARK H PARENT
REMARK Flexibility Score: inf
ROOT
ATOM      1  C   UNL     1      -1.297  -9.244 -15.103  1.00  0.00     0.048 C 
ATOM      2  C   UNL     1      -1.989  -7.917 -15.264  1.00  0.00    -0.012 C 
ATOM      3  C   UNL     1      -1.911  -6.993 -14.289  1.00  0.00    -0.019 C 
ATOM      4  C   UNL     1      -2.652  -5.684 -14.370  1.00  0.00     0.036 C 
ATOM      5  C   UNL     1      -2.818  -5.227 -15.831  1.00  0.00     0.025 C 
ATOM      6  C   UNL     1      -3.494  -6.331 -16.664  1.00  0.00     0.089 C 
ATOM      7  C   UNL     1      -2.777  -7.642 -16.490  1.00  0.00     0.158 C 
ATOM      8  O   UNL     1      -2.890  -8.527 -17.381  1.00  0.00    -0.295 OA
ENDROOT
BRANCH   5   9
ATOM      9  C   UNL     1      -3.584  -3.915 -15.920  1.00  0.00    -0.077 C 
ATOM     10  C   UNL     1      -3.231  -2.875 -15.147  1.00  0.00     0.008 C 
ATOM     11  C   UNL     1      -4.744  -3.744 -16.871  1.00  0.00     0.039 C 
ENDBRANCH   5   9
TORSDOF 1
ENDMDL
MODEL 2
REMARK VINA RESULT:    -3.507      1.937      4.517
REMARK INTER + INTRA:          -3.806
REMARK INTER:                  -3.708
REMARK INTRA:                  -0.098
REMARK UNBOUND:                -0.094
REMARK SMILES C=C(C)[C@H]1CC=C(C)C(=O)C1
REMARK SMILES IDX 8 1 7 2 6 3 5 4 4 5 11 6 9 7 10 8 2 9 1 10 3 11
REMARK H PARENT
REMARK Flexibility Score: inf
ROOT
ATOM      1  C   UNL     1      -3.029  -2.963 -15.100  1.00  0.00     0.048 C 
ATOM      2  C   UNL     1      -3.140  -4.347 -15.680  1.00  0.00    -0.012 C 
ATOM      3  C   UNL     1      -3.738  -4.535 -16.869  1.00  0.00    -0.019 C 
ATOM      4  C   UNL     1      -3.945  -5.909 -17.452  1.00  0.00     0.036 C 
ATOM      5  C   UNL     1      -2.831  -6.875 -17.006  1.00  0.00     0.025 C 
ATOM      6  C   UNL     1      -2.728  -6.902 -15.471  1.00  0.00     0.089 C 
ATOM      7  C   UNL     1      -2.610  -5.507 -14.922  1.00  0.00     0.158 C 
ATOM      8  O   UNL     1      -2.093  -5.336 -13.784  1.00  0.00    -0.295 OA
ENDROOT
BRANCH   5   9
ATOM      9  C   UNL     1      -3.045  -8.271 -17.574  1.00  0.00    -0.077 C 
ATOM     10  C   UNL     1      -4.286  -8.702 -17.853  1.00  0.00     0.008 C 
ATOM     11  C   UNL     1      -1.884  -9.197 -17.842  1.00  0.00     0.039 C 
ENDBRANCH   5   9
TORSDOF 1
ENDMDL
MODEL 3
REMARK VINA RESULT:    -3.491      1.638      4.362
REMARK INTER + INTRA:          -3.789
REMARK INTER:                  -3.690
REMARK INTRA:                  -0.099
REMARK UNBOUND:                -0.094
REMARK SMILES C=C(C)[C@H]1CC=C(C)C(=O)C1
REMARK SMILES IDX 8 1 7 2 6 3 5 4 4 5 11 6 9 7 10 8 2 9 1 10 3 11
REMARK H PARENT
REMARK Flexibility Score: inf
ROOT
ATOM      1  C   UNL     1      -3.859  -2.875 -15.211  1.00  0.00     0.048 C 
ATOM      2  C   UNL     1      -3.320  -4.245 -15.526  1.00  0.00    -0.012 C 
ATOM      3  C   UNL     1      -2.390  -4.803 -14.730  1.00  0.00    -0.019 C 
ATOM      4  C   UNL     1      -1.763  -6.135 -15.049  1.00  0.00     0.036 C 
ATOM      5  C   UNL     1      -2.742  -7.042 -15.816  1.00  0.00     0.025 C 
ATOM      6  C   UNL     1      -3.261  -6.326 -17.076  1.00  0.00     0.089 C 
ATOM      7  C   UNL     1      -3.800  -4.965 -16.730  1.00  0.00     0.158 C 
ATOM      8  O   UNL     1      -4.635  -4.421 -17.502  1.00  0.00    -0.295 OA
ENDROOT
BRANCH   5   9
ATOM      9  C   UNL     1      -2.108  -8.383 -16.159  1.00  0.00    -0.077 C 
ATOM     10  C   UNL     1      -2.206  -8.876 -17.404  1.00  0.00     0.008 C 
ATOM     11  C   UNL     1      -1.355  -9.184 -15.125  1.00  0.00     0.039 C 
ENDBRANCH   5   9
TORSDOF 1
ENDMDL
MODEL 4
REMARK VINA RESULT:    -3.454      2.093      3.979
REMARK INTER + INTRA:          -3.750
REMARK INTER:                  -3.652
REMARK INTRA:                  -0.098
REMARK UNBOUND:                -0.094
REMARK SMILES C=C(C)[C@H]1CC=C(C)C(=O)C1
REMARK SMILES IDX 8 1 7 2 6 3 5 4 4 5 11 6 9 7 10 8 2 9 1 10 3 11
REMARK H PARENT
REMARK Flexibility Score: inf
ROOT
ATOM      1  C   UNL     1      -1.536  -5.467 -12.945  1.00  0.00     0.048 C 
ATOM      2  C   UNL     1      -1.858  -6.265 -14.179  1.00  0.00    -0.012 C 
ATOM      3  C   UNL     1      -1.341  -7.496 -14.342  1.00  0.00    -0.019 C 
ATOM      4  C   UNL     1      -1.569  -8.299 -15.595  1.00  0.00     0.036 C 
ATOM      5  C   UNL     1      -2.931  -7.963 -16.231  1.00  0.00     0.025 C 
ATOM      6  C   UNL     1      -3.048  -6.449 -16.479  1.00  0.00     0.089 C 
ATOM      7  C   UNL     1      -2.728  -5.679 -15.228  1.00  0.00     0.158 C 
ATOM      8  O   UNL     1      -3.173  -4.506 -15.097  1.00  0.00    -0.295 OA
ENDROOT
BRANCH   5   9
ATOM      9  C   UNL     1      -3.159  -8.756 -17.510  1.00  0.00    -0.077 C 
ATOM     10  C   UNL     1      -2.126  -9.354 -18.125  1.00  0.00     0.008 C 
ATOM     11  C   UNL     1      -4.536  -8.896 -18.114  1.00  0.00     0.039 C 
ENDBRANCH   5   9
TORSDOF 1
ENDMDL
MODEL 5
REMARK VINA RESULT:    -3.363      1.689      2.387
REMARK INTER + INTRA:          -3.654
REMARK INTER:                  -3.557
REMARK INTRA:                  -0.097
REMARK UNBOUND:                -0.094
REMARK SMILES C=C(C)[C@H]1CC=C(C)C(=O)C1
REMARK SMILES IDX 8 1 7 2 6 3 5 4 4 5 11 6 9 7 10 8 2 9 1 10 3 11
REMARK H PARENT
REMARK Flexibility Score: inf
ROOT
ATOM      1  C   UNL     1      -2.003  -8.603 -15.114  1.00  0.00     0.048 C 
ATOM      2  C   UNL     1      -2.486  -7.282 -15.651  1.00  0.00    -0.012 C 
ATOM      3  C   UNL     1      -2.738  -7.139 -16.964  1.00  0.00    -0.019 C 
ATOM      4  C   UNL     1      -3.146  -5.817 -17.559  1.00  0.00     0.036 C 
ATOM      5  C   UNL     1      -3.932  -4.967 -16.543  1.00  0.00     0.025 C 
ATOM      6  C   UNL     1      -3.121  -4.798 -15.246  1.00  0.00     0.089 C 
ATOM      7  C   UNL     1      -2.659  -6.133 -14.729  1.00  0.00     0.158 C 
ATOM      8  O   UNL     1      -2.376  -6.254 -13.507  1.00  0.00    -0.295 OA
ENDROOT
BRANCH   5   9
ATOM      9  C   UNL     1      -4.328  -3.621 -17.131  1.00  0.00    -0.077 C 
ATOM     10  C   UNL     1      -3.419  -2.875 -17.780  1.00  0.00     0.008 C 
ATOM     11  C   UNL     1      -5.737  -3.093 -17.008  1.00  0.00     0.039 C 
ENDBRANCH   5   9
TORSDOF 1
ENDMDL
MODEL 6
REMARK VINA RESULT:    -3.360     16.286     16.866
REMARK INTER + INTRA:          -3.651
REMARK INTER:                  -3.553
REMARK INTRA:                  -0.098
REMARK UNBOUND:                -0.094
REMARK SMILES C=C(C)[C@H]1CC=C(C)C(=O)C1
REMARK SMILES IDX 8 1 7 2 6 3 5 4 4 5 11 6 9 7 10 8 2 9 1 10 3 11
REMARK H PARENT
REMARK Flexibility Score: inf
ROOT
ATOM      1  C   UNL     1      -1.120 -10.549   0.142  1.00  0.00     0.048 C 
ATOM      2  C   UNL     1      -1.799  -9.293   0.618  1.00  0.00    -0.012 C 
ATOM      3  C   UNL     1      -1.160  -8.457   1.456  1.00  0.00    -0.019 C 
ATOM      4  C   UNL     1      -1.827  -7.231   2.023  1.00  0.00     0.036 C 
ATOM      5  C   UNL     1      -2.874  -6.665   1.045  1.00  0.00     0.025 C 
ATOM      6  C   UNL     1      -3.890  -7.755   0.658  1.00  0.00     0.089 C 
ATOM      7  C   UNL     1      -3.184  -8.994   0.179  1.00  0.00     0.158 C 
ATOM      8  O   UNL     1      -3.799  -9.802  -0.567  1.00  0.00    -0.295 OA
ENDROOT
BRANCH   5   9
ATOM      9  C   UNL     1      -3.567  -5.438   1.620  1.00  0.00    -0.077 C 
ATOM     10  C   UNL     1      -4.810  -5.538   2.119  1.00  0.00     0.008 C 
ATOM     11  C   UNL     1      -2.885  -4.092   1.651  1.00  0.00     0.039 C 
ENDBRANCH   5   9
TORSDOF 1
ENDMDL
MODEL 7
REMARK VINA RESULT:    -3.266      2.024      4.621
REMARK INTER + INTRA:          -3.552
REMARK INTER:                  -3.454
REMARK INTRA:                  -0.098
REMARK UNBOUND:                -0.094
REMARK SMILES C=C(C)[C@H]1CC=C(C)C(=O)C1
REMARK SMILES IDX 8 1 7 2 6 3 5 4 4 5 11 6 9 7 10 8 2 9 1 10 3 11
REMARK H PARENT
REMARK Flexibility Score: inf
ROOT
ATOM      1  C   UNL     1      -4.821  -3.236 -17.768  1.00  0.00     0.048 C 
ATOM      2  C   UNL     1      -4.104  -4.321 -17.012  1.00  0.00    -0.012 C 
ATOM      3  C   UNL     1      -4.006  -5.556 -17.534  1.00  0.00    -0.019 C 
ATOM      4  C   UNL     1      -3.369  -6.694 -16.781  1.00  0.00     0.036 C 
ATOM      5  C   UNL     1      -2.265  -6.186 -15.834  1.00  0.00     0.025 C 
ATOM      6  C   UNL     1      -2.823  -5.103 -14.894  1.00  0.00     0.089 C 
ATOM      7  C   UNL     1      -3.526  -4.029 -15.677  1.00  0.00     0.158 C 
ATOM      8  O   UNL     1      -3.660  -2.884 -15.166  1.00  0.00    -0.295 OA
ENDROOT
BRANCH   5   9
ATOM      9  C   UNL     1      -1.631  -7.329 -15.054  1.00  0.00    -0.077 C 
ATOM     10  C   UNL     1      -0.951  -7.077 -13.924  1.00  0.00     0.008 C 
ATOM     11  C   UNL     1      -1.750  -8.760 -15.519  1.00  0.00     0.039 C 
ENDBRANCH   5   9
TORSDOF 1
ENDMDL
MODEL 8
REMARK VINA RESULT:    -3.228     16.638     17.527
REMARK INTER + INTRA:          -3.511
REMARK INTER:                  -3.414
REMARK INTRA:                  -0.098
REMARK UNBOUND:                -0.094
REMARK SMILES C=C(C)[C@H]1CC=C(C)C(=O)C1
REMARK SMILES IDX 8 1 7 2 6 3 5 4 4 5 11 6 9 7 10 8 2 9 1 10 3 11
REMARK H PARENT
REMARK Flexibility Score: inf
ROOT
ATOM      1  C   UNL     1      -1.942  -3.817   2.125  1.00  0.00     0.048 C 
ATOM      2  C   UNL     1      -2.118  -5.248   1.695  1.00  0.00    -0.012 C 
ATOM      3  C   UNL     1      -1.113  -6.129   1.850  1.00  0.00    -0.019 C 
ATOM      4  C   UNL     1      -1.214  -7.550   1.361  1.00  0.00     0.036 C 
ATOM      5  C   UNL     1      -2.670  -8.051   1.404  1.00  0.00     0.025 C 
ATOM      6  C   UNL     1      -3.588  -7.098   0.619  1.00  0.00     0.089 C 
ATOM      7  C   UNL     1      -3.396  -5.678   1.075  1.00  0.00     0.158 C 
ATOM      8  O   UNL     1      -4.319  -4.841   0.885  1.00  0.00    -0.295 OA
ENDROOT
BRANCH   5   9
ATOM      9  C   UNL     1      -2.782  -9.480   0.892  1.00  0.00    -0.077 C 
ATOM     10  C   UNL     1      -3.974  -9.967   0.510  1.00  0.00     0.008 C 
ATOM     11  C   UNL     1      -1.573 -10.378   0.795  1.00  0.00     0.039 C 
ENDBRANCH   5   9
TORSDOF 1
ENDMDL
MODEL 9
REMARK VINA RESULT:    -3.165     16.553     17.897
REMARK INTER + INTRA:          -3.444
REMARK INTER:                  -3.358
REMARK INTRA:                  -0.087
REMARK UNBOUND:                -0.094
REMARK SMILES C=C(C)[C@H]1CC=C(C)C(=O)C1
REMARK SMILES IDX 8 1 7 2 6 3 5 4 4 5 11 6 9 7 10 8 2 9 1 10 3 11
REMARK H PARENT
REMARK Flexibility Score: inf
ROOT
ATOM      1  C   UNL     1      -4.843  -4.511   2.072  1.00  0.00     0.048 C 
ATOM      2  C   UNL     1      -4.170  -5.847   1.905  1.00  0.00    -0.012 C 
ATOM      3  C   UNL     1      -4.859  -6.981   2.122  1.00  0.00    -0.019 C 
ATOM      4  C   UNL     1      -4.207  -8.337   2.046  1.00  0.00     0.036 C 
ATOM      5  C   UNL     1      -3.045  -8.341   1.035  1.00  0.00     0.025 C 
ATOM      6  C   UNL     1      -2.037  -7.228   1.373  1.00  0.00     0.089 C 
ATOM      7  C   UNL     1      -2.737  -5.906   1.525  1.00  0.00     0.158 C 
ATOM      8  O   UNL     1      -2.080  -4.841   1.370  1.00  0.00    -0.295 OA
ENDROOT
BRANCH   5   9
ATOM      9  C   UNL     1      -2.369  -9.703   0.969  1.00  0.00    -0.077 C 
ATOM     10  C   UNL     1      -2.484 -10.460  -0.135  1.00  0.00     0.008 C 
ATOM     11  C   UNL     1      -1.557 -10.235   2.125  1.00  0.00     0.039 C 
ENDBRANCH   5   9
TORSDOF 1
ENDMDL
