MODEL 1
REMARK VINA RESULT:    -5.183      0.000      0.000
REMARK INTER + INTRA:          -8.603
REMARK INTER:                  -7.303
REMARK INTRA:                  -1.299
REMARK UNBOUND:                -1.299
REMARK SMILES C=CC(=C)CCC=C(C)CCC=C(C)C
REMARK SMILES IDX 8 1 7 2 9 3 10 4 11 5 12 6 14 7 13 8 15 9 6 10 5 11 3 12
REMARK SMILES IDX 4 13 2 14 1 15
REMARK H PARENT
REMARK Flexibility Score: inf
ROOT
ATOM      1  C   UNL     1      12.117   6.701  26.257  1.00  0.00    -0.077 C 
ATOM      2  C   UNL     1      11.011   7.447  26.475  1.00  0.00    -0.028 C 
ATOM      3  C   UNL     1      12.800   5.939  27.369  1.00  0.00     0.039 C 
ENDROOT
BRANCH   1   4
ATOM      4  C   UNL     1      12.692   6.631  24.856  1.00  0.00     0.034 C 
BRANCH   4   5
ATOM      5  C   UNL     1      13.278   7.977  24.409  1.00  0.00     0.032 C 
BRANCH   5   6
ATOM      6  C   UNL     1      14.357   8.459  25.351  1.00  0.00    -0.028 C 
ATOM      7  C   UNL     1      16.628   8.715  26.252  1.00  0.00     0.039 C 
ATOM      8  C   UNL     1      15.676   8.210  25.198  1.00  0.00    -0.080 C 
ATOM      9  C   UNL     1      16.218   7.461  24.002  1.00  0.00     0.039 C 
ENDBRANCH   5   6
ENDBRANCH   4   5
ENDBRANCH   1   4
BRANCH   2  10
ATOM     10  C   UNL     1      10.309   7.567  27.806  1.00  0.00     0.032 C 
BRANCH  10  11
ATOM     11  C   UNL     1       9.128   6.591  27.929  1.00  0.00     0.039 C 
BRANCH  11  12
ATOM     12  C   UNL     1       9.391   5.508  28.958  1.00  0.00    -0.055 C 
ATOM     13  C   UNL     1       9.364   5.833  30.256  1.00  0.00     0.012 C 
BRANCH  12  14
ATOM     14  C   UNL     1       9.640   4.088  28.589  1.00  0.00    -0.005 C 
ATOM     15  C   UNL     1       9.743   3.639  27.338  1.00  0.00     0.009 C 
ENDBRANCH  12  14
ENDBRANCH  11  12
ENDBRANCH  10  11
ENDBRANCH   2  10
TORSDOF 7
ENDMDL
MODEL 2
REMARK VINA RESULT:    -5.161      1.427      2.312
REMARK INTER + INTRA:          -8.572
REMARK INTER:                  -7.284
REMARK INTRA:                  -1.288
REMARK UNBOUND:                -1.299
REMARK SMILES C=CC(=C)CCC=C(C)CCC=C(C)C
REMARK SMILES IDX 8 1 7 2 9 3 10 4 11 5 12 6 14 7 13 8 15 9 6 10 5 11 3 12
REMARK SMILES IDX 4 13 2 14 1 15
REMARK H PARENT
REMARK Flexibility Score: inf
ROOT
ATOM      1  C   UNL     1      11.886   6.405  27.191  1.00  0.00    -0.077 C 
ATOM      2  C   UNL     1      11.233   5.222  27.244  1.00  0.00    -0.028 C 
ATOM      3  C   UNL     1      11.156   7.725  27.267  1.00  0.00     0.039 C 
ENDROOT
BRANCH   1   4
ATOM      4  C   UNL     1      13.395   6.406  27.049  1.00  0.00     0.034 C 
BRANCH   4   5
ATOM      5  C   UNL     1      13.833   6.630  25.595  1.00  0.00     0.032 C 
BRANCH   5   6
ATOM      6  C   UNL     1      14.902   7.693  25.489  1.00  0.00    -0.028 C 
ATOM      7  C   UNL     1      15.865   9.891  24.963  1.00  0.00     0.039 C 
ATOM      8  C   UNL     1      14.686   8.958  25.064  1.00  0.00    -0.080 C 
ATOM      9  C   UNL     1      13.306   9.461  24.710  1.00  0.00     0.039 C 
ENDBRANCH   5   6
ENDBRANCH   4   5
ENDBRANCH   1   4
BRANCH   2  10
ATOM     10  C   UNL     1       9.743   5.075  27.432  1.00  0.00     0.032 C 
BRANCH  10  11
ATOM     11  C   UNL     1       9.392   4.311  28.717  1.00  0.00     0.039 C 
BRANCH  11  12
ATOM     12  C   UNL     1       9.791   5.080  29.962  1.00  0.00    -0.055 C 
ATOM     13  C   UNL     1       9.304   6.313  30.141  1.00  0.00     0.012 C 
BRANCH  12  14
ATOM     14  C   UNL     1      10.671   4.508  31.017  1.00  0.00    -0.005 C 
ATOM     15  C   UNL     1      11.996   4.396  30.917  1.00  0.00     0.009 C 
ENDBRANCH  12  14
ENDBRANCH  11  12
ENDBRANCH  10  11
ENDBRANCH   2  10
TORSDOF 7
ENDMDL
MODEL 3
REMARK VINA RESULT:    -5.157      1.312      2.551
REMARK INTER + INTRA:          -8.566
REMARK INTER:                  -7.204
REMARK INTRA:                  -1.362
REMARK UNBOUND:                -1.299
REMARK SMILES C=CC(=C)CCC=C(C)CCC=C(C)C
REMARK SMILES IDX 8 1 7 2 9 3 10 4 11 5 12 6 14 7 13 8 15 9 6 10 5 11 3 12
REMARK SMILES IDX 4 13 2 14 1 15
REMARK H PARENT
REMARK Flexibility Score: inf
ROOT
ATOM      1  C   UNL     1      11.070   6.068  26.784  1.00  0.00    -0.077 C 
ATOM      2  C   UNL     1      10.006   5.276  27.042  1.00  0.00    -0.028 C 
ATOM      3  C   UNL     1      12.434   5.791  27.374  1.00  0.00     0.039 C 
ENDROOT
BRANCH   1   4
ATOM      4  C   UNL     1      10.890   7.272  25.881  1.00  0.00     0.034 C 
BRANCH   4   5
ATOM      5  C   UNL     1      12.051   8.267  26.014  1.00  0.00     0.032 C 
BRANCH   5   6
ATOM      6  C   UNL     1      12.795   8.438  24.710  1.00  0.00    -0.028 C 
ATOM      7  C   UNL     1      14.736   8.546  23.208  1.00  0.00     0.039 C 
ATOM      8  C   UNL     1      14.130   8.290  24.564  1.00  0.00    -0.080 C 
ATOM      9  C   UNL     1      15.020   7.861  25.708  1.00  0.00     0.039 C 
ENDBRANCH   5   6
ENDBRANCH   4   5
ENDBRANCH   1   4
BRANCH   2  10
ATOM     10  C   UNL     1      10.054   4.024  27.883  1.00  0.00     0.032 C 
BRANCH  10  11
ATOM     11  C   UNL     1       9.286   4.181  29.204  1.00  0.00     0.039 C 
BRANCH  11  12
ATOM     12  C   UNL     1      10.059   5.005  30.216  1.00  0.00    -0.055 C 
ATOM     13  C   UNL     1      11.241   4.551  30.648  1.00  0.00     0.012 C 
BRANCH  12  14
ATOM     14  C   UNL     1       9.578   6.320  30.722  1.00  0.00    -0.005 C 
ATOM     15  C   UNL     1       8.967   7.240  29.975  1.00  0.00     0.009 C 
ENDBRANCH  12  14
ENDBRANCH  11  12
ENDBRANCH  10  11
ENDBRANCH   2  10
TORSDOF 7
ENDMDL
MODEL 4
REMARK VINA RESULT:    -5.055     12.354     14.632
REMARK INTER + INTRA:          -8.423
REMARK INTER:                  -6.860
REMARK INTRA:                  -1.562
REMARK UNBOUND:                -1.299
REMARK SMILES C=CC(=C)CCC=C(C)CCC=C(C)C
REMARK SMILES IDX 8 1 7 2 9 3 10 4 11 5 12 6 14 7 13 8 15 9 6 10 5 11 3 12
REMARK SMILES IDX 4 13 2 14 1 15
REMARK H PARENT
REMARK Flexibility Score: inf
ROOT
ATOM      1  C   UNL     1       5.521   7.848  15.017  1.00  0.00    -0.077 C 
ATOM      2  C   UNL     1       6.304   6.764  14.821  1.00  0.00    -0.028 C 
ATOM      3  C   UNL     1       6.086   9.249  15.040  1.00  0.00     0.039 C 
ENDROOT
BRANCH   1   4
ATOM      4  C   UNL     1       4.032   7.652  15.224  1.00  0.00     0.034 C 
BRANCH   4   5
ATOM      5  C   UNL     1       3.733   6.810  16.472  1.00  0.00     0.032 C 
BRANCH   5   6
ATOM      6  C   UNL     1       3.339   7.671  17.649  1.00  0.00    -0.028 C 
ATOM      7  C   UNL     1       3.607   8.826  19.800  1.00  0.00     0.039 C 
ATOM      8  C   UNL     1       4.162   8.000  18.668  1.00  0.00    -0.080 C 
ATOM      9  C   UNL     1       5.613   7.581  18.695  1.00  0.00     0.039 C 
ENDBRANCH   5   6
ENDBRANCH   4   5
ENDBRANCH   1   4
BRANCH   2  10
ATOM     10  C   UNL     1       7.789   6.817  14.556  1.00  0.00     0.032 C 
BRANCH  10  11
ATOM     11  C   UNL     1       8.144   6.338  13.140  1.00  0.00     0.039 C 
BRANCH  11  12
ATOM     12  C   UNL     1       7.698   7.325  12.078  1.00  0.00    -0.055 C 
ATOM     13  C   UNL     1       8.287   8.525  12.026  1.00  0.00     0.012 C 
BRANCH  12  14
ATOM     14  C   UNL     1       6.659   7.002  11.062  1.00  0.00    -0.005 C 
ATOM     15  C   UNL     1       5.460   6.492  11.343  1.00  0.00     0.009 C 
ENDBRANCH  12  14
ENDBRANCH  11  12
ENDBRANCH  10  11
ENDBRANCH   2  10
TORSDOF 7
ENDMDL
MODEL 5
REMARK VINA RESULT:    -4.976      1.804      3.342
REMARK INTER + INTRA:          -8.312
REMARK INTER:                  -6.937
REMARK INTRA:                  -1.374
REMARK UNBOUND:                -1.299
REMARK SMILES C=CC(=C)CCC=C(C)CCC=C(C)C
REMARK SMILES IDX 8 1 7 2 9 3 10 4 11 5 12 6 14 7 13 8 15 9 6 10 5 11 3 12
REMARK SMILES IDX 4 13 2 14 1 15
REMARK H PARENT
REMARK Flexibility Score: inf
ROOT
ATOM      1  C   UNL     1      11.419   6.826  27.052  1.00  0.00    -0.077 C 
ATOM      2  C   UNL     1      10.721   5.668  27.061  1.00  0.00    -0.028 C 
ATOM      3  C   UNL     1      10.840   8.113  27.591  1.00  0.00     0.039 C 
ENDROOT
BRANCH   1   4
ATOM      4  C   UNL     1      12.823   6.833  26.481  1.00  0.00     0.034 C 
BRANCH   4   5
ATOM      5  C   UNL     1      12.981   7.873  25.363  1.00  0.00     0.032 C 
BRANCH   5   6
ATOM      6  C   UNL     1      12.646   7.295  24.008  1.00  0.00    -0.028 C 
ATOM      7  C   UNL     1      11.286   6.837  22.015  1.00  0.00     0.039 C 
ATOM      8  C   UNL     1      11.497   7.528  23.337  1.00  0.00    -0.080 C 
ATOM      9  C   UNL     1      10.438   8.469  23.863  1.00  0.00     0.039 C 
ENDBRANCH   5   6
ENDBRANCH   4   5
ENDBRANCH   1   4
BRANCH   2  10
ATOM     10  C   UNL     1       9.336   5.508  27.641  1.00  0.00     0.032 C 
BRANCH  10  11
ATOM     11  C   UNL     1       9.306   4.504  28.802  1.00  0.00     0.039 C 
BRANCH  11  12
ATOM     12  C   UNL     1       9.716   5.142  30.116  1.00  0.00    -0.055 C 
ATOM     13  C   UNL     1       9.221   6.344  30.430  1.00  0.00     0.012 C 
BRANCH  12  14
ATOM     14  C   UNL     1      10.616   4.470  31.093  1.00  0.00    -0.005 C 
ATOM     15  C   UNL     1      11.946   4.451  31.006  1.00  0.00     0.009 C 
ENDBRANCH  12  14
ENDBRANCH  11  12
ENDBRANCH  10  11
ENDBRANCH   2  10
TORSDOF 7
ENDMDL
MODEL 6
REMARK VINA RESULT:    -4.930      1.837      2.712
REMARK INTER + INTRA:          -8.247
REMARK INTER:                  -7.101
REMARK INTRA:                  -1.146
REMARK UNBOUND:                -1.299
REMARK SMILES C=CC(=C)CCC=C(C)CCC=C(C)C
REMARK SMILES IDX 8 1 7 2 9 3 10 4 11 5 12 6 14 7 13 8 15 9 6 10 5 11 3 12
REMARK SMILES IDX 4 13 2 14 1 15
REMARK H PARENT
REMARK Flexibility Score: inf
ROOT
ATOM      1  C   UNL     1      12.164   6.724  26.514  1.00  0.00    -0.077 C 
ATOM      2  C   UNL     1      11.069   7.482  26.745  1.00  0.00    -0.028 C 
ATOM      3  C   UNL     1      12.775   5.855  27.588  1.00  0.00     0.039 C 
ENDROOT
BRANCH   1   4
ATOM      4  C   UNL     1      12.799   6.750  25.138  1.00  0.00     0.034 C 
BRANCH   4   5
ATOM      5  C   UNL     1      12.173   7.825  24.239  1.00  0.00     0.032 C 
BRANCH   5   6
ATOM      6  C   UNL     1      11.827   7.281  22.872  1.00  0.00    -0.028 C 
ATOM      7  C   UNL     1      11.955   7.044  20.431  1.00  0.00     0.039 C 
ATOM      8  C   UNL     1      12.449   7.636  21.726  1.00  0.00    -0.080 C 
ATOM      9  C   UNL     1      13.624   8.585  21.711  1.00  0.00     0.039 C 
ENDBRANCH   5   6
ENDBRANCH   4   5
ENDBRANCH   1   4
BRANCH   2  10
ATOM     10  C   UNL     1      10.310   7.515  28.050  1.00  0.00     0.032 C 
BRANCH  10  11
ATOM     11  C   UNL     1       9.147   6.511  28.071  1.00  0.00     0.039 C 
BRANCH  11  12
ATOM     12  C   UNL     1       9.413   5.354  29.015  1.00  0.00    -0.055 C 
ATOM     13  C   UNL     1       9.491   5.599  30.328  1.00  0.00     0.012 C 
BRANCH  12  14
ATOM     14  C   UNL     1       9.551   3.947  28.550  1.00  0.00    -0.005 C 
ATOM     15  C   UNL     1       9.778   3.588  27.286  1.00  0.00     0.009 C 
ENDBRANCH  12  14
ENDBRANCH  11  12
ENDBRANCH  10  11
ENDBRANCH   2  10
TORSDOF 7
ENDMDL
MODEL 7
REMARK VINA RESULT:    -4.927     12.969     15.268
REMARK INTER + INTRA:          -8.242
REMARK INTER:                  -6.923
REMARK INTRA:                  -1.319
REMARK UNBOUND:                -1.299
REMARK SMILES C=CC(=C)CCC=C(C)CCC=C(C)C
REMARK SMILES IDX 8 1 7 2 9 3 10 4 11 5 12 6 14 7 13 8 15 9 6 10 5 11 3 12
REMARK SMILES IDX 4 13 2 14 1 15
REMARK H PARENT
REMARK Flexibility Score: inf
ROOT
ATOM      1  C   UNL     1       5.442   6.798  15.152  1.00  0.00    -0.077 C 
ATOM      2  C   UNL     1       6.641   6.177  15.084  1.00  0.00    -0.028 C 
ATOM      3  C   UNL     1       4.463   6.775  14.001  1.00  0.00     0.039 C 
ENDROOT
BRANCH   1   4
ATOM      4  C   UNL     1       5.071   7.542  16.419  1.00  0.00     0.034 C 
BRANCH   4   5
ATOM      5  C   UNL     1       4.506   8.938  16.119  1.00  0.00     0.032 C 
BRANCH   5   6
ATOM      6  C   UNL     1       3.492   9.367  17.153  1.00  0.00    -0.028 C 
ATOM      7  C   UNL     1       1.278   9.930  18.056  1.00  0.00     0.039 C 
ATOM      8  C   UNL     1       2.160   9.433  16.939  1.00  0.00    -0.080 C 
ATOM      9  C   UNL     1       1.535   9.007  15.631  1.00  0.00     0.039 C 
ENDBRANCH   5   6
ENDBRANCH   4   5
ENDBRANCH   1   4
BRANCH   2  10
ATOM     10  C   UNL     1       7.117   5.363  13.905  1.00  0.00     0.032 C 
BRANCH  10  11
ATOM     11  C   UNL     1       8.253   6.058  13.139  1.00  0.00     0.039 C 
BRANCH  11  12
ATOM     12  C   UNL     1       7.726   7.025  12.096  1.00  0.00    -0.055 C 
ATOM     13  C   UNL     1       6.863   6.575  11.179  1.00  0.00     0.012 C 
BRANCH  12  14
ATOM     14  C   UNL     1       8.096   8.466  12.071  1.00  0.00    -0.005 C 
ATOM     15  C   UNL     1       7.869   9.323  13.068  1.00  0.00     0.009 C 
ENDBRANCH  12  14
ENDBRANCH  11  12
ENDBRANCH  10  11
ENDBRANCH   2  10
TORSDOF 7
ENDMDL
MODEL 8
REMARK VINA RESULT:    -4.923     11.996     14.349
REMARK INTER + INTRA:          -8.237
REMARK INTER:                  -6.808
REMARK INTRA:                  -1.429
REMARK UNBOUND:                -1.299
REMARK SMILES C=CC(=C)CCC=C(C)CCC=C(C)C
REMARK SMILES IDX 8 1 7 2 9 3 10 4 11 5 12 6 14 7 13 8 15 9 6 10 5 11 3 12
REMARK SMILES IDX 4 13 2 14 1 15
REMARK H PARENT
REMARK Flexibility Score: inf
ROOT
ATOM      1  C   UNL     1       4.851   7.305  14.803  1.00  0.00    -0.077 C 
ATOM      2  C   UNL     1       6.059   6.969  15.307  1.00  0.00    -0.028 C 
ATOM      3  C   UNL     1       4.343   6.736  13.499  1.00  0.00     0.039 C 
ENDROOT
BRANCH   1   4
ATOM      4  C   UNL     1       3.983   8.286  15.565  1.00  0.00     0.034 C 
BRANCH   4   5
ATOM      5  C   UNL     1       4.791   9.081  16.600  1.00  0.00     0.032 C 
BRANCH   5   6
ATOM      6  C   UNL     1       4.073   9.169  17.926  1.00  0.00    -0.028 C 
ATOM      7  C   UNL     1       3.540   8.596  20.255  1.00  0.00     0.039 C 
ATOM      8  C   UNL     1       4.384   8.434  19.017  1.00  0.00    -0.080 C 
ATOM      9  C   UNL     1       5.556   7.480  19.034  1.00  0.00     0.039 C 
ENDBRANCH   5   6
ENDBRANCH   4   5
ENDBRANCH   1   4
BRANCH   2  10
ATOM     10  C   UNL     1       7.002   5.971  14.678  1.00  0.00     0.032 C 
BRANCH  10  11
ATOM     11  C   UNL     1       8.266   6.641  14.118  1.00  0.00     0.039 C 
BRANCH  11  12
ATOM     12  C   UNL     1       8.045   7.195  12.723  1.00  0.00    -0.055 C 
ATOM     13  C   UNL     1       7.611   6.370  11.763  1.00  0.00     0.012 C 
BRANCH  12  14
ATOM     14  C   UNL     1       8.251   8.630  12.382  1.00  0.00    -0.005 C 
ATOM     15  C   UNL     1       7.829   9.652  13.127  1.00  0.00     0.009 C 
ENDBRANCH  12  14
ENDBRANCH  11  12
ENDBRANCH  10  11
ENDBRANCH   2  10
TORSDOF 7
ENDMDL
MODEL 9
REMARK VINA RESULT:    -4.896     12.839     15.255
REMARK INTER + INTRA:          -8.199
REMARK INTER:                  -7.366
REMARK INTRA:                  -0.833
REMARK UNBOUND:                -1.299
REMARK SMILES C=CC(=C)CCC=C(C)CCC=C(C)C
REMARK SMILES IDX 8 1 7 2 9 3 10 4 11 5 12 6 14 7 13 8 15 9 6 10 5 11 3 12
REMARK SMILES IDX 4 13 2 14 1 15
REMARK H PARENT
REMARK Flexibility Score: inf
ROOT
ATOM      1  C   UNL     1       4.070   7.273  15.694  1.00  0.00    -0.077 C 
ATOM      2  C   UNL     1       5.295   7.566  15.205  1.00  0.00    -0.028 C 
ATOM      3  C   UNL     1       3.813   6.031  16.516  1.00  0.00     0.039 C 
ENDROOT
BRANCH   1   4
ATOM      4  C   UNL     1       2.919   8.216  15.407  1.00  0.00     0.034 C 
BRANCH   4   5
ATOM      5  C   UNL     1       2.758   9.274  16.508  1.00  0.00     0.032 C 
BRANCH   5   6
ATOM      6  C   UNL     1       1.305   9.509  16.851  1.00  0.00    -0.028 C 
ATOM      7  C   UNL     1      -0.812   9.212  18.060  1.00  0.00     0.039 C 
ATOM      8  C   UNL     1       0.654   8.915  17.875  1.00  0.00    -0.080 C 
ATOM      9  C   UNL     1       1.353   7.986  18.840  1.00  0.00     0.039 C 
ENDBRANCH   5   6
ENDBRANCH   4   5
ENDBRANCH   1   4
BRANCH   2  10
ATOM     10  C   UNL     1       6.536   6.742  15.453  1.00  0.00     0.032 C 
BRANCH  10  11
ATOM     11  C   UNL     1       7.732   7.228  14.621  1.00  0.00     0.039 C 
BRANCH  11  12
ATOM     12  C   UNL     1       7.724   6.646  13.220  1.00  0.00    -0.055 C 
ATOM     13  C   UNL     1       7.502   5.336  13.068  1.00  0.00     0.012 C 
BRANCH  12  14
ATOM     14  C   UNL     1       7.913   7.477  12.000  1.00  0.00    -0.005 C 
ATOM     15  C   UNL     1       8.316   8.748  12.006  1.00  0.00     0.009 C 
ENDBRANCH  12  14
ENDBRANCH  11  12
ENDBRANCH  10  11
ENDBRANCH   2  10
TORSDOF 7
ENDMDL
