MODEL 1
REMARK VINA RESULT:     0.000      0.000      0.000
REMARK INTER + INTRA:          -1.768
REMARK INTER:                   0.000
REMARK INTRA:                  -1.768
REMARK UNBOUND:                -1.768
REMARK SMILES COC(=O)C1=CO[C@@H](O[C@H]2O[C@H](CO)[C@@H](O)[C@H](O)[C@H]2O)[C@@H]2C(CO)=CC[C@H]12
REMARK SMILES IDX 9 1 8 2 5 3 6 4 27 5 7 6 21 7 26 8 22 9 25 10 3 11 4 12 2 13
REMARK SMILES IDX 1 14 23 15 24 16 10 18 19 19 11 20 17 21 12 22 15 23 20 24
REMARK SMILES IDX 18 26 13 28 14 29 16 31
REMARK H PARENT 24 17 20 25 18 27 14 30 16 32
REMARK Flexibility Score: inf
ROOT
ATOM      1  O   UNL     1      11.623  17.103  52.040  1.00  0.00    -0.310 OA
ENDROOT
BRANCH   1   2
ATOM      2  C   UNL     1      12.075  15.768  51.906  1.00  0.00     0.316 C 
ATOM      3  C   UNL     1      12.243  12.995  52.619  1.00  0.00     0.076 C 
ATOM      4  C   UNL     1      11.124  13.503  52.077  1.00  0.00     0.202 C 
ATOM      5  C   UNL     1      13.329  13.920  53.145  1.00  0.00     0.047 C 
ATOM      6  O   UNL     1      10.964  14.877  51.905  1.00  0.00    -0.471 OA
ATOM      7  C   UNL     1      13.002  15.430  53.089  1.00  0.00     0.094 C 
ATOM      8  C   UNL     1      14.660  13.781  52.394  1.00  0.00     0.037 C 
ATOM      9  C   UNL     1      14.355  16.046  52.882  1.00  0.00    -0.039 C 
ATOM     10  C   UNL     1      15.245  15.148  52.474  1.00  0.00    -0.024 C 
BRANCH   3  11
ATOM     11  C   UNL     1      12.402  11.531  52.786  1.00  0.00     0.337 C 
ATOM     12  O   UNL     1      12.601  11.035  53.930  1.00  0.00    -0.246 OA
BRANCH  11  13
ATOM     13  O   UNL     1      12.330  10.698  51.665  1.00  0.00    -0.466 OA
ATOM     14  C   UNL     1      13.282  10.748  50.609  1.00  0.00     0.282 C 
ENDBRANCH  11  13
ENDBRANCH   3  11
BRANCH   9  15
ATOM     15  C   UNL     1      14.681  17.509  53.026  1.00  0.00     0.187 C 
BRANCH  15  16
ATOM     16  O   UNL     1      14.419  18.192  51.833  1.00  0.00    -0.392 OA
ATOM     17  H   UNL     1      13.586  18.709  51.988  1.00  0.00     0.211 HD
ENDBRANCH  15  16
ENDBRANCH   9  15
ENDBRANCH   1   2
BRANCH   1  18
ATOM     18  C   UNL     1      10.772  17.250  53.168  1.00  0.00     0.286 C 
ATOM     19  C   UNL     1       9.393  17.780  52.723  1.00  0.00     0.202 C 
ATOM     20  O   UNL     1      11.346  18.101  54.150  1.00  0.00    -0.341 OA
ATOM     21  C   UNL     1       9.512  19.221  52.210  1.00  0.00     0.179 C 
ATOM     22  C   UNL     1      11.573  19.410  53.646  1.00  0.00     0.178 C 
ATOM     23  C   UNL     1      10.241  20.088  53.252  1.00  0.00     0.177 C 
BRANCH  19  24
ATOM     24  O   UNL     1       8.863  16.966  51.710  1.00  0.00    -0.385 OA
ATOM     25  H   UNL     1       8.691  16.077  52.118  1.00  0.00     0.211 HD
ENDBRANCH  19  24
BRANCH  21  26
ATOM     26  O   UNL     1       8.224  19.731  51.974  1.00  0.00    -0.387 OA
ATOM     27  H   UNL     1       8.125  20.542  52.539  1.00  0.00     0.211 HD
ENDBRANCH  21  26
BRANCH  22  28
ATOM     28  C   UNL     1      12.325  20.221  54.713  1.00  0.00     0.191 C 
BRANCH  28  29
ATOM     29  O   UNL     1      13.138  21.203  54.126  1.00  0.00    -0.394 OA
ATOM     30  H   UNL     1      12.607  22.041  54.108  1.00  0.00     0.210 HD
ENDBRANCH  28  29
ENDBRANCH  22  28
BRANCH  23  31
ATOM     31  O   UNL     1      10.503  21.358  52.710  1.00  0.00    -0.387 OA
ATOM     32  H   UNL     1      10.283  22.024  53.413  1.00  0.00     0.211 HD
ENDBRANCH  23  31
ENDBRANCH   1  18
TORSDOF 11
ENDMDL
MODEL 2
REMARK VINA RESULT:     0.000      5.421      7.823
REMARK INTER + INTRA:          -1.768
REMARK INTER:                   0.000
REMARK INTRA:                  -1.768
REMARK UNBOUND:                -1.768
REMARK SMILES COC(=O)C1=CO[C@@H](O[C@H]2O[C@H](CO)[C@@H](O)[C@H](O)[C@H]2O)[C@@H]2C(CO)=CC[C@H]12
REMARK SMILES IDX 9 1 8 2 5 3 6 4 27 5 7 6 21 7 26 8 22 9 25 10 3 11 4 12 2 13
REMARK SMILES IDX 1 14 23 15 24 16 10 18 19 19 11 20 17 21 12 22 15 23 20 24
REMARK SMILES IDX 18 26 13 28 14 29 16 31
REMARK H PARENT 24 17 20 25 18 27 14 30 16 32
REMARK Flexibility Score: inf
ROOT
ATOM      1  O   UNL     1      14.076  20.548  50.409  1.00  0.00    -0.310 OA
ENDROOT
BRANCH   1   2
ATOM      2  C   UNL     1      14.431  20.560  49.039  1.00  0.00     0.316 C 
ATOM      3  C   UNL     1      16.200  20.215  46.808  1.00  0.00     0.076 C 
ATOM      4  C   UNL     1      15.729  19.156  47.486  1.00  0.00     0.202 C 
ATOM      5  C   UNL     1      16.059  21.617  47.378  1.00  0.00     0.047 C 
ATOM      6  O   UNL     1      15.028  19.317  48.681  1.00  0.00    -0.471 OA
ATOM      7  C   UNL     1      15.436  21.702  48.791  1.00  0.00     0.094 C 
ATOM      8  C   UNL     1      15.189  22.539  46.513  1.00  0.00     0.037 C 
ATOM      9  C   UNL     1      14.724  23.022  48.752  1.00  0.00    -0.039 C 
ATOM     10  C   UNL     1      14.566  23.456  47.506  1.00  0.00    -0.024 C 
BRANCH   3  11
ATOM     11  C   UNL     1      16.935  20.027  45.534  1.00  0.00     0.337 C 
ATOM     12  O   UNL     1      18.116  20.453  45.408  1.00  0.00    -0.246 OA
BRANCH  11  13
ATOM     13  O   UNL     1      16.310  19.372  44.469  1.00  0.00    -0.466 OA
ATOM     14  C   UNL     1      15.166  19.900  43.808  1.00  0.00     0.282 C 
ENDBRANCH  11  13
ENDBRANCH   3  11
BRANCH   9  15
ATOM     15  C   UNL     1      14.169  23.752  49.946  1.00  0.00     0.187 C 
BRANCH  15  16
ATOM     16  O   UNL     1      12.877  23.301  50.242  1.00  0.00    -0.392 OA
ATOM     17  H   UNL     1      12.297  24.107  50.242  1.00  0.00     0.211 HD
ENDBRANCH  15  16
ENDBRANCH   9  15
ENDBRANCH   1   2
BRANCH   1  18
ATOM     18  C   UNL     1      15.180  20.187  51.227  1.00  0.00     0.286 C 
ATOM     19  C   UNL     1      14.836  18.931  52.054  1.00  0.00     0.202 C 
ATOM     20  O   UNL     1      15.575  21.257  52.075  1.00  0.00    -0.341 OA
ATOM     21  C   UNL     1      13.751  19.250  53.090  1.00  0.00     0.179 C 
ATOM     22  C   UNL     1      14.531  21.642  52.958  1.00  0.00     0.178 C 
ATOM     23  C   UNL     1      14.161  20.484  53.913  1.00  0.00     0.177 C 
BRANCH  19  24
ATOM     24  O   UNL     1      14.390  17.901  51.211  1.00  0.00    -0.385 OA
ATOM     25  H   UNL     1      13.500  17.619  51.550  1.00  0.00     0.211 HD
ENDBRANCH  19  24
BRANCH  21  26
ATOM     26  O   UNL     1      13.582  18.141  53.934  1.00  0.00    -0.387 OA
ATOM     27  H   UNL     1      12.612  18.070  54.131  1.00  0.00     0.211 HD
ENDBRANCH  21  26
BRANCH  22  28
ATOM     28  C   UNL     1      14.983  22.890  53.734  1.00  0.00     0.191 C 
BRANCH  28  29
ATOM     29  O   UNL     1      13.888  23.692  54.087  1.00  0.00    -0.394 OA
ATOM     30  H   UNL     1      13.410  23.219  54.818  1.00  0.00     0.210 HD
ENDBRANCH  28  29
ENDBRANCH  22  28
BRANCH  23  31
ATOM     31  O   UNL     1      13.092  20.879  54.737  1.00  0.00    -0.387 OA
ATOM     32  H   UNL     1      13.080  20.258  55.513  1.00  0.00     0.211 HD
ENDBRANCH  23  31
ENDBRANCH   1  18
TORSDOF 11
ENDMDL
MODEL 3
REMARK VINA RESULT:     0.000      4.536      8.291
REMARK INTER + INTRA:          -1.768
REMARK INTER:                   0.000
REMARK INTRA:                  -1.768
REMARK UNBOUND:                -1.768
REMARK SMILES COC(=O)C1=CO[C@@H](O[C@H]2O[C@H](CO)[C@@H](O)[C@H](O)[C@H]2O)[C@@H]2C(CO)=CC[C@H]12
REMARK SMILES IDX 9 1 8 2 5 3 6 4 27 5 7 6 21 7 26 8 22 9 25 10 3 11 4 12 2 13
REMARK SMILES IDX 1 14 23 15 24 16 10 18 19 19 11 20 17 21 12 22 15 23 20 24
REMARK SMILES IDX 18 26 13 28 14 29 16 31
REMARK H PARENT 24 17 20 25 18 27 14 30 16 32
REMARK Flexibility Score: inf
ROOT
ATOM      1  O   UNL     1      16.700  16.393  51.981  1.00  0.00    -0.310 OA
ENDROOT
BRANCH   1   2
ATOM      2  C   UNL     1      17.107  17.534  51.248  1.00  0.00     0.316 C 
ATOM      3  C   UNL     1      17.600  19.056  48.867  1.00  0.00     0.076 C 
ATOM      4  C   UNL     1      16.347  18.786  49.268  1.00  0.00     0.202 C 
ATOM      5  C   UNL     1      18.778  18.317  49.482  1.00  0.00     0.047 C 
ATOM      6  O   UNL     1      16.098  17.893  50.309  1.00  0.00    -0.471 OA
ATOM      7  C   UNL     1      18.413  17.210  50.498  1.00  0.00     0.094 C 
ATOM      8  C   UNL     1      19.742  19.240  50.240  1.00  0.00     0.037 C 
ATOM      9  C   UNL     1      19.578  17.243  51.445  1.00  0.00    -0.039 C 
ATOM     10  C   UNL     1      20.278  18.365  51.320  1.00  0.00    -0.024 C 
BRANCH   3  11
ATOM     11  C   UNL     1      17.849  20.015  47.765  1.00  0.00     0.337 C 
ATOM     12  O   UNL     1      18.468  19.651  46.727  1.00  0.00    -0.246 OA
BRANCH  11  13
ATOM     13  O   UNL     1      17.392  21.331  47.882  1.00  0.00    -0.466 OA
ATOM     14  C   UNL     1      17.886  22.231  48.867  1.00  0.00     0.282 C 
ENDBRANCH  11  13
ENDBRANCH   3  11
BRANCH   9  15
ATOM     15  C   UNL     1      19.894  16.195  52.478  1.00  0.00     0.187 C 
BRANCH  15  16
ATOM     16  O   UNL     1      19.193  16.444  53.663  1.00  0.00    -0.392 OA
ATOM     17  H   UNL     1      18.269  16.113  53.512  1.00  0.00     0.211 HD
ENDBRANCH  15  16
ENDBRANCH   9  15
ENDBRANCH   1   2
BRANCH   1  18
ATOM     18  C   UNL     1      16.320  15.331  51.118  1.00  0.00     0.286 C 
ATOM     19  C   UNL     1      14.861  14.918  51.399  1.00  0.00     0.202 C 
ATOM     20  O   UNL     1      17.193  14.217  51.242  1.00  0.00    -0.341 OA
ATOM     21  C   UNL     1      14.744  14.272  52.785  1.00  0.00     0.179 C 
ATOM     22  C   UNL     1      17.183  13.685  52.559  1.00  0.00     0.178 C 
ATOM     23  C   UNL     1      15.782  13.145  52.926  1.00  0.00     0.177 C 
BRANCH  19  24
ATOM     24  O   UNL     1      14.017  16.038  51.332  1.00  0.00    -0.385 OA
ATOM     25  H   UNL     1      14.263  16.628  52.092  1.00  0.00     0.211 HD
ENDBRANCH  19  24
BRANCH  21  26
ATOM     26  O   UNL     1      13.447  13.756  52.943  1.00  0.00    -0.387 OA
ATOM     27  H   UNL     1      12.890  14.483  53.326  1.00  0.00     0.211 HD
ENDBRANCH  21  26
BRANCH  22  28
ATOM     28  C   UNL     1      18.253  12.585  52.650  1.00  0.00     0.191 C 
BRANCH  28  29
ATOM     29  O   UNL     1      18.766  12.482  53.953  1.00  0.00    -0.394 OA
ATOM     30  H   UNL     1      18.172  13.022  54.538  1.00  0.00     0.210 HD
ENDBRANCH  28  29
ENDBRANCH  22  28
BRANCH  23  31
ATOM     31  O   UNL     1      15.792  12.674  54.251  1.00  0.00    -0.387 OA
ATOM     32  H   UNL     1      15.235  13.300  54.785  1.00  0.00     0.211 HD
ENDBRANCH  23  31
ENDBRANCH   1  18
TORSDOF 11
ENDMDL
MODEL 4
REMARK VINA RESULT:     0.001      4.194      7.972
REMARK INTER + INTRA:          -1.766
REMARK INTER:                   0.000
REMARK INTRA:                  -1.766
REMARK UNBOUND:                -1.768
REMARK SMILES COC(=O)C1=CO[C@@H](O[C@H]2O[C@H](CO)[C@@H](O)[C@H](O)[C@H]2O)[C@@H]2C(CO)=CC[C@H]12
REMARK SMILES IDX 9 1 8 2 5 3 6 4 27 5 7 6 21 7 26 8 22 9 25 10 3 11 4 12 2 13
REMARK SMILES IDX 1 14 23 15 24 16 10 18 19 19 11 20 17 21 12 22 15 23 20 24
REMARK SMILES IDX 18 26 13 28 14 29 16 31
REMARK H PARENT 24 17 20 25 18 27 14 30 16 32
REMARK Flexibility Score: inf
ROOT
ATOM      1  O   UNL     1      16.035  16.168  55.736  1.00  0.00    -0.310 OA
ENDROOT
BRANCH   1   2
ATOM      2  C   UNL     1      15.362  17.254  56.346  1.00  0.00     0.316 C 
ATOM      3  C   UNL     1      13.127  18.981  56.844  1.00  0.00     0.076 C 
ATOM      4  C   UNL     1      13.133  17.713  57.287  1.00  0.00     0.202 C 
ATOM      5  C   UNL     1      14.152  19.441  55.820  1.00  0.00     0.047 C 
ATOM      6  O   UNL     1      14.122  16.814  56.890  1.00  0.00    -0.471 OA
ATOM      7  C   UNL     1      15.101  18.343  55.287  1.00  0.00     0.094 C 
ATOM      8  C   UNL     1      15.085  20.539  56.348  1.00  0.00     0.037 C 
ATOM      9  C   UNL     1      16.361  19.110  55.009  1.00  0.00    -0.039 C 
ATOM     10  C   UNL     1      16.357  20.292  55.615  1.00  0.00    -0.024 C 
BRANCH   3  11
ATOM     11  C   UNL     1      12.075  19.927  57.284  1.00  0.00     0.337 C 
ATOM     12  O   UNL     1      11.327  20.491  56.437  1.00  0.00    -0.246 OA
BRANCH  11  13
ATOM     13  O   UNL     1      11.913  20.193  58.647  1.00  0.00    -0.466 OA
ATOM     14  C   UNL     1      12.913  20.840  59.426  1.00  0.00     0.282 C 
ENDBRANCH  11  13
ENDBRANCH   3  11
BRANCH   9  15
ATOM     15  C   UNL     1      17.536  18.603  54.218  1.00  0.00     0.187 C 
BRANCH  15  16
ATOM     16  O   UNL     1      18.408  17.879  55.039  1.00  0.00    -0.392 OA
ATOM     17  H   UNL     1      18.216  16.920  54.869  1.00  0.00     0.211 HD
ENDBRANCH  15  16
ENDBRANCH   9  15
ENDBRANCH   1   2
BRANCH   1  18
ATOM     18  C   UNL     1      15.202  15.507  54.794  1.00  0.00     0.286 C 
ATOM     19  C   UNL     1      15.044  14.022  55.180  1.00  0.00     0.202 C 
ATOM     20  O   UNL     1      15.703  15.634  53.471  1.00  0.00    -0.341 OA
ATOM     21  C   UNL     1      16.376  13.280  55.017  1.00  0.00     0.179 C 
ATOM     22  C   UNL     1      16.994  15.055  53.339  1.00  0.00     0.178 C 
ATOM     23  C   UNL     1      16.947  13.534  53.611  1.00  0.00     0.177 C 
BRANCH  19  24
ATOM     24  O   UNL     1      14.605  13.909  56.509  1.00  0.00    -0.385 OA
ATOM     25  H   UNL     1      14.970  13.054  56.859  1.00  0.00     0.211 HD
ENDBRANCH  19  24
BRANCH  21  26
ATOM     26  O   UNL     1      16.162  11.905  55.210  1.00  0.00    -0.387 OA
ATOM     27  H   UNL     1      16.759  11.620  55.951  1.00  0.00     0.211 HD
ENDBRANCH  21  26
BRANCH  22  28
ATOM     28  C   UNL     1      17.525  15.360  51.929  1.00  0.00     0.191 C 
BRANCH  28  29
ATOM     29  O   UNL     1      18.926  15.437  51.920  1.00  0.00    -0.394 OA
ATOM     30  H   UNL     1      19.261  14.608  52.353  1.00  0.00     0.210 HD
ENDBRANCH  28  29
ENDBRANCH  22  28
BRANCH  23  31
ATOM     31  O   UNL     1      18.245  13.001  53.524  1.00  0.00    -0.387 OA
ATOM     32  H   UNL     1      18.148  12.038  53.300  1.00  0.00     0.211 HD
ENDBRANCH  23  31
ENDBRANCH   1  18
TORSDOF 11
ENDMDL
MODEL 5
REMARK VINA RESULT:     0.001      4.695      9.150
REMARK INTER + INTRA:          -1.766
REMARK INTER:                   0.000
REMARK INTRA:                  -1.766
REMARK UNBOUND:                -1.768
REMARK SMILES COC(=O)C1=CO[C@@H](O[C@H]2O[C@H](CO)[C@@H](O)[C@H](O)[C@H]2O)[C@@H]2C(CO)=CC[C@H]12
REMARK SMILES IDX 9 1 8 2 5 3 6 4 27 5 7 6 21 7 26 8 22 9 25 10 3 11 4 12 2 13
REMARK SMILES IDX 1 14 23 15 24 16 10 18 19 19 11 20 17 21 12 22 15 23 20 24
REMARK SMILES IDX 18 26 13 28 14 29 16 31
REMARK H PARENT 24 17 20 25 18 27 14 30 16 32
REMARK Flexibility Score: inf
ROOT
ATOM      1  O   UNL     1       9.287  20.797  53.689  1.00  0.00    -0.310 OA
ENDROOT
BRANCH   1   2
ATOM      2  C   UNL     1       8.789  21.824  54.528  1.00  0.00     0.316 C 
ATOM      3  C   UNL     1       6.900  23.815  55.360  1.00  0.00     0.076 C 
ATOM      4  C   UNL     1       6.618  22.506  55.470  1.00  0.00     0.202 C 
ATOM      5  C   UNL     1       8.082  24.278  54.524  1.00  0.00     0.047 C 
ATOM      6  O   UNL     1       7.443  21.539  54.897  1.00  0.00    -0.471 OA
ATOM      7  C   UNL     1       8.841  23.163  53.768  1.00  0.00     0.094 C 
ATOM      8  C   UNL     1       9.161  24.996  55.346  1.00  0.00     0.037 C 
ATOM      9  C   UNL     1      10.245  23.691  53.738  1.00  0.00    -0.039 C 
ATOM     10  C   UNL     1      10.420  24.667  54.622  1.00  0.00    -0.024 C 
BRANCH   3  11
ATOM     11  C   UNL     1       6.018  24.829  55.985  1.00  0.00     0.337 C 
ATOM     12  O   UNL     1       5.473  25.723  55.280  1.00  0.00    -0.246 OA
BRANCH  11  13
ATOM     13  O   UNL     1       5.792  24.791  57.364  1.00  0.00    -0.466 OA
ATOM     14  C   UNL     1       6.826  25.006  58.317  1.00  0.00     0.282 C 
ENDBRANCH  11  13
ENDBRANCH   3  11
BRANCH   9  15
ATOM     15  C   UNL     1      11.364  23.150  52.889  1.00  0.00     0.187 C 
BRANCH  15  16
ATOM     16  O   UNL     1      12.002  22.083  53.534  1.00  0.00    -0.392 OA
ATOM     17  H   UNL     1      12.125  21.379  52.846  1.00  0.00     0.211 HD
ENDBRANCH  15  16
ENDBRANCH   9  15
ENDBRANCH   1   2
BRANCH   1  18
ATOM     18  C   UNL     1       8.427  20.571  52.582  1.00  0.00     0.286 C 
ATOM     19  C   UNL     1       7.948  19.105  52.575  1.00  0.00     0.202 C 
ATOM     20  O   UNL     1       9.059  20.901  51.352  1.00  0.00    -0.341 OA
ATOM     21  C   UNL     1       9.119  18.159  52.281  1.00  0.00     0.179 C 
ATOM     22  C   UNL     1      10.218  20.111  51.127  1.00  0.00     0.178 C 
ATOM     23  C   UNL     1       9.850  18.614  51.006  1.00  0.00     0.177 C 
BRANCH  19  24
ATOM     24  O   UNL     1       7.380  18.774  53.816  1.00  0.00    -0.385 OA
ATOM     25  H   UNL     1       6.502  19.235  53.861  1.00  0.00     0.211 HD
ENDBRANCH  19  24
BRANCH  21  26
ATOM     26  O   UNL     1       8.624  16.855  52.115  1.00  0.00    -0.387 OA
ATOM     27  H   UNL     1       8.074  16.649  52.915  1.00  0.00     0.211 HD
ENDBRANCH  21  26
BRANCH  22  28
ATOM     28  C   UNL     1      10.920  20.623  49.860  1.00  0.00     0.191 C 
BRANCH  28  29
ATOM     29  O   UNL     1      12.305  20.402  49.922  1.00  0.00    -0.394 OA
ATOM     30  H   UNL     1      12.675  20.651  49.035  1.00  0.00     0.210 HD
ENDBRANCH  28  29
ENDBRANCH  22  28
BRANCH  23  31
ATOM     31  O   UNL     1      11.022  17.855  50.836  1.00  0.00    -0.387 OA
ATOM     32  H   UNL     1      11.204  17.819  49.860  1.00  0.00     0.211 HD
ENDBRANCH  23  31
ENDBRANCH   1  18
TORSDOF 11
ENDMDL
MODEL 6
REMARK VINA RESULT:     0.001      3.295      8.310
REMARK INTER + INTRA:          -1.766
REMARK INTER:                   0.000
REMARK INTRA:                  -1.766
REMARK UNBOUND:                -1.768
REMARK SMILES COC(=O)C1=CO[C@@H](O[C@H]2O[C@H](CO)[C@@H](O)[C@H](O)[C@H]2O)[C@@H]2C(CO)=CC[C@H]12
REMARK SMILES IDX 9 1 8 2 5 3 6 4 27 5 7 6 21 7 26 8 22 9 25 10 3 11 4 12 2 13
REMARK SMILES IDX 1 14 23 15 24 16 10 18 19 19 11 20 17 21 12 22 15 23 20 24
REMARK SMILES IDX 18 26 13 28 14 29 16 31
REMARK H PARENT 24 17 20 25 18 27 14 30 16 32
REMARK Flexibility Score: inf
ROOT
ATOM      1  O   UNL     1       9.501  19.304  54.240  1.00  0.00    -0.310 OA
ENDROOT
BRANCH   1   2
ATOM      2  C   UNL     1       8.732  20.424  54.637  1.00  0.00     0.316 C 
ATOM      3  C   UNL     1       6.745  22.465  54.301  1.00  0.00     0.076 C 
ATOM      4  C   UNL     1       6.394  21.178  54.456  1.00  0.00     0.202 C 
ATOM      5  C   UNL     1       8.188  22.836  53.998  1.00  0.00     0.047 C 
ATOM      6  O   UNL     1       7.348  20.161  54.428  1.00  0.00    -0.471 OA
ATOM      7  C   UNL     1       9.154  21.646  53.799  1.00  0.00     0.094 C 
ATOM      8  C   UNL     1       8.838  23.687  55.098  1.00  0.00     0.037 C 
ATOM      9  C   UNL     1      10.456  22.198  54.303  1.00  0.00    -0.039 C 
ATOM     10  C   UNL     1      10.272  23.292  55.035  1.00  0.00    -0.024 C 
BRANCH   3  11
ATOM     11  C   UNL     1       5.720  23.535  54.344  1.00  0.00     0.337 C 
ATOM     12  O   UNL     1       5.563  24.310  53.359  1.00  0.00    -0.246 OA
BRANCH  11  13
ATOM     13  O   UNL     1       4.925  23.683  55.484  1.00  0.00    -0.466 OA
ATOM     14  C   UNL     1       5.459  24.053  56.750  1.00  0.00     0.282 C 
ENDBRANCH  11  13
ENDBRANCH   3  11
BRANCH   9  15
ATOM     15  C   UNL     1      11.809  21.572  54.098  1.00  0.00     0.187 C 
BRANCH  15  16
ATOM     16  O   UNL     1      12.068  20.621  55.092  1.00  0.00    -0.392 OA
ATOM     17  H   UNL     1      12.003  21.102  55.957  1.00  0.00     0.211 HD
ENDBRANCH  15  16
ENDBRANCH   9  15
ENDBRANCH   1   2
BRANCH   1  18
ATOM     18  C   UNL     1       9.190  18.906  52.913  1.00  0.00     0.286 C 
ATOM     19  C   UNL     1       8.704  17.442  52.900  1.00  0.00     0.202 C 
ATOM     20  O   UNL     1      10.298  19.077  52.040  1.00  0.00    -0.341 OA
ATOM     21  C   UNL     1       9.852  16.492  53.267  1.00  0.00     0.179 C 
ATOM     22  C   UNL     1      11.411  18.291  52.443  1.00  0.00     0.178 C 
ATOM     23  C   UNL     1      11.074  16.784  52.380  1.00  0.00     0.177 C 
BRANCH  19  24
ATOM     24  O   UNL     1       7.648  17.272  53.810  1.00  0.00    -0.385 OA
ATOM     25  H   UNL     1       6.853  17.714  53.411  1.00  0.00     0.211 HD
ENDBRANCH  19  24
BRANCH  21  26
ATOM     26  O   UNL     1       9.426  15.166  53.083  1.00  0.00    -0.387 OA
ATOM     27  H   UNL     1       8.579  15.060  53.590  1.00  0.00     0.211 HD
ENDBRANCH  21  26
BRANCH  22  28
ATOM     28  C   UNL     1      12.607  18.640  51.543  1.00  0.00     0.191 C 
BRANCH  28  29
ATOM     29  O   UNL     1      13.823  18.463  52.222  1.00  0.00    -0.394 OA
ATOM     30  H   UNL     1      14.545  18.595  51.554  1.00  0.00     0.210 HD
ENDBRANCH  28  29
ENDBRANCH  22  28
BRANCH  23  31
ATOM     31  O   UNL     1      12.176  16.037  52.833  1.00  0.00    -0.387 OA
ATOM     32  H   UNL     1      12.757  15.870  52.044  1.00  0.00     0.211 HD
ENDBRANCH  23  31
ENDBRANCH   1  18
TORSDOF 11
ENDMDL
MODEL 7
REMARK VINA RESULT:     0.001      4.793      9.369
REMARK INTER + INTRA:          -1.766
REMARK INTER:                   0.000
REMARK INTRA:                  -1.766
REMARK UNBOUND:                -1.768
REMARK SMILES COC(=O)C1=CO[C@@H](O[C@H]2O[C@H](CO)[C@@H](O)[C@H](O)[C@H]2O)[C@@H]2C(CO)=CC[C@H]12
REMARK SMILES IDX 9 1 8 2 5 3 6 4 27 5 7 6 21 7 26 8 22 9 25 10 3 11 4 12 2 13
REMARK SMILES IDX 1 14 23 15 24 16 10 18 19 19 11 20 17 21 12 22 15 23 20 24
REMARK SMILES IDX 18 26 13 28 14 29 16 31
REMARK H PARENT 24 17 20 25 18 27 14 30 16 32
REMARK Flexibility Score: inf
ROOT
ATOM      1  O   UNL     1       6.428  17.057  51.305  1.00  0.00    -0.310 OA
ENDROOT
BRANCH   1   2
ATOM      2  C   UNL     1       6.021  18.183  52.061  1.00  0.00     0.316 C 
ATOM      3  C   UNL     1       5.988  19.898  54.360  1.00  0.00     0.076 C 
ATOM      4  C   UNL     1       7.064  19.839  53.557  1.00  0.00     0.202 C 
ATOM      5  C   UNL     1       4.891  18.852  54.252  1.00  0.00     0.047 C 
ATOM      6  O   UNL     1       7.164  18.875  52.555  1.00  0.00    -0.471 OA
ATOM      7  C   UNL     1       5.157  17.709  53.245  1.00  0.00     0.094 C 
ATOM      8  C   UNL     1       3.536  19.436  53.829  1.00  0.00     0.037 C 
ATOM      9  C   UNL     1       3.774  17.363  52.775  1.00  0.00    -0.039 C 
ATOM     10  C   UNL     1       2.904  18.323  53.069  1.00  0.00    -0.024 C 
BRANCH   3  11
ATOM     11  C   UNL     1       5.892  20.935  55.414  1.00  0.00     0.337 C 
ATOM     12  O   UNL     1       5.761  20.605  56.626  1.00  0.00    -0.246 OA
BRANCH  11  13
ATOM     13  O   UNL     1       5.950  22.286  55.059  1.00  0.00    -0.466 OA
ATOM     14  C   UNL     1       4.953  22.913  54.260  1.00  0.00     0.282 C 
ENDBRANCH  11  13
ENDBRANCH   3  11
BRANCH   9  15
ATOM     15  C   UNL     1       3.400  16.135  51.990  1.00  0.00     0.187 C 
BRANCH  15  16
ATOM     16  O   UNL     1       3.586  16.349  50.619  1.00  0.00    -0.392 OA
ATOM     17  H   UNL     1       3.646  15.449  50.205  1.00  0.00     0.211 HD
ENDBRANCH  15  16
ENDBRANCH   9  15
ENDBRANCH   1   2
BRANCH   1  18
ATOM     18  C   UNL     1       7.318  16.233  52.042  1.00  0.00     0.286 C 
ATOM     19  C   UNL     1       8.656  16.093  51.287  1.00  0.00     0.202 C 
ATOM     20  O   UNL     1       6.753  14.956  52.307  1.00  0.00    -0.341 OA
ATOM     21  C   UNL     1       8.461  15.292  49.993  1.00  0.00     0.179 C 
ATOM     22  C   UNL     1       6.456  14.254  51.109  1.00  0.00     0.178 C 
ATOM     23  C   UNL     1       7.744  13.967  50.303  1.00  0.00     0.177 C 
BRANCH  19  24
ATOM     24  O   UNL     1       9.175  17.361  50.978  1.00  0.00    -0.385 OA
ATOM     25  H   UNL     1       8.718  18.011  51.575  1.00  0.00     0.211 HD
ENDBRANCH  19  24
BRANCH  21  26
ATOM     26  O   UNL     1       9.718  15.038  49.418  1.00  0.00    -0.387 OA
ATOM     27  H   UNL     1      10.180  15.912  49.333  1.00  0.00     0.211 HD
ENDBRANCH  21  26
BRANCH  22  28
ATOM     28  C   UNL     1       5.719  12.955  51.475  1.00  0.00     0.191 C 
BRANCH  28  29
ATOM     29  O   UNL     1       4.845  12.561  50.450  1.00  0.00    -0.394 OA
ATOM     30  H   UNL     1       5.389  12.492  49.621  1.00  0.00     0.210 HD
ENDBRANCH  28  29
ENDBRANCH  22  28
BRANCH  23  31
ATOM     31  O   UNL     1       7.410  13.318  49.101  1.00  0.00    -0.387 OA
ATOM     32  H   UNL     1       6.486  13.597  48.868  1.00  0.00     0.211 HD
ENDBRANCH  23  31
ENDBRANCH   1  18
TORSDOF 11
ENDMDL
MODEL 8
REMARK VINA RESULT:     0.001      4.373      6.356
REMARK INTER + INTRA:          -1.766
REMARK INTER:                   0.000
REMARK INTRA:                  -1.766
REMARK UNBOUND:                -1.768
REMARK SMILES COC(=O)C1=CO[C@@H](O[C@H]2O[C@H](CO)[C@@H](O)[C@H](O)[C@H]2O)[C@@H]2C(CO)=CC[C@H]12
REMARK SMILES IDX 9 1 8 2 5 3 6 4 27 5 7 6 21 7 26 8 22 9 25 10 3 11 4 12 2 13
REMARK SMILES IDX 1 14 23 15 24 16 10 18 19 19 11 20 17 21 12 22 15 23 20 24
REMARK SMILES IDX 18 26 13 28 14 29 16 31
REMARK H PARENT 24 17 20 25 18 27 14 30 16 32
REMARK Flexibility Score: inf
ROOT
ATOM      1  O   UNL     1      15.799  14.452  54.772  1.00  0.00    -0.310 OA
ENDROOT
BRANCH   1   2
ATOM      2  C   UNL     1      16.376  14.038  53.547  1.00  0.00     0.316 C 
ATOM      3  C   UNL     1      16.974  14.253  50.750  1.00  0.00     0.076 C 
ATOM      4  C   UNL     1      17.539  15.082  51.643  1.00  0.00     0.202 C 
ATOM      5  C   UNL     1      15.788  13.389  51.148  1.00  0.00     0.047 C 
ATOM      6  O   UNL     1      17.113  15.112  52.971  1.00  0.00    -0.471 OA
ATOM      7  C   UNL     1      15.254  13.610  52.582  1.00  0.00     0.094 C 
ATOM      8  C   UNL     1      16.080  11.885  51.068  1.00  0.00     0.037 C 
ATOM      9  C   UNL     1      14.742  12.248  52.950  1.00  0.00    -0.039 C 
ATOM     10  C   UNL     1      15.221  11.310  52.140  1.00  0.00    -0.024 C 
BRANCH   3  11
ATOM     11  C   UNL     1      17.444  14.226  49.345  1.00  0.00     0.337 C 
ATOM     12  O   UNL     1      16.646  14.471  48.398  1.00  0.00    -0.246 OA
BRANCH  11  13
ATOM     13  O   UNL     1      18.782  13.928  49.072  1.00  0.00    -0.466 OA
ATOM     14  C   UNL     1      19.360  12.660  49.359  1.00  0.00     0.282 C 
ENDBRANCH  11  13
ENDBRANCH   3  11
BRANCH   9  15
ATOM     15  C   UNL     1      13.865  11.934  54.132  1.00  0.00     0.187 C 
BRANCH  15  16
ATOM     16  O   UNL     1      14.640  11.723  55.279  1.00  0.00    -0.392 OA
ATOM     17  H   UNL     1      15.154  10.890  55.115  1.00  0.00     0.211 HD
ENDBRANCH  15  16
ENDBRANCH   9  15
ENDBRANCH   1   2
BRANCH   1  18
ATOM     18  C   UNL     1      15.042  15.642  54.611  1.00  0.00     0.286 C 
ATOM     19  C   UNL     1      15.593  16.747  55.536  1.00  0.00     0.202 C 
ATOM     20  O   UNL     1      13.660  15.422  54.857  1.00  0.00    -0.341 OA
ATOM     21  C   UNL     1      15.340  16.392  57.007  1.00  0.00     0.179 C 
ATOM     22  C   UNL     1      13.426  14.975  56.185  1.00  0.00     0.178 C 
ATOM     23  C   UNL     1      13.854  16.048  57.212  1.00  0.00     0.177 C 
BRANCH  19  24
ATOM     24  O   UNL     1      16.971  16.915  55.326  1.00  0.00    -0.385 OA
ATOM     25  H   UNL     1      17.152  16.648  54.387  1.00  0.00     0.211 HD
ENDBRANCH  19  24
BRANCH  21  26
ATOM     26  O   UNL     1      15.697  17.488  57.811  1.00  0.00    -0.387 OA
ATOM     27  H   UNL     1      16.069  18.182  57.207  1.00  0.00     0.211 HD
ENDBRANCH  21  26
BRANCH  22  28
ATOM     28  C   UNL     1      11.937  14.621  56.327  1.00  0.00     0.191 C 
BRANCH  28  29
ATOM     29  O   UNL     1      11.744  13.611  57.282  1.00  0.00    -0.394 OA
ATOM     30  H   UNL     1      10.984  13.899  57.853  1.00  0.00     0.210 HD
ENDBRANCH  28  29
ENDBRANCH  22  28
BRANCH  23  31
ATOM     31  O   UNL     1      13.659  15.555  58.515  1.00  0.00    -0.387 OA
ATOM     32  H   UNL     1      14.344  14.852  58.664  1.00  0.00     0.211 HD
ENDBRANCH  23  31
ENDBRANCH   1  18
TORSDOF 11
ENDMDL
MODEL 9
REMARK VINA RESULT:     0.001      4.177      7.933
REMARK INTER + INTRA:          -1.766
REMARK INTER:                   0.000
REMARK INTRA:                  -1.766
REMARK UNBOUND:                -1.768
REMARK SMILES COC(=O)C1=CO[C@@H](O[C@H]2O[C@H](CO)[C@@H](O)[C@H](O)[C@H]2O)[C@@H]2C(CO)=CC[C@H]12
REMARK SMILES IDX 9 1 8 2 5 3 6 4 27 5 7 6 21 7 26 8 22 9 25 10 3 11 4 12 2 13
REMARK SMILES IDX 1 14 23 15 24 16 10 18 19 19 11 20 17 21 12 22 15 23 20 24
REMARK SMILES IDX 18 26 13 28 14 29 16 31
REMARK H PARENT 24 17 20 25 18 27 14 30 16 32
REMARK Flexibility Score: inf
ROOT
ATOM      1  O   UNL     1      10.901  18.732  49.931  1.00  0.00    -0.310 OA
ENDROOT
BRANCH   1   2
ATOM      2  C   UNL     1       9.632  19.343  49.788  1.00  0.00     0.316 C 
ATOM      3  C   UNL     1       7.752  21.204  48.681  1.00  0.00     0.076 C 
ATOM      4  C   UNL     1       8.212  20.173  47.954  1.00  0.00     0.202 C 
ATOM      5  C   UNL     1       8.431  21.588  49.986  1.00  0.00     0.047 C 
ATOM      6  O   UNL     1       9.263  19.379  48.413  1.00  0.00    -0.471 OA
ATOM      7  C   UNL     1       9.701  20.780  50.339  1.00  0.00     0.094 C 
ATOM      8  C   UNL     1       7.519  21.436  51.211  1.00  0.00     0.037 C 
ATOM      9  C   UNL     1       9.669  20.764  51.839  1.00  0.00    -0.039 C 
ATOM     10  C   UNL     1       8.468  21.092  52.306  1.00  0.00    -0.024 C 
BRANCH   3  11
ATOM     11  C   UNL     1       6.628  22.032  48.184  1.00  0.00     0.337 C 
ATOM     12  O   UNL     1       6.773  23.275  48.018  1.00  0.00    -0.246 OA
BRANCH  11  13
ATOM     13  O   UNL     1       5.400  21.428  47.899  1.00  0.00    -0.466 OA
ATOM     14  C   UNL     1       4.594  20.817  48.900  1.00  0.00     0.282 C 
ENDBRANCH  11  13
ENDBRANCH   3  11
BRANCH   9  15
ATOM     15  C   UNL     1      10.806  20.352  52.734  1.00  0.00     0.187 C 
BRANCH  15  16
ATOM     16  O   UNL     1      10.803  18.966  52.928  1.00  0.00    -0.392 OA
ATOM     17  H   UNL     1       9.989  18.625  52.474  1.00  0.00     0.211 HD
ENDBRANCH  15  16
ENDBRANCH   9  15
ENDBRANCH   1   2
BRANCH   1  18
ATOM     18  C   UNL     1      11.870  19.349  49.096  1.00  0.00     0.286 C 
ATOM     19  C   UNL     1      12.479  18.308  48.135  1.00  0.00     0.202 C 
ATOM     20  O   UNL     1      12.886  19.989  49.857  1.00  0.00    -0.341 OA
ATOM     21  C   UNL     1      13.319  17.286  48.912  1.00  0.00     0.179 C 
ATOM     22  C   UNL     1      13.592  19.066  50.674  1.00  0.00     0.178 C 
ATOM     23  C   UNL     1      14.331  18.018  49.811  1.00  0.00     0.177 C 
BRANCH  19  24
ATOM     24  O   UNL     1      11.463  17.641  47.433  1.00  0.00    -0.385 OA
ATOM     25  H   UNL     1      11.378  18.094  46.553  1.00  0.00     0.211 HD
ENDBRANCH  19  24
BRANCH  21  26
ATOM     26  O   UNL     1      13.994  16.459  47.999  1.00  0.00    -0.387 OA
ATOM     27  H   UNL     1      13.340  16.209  47.295  1.00  0.00     0.211 HD
ENDBRANCH  21  26
BRANCH  22  28
ATOM     28  C   UNL     1      14.567  19.850  51.566  1.00  0.00     0.191 C 
BRANCH  28  29
ATOM     29  O   UNL     1      14.790  19.184  52.782  1.00  0.00    -0.394 OA
ATOM     30  H   UNL     1      14.755  18.212  52.585  1.00  0.00     0.210 HD
ENDBRANCH  28  29
ENDBRANCH  22  28
BRANCH  23  31
ATOM     31  O   UNL     1      14.976  17.090  50.649  1.00  0.00    -0.387 OA
ATOM     32  H   UNL     1      14.280  16.460  50.972  1.00  0.00     0.211 HD
ENDBRANCH  23  31
ENDBRANCH   1  18
TORSDOF 11
ENDMDL
