MODEL 1
REMARK VINA RESULT:    -3.438      0.000      0.000
REMARK INTER + INTRA:          -3.538
REMARK INTER:                  -3.538
REMARK INTRA:                   0.000
REMARK UNBOUND:                 0.000
REMARK SMILES Nc1ncnc2nc[nH]c12
REMARK SMILES IDX 8 1 7 2 6 3 5 4 4 5 3 6 2 7 10 8 9 9 1 11
REMARK H PARENT 9 10 1 12 1 13
REMARK Flexibility Score: inf
ROOT
ATOM      1  C   UNL     1     -15.443 -19.934 -35.796  1.00  0.00     0.199 A 
ATOM      2  N   UNL     1     -16.086 -20.966 -36.409  1.00  0.00    -0.217 NA
ATOM      3  C   UNL     1     -15.875 -20.700 -37.709  1.00  0.00     0.182 A 
ATOM      4  N   UNL     1     -16.311 -21.430 -38.763  1.00  0.00    -0.215 NA
ATOM      5  C   UNL     1     -15.996 -20.997 -40.022  1.00  0.00     0.226 A 
ATOM      6  N   UNL     1     -15.259 -19.853 -40.201  1.00  0.00    -0.217 NA
ATOM      7  C   UNL     1     -14.819 -19.116 -39.137  1.00  0.00     0.152 A 
ATOM      8  C   UNL     1     -15.149 -19.570 -37.863  1.00  0.00     0.127 A 
ATOM      9  N   UNL     1     -14.861 -19.064 -36.658  1.00  0.00    -0.340 N 
ATOM     10  H   UNL     1     -14.317 -18.204 -36.423  1.00  0.00     0.168 HD
ENDROOT
BRANCH   7  11
ATOM     11  N   UNL     1     -14.053 -17.929 -39.347  1.00  0.00    -0.382 N 
ATOM     12  H   UNL     1     -13.749 -17.352 -38.531  1.00  0.00     0.158 HD
ATOM     13  H   UNL     1     -13.785 -17.617 -40.306  1.00  0.00     0.158 HD
ENDBRANCH   7  11
TORSDOF 1
ENDMDL
MODEL 2
REMARK VINA RESULT:    -3.426      0.989      2.959
REMARK INTER + INTRA:          -3.526
REMARK INTER:                  -3.526
REMARK INTRA:                   0.000
REMARK UNBOUND:                 0.000
REMARK SMILES Nc1ncnc2nc[nH]c12
REMARK SMILES IDX 8 1 7 2 6 3 5 4 4 5 3 6 2 7 10 8 9 9 1 11
REMARK H PARENT 9 10 1 12 1 13
REMARK Flexibility Score: inf
ROOT
ATOM      1  C   UNL     1     -14.768 -18.237 -39.574  1.00  0.00     0.199 A 
ATOM      2  N   UNL     1     -15.160 -19.408 -40.148  1.00  0.00    -0.217 NA
ATOM      3  C   UNL     1     -15.479 -20.156 -39.079  1.00  0.00     0.182 A 
ATOM      4  N   UNL     1     -15.935 -21.431 -39.093  1.00  0.00    -0.215 NA
ATOM      5  C   UNL     1     -16.206 -22.033 -37.894  1.00  0.00     0.226 A 
ATOM      6  N   UNL     1     -16.019 -21.354 -36.717  1.00  0.00    -0.217 NA
ATOM      7  C   UNL     1     -15.559 -20.068 -36.701  1.00  0.00     0.152 A 
ATOM      8  C   UNL     1     -15.287 -19.470 -37.929  1.00  0.00     0.127 A 
ATOM      9  N   UNL     1     -14.835 -18.244 -38.219  1.00  0.00    -0.340 N 
ATOM     10  H   UNL     1     -14.588 -17.467 -37.566  1.00  0.00     0.168 HD
ENDROOT
BRANCH   7  11
ATOM     11  N   UNL     1     -15.372 -19.380 -35.463  1.00  0.00    -0.382 N 
ATOM     12  H   UNL     1     -14.972 -18.415 -35.456  1.00  0.00     0.158 HD
ATOM     13  H   UNL     1     -15.626 -19.822 -34.552  1.00  0.00     0.158 HD
ENDBRANCH   7  11
TORSDOF 1
ENDMDL
MODEL 3
REMARK VINA RESULT:    -3.377      1.085      2.909
REMARK INTER + INTRA:          -3.476
REMARK INTER:                  -3.476
REMARK INTRA:                   0.000
REMARK UNBOUND:                 0.000
REMARK SMILES Nc1ncnc2nc[nH]c12
REMARK SMILES IDX 8 1 7 2 6 3 5 4 4 5 3 6 2 7 10 8 9 9 1 11
REMARK H PARENT 9 10 1 12 1 13
REMARK Flexibility Score: inf
ROOT
ATOM      1  C   UNL     1     -16.161 -22.414 -38.867  1.00  0.00     0.199 A 
ATOM      2  N   UNL     1     -15.921 -21.685 -39.991  1.00  0.00    -0.217 NA
ATOM      3  C   UNL     1     -15.528 -20.504 -39.486  1.00  0.00     0.182 A 
ATOM      4  N   UNL     1     -15.164 -19.405 -40.189  1.00  0.00    -0.215 NA
ATOM      5  C   UNL     1     -14.793 -18.287 -39.494  1.00  0.00     0.226 A 
ATOM      6  N   UNL     1     -14.790 -18.290 -38.122  1.00  0.00    -0.217 NA
ATOM      7  C   UNL     1     -15.156 -19.398 -37.411  1.00  0.00     0.152 A 
ATOM      8  C   UNL     1     -15.533 -20.527 -38.134  1.00  0.00     0.127 A 
ATOM      9  N   UNL     1     -15.933 -21.734 -37.715  1.00  0.00    -0.340 N 
ATOM     10  H   UNL     1     -16.046 -22.083 -36.738  1.00  0.00     0.168 HD
ENDROOT
BRANCH   7  11
ATOM     11  N   UNL     1     -15.146 -19.377 -35.983  1.00  0.00    -0.382 N 
ATOM     12  H   UNL     1     -15.307 -20.260 -35.447  1.00  0.00     0.158 HD
ATOM     13  H   UNL     1     -14.981 -18.494 -35.452  1.00  0.00     0.158 HD
ENDBRANCH   7  11
TORSDOF 1
ENDMDL
MODEL 4
REMARK VINA RESULT:    -3.278      1.025      2.391
REMARK INTER + INTRA:          -3.374
REMARK INTER:                  -3.374
REMARK INTRA:                   0.000
REMARK UNBOUND:                 0.000
REMARK SMILES Nc1ncnc2nc[nH]c12
REMARK SMILES IDX 8 1 7 2 6 3 5 4 4 5 3 6 2 7 10 8 9 9 1 11
REMARK H PARENT 9 10 1 12 1 13
REMARK Flexibility Score: inf
ROOT
ATOM      1  C   UNL     1     -15.869 -20.801 -36.123  1.00  0.00     0.199 A 
ATOM      2  N   UNL     1     -15.480 -19.498 -36.202  1.00  0.00    -0.217 NA
ATOM      3  C   UNL     1     -15.310 -19.333 -37.525  1.00  0.00     0.182 A 
ATOM      4  N   UNL     1     -14.920 -18.199 -38.153  1.00  0.00    -0.215 NA
ATOM      5  C   UNL     1     -14.799 -18.223 -39.515  1.00  0.00     0.226 A 
ATOM      6  N   UNL     1     -15.070 -19.371 -40.217  1.00  0.00    -0.217 NA
ATOM      7  C   UNL     1     -15.464 -20.517 -39.584  1.00  0.00     0.152 A 
ATOM      8  C   UNL     1     -15.580 -20.475 -38.198  1.00  0.00     0.127 A 
ATOM      9  N   UNL     1     -15.940 -21.424 -37.326  1.00  0.00    -0.340 N 
ATOM     10  H   UNL     1     -16.213 -22.415 -37.513  1.00  0.00     0.168 HD
ENDROOT
BRANCH   7  11
ATOM     11  N   UNL     1     -15.741 -21.700 -40.335  1.00  0.00    -0.382 N 
ATOM     12  H   UNL     1     -16.609 -22.248 -40.144  1.00  0.00     0.158 HD
ATOM     13  H   UNL     1     -15.091 -22.036 -41.079  1.00  0.00     0.158 HD
ENDBRANCH   7  11
TORSDOF 1
ENDMDL
MODEL 5
REMARK VINA RESULT:    -3.245      0.934      3.515
REMARK INTER + INTRA:          -3.340
REMARK INTER:                  -3.340
REMARK INTRA:                   0.000
REMARK UNBOUND:                 0.000
REMARK SMILES Nc1ncnc2nc[nH]c12
REMARK SMILES IDX 8 1 7 2 6 3 5 4 4 5 3 6 2 7 10 8 9 9 1 11
REMARK H PARENT 9 10 1 12 1 13
REMARK Flexibility Score: inf
ROOT
ATOM      1  C   UNL     1     -14.789 -18.408 -39.821  1.00  0.00     0.199 A 
ATOM      2  N   UNL     1     -14.865 -17.916 -38.553  1.00  0.00    -0.217 NA
ATOM      3  C   UNL     1     -15.215 -19.004 -37.847  1.00  0.00     0.182 A 
ATOM      4  N   UNL     1     -15.426 -19.065 -36.510  1.00  0.00    -0.215 NA
ATOM      5  C   UNL     1     -15.780 -20.269 -35.967  1.00  0.00     0.226 A 
ATOM      6  N   UNL     1     -15.914 -21.379 -36.763  1.00  0.00    -0.217 NA
ATOM      7  C   UNL     1     -15.702 -21.319 -38.112  1.00  0.00     0.152 A 
ATOM      8  C   UNL     1     -15.343 -20.085 -38.648  1.00  0.00     0.127 A 
ATOM      9  N   UNL     1     -15.076 -19.731 -39.911  1.00  0.00    -0.340 N 
ATOM     10  H   UNL     1     -15.083 -20.322 -40.772  1.00  0.00     0.168 HD
ENDROOT
BRANCH   7  11
ATOM     11  N   UNL     1     -15.847 -22.487 -38.920  1.00  0.00    -0.382 N 
ATOM     12  H   UNL     1     -15.133 -22.710 -39.649  1.00  0.00     0.158 HD
ATOM     13  H   UNL     1     -16.659 -23.132 -38.803  1.00  0.00     0.158 HD
ENDBRANCH   7  11
TORSDOF 1
ENDMDL
MODEL 6
REMARK VINA RESULT:    -3.181      0.828      2.878
REMARK INTER + INTRA:          -3.274
REMARK INTER:                  -3.274
REMARK INTRA:                   0.000
REMARK UNBOUND:                 0.000
REMARK SMILES Nc1ncnc2nc[nH]c12
REMARK SMILES IDX 8 1 7 2 6 3 5 4 4 5 3 6 2 7 10 8 9 9 1 11
REMARK H PARENT 9 10 1 12 1 13
REMARK Flexibility Score: inf
ROOT
ATOM      1  C   UNL     1     -15.850 -21.856 -40.475  1.00  0.00     0.199 A 
ATOM      2  N   UNL     1     -16.207 -22.299 -39.238  1.00  0.00    -0.217 NA
ATOM      3  C   UNL     1     -15.802 -21.292 -38.447  1.00  0.00     0.182 A 
ATOM      4  N   UNL     1     -15.921 -21.225 -37.099  1.00  0.00    -0.215 NA
ATOM      5  C   UNL     1     -15.445 -20.112 -36.463  1.00  0.00     0.226 A 
ATOM      6  N   UNL     1     -14.865 -19.095 -37.180  1.00  0.00    -0.217 NA
ATOM      7  C   UNL     1     -14.745 -19.161 -38.540  1.00  0.00     0.152 A 
ATOM      8  C   UNL     1     -15.233 -20.302 -39.171  1.00  0.00     0.127 A 
ATOM      9  N   UNL     1     -15.252 -20.638 -40.467  1.00  0.00    -0.340 N 
ATOM     10  H   UNL     1     -14.896 -20.099 -41.287  1.00  0.00     0.168 HD
ENDROOT
BRANCH   7  11
ATOM     11  N   UNL     1     -14.138 -18.091 -39.265  1.00  0.00    -0.382 N 
ATOM     12  H   UNL     1     -14.585 -17.147 -39.274  1.00  0.00     0.158 HD
ATOM     13  H   UNL     1     -13.249 -18.227 -39.794  1.00  0.00     0.158 HD
ENDBRANCH   7  11
TORSDOF 1
ENDMDL
MODEL 7
REMARK VINA RESULT:    -2.959      7.748      7.981
REMARK INTER + INTRA:          -3.045
REMARK INTER:                  -3.045
REMARK INTRA:                   0.000
REMARK UNBOUND:                 0.000
REMARK SMILES Nc1ncnc2nc[nH]c12
REMARK SMILES IDX 8 1 7 2 6 3 5 4 4 5 3 6 2 7 10 8 9 9 1 11
REMARK H PARENT 9 10 1 12 1 13
REMARK Flexibility Score: inf
ROOT
ATOM      1  C   UNL     1     -10.543 -23.165 -32.430  1.00  0.00     0.199 A 
ATOM      2  N   UNL     1     -11.778 -23.738 -32.409  1.00  0.00    -0.217 NA
ATOM      3  C   UNL     1     -11.694 -24.632 -33.408  1.00  0.00     0.182 A 
ATOM      4  N   UNL     1     -12.667 -25.481 -33.815  1.00  0.00    -0.215 NA
ATOM      5  C   UNL     1     -12.394 -26.323 -34.859  1.00  0.00     0.226 A 
ATOM      6  N   UNL     1     -11.165 -26.300 -35.468  1.00  0.00    -0.217 NA
ATOM      7  C   UNL     1     -10.182 -25.444 -35.058  1.00  0.00     0.152 A 
ATOM      8  C   UNL     1     -10.476 -24.594 -33.995  1.00  0.00     0.127 A 
ATOM      9  N   UNL     1      -9.725 -23.666 -33.390  1.00  0.00    -0.340 N 
ATOM     10  H   UNL     1      -8.740 -23.386 -33.596  1.00  0.00     0.168 HD
ENDROOT
BRANCH   7  11
ATOM     11  N   UNL     1      -8.909 -25.438 -35.707  1.00  0.00    -0.382 N 
ATOM     12  H   UNL     1      -8.401 -24.537 -35.852  1.00  0.00     0.158 HD
ATOM     13  H   UNL     1      -8.467 -26.321 -36.045  1.00  0.00     0.158 HD
ENDBRANCH   7  11
TORSDOF 1
ENDMDL
MODEL 8
REMARK VINA RESULT:    -2.840     12.086     12.928
REMARK INTER + INTRA:          -2.923
REMARK INTER:                  -2.923
REMARK INTRA:                   0.000
REMARK UNBOUND:                 0.000
REMARK SMILES Nc1ncnc2nc[nH]c12
REMARK SMILES IDX 8 1 7 2 6 3 5 4 4 5 3 6 2 7 10 8 9 9 1 11
REMARK H PARENT 9 10 1 12 1 13
REMARK Flexibility Score: inf
ROOT
ATOM      1  C   UNL     1      -6.973 -27.136 -36.033  1.00  0.00     0.199 A 
ATOM      2  N   UNL     1      -8.152 -27.157 -35.352  1.00  0.00    -0.217 NA
ATOM      3  C   UNL     1      -7.801 -27.745 -34.196  1.00  0.00     0.182 A 
ATOM      4  N   UNL     1      -8.614 -28.011 -33.146  1.00  0.00    -0.215 NA
ATOM      5  C   UNL     1      -8.072 -28.620 -32.047  1.00  0.00     0.226 A 
ATOM      6  N   UNL     1      -6.740 -28.946 -32.019  1.00  0.00    -0.217 NA
ATOM      7  C   UNL     1      -5.918 -28.677 -33.077  1.00  0.00     0.152 A 
ATOM      8  C   UNL     1      -6.485 -28.058 -34.188  1.00  0.00     0.127 A 
ATOM      9  N   UNL     1      -5.936 -27.680 -35.348  1.00  0.00    -0.340 N 
ATOM     10  H   UNL     1      -4.945 -27.775 -35.664  1.00  0.00     0.168 HD
ENDROOT
BRANCH   7  11
ATOM     11  N   UNL     1      -4.533 -29.025 -33.025  1.00  0.00    -0.382 N 
ATOM     12  H   UNL     1      -4.213 -29.798 -32.400  1.00  0.00     0.158 HD
ATOM     13  H   UNL     1      -3.823 -28.522 -33.601  1.00  0.00     0.158 HD
ENDBRANCH   7  11
TORSDOF 1
ENDMDL
MODEL 9
REMARK VINA RESULT:    -2.778      8.564      8.708
REMARK INTER + INTRA:          -2.859
REMARK INTER:                  -2.859
REMARK INTRA:                   0.000
REMARK UNBOUND:                 0.000
REMARK SMILES Nc1ncnc2nc[nH]c12
REMARK SMILES IDX 8 1 7 2 6 3 5 4 4 5 3 6 2 7 10 8 9 9 1 11
REMARK H PARENT 9 10 1 12 1 13
REMARK Flexibility Score: inf
ROOT
ATOM      1  C   UNL     1      -8.461 -25.755 -36.721  1.00  0.00     0.199 A 
ATOM      2  N   UNL     1      -9.754 -26.140 -36.901  1.00  0.00    -0.217 NA
ATOM      3  C   UNL     1      -9.861 -26.158 -38.240  1.00  0.00     0.182 A 
ATOM      4  N   UNL     1     -10.963 -26.481 -38.958  1.00  0.00    -0.215 NA
ATOM      5  C   UNL     1     -10.880 -26.439 -40.323  1.00  0.00     0.226 A 
ATOM      6  N   UNL     1      -9.707 -26.080 -40.938  1.00  0.00    -0.217 NA
ATOM      7  C   UNL     1      -8.594 -25.755 -40.215  1.00  0.00     0.152 A 
ATOM      8  C   UNL     1      -8.696 -25.801 -38.827  1.00  0.00     0.127 A 
ATOM      9  N   UNL     1      -7.788 -25.539 -37.879  1.00  0.00    -0.340 N 
ATOM     10  H   UNL     1      -6.794 -25.241 -37.991  1.00  0.00     0.168 HD
ENDROOT
BRANCH   7  11
ATOM     11  N   UNL     1      -7.384 -25.384 -40.877  1.00  0.00    -0.382 N 
ATOM     12  H   UNL     1      -7.266 -25.578 -41.896  1.00  0.00     0.158 HD
ATOM     13  H   UNL     1      -6.603 -24.920 -40.363  1.00  0.00     0.158 HD
ENDBRANCH   7  11
TORSDOF 1
ENDMDL
