MODEL 1
REMARK VINA RESULT:    29.268      0.000      0.000
REMARK INTER + INTRA:          34.097
REMARK INTER:                  34.401
REMARK INTRA:                  -0.305
REMARK UNBOUND:                -0.305
REMARK SMILES O=c1c(O)c(-c2ccc(O)c(O)c2)oc2cc(O)ccc12
REMARK SMILES IDX 5 1 3 2 2 3 1 4 21 5 15 6 14 7 16 8 17 9 19 10 20 11 6 12
REMARK SMILES IDX 7 13 8 14 9 15 13 16 11 17 10 18 12 20 4 22 18 24
REMARK H PARENT 10 19 12 21 4 23 18 25
REMARK Flexibility Score: inf
ROOT
ATOM      1  C   UNL     1      15.309   4.270  14.940  1.00  0.00     0.180 A 
ATOM      2  C   UNL     1      14.128   3.993  14.220  1.00  0.00     0.208 A 
ATOM      3  C   UNL     1      13.192   5.023  14.034  1.00  0.00     0.235 A 
ATOM      4  O   UNL     1      12.123   4.797  13.403  1.00  0.00    -0.285 OA
ATOM      5  C   UNL     1      13.462   6.302  14.546  1.00  0.00     0.069 A 
ATOM      6  C   UNL     1      14.678   6.504  15.233  1.00  0.00     0.142 A 
ATOM      7  O   UNL     1      15.533   5.502  15.396  1.00  0.00    -0.452 OA
ATOM      8  C   UNL     1      14.987   7.767  15.750  1.00  0.00     0.094 A 
ATOM      9  C   UNL     1      14.092   8.834  15.590  1.00  0.00     0.119 A 
ATOM     10  C   UNL     1      12.886   8.635  14.910  1.00  0.00     0.047 A 
ATOM     11  C   UNL     1      12.568   7.377  14.389  1.00  0.00     0.020 A 
ENDROOT
BRANCH   1  12
ATOM     12  C   UNL     1      16.336   3.235  15.195  1.00  0.00     0.025 A 
ATOM     13  C   UNL     1      17.314   2.978  14.224  1.00  0.00     0.016 A 
ATOM     14  C   UNL     1      18.303   2.020  14.453  1.00  0.00     0.051 A 
ATOM     15  C   UNL     1      18.345   1.311  15.658  1.00  0.00     0.157 A 
ATOM     16  C   UNL     1      16.388   2.540  16.415  1.00  0.00     0.062 A 
ATOM     17  C   UNL     1      17.377   1.579  16.656  1.00  0.00     0.158 A 
BRANCH  15  18
ATOM     18  O   UNL     1      19.354   0.361  15.821  1.00  0.00    -0.504 OA
ATOM     19  H   UNL     1      19.331  -0.563  15.414  1.00  0.00     0.293 HD
ENDBRANCH  15  18
BRANCH  17  20
ATOM     20  O   UNL     1      17.367   0.926  17.890  1.00  0.00    -0.504 OA
ATOM     21  H   UNL     1      16.601   0.360  18.223  1.00  0.00     0.293 HD
ENDBRANCH  17  20
ENDBRANCH   1  12
BRANCH   2  22
ATOM     22  O   UNL     1      13.910   2.724  13.680  1.00  0.00    -0.502 OA
ATOM     23  H   UNL     1      13.100   2.508  13.112  1.00  0.00     0.293 HD
ENDBRANCH   2  22
BRANCH   9  24
ATOM     24  O   UNL     1      14.392  10.095  16.101  1.00  0.00    -0.508 OA
ATOM     25  H   UNL     1      14.776  10.827  15.515  1.00  0.00     0.293 HD
ENDBRANCH   9  24
TORSDOF 5
ENDMDL
MODEL 2
REMARK VINA RESULT:    29.564      2.394      6.611
REMARK INTER + INTRA:          34.444
REMARK INTER:                  34.042
REMARK INTRA:                   0.402
REMARK UNBOUND:                -0.305
REMARK SMILES O=c1c(O)c(-c2ccc(O)c(O)c2)oc2cc(O)ccc12
REMARK SMILES IDX 5 1 3 2 2 3 1 4 21 5 15 6 14 7 16 8 17 9 19 10 20 11 6 12
REMARK SMILES IDX 7 13 8 14 9 15 13 16 11 17 10 18 12 20 4 22 18 24
REMARK H PARENT 10 19 12 21 4 23 18 25
REMARK Flexibility Score: inf
ROOT
ATOM      1  C   UNL     1      15.002   7.612  16.046  1.00  0.00     0.180 A 
ATOM      2  C   UNL     1      13.959   7.528  15.101  1.00  0.00     0.208 A 
ATOM      3  C   UNL     1      13.467   6.262  14.747  1.00  0.00     0.235 A 
ATOM      4  O   UNL     1      12.542   6.160  13.895  1.00  0.00    -0.285 OA
ATOM      5  C   UNL     1      14.008   5.117  15.354  1.00  0.00     0.069 A 
ATOM      6  C   UNL     1      15.033   5.287  16.308  1.00  0.00     0.142 A 
ATOM      7  O   UNL     1      15.477   6.502  16.610  1.00  0.00    -0.452 OA
ATOM      8  C   UNL     1      15.590   4.171  16.943  1.00  0.00     0.094 A 
ATOM      9  C   UNL     1      15.136   2.882  16.632  1.00  0.00     0.119 A 
ATOM     10  C   UNL     1      14.120   2.712  15.685  1.00  0.00     0.047 A 
ATOM     11  C   UNL     1      13.556   3.820  15.047  1.00  0.00     0.020 A 
ENDROOT
BRANCH   1  12
ATOM     12  C   UNL     1      15.587   8.908  16.458  1.00  0.00     0.025 A 
ATOM     13  C   UNL     1      14.829  10.080  16.330  1.00  0.00     0.016 A 
ATOM     14  C   UNL     1      15.354  11.309  16.732  1.00  0.00     0.051 A 
ATOM     15  C   UNL     1      16.638  11.392  17.282  1.00  0.00     0.157 A 
ATOM     16  C   UNL     1      16.868   8.984  17.031  1.00  0.00     0.062 A 
ATOM     17  C   UNL     1      17.403  10.212  17.439  1.00  0.00     0.158 A 
BRANCH  15  18
ATOM     18  O   UNL     1      17.108  12.652  17.656  1.00  0.00    -0.504 OA
ATOM     19  H   UNL     1      17.544  12.851  18.544  1.00  0.00     0.293 HD
ENDBRANCH  15  18
BRANCH  17  20
ATOM     20  O   UNL     1      18.683  10.213  17.998  1.00  0.00    -0.504 OA
ATOM     21  H   UNL     1      18.897   9.861  18.920  1.00  0.00     0.293 HD
ENDBRANCH  17  20
ENDBRANCH   1  12
BRANCH   2  22
ATOM     22  O   UNL     1      13.408   8.688  14.550  1.00  0.00    -0.502 OA
ATOM     23  H   UNL     1      12.760   8.663  13.772  1.00  0.00     0.293 HD
ENDBRANCH   2  22
BRANCH   9  24
ATOM     24  O   UNL     1      15.685   1.766  17.258  1.00  0.00    -0.508 OA
ATOM     25  H   UNL     1      15.374   1.467  18.176  1.00  0.00     0.293 HD
ENDBRANCH   9  24
TORSDOF 5
ENDMDL
MODEL 3
REMARK VINA RESULT:    29.760      2.918      4.672
REMARK INTER + INTRA:          34.675
REMARK INTER:                  34.273
REMARK INTRA:                   0.402
REMARK UNBOUND:                -0.305
REMARK SMILES O=c1c(O)c(-c2ccc(O)c(O)c2)oc2cc(O)ccc12
REMARK SMILES IDX 5 1 3 2 2 3 1 4 21 5 15 6 14 7 16 8 17 9 19 10 20 11 6 12
REMARK SMILES IDX 7 13 8 14 9 15 13 16 11 17 10 18 12 20 4 22 18 24
REMARK H PARENT 10 19 12 21 4 23 18 25
REMARK Flexibility Score: inf
ROOT
ATOM      1  C   UNL     1      17.056   3.273  13.739  1.00  0.00     0.180 A 
ATOM      2  C   UNL     1      17.167   2.741  15.040  1.00  0.00     0.208 A 
ATOM      3  C   UNL     1      16.142   2.996  15.965  1.00  0.00     0.235 A 
ATOM      4  O   UNL     1      16.223   2.541  17.138  1.00  0.00    -0.285 OA
ATOM      5  C   UNL     1      15.027   3.751  15.568  1.00  0.00     0.069 A 
ATOM      6  C   UNL     1      14.979   4.227  14.240  1.00  0.00     0.142 A 
ATOM      7  O   UNL     1      15.974   3.972  13.398  1.00  0.00    -0.452 OA
ATOM      8  C   UNL     1      13.880   4.975  13.804  1.00  0.00     0.094 A 
ATOM      9  C   UNL     1      12.824   5.257  14.682  1.00  0.00     0.119 A 
ATOM     10  C   UNL     1      12.871   4.787  15.999  1.00  0.00     0.047 A 
ATOM     11  C   UNL     1      13.964   4.038  16.444  1.00  0.00     0.020 A 
ENDROOT
BRANCH   1  12
ATOM     12  C   UNL     1      18.103   3.065  12.712  1.00  0.00     0.025 A 
ATOM     13  C   UNL     1      18.956   1.957  12.811  1.00  0.00     0.016 A 
ATOM     14  C   UNL     1      19.936   1.732  11.843  1.00  0.00     0.051 A 
ATOM     15  C   UNL     1      20.075   2.597  10.752  1.00  0.00     0.157 A 
ATOM     16  C   UNL     1      18.224   3.923  11.606  1.00  0.00     0.062 A 
ATOM     17  C   UNL     1      19.202   3.704  10.628  1.00  0.00     0.158 A 
BRANCH  15  18
ATOM     18  O   UNL     1      21.080   2.320   9.824  1.00  0.00    -0.504 OA
ATOM     19  H   UNL     1      21.980   2.777   9.813  1.00  0.00     0.293 HD
ENDBRANCH  15  18
BRANCH  17  20
ATOM     20  O   UNL     1      19.266   4.598   9.558  1.00  0.00    -0.504 OA
ATOM     21  H   UNL     1      19.347   4.317   8.591  1.00  0.00     0.293 HD
ENDBRANCH  17  20
ENDBRANCH   1  12
BRANCH   2  22
ATOM     22  O   UNL     1      18.265   1.953  15.391  1.00  0.00    -0.502 OA
ATOM     23  H   UNL     1      19.200   2.145  15.052  1.00  0.00     0.293 HD
ENDBRANCH   2  22
BRANCH   9  24
ATOM     24  O   UNL     1      11.726   6.001  14.257  1.00  0.00    -0.508 OA
ATOM     25  H   UNL     1      11.190   5.734  13.439  1.00  0.00     0.293 HD
ENDBRANCH   9  24
TORSDOF 5
ENDMDL
MODEL 4
REMARK VINA RESULT:    31.124      1.746      6.954
REMARK INTER + INTRA:          36.278
REMARK INTER:                  36.568
REMARK INTRA:                  -0.290
REMARK UNBOUND:                -0.305
REMARK SMILES O=c1c(O)c(-c2ccc(O)c(O)c2)oc2cc(O)ccc12
REMARK SMILES IDX 5 1 3 2 2 3 1 4 21 5 15 6 14 7 16 8 17 9 19 10 20 11 6 12
REMARK SMILES IDX 7 13 8 14 9 15 13 16 11 17 10 18 12 20 4 22 18 24
REMARK H PARENT 10 19 12 21 4 23 18 25
REMARK Flexibility Score: inf
ROOT
ATOM      1  C   UNL     1      14.799   5.607  15.674  1.00  0.00     0.180 A 
ATOM      2  C   UNL     1      14.537   4.973  16.906  1.00  0.00     0.208 A 
ATOM      3  C   UNL     1      15.157   3.743  17.179  1.00  0.00     0.235 A 
ATOM      4  O   UNL     1      14.930   3.151  18.269  1.00  0.00    -0.285 OA
ATOM      5  C   UNL     1      16.033   3.187  16.233  1.00  0.00     0.069 A 
ATOM      6  C   UNL     1      16.262   3.896  15.035  1.00  0.00     0.142 A 
ATOM      7  O   UNL     1      15.649   5.053  14.811  1.00  0.00    -0.452 OA
ATOM      8  C   UNL     1      17.136   3.380  14.073  1.00  0.00     0.094 A 
ATOM      9  C   UNL     1      17.786   2.158  14.292  1.00  0.00     0.119 A 
ATOM     10  C   UNL     1      17.560   1.453  15.480  1.00  0.00     0.047 A 
ATOM     11  C   UNL     1      16.689   1.961  16.448  1.00  0.00     0.020 A 
ENDROOT
BRANCH   1  12
ATOM     12  C   UNL     1      14.171   6.896  15.304  1.00  0.00     0.025 A 
ATOM     13  C   UNL     1      14.718   8.094  15.784  1.00  0.00     0.016 A 
ATOM     14  C   UNL     1      14.153   9.320  15.430  1.00  0.00     0.051 A 
ATOM     15  C   UNL     1      13.043   9.378  14.582  1.00  0.00     0.157 A 
ATOM     16  C   UNL     1      13.069   6.950  14.433  1.00  0.00     0.062 A 
ATOM     17  C   UNL     1      12.498   8.176  14.070  1.00  0.00     0.158 A 
BRANCH  15  18
ATOM     18  O   UNL     1      12.522  10.635  14.274  1.00  0.00    -0.504 OA
ATOM     19  H   UNL     1      11.627  10.971  14.601  1.00  0.00     0.293 HD
ENDBRANCH  15  18
BRANCH  17  20
ATOM     20  O   UNL     1      11.404   8.155  13.202  1.00  0.00    -0.504 OA
ATOM     21  H   UNL     1      10.444   8.073  13.505  1.00  0.00     0.293 HD
ENDBRANCH  17  20
ENDBRANCH   1  12
BRANCH   2  22
ATOM     22  O   UNL     1      13.698   5.574  17.847  1.00  0.00    -0.502 OA
ATOM     23  H   UNL     1      13.946   5.645  18.827  1.00  0.00     0.293 HD
ENDBRANCH   2  22
BRANCH   9  24
ATOM     24  O   UNL     1      18.659   1.636  13.340  1.00  0.00    -0.508 OA
ATOM     25  H   UNL     1      18.900   0.652  13.325  1.00  0.00     0.293 HD
ENDBRANCH   9  24
TORSDOF 5
ENDMDL
MODEL 5
REMARK VINA RESULT:    31.627     10.070     12.111
REMARK INTER + INTRA:          36.869
REMARK INTER:                  36.406
REMARK INTRA:                   0.463
REMARK UNBOUND:                -0.305
REMARK SMILES O=c1c(O)c(-c2ccc(O)c(O)c2)oc2cc(O)ccc12
REMARK SMILES IDX 5 1 3 2 2 3 1 4 21 5 15 6 14 7 16 8 17 9 19 10 20 11 6 12
REMARK SMILES IDX 7 13 8 14 9 15 13 16 11 17 10 18 12 20 4 22 18 24
REMARK H PARENT 10 19 12 21 4 23 18 25
REMARK Flexibility Score: inf
ROOT
ATOM      1  C   UNL     1       7.713   0.921  20.835  1.00  0.00     0.180 A 
ATOM      2  C   UNL     1       7.417   0.135  19.703  1.00  0.00     0.208 A 
ATOM      3  C   UNL     1       7.163  -1.235  19.878  1.00  0.00     0.235 A 
ATOM      4  O   UNL     1       6.906  -1.961  18.879  1.00  0.00    -0.285 OA
ATOM      5  C   UNL     1       7.190  -1.782  21.170  1.00  0.00     0.069 A 
ATOM      6  C   UNL     1       7.470  -0.923  22.255  1.00  0.00     0.142 A 
ATOM      7  O   UNL     1       7.713   0.366  22.046  1.00  0.00    -0.452 OA
ATOM      8  C   UNL     1       7.495  -1.429  23.559  1.00  0.00     0.094 A 
ATOM      9  C   UNL     1       7.246  -2.788  23.794  1.00  0.00     0.119 A 
ATOM     10  C   UNL     1       6.968  -3.640  22.721  1.00  0.00     0.047 A 
ATOM     11  C   UNL     1       6.939  -3.145  21.414  1.00  0.00     0.020 A 
ENDROOT
BRANCH   1  12
ATOM     12  C   UNL     1       8.010   2.368  20.732  1.00  0.00     0.025 A 
ATOM     13  C   UNL     1       8.244   3.110  21.899  1.00  0.00     0.016 A 
ATOM     14  C   UNL     1       8.545   4.471  21.822  1.00  0.00     0.051 A 
ATOM     15  C   UNL     1       8.633   5.115  20.584  1.00  0.00     0.157 A 
ATOM     16  C   UNL     1       8.119   3.007  19.485  1.00  0.00     0.062 A 
ATOM     17  C   UNL     1       8.424   4.370  19.398  1.00  0.00     0.158 A 
BRANCH  15  18
ATOM     18  O   UNL     1       8.930   6.478  20.577  1.00  0.00    -0.504 OA
ATOM     19  H   UNL     1       8.576   7.136  21.257  1.00  0.00     0.293 HD
ENDBRANCH  15  18
BRANCH  17  20
ATOM     20  O   UNL     1       8.515   4.939  18.126  1.00  0.00    -0.504 OA
ATOM     21  H   UNL     1       8.272   5.896  17.917  1.00  0.00     0.293 HD
ENDBRANCH  17  20
ENDBRANCH   1  12
BRANCH   2  22
ATOM     22  O   UNL     1       7.350   0.718  18.435  1.00  0.00    -0.502 OA
ATOM     23  H   UNL     1       7.176   0.175  17.598  1.00  0.00     0.293 HD
ENDBRANCH   2  22
BRANCH   9  24
ATOM     24  O   UNL     1       7.269  -3.300  25.090  1.00  0.00    -0.508 OA
ATOM     25  H   UNL     1       6.823  -4.181  25.319  1.00  0.00     0.293 HD
ENDBRANCH   9  24
TORSDOF 5
ENDMDL
