MODEL 1
REMARK VINA RESULT:    -3.249      0.000      0.000
REMARK INTER + INTRA:          -4.617
REMARK INTER:                  -4.579
REMARK INTRA:                  -0.038
REMARK UNBOUND:                -0.038
REMARK SMILES CC1=CCC(=C(C)C)C(=O)CC(C)=CCC1
REMARK SMILES IDX 12 1 14 2 13 3 15 4 16 5 2 6 1 7 3 8 11 10 9 11 10 12 5 13
REMARK SMILES IDX 6 14 7 15 8 16 4 17
REMARK H PARENT
REMARK Flexibility Score: 60.00
ROOT
ATOM      1  C   UNL     1      20.320  42.396  94.005  1.00  0.00    -0.070 C 
ATOM      2  C   UNL     1      19.595  41.469  94.673  1.00  0.00    -0.027 C 
ATOM      3  C   UNL     1      21.248  43.264  94.822  1.00  0.00     0.039 C 
ENDROOT
BRANCH   2   4
ATOM      4  C   UNL     1      18.644  40.469  94.067  1.00  0.00     0.032 C 
BRANCH   4   5
ATOM      5  C   UNL     1      19.308  39.359  93.218  1.00  0.00     0.034 C 
BRANCH   5   6
ATOM      6  C   UNL     1      18.827  39.256  91.778  1.00  0.00    -0.077 C 
ATOM      7  C   UNL     1      17.366  38.954  91.549  1.00  0.00     0.039 C 
ATOM      8  C   UNL     1      19.619  39.358  90.675  1.00  0.00    -0.023 CG0
ATOM      9  G   UNL     1      21.073  39.792  90.555  1.00  0.00     0.000 G0
ENDBRANCH   5   6
ENDBRANCH   4   5
ENDBRANCH   2   4
BRANCH   1  10
ATOM     10  C   UNL     1      20.307  42.593  92.493  1.00  0.00     0.111 C 
BRANCH  10  11
ATOM     11  C   UNL     1      21.494  42.049  91.730  1.00  0.00     0.163 C 
ATOM     12  O   UNL     1      22.630  42.279  92.226  1.00  0.00    -0.294 OA
BRANCH  11  13
ATOM     13  C   UNL     1      21.378  41.258  90.451  1.00  0.00    -0.002 C 
ATOM     14  C   UNL     1      21.586  41.829  89.222  1.00  0.00    -0.069 C 
ATOM     15  C   UNL     1      21.589  40.996  87.957  1.00  0.00     0.039 C 
ATOM     16  C   UNL     1      21.791  43.317  89.048  1.00  0.00     0.039 C 
BRANCH  13  17
ATOM     17  C   UNL     1      21.081  39.770  90.551  1.00  0.00     0.066 CG0
ATOM     18  G   UNL     1      19.619  39.371  90.689  1.00  0.00     0.000 G0
ENDBRANCH  13  17
ENDBRANCH  11  13
ENDBRANCH  10  11
ENDBRANCH   1  10
TORSDOF 0
ENDMDL
MODEL 2
REMARK VINA RESULT:    -2.908      2.587      5.116
REMARK INTER + INTRA:          -4.136
REMARK INTER:                  -4.114
REMARK INTRA:                  -0.021
REMARK UNBOUND:                -0.038
REMARK SMILES CC1=CCC(=C(C)C)C(=O)CC(C)=CCC1
REMARK SMILES IDX 12 1 14 2 13 3 15 4 16 5 2 6 1 7 3 8 11 10 9 11 10 12 5 13
REMARK SMILES IDX 6 14 7 15 8 16 4 17
REMARK H PARENT
REMARK Flexibility Score: 60.00
ROOT
ATOM      1  C   UNL     1      21.296  41.142  92.057  1.00  0.00    -0.070 C 
ATOM      2  C   UNL     1      21.528  42.209  92.857  1.00  0.00    -0.027 C 
ATOM      3  C   UNL     1      22.503  40.414  91.514  1.00  0.00     0.039 C 
ENDROOT
BRANCH   2   4
ATOM      4  C   UNL     1      20.487  43.055  93.545  1.00  0.00     0.032 C 
BRANCH   4   5
ATOM      5  C   UNL     1      20.433  42.910  95.085  1.00  0.00     0.034 C 
BRANCH   5   6
ATOM      6  C   UNL     1      20.638  41.501  95.620  1.00  0.00    -0.077 C 
ATOM      7  C   UNL     1      21.910  41.221  96.382  1.00  0.00     0.039 C 
ATOM      8  C   UNL     1      19.791  40.452  95.420  1.00  0.00    -0.023 CG0
ATOM      9  G   UNL     1      18.387  40.431  94.833  1.00  0.00     0.000 G0
ENDBRANCH   5   6
ENDBRANCH   4   5
ENDBRANCH   2   4
BRANCH   1  10
ATOM     10  C   UNL     1      19.917  40.593  91.709  1.00  0.00     0.111 C 
BRANCH  10  11
ATOM     11  C   UNL     1      19.372  39.511  92.613  1.00  0.00     0.163 C 
ATOM     12  O   UNL     1      19.983  38.408  92.597  1.00  0.00    -0.294 OA
BRANCH  11  13
ATOM     13  C   UNL     1      18.175  39.694  93.514  1.00  0.00    -0.002 C 
ATOM     14  C   UNL     1      16.943  39.182  93.199  1.00  0.00    -0.069 C 
ATOM     15  C   UNL     1      15.784  39.267  94.169  1.00  0.00     0.039 C 
ATOM     16  C   UNL     1      16.656  38.536  91.862  1.00  0.00     0.039 C 
BRANCH  13  17
ATOM     17  C   UNL     1      18.376  40.419  94.835  1.00  0.00     0.066 CG0
ATOM     18  G   UNL     1      19.788  40.430  95.403  1.00  0.00     0.000 G0
ENDBRANCH  13  17
ENDBRANCH  11  13
ENDBRANCH  10  11
ENDBRANCH   1  10
TORSDOF 0
ENDMDL
MODEL 3
REMARK VINA RESULT:    -2.832      2.716      3.772
REMARK INTER + INTRA:          -4.028
REMARK INTER:                  -3.840
REMARK INTRA:                  -0.188
REMARK UNBOUND:                -0.038
REMARK SMILES CC1=CCC(=C(C)C)C(=O)CC(C)=CCC1
REMARK SMILES IDX 12 1 14 2 13 3 15 4 16 5 2 6 1 7 3 8 11 10 9 11 10 12 5 13
REMARK SMILES IDX 6 14 7 15 8 16 4 17
REMARK H PARENT
REMARK Flexibility Score: 60.00
ROOT
ATOM      1  C   UNL     1      18.540  40.338  94.050  1.00  0.00    -0.070 C 
ATOM      2  C   UNL     1      17.418  40.005  94.729  1.00  0.00    -0.027 C 
ATOM      3  C   UNL     1      19.665  40.962  94.843  1.00  0.00     0.039 C 
ENDROOT
BRANCH   2   4
ATOM      4  C   UNL     1      16.193  39.335  94.160  1.00  0.00     0.032 C 
BRANCH   4   5
ATOM      5  C   UNL     1      16.339  37.820  93.885  1.00  0.00     0.034 C 
BRANCH   5   6
ATOM      6  C   UNL     1      15.898  37.357  92.504  1.00  0.00    -0.077 C 
ATOM      7  C   UNL     1      14.435  37.485  92.158  1.00  0.00     0.039 C 
ATOM      8  C   UNL     1      16.708  36.782  91.571  1.00  0.00    -0.023 CG0
ATOM      9  G   UNL     1      18.223  36.642  91.548  1.00  0.00     0.000 G0
ENDBRANCH   5   6
ENDBRANCH   4   5
ENDBRANCH   2   4
BRANCH   1  10
ATOM     10  C   UNL     1      18.772  40.085  92.564  1.00  0.00     0.111 C 
BRANCH  10  11
ATOM     11  C   UNL     1      19.499  38.810  92.201  1.00  0.00     0.163 C 
ATOM     12  O   UNL     1      20.539  38.550  92.865  1.00  0.00    -0.294 OA
BRANCH  11  13
ATOM     13  C   UNL     1      19.039  37.860  91.123  1.00  0.00    -0.002 C 
ATOM     14  C   UNL     1      19.382  38.034  89.807  1.00  0.00    -0.069 C 
ATOM     15  C   UNL     1      19.018  37.006  88.756  1.00  0.00     0.039 C 
ATOM     16  C   UNL     1      20.110  39.266  89.318  1.00  0.00     0.039 C 
BRANCH  13  17
ATOM     17  C   UNL     1      18.222  36.646  91.536  1.00  0.00     0.066 CG0
ATOM     18  G   UNL     1      16.710  36.816  91.568  1.00  0.00     0.000 G0
ENDBRANCH  13  17
ENDBRANCH  11  13
ENDBRANCH  10  11
ENDBRANCH   1  10
TORSDOF 0
ENDMDL
MODEL 4
REMARK VINA RESULT:    -2.816      2.151      4.038
REMARK INTER + INTRA:          -4.005
REMARK INTER:                  -3.981
REMARK INTRA:                  -0.024
REMARK UNBOUND:                -0.038
REMARK SMILES CC1=CCC(=C(C)C)C(=O)CC(C)=CCC1
REMARK SMILES IDX 12 1 14 2 13 3 15 4 16 5 2 6 1 7 3 8 11 10 9 11 10 12 5 13
REMARK SMILES IDX 6 14 7 15 8 16 4 17
REMARK H PARENT
REMARK Flexibility Score: 60.00
ROOT
ATOM      1  C   UNL     1      17.658  39.413  94.093  1.00  0.00    -0.070 C 
ATOM      2  C   UNL     1      18.248  40.386  94.824  1.00  0.00    -0.027 C 
ATOM      3  C   UNL     1      16.176  39.200  94.298  1.00  0.00     0.039 C 
ENDROOT
BRANCH   2   4
ATOM      4  C   UNL     1      19.695  40.805  94.756  1.00  0.00     0.032 C 
BRANCH   4   5
ATOM      5  C   UNL     1      19.978  42.056  93.891  1.00  0.00     0.034 C 
BRANCH   5   6
ATOM      6  C   UNL     1      21.093  41.909  92.867  1.00  0.00    -0.077 C 
ATOM      7  C   UNL     1      22.500  42.224  93.315  1.00  0.00     0.039 C 
ATOM      8  C   UNL     1      20.921  41.570  91.559  1.00  0.00    -0.023 CG0
ATOM      9  G   UNL     1      19.680  41.061  90.839  1.00  0.00     0.000 G0
ENDBRANCH   5   6
ENDBRANCH   4   5
ENDBRANCH   2   4
BRANCH   1  10
ATOM     10  C   UNL     1      18.361  38.555  93.047  1.00  0.00     0.111 C 
BRANCH  10  11
ATOM     11  C   UNL     1      18.265  39.023  91.613  1.00  0.00     0.163 C 
ATOM     12  O   UNL     1      17.125  38.955  91.078  1.00  0.00    -0.294 OA
BRANCH  11  13
ATOM     13  C   UNL     1      19.434  39.562  90.825  1.00  0.00    -0.002 C 
ATOM     14  C   UNL     1      20.234  38.749  90.065  1.00  0.00    -0.069 C 
ATOM     15  C   UNL     1      21.325  39.319  89.183  1.00  0.00     0.039 C 
ATOM     16  C   UNL     1      20.103  37.242  90.082  1.00  0.00     0.039 C 
BRANCH  13  17
ATOM     17  C   UNL     1      19.678  41.062  90.839  1.00  0.00     0.066 CG0
ATOM     18  G   UNL     1      20.926  41.546  91.564  1.00  0.00     0.000 G0
ENDBRANCH  13  17
ENDBRANCH  11  13
ENDBRANCH  10  11
ENDBRANCH   1  10
TORSDOF 0
ENDMDL
MODEL 5
REMARK VINA RESULT:    -2.738      1.713      4.952
REMARK INTER + INTRA:          -3.896
REMARK INTER:                  -3.948
REMARK INTRA:                   0.053
REMARK UNBOUND:                -0.038
REMARK SMILES CC1=CCC(=C(C)C)C(=O)CC(C)=CCC1
REMARK SMILES IDX 12 1 14 2 13 3 15 4 16 5 2 6 1 7 3 8 11 10 9 11 10 12 5 13
REMARK SMILES IDX 6 14 7 15 8 16 4 17
REMARK H PARENT
REMARK Flexibility Score: 60.00
ROOT
ATOM      1  C   UNL     1      21.778  40.551  87.985  1.00  0.00    -0.070 C 
ATOM      2  C   UNL     1      21.837  41.818  88.458  1.00  0.00    -0.027 C 
ATOM      3  C   UNL     1      21.277  40.367  86.572  1.00  0.00     0.039 C 
ENDROOT
BRANCH   2   4
ATOM      4  C   UNL     1      22.342  42.245  89.813  1.00  0.00     0.032 C 
BRANCH   4   5
ATOM      5  C   UNL     1      21.316  43.000  90.690  1.00  0.00     0.034 C 
BRANCH   5   6
ATOM      6  C   UNL     1      20.853  42.266  91.940  1.00  0.00    -0.077 C 
ATOM      7  C   UNL     1      21.276  42.826  93.276  1.00  0.00     0.039 C 
ATOM      8  C   UNL     1      20.133  41.110  91.952  1.00  0.00    -0.023 CG0
ATOM      9  G   UNL     1      19.441  40.380  90.809  1.00  0.00     0.000 G0
ENDBRANCH   5   6
ENDBRANCH   4   5
ENDBRANCH   2   4
BRANCH   1  10
ATOM     10  C   UNL     1      22.224  39.310  88.750  1.00  0.00     0.111 C 
BRANCH  10  11
ATOM     11  C   UNL     1      21.590  39.085  90.103  1.00  0.00     0.163 C 
ATOM     12  O   UNL     1      22.382  38.912  91.070  1.00  0.00    -0.294 OA
BRANCH  11  13
ATOM     13  C   UNL     1      20.100  39.072  90.341  1.00  0.00    -0.002 C 
ATOM     14  C   UNL     1      19.350  37.935  90.188  1.00  0.00    -0.069 C 
ATOM     15  C   UNL     1      17.879  37.908  90.549  1.00  0.00     0.039 C 
ATOM     16  C   UNL     1      19.927  36.657  89.622  1.00  0.00     0.039 C 
BRANCH  13  17
ATOM     17  C   UNL     1      19.440  40.354  90.823  1.00  0.00     0.066 CG0
ATOM     18  G   UNL     1      20.138  41.103  91.949  1.00  0.00     0.000 G0
ENDBRANCH  13  17
ENDBRANCH  11  13
ENDBRANCH  10  11
ENDBRANCH   1  10
TORSDOF 0
ENDMDL
MODEL 6
REMARK VINA RESULT:    -2.727      1.433      4.037
REMARK INTER + INTRA:          -3.881
REMARK INTER:                  -3.641
REMARK INTRA:                  -0.240
REMARK UNBOUND:                -0.038
REMARK SMILES CC1=CCC(=C(C)C)C(=O)CC(C)=CCC1
REMARK SMILES IDX 12 1 14 2 13 3 15 4 16 5 2 6 1 7 3 8 11 10 9 11 10 12 5 13
REMARK SMILES IDX 6 14 7 15 8 16 4 17
REMARK H PARENT
REMARK Flexibility Score: 60.00
ROOT
ATOM      1  C   UNL     1      21.285  42.388  93.385  1.00  0.00    -0.070 C 
ATOM      2  C   UNL     1      21.206  43.383  92.471  1.00  0.00    -0.027 C 
ATOM      3  C   UNL     1      20.359  42.472  94.576  1.00  0.00     0.039 C 
ENDROOT
BRANCH   2   4
ATOM      4  C   UNL     1      21.994  43.487  91.190  1.00  0.00     0.032 C 
BRANCH   4   5
ATOM      5  C   UNL     1      21.250  43.012  89.919  1.00  0.00     0.034 C 
BRANCH   5   6
ATOM      6  C   UNL     1      21.592  41.607  89.444  1.00  0.00    -0.077 C 
ATOM      7  C   UNL     1      22.765  41.454  88.506  1.00  0.00     0.039 C 
ATOM      8  C   UNL     1      20.891  40.481  89.750  1.00  0.00    -0.023 CG0
ATOM      9  G   UNL     1      19.771  40.273  90.759  1.00  0.00     0.000 G0
ENDBRANCH   5   6
ENDBRANCH   4   5
ENDBRANCH   2   4
BRANCH   1  10
ATOM     10  C   UNL     1      22.196  41.170  93.276  1.00  0.00     0.111 C 
BRANCH  10  11
ATOM     11  C   UNL     1      21.628  39.962  92.567  1.00  0.00     0.163 C 
ATOM     12  O   UNL     1      22.438  39.030  92.314  1.00  0.00    -0.294 OA
BRANCH  11  13
ATOM     13  C   UNL     1      20.177  39.824  92.174  1.00  0.00    -0.002 C 
ATOM     14  C   UNL     1      19.226  39.376  93.053  1.00  0.00    -0.069 C 
ATOM     15  C   UNL     1      17.757  39.360  92.684  1.00  0.00     0.039 C 
ATOM     16  C   UNL     1      19.580  38.841  94.423  1.00  0.00     0.039 C 
BRANCH  13  17
ATOM     17  C   UNL     1      19.768  40.258  90.775  1.00  0.00     0.066 CG0
ATOM     18  G   UNL     1      20.889  40.474  89.769  1.00  0.00     0.000 G0
ENDBRANCH  13  17
ENDBRANCH  11  13
ENDBRANCH  10  11
ENDBRANCH   1  10
TORSDOF 0
ENDMDL
MODEL 7
REMARK VINA RESULT:    -2.672      1.737      4.438
REMARK INTER + INTRA:          -3.803
REMARK INTER:                  -3.700
REMARK INTRA:                  -0.103
REMARK UNBOUND:                -0.038
REMARK SMILES CC1=CCC(=C(C)C)C(=O)CC(C)=CCC1
REMARK SMILES IDX 12 1 14 2 13 3 15 4 16 5 2 6 1 7 3 8 11 10 9 11 10 12 5 13
REMARK SMILES IDX 6 14 7 15 8 16 4 17
REMARK H PARENT
REMARK Flexibility Score: 60.00
ROOT
ATOM      1  C   UNL     1      21.429  40.603  89.315  1.00  0.00    -0.070 C 
ATOM      2  C   UNL     1      21.038  39.612  88.481  1.00  0.00    -0.027 C 
ATOM      3  C   UNL     1      21.755  41.939  88.689  1.00  0.00     0.039 C 
ENDROOT
BRANCH   2   4
ATOM      4  C   UNL     1      20.622  38.218  88.880  1.00  0.00     0.032 C 
BRANCH   4   5
ATOM      5  C   UNL     1      19.191  38.097  89.455  1.00  0.00     0.034 C 
BRANCH   5   6
ATOM      6  C   UNL     1      19.087  37.459  90.833  1.00  0.00    -0.077 C 
ATOM      7  C   UNL     1      19.414  35.990  90.948  1.00  0.00     0.039 C 
ATOM      8  C   UNL     1      18.669  38.093  91.964  1.00  0.00    -0.023 CG0
ATOM      9  G   UNL     1      18.409  39.571  92.214  1.00  0.00     0.000 G0
ENDBRANCH   5   6
ENDBRANCH   4   5
ENDBRANCH   2   4
BRANCH   1  10
ATOM     10  C   UNL     1      21.516  40.487  90.832  1.00  0.00     0.111 C 
BRANCH  10  11
ATOM     11  C   UNL     1      20.403  41.134  91.624  1.00  0.00     0.163 C 
ATOM     12  O   UNL     1      20.156  42.342  91.358  1.00  0.00    -0.294 OA
BRANCH  11  13
ATOM     13  C   UNL     1      19.593  40.416  92.675  1.00  0.00    -0.002 C 
ATOM     14  C   UNL     1      19.859  40.547  94.014  1.00  0.00    -0.069 C 
ATOM     15  C   UNL     1      18.963  39.919  95.060  1.00  0.00     0.039 C 
ATOM     16  C   UNL     1      21.073  41.289  94.526  1.00  0.00     0.039 C 
BRANCH  13  17
ATOM     17  C   UNL     1      18.411  39.574  92.220  1.00  0.00     0.066 CG0
ATOM     18  G   UNL     1      18.673  38.093  91.990  1.00  0.00     0.000 G0
ENDBRANCH  13  17
ENDBRANCH  11  13
ENDBRANCH  10  11
ENDBRANCH   1  10
TORSDOF 0
ENDMDL
MODEL 8
REMARK VINA RESULT:    -2.518      1.383      4.290
REMARK INTER + INTRA:          -3.586
REMARK INTER:                  -3.664
REMARK INTRA:                   0.078
REMARK UNBOUND:                -0.038
REMARK SMILES CC1=CCC(=C(C)C)C(=O)CC(C)=CCC1
REMARK SMILES IDX 12 1 14 2 13 3 15 4 16 5 2 6 1 7 3 8 11 10 9 11 10 12 5 13
REMARK SMILES IDX 6 14 7 15 8 16 4 17
REMARK H PARENT
REMARK Flexibility Score: 60.00
ROOT
ATOM      1  C   UNL     1      22.987  42.568  89.433  1.00  0.00    -0.070 C 
ATOM      2  C   UNL     1      22.862  41.672  88.427  1.00  0.00    -0.027 C 
ATOM      3  C   UNL     1      23.106  44.024  89.047  1.00  0.00     0.039 C 
ENDROOT
BRANCH   2   4
ATOM      4  C   UNL     1      22.685  40.181  88.573  1.00  0.00     0.032 C 
BRANCH   4   5
ATOM      5  C   UNL     1      21.219  39.688  88.560  1.00  0.00     0.034 C 
BRANCH   5   6
ATOM      6  C   UNL     1      20.737  39.024  89.842  1.00  0.00    -0.077 C 
ATOM      7  C   UNL     1      20.964  37.539  89.988  1.00  0.00     0.039 C 
ATOM      8  C   UNL     1      20.065  39.650  90.847  1.00  0.00    -0.023 CG0
ATOM      9  G   UNL     1      19.807  41.133  91.073  1.00  0.00     0.000 G0
ENDBRANCH   5   6
ENDBRANCH   4   5
ENDBRANCH   2   4
BRANCH   1  10
ATOM     10  C   UNL     1      22.965  42.226  90.919  1.00  0.00     0.111 C 
BRANCH  10  11
ATOM     11  C   UNL     1      21.775  42.720  91.709  1.00  0.00     0.163 C 
ATOM     12  O   UNL     1      21.761  43.950  91.988  1.00  0.00    -0.294 OA
BRANCH  11  13
ATOM     13  C   UNL     1      20.635  41.836  92.151  1.00  0.00    -0.002 C 
ATOM     14  C   UNL     1      20.298  41.691  93.472  1.00  0.00    -0.069 C 
ATOM     15  C   UNL     1      19.077  40.899  93.891  1.00  0.00     0.039 C 
ATOM     16  C   UNL     1      21.135  42.277  94.588  1.00  0.00     0.039 C 
BRANCH  13  17
ATOM     17  C   UNL     1      19.809  41.140  91.081  1.00  0.00     0.066 CG0
ATOM     18  G   UNL     1      20.082  39.660  90.858  1.00  0.00     0.000 G0
ENDBRANCH  13  17
ENDBRANCH  11  13
ENDBRANCH  10  11
ENDBRANCH   1  10
TORSDOF 0
ENDMDL
MODEL 9
REMARK VINA RESULT:    -2.379      2.421      4.217
REMARK INTER + INTRA:          -3.390
REMARK INTER:                  -3.326
REMARK INTRA:                  -0.064
REMARK UNBOUND:                -0.038
REMARK SMILES CC1=CCC(=C(C)C)C(=O)CC(C)=CCC1
REMARK SMILES IDX 12 1 14 2 13 3 15 4 16 5 2 6 1 7 3 8 11 10 9 11 10 12 5 13
REMARK SMILES IDX 6 14 7 15 8 16 4 17
REMARK H PARENT
REMARK Flexibility Score: 60.00
ROOT
ATOM      1  C   UNL     1      19.441  40.148  91.712  1.00  0.00    -0.070 C 
ATOM      2  C   UNL     1      18.638  39.640  92.675  1.00  0.00    -0.027 C 
ATOM      3  C   UNL     1      19.602  39.333  90.450  1.00  0.00     0.039 C 
ENDROOT
BRANCH   2   4
ATOM      4  C   UNL     1      18.295  40.292  93.991  1.00  0.00     0.032 C 
BRANCH   4   5
ATOM      5  C   UNL     1      18.825  39.561  95.247  1.00  0.00     0.034 C 
BRANCH   5   6
ATOM      6  C   UNL     1      20.325  39.301  95.273  1.00  0.00    -0.077 C 
ATOM      7  C   UNL     1      20.784  37.865  95.336  1.00  0.00     0.039 C 
ATOM      8  C   UNL     1      21.289  40.263  95.302  1.00  0.00    -0.023 CG0
ATOM      9  G   UNL     1      21.172  41.768  95.110  1.00  0.00     0.000 G0
ENDBRANCH   5   6
ENDBRANCH   4   5
ENDBRANCH   2   4
BRANCH   1  10
ATOM     10  C   UNL     1      20.149  41.497  91.783  1.00  0.00     0.111 C 
BRANCH  10  11
ATOM     11  C   UNL     1      21.456  41.535  92.541  1.00  0.00     0.163 C 
ATOM     12  O   UNL     1      22.402  40.854  92.060  1.00  0.00    -0.294 OA
BRANCH  11  13
ATOM     13  C   UNL     1      21.673  42.338  93.800  1.00  0.00    -0.002 C 
ATOM     14  C   UNL     1      22.260  43.577  93.779  1.00  0.00    -0.069 C 
ATOM     15  C   UNL     1      22.359  44.422  95.032  1.00  0.00     0.039 C 
ATOM     16  C   UNL     1      22.870  44.160  92.525  1.00  0.00     0.039 C 
BRANCH  13  17
ATOM     17  C   UNL     1      21.165  41.765  95.114  1.00  0.00     0.066 CG0
ATOM     18  G   UNL     1      21.303  40.262  95.305  1.00  0.00     0.000 G0
ENDBRANCH  13  17
ENDBRANCH  11  13
ENDBRANCH  10  11
ENDBRANCH   1  10
TORSDOF 0
ENDMDL
