MODEL 1
REMARK VINA RESULT:    -4.865      0.000      0.000
REMARK INTER + INTRA:         -11.470
REMARK INTER:                  -9.131
REMARK INTRA:                  -2.339
REMARK UNBOUND:                -2.339
REMARK SMILES CCCCCCCCC=CCCCCCCCC(=O)[O-]
REMARK SMILES IDX 10 1 9 2 11 3 12 4 13 5 14 6 15 7 16 8 17 9 18 10 19 11
REMARK SMILES IDX 20 12 8 13 7 14 6 15 5 16 4 17 3 18 2 19 1 20
REMARK H PARENT
REMARK Flexibility Score: inf
ROOT
ATOM      1  C   UNL     1     191.435 244.445 136.573  1.00  0.00    -0.031 C 
ATOM      2  C   UNL     1     190.905 244.764 135.377  1.00  0.00    -0.031 C 
ENDROOT
BRANCH   1   3
ATOM      3  C   UNL     1     191.265 243.111 137.252  1.00  0.00     0.027 C 
BRANCH   3   4
ATOM      4  C   UNL     1     192.398 242.868 138.260  1.00  0.00     0.004 C 
BRANCH   4   5
ATOM      5  C   UNL     1     192.524 244.008 139.284  1.00  0.00     0.000 C 
BRANCH   5   6
ATOM      6  C   UNL     1     191.299 244.093 140.212  1.00  0.00     0.000 C 
BRANCH   6   7
ATOM      7  C   UNL     1     190.830 245.539 140.456  1.00  0.00     0.000 C 
BRANCH   7   8
ATOM      8  C   UNL     1     191.842 246.628 140.060  1.00  0.00     0.006 C 
BRANCH   8   9
ATOM      9  C   UNL     1     191.255 247.674 139.104  1.00  0.00     0.053 C 
BRANCH   9  10
ATOM     10  C   UNL     1     191.141 249.001 139.785  1.00  0.00     0.041 C 
ATOM     11  O   UNL     1     190.633 249.984 139.182  1.00  0.00    -0.550 OA
ATOM     12  O   UNL     1     191.644 249.168 141.069  1.00  0.00    -0.550 OA
ENDBRANCH   9  10
ENDBRANCH   8   9
ENDBRANCH   7   8
ENDBRANCH   6   7
ENDBRANCH   5   6
ENDBRANCH   4   5
ENDBRANCH   3   4
ENDBRANCH   1   3
BRANCH   2  13
ATOM     13  C   UNL     1     189.988 243.868 134.579  1.00  0.00     0.027 C 
BRANCH  13  14
ATOM     14  C   UNL     1     190.371 243.835 133.093  1.00  0.00     0.004 C 
BRANCH  14  15
ATOM     15  C   UNL     1     191.798 244.345 132.849  1.00  0.00     0.000 C 
BRANCH  15  16
ATOM     16  C   UNL     1     192.686 243.232 132.276  1.00  0.00     0.000 C 
BRANCH  16  17
ATOM     17  C   UNL     1     193.971 243.015 133.095  1.00  0.00    -0.000 C 
BRANCH  17  18
ATOM     18  C   UNL     1     193.753 242.406 134.495  1.00  0.00    -0.000 C 
BRANCH  18  19
ATOM     19  C   UNL     1     192.828 241.170 134.497  1.00  0.00    -0.003 C 
ATOM     20  C   UNL     1     193.301 240.087 135.468  1.00  0.00     0.004 C 
ENDBRANCH  18  19
ENDBRANCH  17  18
ENDBRANCH  16  17
ENDBRANCH  15  16
ENDBRANCH  14  15
ENDBRANCH  13  14
ENDBRANCH   2  13
TORSDOF 15
ENDMDL
MODEL 2
REMARK VINA RESULT:    -4.791      7.031      8.574
REMARK INTER + INTRA:         -11.330
REMARK INTER:                  -8.441
REMARK INTRA:                  -2.890
REMARK UNBOUND:                -2.339
REMARK SMILES CCCCCCCCC=CCCCCCCCC(=O)[O-]
REMARK SMILES IDX 10 1 9 2 11 3 12 4 13 5 14 6 15 7 16 8 17 9 18 10 19 11
REMARK SMILES IDX 20 12 8 13 7 14 6 15 5 16 4 17 3 18 2 19 1 20
REMARK H PARENT
REMARK Flexibility Score: inf
ROOT
ATOM      1  C   UNL     1     197.382 251.547 130.724  1.00  0.00    -0.031 C 
ATOM      2  C   UNL     1     196.720 250.672 129.944  1.00  0.00    -0.031 C 
ENDROOT
BRANCH   1   3
ATOM      3  C   UNL     1     197.530 251.413 132.217  1.00  0.00     0.027 C 
BRANCH   3   4
ATOM      4  C   UNL     1     197.182 252.736 132.917  1.00  0.00     0.004 C 
BRANCH   4   5
ATOM      5  C   UNL     1     195.720 252.778 133.391  1.00  0.00     0.000 C 
BRANCH   5   6
ATOM      6  C   UNL     1     195.133 251.370 133.592  1.00  0.00     0.000 C 
BRANCH   6   7
ATOM      7  C   UNL     1     194.486 251.181 134.976  1.00  0.00     0.000 C 
BRANCH   7   8
ATOM      8  C   UNL     1     195.277 250.291 135.951  1.00  0.00     0.006 C 
BRANCH   8   9
ATOM      9  C   UNL     1     196.725 250.050 135.504  1.00  0.00     0.053 C 
BRANCH   9  10
ATOM     10  C   UNL     1     197.670 250.859 136.334  1.00  0.00     0.041 C 
ATOM     11  O   UNL     1     197.514 252.105 136.443  1.00  0.00    -0.550 OA
ATOM     12  O   UNL     1     198.757 250.246 136.945  1.00  0.00    -0.550 OA
ENDBRANCH   9  10
ENDBRANCH   8   9
ENDBRANCH   7   8
ENDBRANCH   6   7
ENDBRANCH   5   6
ENDBRANCH   4   5
ENDBRANCH   3   4
ENDBRANCH   1   3
BRANCH   2  13
ATOM     13  C   UNL     1     195.953 249.476 130.455  1.00  0.00     0.027 C 
BRANCH  13  14
ATOM     14  C   UNL     1     196.725 248.167 130.245  1.00  0.00     0.004 C 
BRANCH  14  15
ATOM     15  C   UNL     1     196.563 247.201 131.428  1.00  0.00     0.000 C 
BRANCH  15  16
ATOM     16  C   UNL     1     196.102 247.950 132.685  1.00  0.00     0.000 C 
BRANCH  16  17
ATOM     17  C   UNL     1     195.038 247.176 133.484  1.00  0.00    -0.000 C 
BRANCH  17  18
ATOM     18  C   UNL     1     193.619 247.775 133.425  1.00  0.00    -0.000 C 
BRANCH  18  19
ATOM     19  C   UNL     1     192.694 247.078 132.403  1.00  0.00    -0.003 C 
ATOM     20  C   UNL     1     192.767 247.718 131.016  1.00  0.00     0.004 C 
ENDBRANCH  18  19
ENDBRANCH  17  18
ENDBRANCH  16  17
ENDBRANCH  15  16
ENDBRANCH  14  15
ENDBRANCH  13  14
ENDBRANCH   2  13
TORSDOF 15
ENDMDL
MODEL 3
REMARK VINA RESULT:    -4.724      6.078      9.166
REMARK INTER + INTRA:         -11.205
REMARK INTER:                  -9.152
REMARK INTRA:                  -2.053
REMARK UNBOUND:                -2.339
REMARK SMILES CCCCCCCCC=CCCCCCCCC(=O)[O-]
REMARK SMILES IDX 10 1 9 2 11 3 12 4 13 5 14 6 15 7 16 8 17 9 18 10 19 11
REMARK SMILES IDX 20 12 8 13 7 14 6 15 5 16 4 17 3 18 2 19 1 20
REMARK H PARENT
REMARK Flexibility Score: inf
ROOT
ATOM      1  C   UNL     1     194.123 243.816 132.233  1.00  0.00    -0.031 C 
ATOM      2  C   UNL     1     193.525 244.978 131.907  1.00  0.00    -0.031 C 
ENDROOT
BRANCH   1   3
ATOM      3  C   UNL     1     193.476 242.721 133.038  1.00  0.00     0.027 C 
BRANCH   3   4
ATOM      4  C   UNL     1     194.380 241.480 133.090  1.00  0.00     0.004 C 
BRANCH   4   5
ATOM      5  C   UNL     1     195.581 241.592 132.138  1.00  0.00     0.000 C 
BRANCH   5   6
ATOM      6  C   UNL     1     195.542 240.528 131.026  1.00  0.00     0.000 C 
BRANCH   6   7
ATOM      7  C   UNL     1     194.512 240.846 129.926  1.00  0.00     0.000 C 
BRANCH   7   8
ATOM      8  C   UNL     1     194.814 242.105 129.095  1.00  0.00     0.006 C 
BRANCH   8   9
ATOM      9  C   UNL     1     195.955 241.903 128.091  1.00  0.00     0.053 C 
BRANCH   9  10
ATOM     10  C   UNL     1     197.129 242.756 128.454  1.00  0.00     0.041 C 
ATOM     11  O   UNL     1     197.076 243.516 129.457  1.00  0.00    -0.550 OA
ATOM     12  O   UNL     1     198.265 242.752 127.653  1.00  0.00    -0.550 OA
ENDBRANCH   9  10
ENDBRANCH   8   9
ENDBRANCH   7   8
ENDBRANCH   6   7
ENDBRANCH   5   6
ENDBRANCH   4   5
ENDBRANCH   3   4
ENDBRANCH   1   3
BRANCH   2  13
ATOM     13  C   UNL     1     192.151 245.394 132.374  1.00  0.00     0.027 C 
BRANCH  13  14
ATOM     14  C   UNL     1     192.219 246.462 133.475  1.00  0.00     0.004 C 
BRANCH  14  15
ATOM     15  C   UNL     1     193.146 247.626 133.097  1.00  0.00     0.000 C 
BRANCH  15  16
ATOM     16  C   UNL     1     194.041 248.018 134.281  1.00  0.00     0.000 C 
BRANCH  16  17
ATOM     17  C   UNL     1     195.541 247.894 133.962  1.00  0.00    -0.000 C 
BRANCH  17  18
ATOM     18  C   UNL     1     195.915 248.165 132.490  1.00  0.00    -0.000 C 
BRANCH  18  19
ATOM     19  C   UNL     1     196.576 246.960 131.787  1.00  0.00    -0.003 C 
ATOM     20  C   UNL     1     197.027 247.289 130.363  1.00  0.00     0.004 C 
ENDBRANCH  18  19
ENDBRANCH  17  18
ENDBRANCH  16  17
ENDBRANCH  15  16
ENDBRANCH  14  15
ENDBRANCH  13  14
ENDBRANCH   2  13
TORSDOF 15
ENDMDL
MODEL 4
REMARK VINA RESULT:    -4.716      4.157      6.150
REMARK INTER + INTRA:         -11.190
REMARK INTER:                  -9.134
REMARK INTRA:                  -2.056
REMARK UNBOUND:                -2.339
REMARK SMILES CCCCCCCCC=CCCCCCCCC(=O)[O-]
REMARK SMILES IDX 10 1 9 2 11 3 12 4 13 5 14 6 15 7 16 8 17 9 18 10 19 11
REMARK SMILES IDX 20 12 8 13 7 14 6 15 5 16 4 17 3 18 2 19 1 20
REMARK H PARENT
REMARK Flexibility Score: inf
ROOT
ATOM      1  C   UNL     1     190.812 244.411 133.431  1.00  0.00    -0.031 C 
ATOM      2  C   UNL     1     191.263 243.151 133.285  1.00  0.00    -0.031 C 
ENDROOT
BRANCH   1   3
ATOM      3  C   UNL     1     191.321 245.384 134.462  1.00  0.00     0.027 C 
BRANCH   3   4
ATOM      4  C   UNL     1     192.177 246.476 133.801  1.00  0.00     0.004 C 
BRANCH   4   5
ATOM      5  C   UNL     1     192.257 246.311 132.275  1.00  0.00     0.000 C 
BRANCH   5   6
ATOM      6  C   UNL     1     193.710 246.226 131.775  1.00  0.00     0.000 C 
BRANCH   6   7
ATOM      7  C   UNL     1     194.740 246.239 132.919  1.00  0.00     0.000 C 
BRANCH   7   8
ATOM      8  C   UNL     1     195.859 247.286 132.776  1.00  0.00     0.006 C 
BRANCH   8   9
ATOM      9  C   UNL     1     195.684 248.484 133.718  1.00  0.00     0.053 C 
BRANCH   9  10
ATOM     10  C   UNL     1     194.750 249.488 133.120  1.00  0.00     0.041 C 
ATOM     11  O   UNL     1     195.000 249.997 131.995  1.00  0.00    -0.550 OA
ATOM     12  O   UNL     1     193.630 249.904 133.829  1.00  0.00    -0.550 OA
ENDBRANCH   9  10
ENDBRANCH   8   9
ENDBRANCH   7   8
ENDBRANCH   6   7
ENDBRANCH   5   6
ENDBRANCH   4   5
ENDBRANCH   3   4
ENDBRANCH   1   3
BRANCH   2  13
ATOM     13  C   UNL     1     192.282 242.496 134.186  1.00  0.00     0.027 C 
BRANCH  13  14
ATOM     14  C   UNL     1     193.718 242.742 133.702  1.00  0.00     0.004 C 
BRANCH  14  15
ATOM     15  C   UNL     1     193.838 242.657 132.174  1.00  0.00     0.000 C 
BRANCH  15  16
ATOM     16  C   UNL     1     195.243 242.197 131.761  1.00  0.00     0.000 C 
BRANCH  16  17
ATOM     17  C   UNL     1     195.248 240.793 131.130  1.00  0.00    -0.000 C 
BRANCH  17  18
ATOM     18  C   UNL     1     194.722 240.731 129.682  1.00  0.00    -0.000 C 
BRANCH  18  19
ATOM     19  C   UNL     1     195.046 241.991 128.850  1.00  0.00    -0.003 C 
ATOM     20  C   UNL     1     196.035 241.707 127.719  1.00  0.00     0.004 C 
ENDBRANCH  18  19
ENDBRANCH  17  18
ENDBRANCH  16  17
ENDBRANCH  15  16
ENDBRANCH  14  15
ENDBRANCH  13  14
ENDBRANCH   2  13
TORSDOF 15
ENDMDL
MODEL 5
REMARK VINA RESULT:    -4.700      6.236      9.031
REMARK INTER + INTRA:         -11.160
REMARK INTER:                  -8.861
REMARK INTRA:                  -2.299
REMARK UNBOUND:                -2.339
REMARK SMILES CCCCCCCCC=CCCCCCCCC(=O)[O-]
REMARK SMILES IDX 10 1 9 2 11 3 12 4 13 5 14 6 15 7 16 8 17 9 18 10 19 11
REMARK SMILES IDX 20 12 8 13 7 14 6 15 5 16 4 17 3 18 2 19 1 20
REMARK H PARENT
REMARK Flexibility Score: inf
ROOT
ATOM      1  C   UNL     1     192.502 246.496 132.005  1.00  0.00    -0.031 C 
ATOM      2  C   UNL     1     193.830 246.695 131.901  1.00  0.00    -0.031 C 
ENDROOT
BRANCH   1   3
ATOM      3  C   UNL     1     191.811 245.992 133.246  1.00  0.00     0.027 C 
BRANCH   3   4
ATOM      4  C   UNL     1     191.586 244.474 133.162  1.00  0.00     0.004 C 
BRANCH   4   5
ATOM      5  C   UNL     1     192.472 243.697 134.149  1.00  0.00     0.000 C 
BRANCH   5   6
ATOM      6  C   UNL     1     193.441 242.741 133.431  1.00  0.00     0.000 C 
BRANCH   6   7
ATOM      7  C   UNL     1     193.440 242.921 131.902  1.00  0.00     0.000 C 
BRANCH   7   8
ATOM      8  C   UNL     1     194.794 242.671 131.214  1.00  0.00     0.006 C 
BRANCH   8   9
ATOM      9  C   UNL     1     194.658 242.345 129.721  1.00  0.00     0.053 C 
BRANCH   9  10
ATOM     10  C   UNL     1     195.397 241.087 129.391  1.00  0.00     0.041 C 
ATOM     11  O   UNL     1     195.553 240.193 130.266  1.00  0.00    -0.550 OA
ATOM     12  O   UNL     1     195.961 240.923 128.132  1.00  0.00    -0.550 OA
ENDBRANCH   9  10
ENDBRANCH   8   9
ENDBRANCH   7   8
ENDBRANCH   6   7
ENDBRANCH   5   6
ENDBRANCH   4   5
ENDBRANCH   3   4
ENDBRANCH   1   3
BRANCH   2  13
ATOM     13  C   UNL     1     194.834 246.361 132.977  1.00  0.00     0.027 C 
BRANCH  13  14
ATOM     14  C   UNL     1     195.481 247.621 133.569  1.00  0.00     0.004 C 
BRANCH  14  15
ATOM     15  C   UNL     1     194.551 248.342 134.556  1.00  0.00     0.000 C 
BRANCH  15  16
ATOM     16  C   UNL     1     193.935 249.592 133.912  1.00  0.00     0.000 C 
BRANCH  16  17
ATOM     17  C   UNL     1     194.909 250.317 132.967  1.00  0.00    -0.000 C 
BRANCH  17  18
ATOM     18  C   UNL     1     194.549 250.226 131.470  1.00  0.00    -0.000 C 
BRANCH  18  19
ATOM     19  C   UNL     1     195.778 250.223 130.536  1.00  0.00    -0.003 C 
ATOM     20  C   UNL     1     196.265 248.809 130.215  1.00  0.00     0.004 C 
ENDBRANCH  18  19
ENDBRANCH  17  18
ENDBRANCH  16  17
ENDBRANCH  15  16
ENDBRANCH  14  15
ENDBRANCH  13  14
ENDBRANCH   2  13
TORSDOF 15
ENDMDL
MODEL 6
REMARK VINA RESULT:    -4.674      5.838      7.574
REMARK INTER + INTRA:         -11.112
REMARK INTER:                  -8.742
REMARK INTRA:                  -2.370
REMARK UNBOUND:                -2.339
REMARK SMILES CCCCCCCCC=CCCCCCCCC(=O)[O-]
REMARK SMILES IDX 10 1 9 2 11 3 12 4 13 5 14 6 15 7 16 8 17 9 18 10 19 11
REMARK SMILES IDX 20 12 8 13 7 14 6 15 5 16 4 17 3 18 2 19 1 20
REMARK H PARENT
REMARK Flexibility Score: inf
ROOT
ATOM      1  C   UNL     1     195.954 250.287 130.564  1.00  0.00    -0.031 C 
ATOM      2  C   UNL     1     197.176 249.737 130.699  1.00  0.00    -0.031 C 
ENDROOT
BRANCH   1   3
ATOM      3  C   UNL     1     194.693 249.717 131.157  1.00  0.00     0.027 C 
BRANCH   3   4
ATOM      4  C   UNL     1     194.145 250.640 132.256  1.00  0.00     0.004 C 
BRANCH   4   5
ATOM      5  C   UNL     1     193.616 249.856 133.467  1.00  0.00     0.000 C 
BRANCH   5   6
ATOM      6  C   UNL     1     194.601 248.768 133.930  1.00  0.00     0.000 C 
BRANCH   6   7
ATOM      7  C   UNL     1     194.847 248.787 135.450  1.00  0.00     0.000 C 
BRANCH   7   8
ATOM      8  C   UNL     1     194.685 250.164 136.119  1.00  0.00     0.006 C 
BRANCH   8   9
ATOM      9  C   UNL     1     196.018 250.897 136.315  1.00  0.00     0.053 C 
BRANCH   9  10
ATOM     10  C   UNL     1     196.394 251.639 135.072  1.00  0.00     0.041 C 
ATOM     11  O   UNL     1     197.253 251.163 134.283  1.00  0.00    -0.550 OA
ATOM     12  O   UNL     1     195.836 252.885 134.811  1.00  0.00    -0.550 OA
ENDBRANCH   9  10
ENDBRANCH   8   9
ENDBRANCH   7   8
ENDBRANCH   6   7
ENDBRANCH   5   6
ENDBRANCH   4   5
ENDBRANCH   3   4
ENDBRANCH   1   3
BRANCH   2  13
ATOM     13  C   UNL     1     197.452 248.423 131.389  1.00  0.00     0.027 C 
BRANCH  13  14
ATOM     14  C   UNL     1     197.378 247.239 130.415  1.00  0.00     0.004 C 
BRANCH  14  15
ATOM     15  C   UNL     1     196.946 245.941 131.112  1.00  0.00     0.000 C 
BRANCH  15  16
ATOM     16  C   UNL     1     195.822 246.211 132.123  1.00  0.00     0.000 C 
BRANCH  16  17
ATOM     17  C   UNL     1     194.613 245.278 131.934  1.00  0.00    -0.000 C 
BRANCH  17  18
ATOM     18  C   UNL     1     193.616 245.264 133.110  1.00  0.00    -0.000 C 
BRANCH  18  19
ATOM     19  C   UNL     1     192.349 246.111 132.858  1.00  0.00    -0.003 C 
ATOM     20  C   UNL     1     192.421 246.896 131.548  1.00  0.00     0.004 C 
ENDBRANCH  18  19
ENDBRANCH  17  18
ENDBRANCH  16  17
ENDBRANCH  15  16
ENDBRANCH  14  15
ENDBRANCH  13  14
ENDBRANCH   2  13
TORSDOF 15
ENDMDL
MODEL 7
REMARK VINA RESULT:    -4.650      2.131      3.709
REMARK INTER + INTRA:         -11.067
REMARK INTER:                  -8.979
REMARK INTRA:                  -2.088
REMARK UNBOUND:                -2.339
REMARK SMILES CCCCCCCCC=CCCCCCCCC(=O)[O-]
REMARK SMILES IDX 10 1 9 2 11 3 12 4 13 5 14 6 15 7 16 8 17 9 18 10 19 11
REMARK SMILES IDX 20 12 8 13 7 14 6 15 5 16 4 17 3 18 2 19 1 20
REMARK H PARENT
REMARK Flexibility Score: inf
ROOT
ATOM      1  C   UNL     1     190.907 245.133 134.815  1.00  0.00    -0.031 C 
ATOM      2  C   UNL     1     191.873 245.774 134.129  1.00  0.00    -0.031 C 
ENDROOT
BRANCH   1   3
ATOM      3  C   UNL     1     189.931 244.161 134.205  1.00  0.00     0.027 C 
BRANCH   3   4
ATOM      4  C   UNL     1     190.469 242.725 134.297  1.00  0.00     0.004 C 
BRANCH   4   5
ATOM      5  C   UNL     1     190.456 242.187 135.736  1.00  0.00     0.000 C 
BRANCH   5   6
ATOM      6  C   UNL     1     191.848 241.712 136.191  1.00  0.00     0.000 C 
BRANCH   6   7
ATOM      7  C   UNL     1     192.202 242.168 137.619  1.00  0.00     0.000 C 
BRANCH   7   8
ATOM      8  C   UNL     1     191.449 243.417 138.110  1.00  0.00     0.006 C 
BRANCH   8   9
ATOM      9  C   UNL     1     192.351 244.406 138.858  1.00  0.00     0.053 C 
BRANCH   9  10
ATOM     10  C   UNL     1     191.530 245.330 139.700  1.00  0.00     0.041 C 
ATOM     11  O   UNL     1     191.423 246.546 139.391  1.00  0.00    -0.550 OA
ATOM     12  O   UNL     1     190.925 244.859 140.859  1.00  0.00    -0.550 OA
ENDBRANCH   9  10
ENDBRANCH   8   9
ENDBRANCH   7   8
ENDBRANCH   6   7
ENDBRANCH   5   6
ENDBRANCH   4   5
ENDBRANCH   3   4
ENDBRANCH   1   3
BRANCH   2  13
ATOM     13  C   UNL     1     192.067 245.684 132.634  1.00  0.00     0.027 C 
BRANCH  13  14
ATOM     14  C   UNL     1     193.413 245.045 132.268  1.00  0.00     0.004 C 
BRANCH  14  15
ATOM     15  C   UNL     1     193.315 243.519 132.139  1.00  0.00     0.000 C 
BRANCH  15  16
ATOM     16  C   UNL     1     194.024 242.824 133.309  1.00  0.00     0.000 C 
BRANCH  16  17
ATOM     17  C   UNL     1     194.376 241.357 133.007  1.00  0.00    -0.000 C 
BRANCH  17  18
ATOM     18  C   UNL     1     195.556 241.160 132.033  1.00  0.00    -0.000 C 
BRANCH  18  19
ATOM     19  C   UNL     1     195.194 240.332 130.781  1.00  0.00    -0.003 C 
ATOM     20  C   UNL     1     194.785 241.210 129.597  1.00  0.00     0.004 C 
ENDBRANCH  18  19
ENDBRANCH  17  18
ENDBRANCH  16  17
ENDBRANCH  15  16
ENDBRANCH  14  15
ENDBRANCH  13  14
ENDBRANCH   2  13
TORSDOF 15
ENDMDL
MODEL 8
REMARK VINA RESULT:    -4.643      1.552      3.204
REMARK INTER + INTRA:         -11.054
REMARK INTER:                  -8.696
REMARK INTRA:                  -2.358
REMARK UNBOUND:                -2.339
REMARK SMILES CCCCCCCCC=CCCCCCCCC(=O)[O-]
REMARK SMILES IDX 10 1 9 2 11 3 12 4 13 5 14 6 15 7 16 8 17 9 18 10 19 11
REMARK SMILES IDX 20 12 8 13 7 14 6 15 5 16 4 17 3 18 2 19 1 20
REMARK H PARENT
REMARK Flexibility Score: inf
ROOT
ATOM      1  C   UNL     1     193.396 241.193 136.364  1.00  0.00    -0.031 C 
ATOM      2  C   UNL     1     192.752 241.629 135.265  1.00  0.00    -0.031 C 
ENDROOT
BRANCH   1   3
ATOM      3  C   UNL     1     192.840 240.184 137.334  1.00  0.00     0.027 C 
BRANCH   3   4
ATOM      4  C   UNL     1     192.629 240.820 138.716  1.00  0.00     0.004 C 
BRANCH   4   5
ATOM      5  C   UNL     1     191.142 240.948 139.080  1.00  0.00     0.000 C 
BRANCH   5   6
ATOM      6  C   UNL     1     190.743 242.401 139.395  1.00  0.00     0.000 C 
BRANCH   6   7
ATOM      7  C   UNL     1     191.714 243.434 138.795  1.00  0.00     0.000 C 
BRANCH   7   8
ATOM      8  C   UNL     1     192.068 244.611 139.720  1.00  0.00     0.006 C 
BRANCH   8   9
ATOM      9  C   UNL     1     192.026 245.969 139.007  1.00  0.00     0.053 C 
BRANCH   9  10
ATOM     10  C   UNL     1     191.138 246.920 139.743  1.00  0.00     0.041 C 
ATOM     11  O   UNL     1     190.465 246.525 140.732  1.00  0.00    -0.550 OA
ATOM     12  O   UNL     1     191.010 248.233 139.305  1.00  0.00    -0.550 OA
ENDBRANCH   9  10
ENDBRANCH   8   9
ENDBRANCH   7   8
ENDBRANCH   6   7
ENDBRANCH   5   6
ENDBRANCH   4   5
ENDBRANCH   3   4
ENDBRANCH   1   3
BRANCH   2  13
ATOM     13  C   UNL     1     191.342 241.240 134.888  1.00  0.00     0.027 C 
BRANCH  13  14
ATOM     14  C   UNL     1     190.297 242.059 135.658  1.00  0.00     0.004 C 
BRANCH  14  15
ATOM     15  C   UNL     1     189.852 243.308 134.882  1.00  0.00     0.000 C 
BRANCH  15  16
ATOM     16  C   UNL     1     190.698 244.526 135.276  1.00  0.00     0.000 C 
BRANCH  16  17
ATOM     17  C   UNL     1     191.102 245.387 134.067  1.00  0.00    -0.000 C 
BRANCH  17  18
ATOM     18  C   UNL     1     191.321 244.603 132.757  1.00  0.00    -0.000 C 
BRANCH  18  19
ATOM     19  C   UNL     1     192.800 244.526 132.321  1.00  0.00    -0.003 C 
ATOM     20  C   UNL     1     193.232 243.103 131.965  1.00  0.00     0.004 C 
ENDBRANCH  18  19
ENDBRANCH  17  18
ENDBRANCH  16  17
ENDBRANCH  15  16
ENDBRANCH  14  15
ENDBRANCH  13  14
ENDBRANCH   2  13
TORSDOF 15
ENDMDL
MODEL 9
REMARK VINA RESULT:    -4.593      6.384      8.905
REMARK INTER + INTRA:         -10.960
REMARK INTER:                  -8.529
REMARK INTRA:                  -2.431
REMARK UNBOUND:                -2.339
REMARK SMILES CCCCCCCCC=CCCCCCCCC(=O)[O-]
REMARK SMILES IDX 10 1 9 2 11 3 12 4 13 5 14 6 15 7 16 8 17 9 18 10 19 11
REMARK SMILES IDX 20 12 8 13 7 14 6 15 5 16 4 17 3 18 2 19 1 20
REMARK H PARENT
REMARK Flexibility Score: inf
ROOT
ATOM      1  C   UNL     1     194.667 247.523 132.887  1.00  0.00    -0.031 C 
ATOM      2  C   UNL     1     195.881 247.144 132.446  1.00  0.00    -0.031 C 
ENDROOT
BRANCH   1   3
ATOM      3  C   UNL     1     193.585 248.101 132.012  1.00  0.00     0.027 C 
BRANCH   3   4
ATOM      4  C   UNL     1     192.454 247.083 131.804  1.00  0.00     0.004 C 
BRANCH   4   5
ATOM      5  C   UNL     1     192.222 246.206 133.044  1.00  0.00     0.000 C 
BRANCH   5   6
ATOM      6  C   UNL     1     191.390 244.951 132.721  1.00  0.00     0.000 C 
BRANCH   6   7
ATOM      7  C   UNL     1     192.226 243.658 132.729  1.00  0.00     0.000 C 
BRANCH   7   8
ATOM      8  C   UNL     1     193.742 243.863 132.892  1.00  0.00     0.006 C 
BRANCH   8   9
ATOM      9  C   UNL     1     194.512 243.723 131.573  1.00  0.00     0.053 C 
BRANCH   9  10
ATOM     10  C   UNL     1     194.487 242.304 131.100  1.00  0.00     0.041 C 
ATOM     11  O   UNL     1     194.225 242.040 129.896  1.00  0.00    -0.550 OA
ATOM     12  O   UNL     1     194.698 241.267 132.001  1.00  0.00    -0.550 OA
ENDBRANCH   9  10
ENDBRANCH   8   9
ENDBRANCH   7   8
ENDBRANCH   6   7
ENDBRANCH   5   6
ENDBRANCH   4   5
ENDBRANCH   3   4
ENDBRANCH   1   3
BRANCH   2  13
ATOM     13  C   UNL     1     196.373 247.323 131.030  1.00  0.00     0.027 C 
BRANCH  13  14
ATOM     14  C   UNL     1     197.183 248.617 130.864  1.00  0.00     0.004 C 
BRANCH  14  15
ATOM     15  C   UNL     1     196.328 249.770 130.318  1.00  0.00     0.000 C 
BRANCH  15  16
ATOM     16  C   UNL     1     196.570 251.057 131.119  1.00  0.00     0.000 C 
BRANCH  16  17
ATOM     17  C   UNL     1     195.968 250.999 132.535  1.00  0.00    -0.000 C 
BRANCH  17  18
ATOM     18  C   UNL     1     197.003 250.970 133.678  1.00  0.00    -0.000 C 
BRANCH  18  19
ATOM     19  C   UNL     1     196.649 249.980 134.809  1.00  0.00    -0.003 C 
ATOM     20  C   UNL     1     195.908 250.654 135.965  1.00  0.00     0.004 C 
ENDBRANCH  18  19
ENDBRANCH  17  18
ENDBRANCH  16  17
ENDBRANCH  15  16
ENDBRANCH  14  15
ENDBRANCH  13  14
ENDBRANCH   2  13
TORSDOF 15
ENDMDL
