MODEL 1
REMARK VINA RESULT:    37.415      0.000      0.000
REMARK INTER + INTRA:          40.696
REMARK INTER:                  40.696
REMARK INTRA:                   0.000
REMARK UNBOUND:                 0.000
REMARK SMILES Cc1cc(O)c2c(c1)C(=O)c1cc(O)cc(O)c1C2=O
REMARK SMILES IDX 1 1 2 2 8 3 7 4 6 5 4 6 3 7 19 8 20 9 18 10 11 11 9 12 10 13
REMARK SMILES IDX 12 14 13 15 15 16 16 17 5 18 17 20 14 22
REMARK H PARENT 5 19 17 21 14 23
REMARK Flexibility Score: inf
ROOT
ATOM      1  C   UNL     1      16.236  47.985  57.998  1.00  0.00     0.044 C 
ATOM      2  C   UNL     1      16.589  49.138  58.891  1.00  0.00    -0.047 A 
ATOM      3  C   UNL     1      15.623  49.695  59.737  1.00  0.00     0.016 A 
ATOM      4  C   UNL     1      15.935  50.793  60.556  1.00  0.00     0.038 A 
ATOM      5  C   UNL     1      17.237  51.344  60.527  1.00  0.00     0.076 A 
ATOM      6  C   UNL     1      18.186  50.829  59.608  1.00  0.00     0.127 A 
ATOM      7  C   UNL     1      17.857  49.723  58.817  1.00  0.00     0.050 A 
ATOM      8  C   UNL     1      17.572  52.405  61.512  1.00  0.00     0.201 C 
ATOM      9  O   UNL     1      18.755  52.522  61.928  1.00  0.00    -0.288 OA
ATOM     10  C   UNL     1      16.484  53.198  62.142  1.00  0.00     0.076 A 
ATOM     11  C   UNL     1      15.183  52.646  62.165  1.00  0.00     0.041 A 
ATOM     12  C   UNL     1      14.905  51.381  61.444  1.00  0.00     0.194 C 
ATOM     13  O   UNL     1      13.781  50.820  61.565  1.00  0.00    -0.289 OA
ATOM     14  C   UNL     1      14.159  53.301  62.870  1.00  0.00     0.059 A 
ATOM     15  C   UNL     1      14.411  54.500  63.535  1.00  0.00     0.120 A 
ATOM     16  C   UNL     1      15.685  55.071  63.481  1.00  0.00     0.093 A 
ATOM     17  C   UNL     1      16.716  54.449  62.769  1.00  0.00     0.131 A 
ENDROOT
BRANCH   6  18
ATOM     18  O   UNL     1      19.444  51.404  59.420  1.00  0.00    -0.507 OA
ATOM     19  H   UNL     1      19.697  52.319  59.767  1.00  0.00     0.293 HD
ENDBRANCH   6  18
BRANCH  17  20
ATOM     20  O   UNL     1      17.937  55.125  62.683  1.00  0.00    -0.507 OA
ATOM     21  H   UNL     1      18.766  54.845  63.188  1.00  0.00     0.293 HD
ENDBRANCH  17  20
BRANCH  15  22
ATOM     22  O   UNL     1      13.383  55.125  64.237  1.00  0.00    -0.508 OA
ATOM     23  H   UNL     1      12.431  55.133  63.890  1.00  0.00     0.293 HD
ENDBRANCH  15  22
TORSDOF 3
ENDMDL
