MODEL 1
REMARK VINA RESULT:    -4.131      0.000      0.000
REMARK INTER + INTRA:          -4.825
REMARK INTER:                  -4.735
REMARK INTRA:                  -0.089
REMARK UNBOUND:                -0.089
REMARK SMILES COc1cc(C(C)=O)ccc1O
REMARK SMILES IDX 5 1 4 2 3 3 11 4 10 5 9 6 6 7 7 8 8 9 2 10 1 11 12 12
REMARK H PARENT 12 13
REMARK Flexibility Score: inf
ROOT
ATOM      1  C   UNL     1      10.005 -32.305  14.209  1.00  0.00     0.021 A 
ATOM      2  C   UNL     1       9.614 -32.193  15.558  1.00  0.00     0.062 A 
ATOM      3  C   UNL     1       8.254 -32.249  15.925  1.00  0.00     0.161 A 
ATOM      4  C   UNL     1       7.279 -32.419  14.925  1.00  0.00     0.157 A 
ATOM      5  C   UNL     1       7.664 -32.531  13.587  1.00  0.00     0.051 A 
ATOM      6  C   UNL     1       9.011 -32.476  13.230  1.00  0.00     0.016 A 
ENDROOT
BRANCH   1   7
ATOM      7  C   UNL     1      11.439 -32.249  13.810  1.00  0.00     0.159 C 
ATOM      8  C   UNL     1      12.344 -31.138  14.253  1.00  0.00     0.093 C 
ATOM      9  O   UNL     1      11.920 -33.154  13.076  1.00  0.00    -0.295 OA
ENDBRANCH   1   7
BRANCH   3  10
ATOM     10  O   UNL     1       7.837 -32.140  17.261  1.00  0.00    -0.493 OA
ATOM     11  C   UNL     1       8.700 -31.849  18.357  1.00  0.00     0.278 C 
ENDBRANCH   3  10
BRANCH   4  12
ATOM     12  O   UNL     1       5.923 -32.480  15.243  1.00  0.00    -0.504 OA
ATOM     13  H   UNL     1       5.352 -33.287  15.022  1.00  0.00     0.293 HD
ENDBRANCH   4  12
TORSDOF 3
ENDMDL
MODEL 2
REMARK VINA RESULT:    -4.034      1.575      3.777
REMARK INTER + INTRA:          -4.713
REMARK INTER:                  -4.605
REMARK INTRA:                  -0.108
REMARK UNBOUND:                -0.089
REMARK SMILES COc1cc(C(C)=O)ccc1O
REMARK SMILES IDX 5 1 4 2 3 3 11 4 10 5 9 6 6 7 7 8 8 9 2 10 1 11 12 12
REMARK H PARENT 12 13
REMARK Flexibility Score: inf
ROOT
ATOM      1  C   UNL     1       8.235 -32.708  14.565  1.00  0.00     0.021 A 
ATOM      2  C   UNL     1       8.432 -32.199  15.864  1.00  0.00     0.062 A 
ATOM      3  C   UNL     1       9.639 -31.563  16.217  1.00  0.00     0.161 A 
ATOM      4  C   UNL     1      10.657 -31.439  15.255  1.00  0.00     0.157 A 
ATOM      5  C   UNL     1      10.466 -31.943  13.967  1.00  0.00     0.051 A 
ATOM      6  C   UNL     1       9.269 -32.570  13.622  1.00  0.00     0.016 A 
ENDROOT
BRANCH   1   7
ATOM      7  C   UNL     1       6.964 -33.381  14.179  1.00  0.00     0.159 C 
ATOM      8  C   UNL     1       6.278 -33.096  12.875  1.00  0.00     0.093 C 
ATOM      9  O   UNL     1       6.435 -34.216  14.961  1.00  0.00    -0.295 OA
ENDBRANCH   1   7
BRANCH   3  10
ATOM     10  O   UNL     1       9.860 -31.047  17.504  1.00  0.00    -0.493 OA
ATOM     11  C   UNL     1       9.109 -31.405  18.660  1.00  0.00     0.278 C 
ENDBRANCH   3  10
BRANCH   4  12
ATOM     12  O   UNL     1      11.868 -30.817  15.562  1.00  0.00    -0.504 OA
ATOM     13  H   UNL     1      11.922 -30.016  16.180  1.00  0.00     0.293 HD
ENDBRANCH   4  12
TORSDOF 3
ENDMDL
MODEL 3
REMARK VINA RESULT:    -3.849      1.778      3.857
REMARK INTER + INTRA:          -4.501
REMARK INTER:                  -4.380
REMARK INTRA:                  -0.120
REMARK UNBOUND:                -0.089
REMARK SMILES COc1cc(C(C)=O)ccc1O
REMARK SMILES IDX 5 1 4 2 3 3 11 4 10 5 9 6 6 7 7 8 8 9 2 10 1 11 12 12
REMARK H PARENT 12 13
REMARK Flexibility Score: inf
ROOT
ATOM      1  C   UNL     1       8.958 -31.896  16.283  1.00  0.00     0.021 A 
ATOM      2  C   UNL     1       9.755 -32.170  15.154  1.00  0.00     0.062 A 
ATOM      3  C   UNL     1       9.206 -32.789  14.013  1.00  0.00     0.161 A 
ATOM      4  C   UNL     1       7.843 -33.136  14.009  1.00  0.00     0.157 A 
ATOM      5  C   UNL     1       7.050 -32.866  15.126  1.00  0.00     0.051 A 
ATOM      6  C   UNL     1       7.598 -32.252  16.252  1.00  0.00     0.016 A 
ENDROOT
BRANCH   1   7
ATOM      7  C   UNL     1       9.526 -31.240  17.494  1.00  0.00     0.159 C 
ATOM      8  C   UNL     1       8.980 -31.498  18.866  1.00  0.00     0.093 C 
ATOM      9  O   UNL     1      10.495 -30.441  17.377  1.00  0.00    -0.295 OA
ENDBRANCH   1   7
BRANCH   3  10
ATOM     10  O   UNL     1       9.978 -33.074  12.875  1.00  0.00    -0.493 OA
ATOM     11  C   UNL     1      11.254 -33.706  12.900  1.00  0.00     0.278 C 
ENDBRANCH   3  10
BRANCH   4  12
ATOM     12  O   UNL     1       7.258 -33.751  12.901  1.00  0.00    -0.504 OA
ATOM     13  H   UNL     1       6.378 -34.247  12.961  1.00  0.00     0.293 HD
ENDBRANCH   4  12
TORSDOF 3
ENDMDL
MODEL 4
REMARK VINA RESULT:    -3.512      1.845      4.677
REMARK INTER + INTRA:          -4.115
REMARK INTER:                  -4.017
REMARK INTRA:                  -0.098
REMARK UNBOUND:                -0.089
REMARK SMILES COc1cc(C(C)=O)ccc1O
REMARK SMILES IDX 5 1 4 2 3 3 11 4 10 5 9 6 6 7 7 8 8 9 2 10 1 11 12 12
REMARK H PARENT 12 13
REMARK Flexibility Score: inf
ROOT
ATOM      1  C   UNL     1       7.785 -33.401  14.630  1.00  0.00     0.021 A 
ATOM      2  C   UNL     1       8.944 -33.394  13.829  1.00  0.00     0.062 A 
ATOM      3  C   UNL     1      10.072 -32.632  14.194  1.00  0.00     0.161 A 
ATOM      4  C   UNL     1      10.035 -31.871  15.376  1.00  0.00     0.157 A 
ATOM      5  C   UNL     1       8.888 -31.875  16.173  1.00  0.00     0.051 A 
ATOM      6  C   UNL     1       7.774 -32.632  15.807  1.00  0.00     0.016 A 
ENDROOT
BRANCH   1   7
ATOM      7  C   UNL     1       6.587 -34.202  14.256  1.00  0.00     0.159 C 
ATOM      8  C   UNL     1       5.875 -34.005  12.951  1.00  0.00     0.093 C 
ATOM      9  O   UNL     1       6.145 -35.076  15.052  1.00  0.00    -0.295 OA
ENDBRANCH   1   7
BRANCH   3  10
ATOM     10  O   UNL     1      11.239 -32.608  13.413  1.00  0.00    -0.493 OA
ATOM     11  C   UNL     1      11.878 -33.762  12.875  1.00  0.00     0.278 C 
ENDBRANCH   3  10
BRANCH   4  12
ATOM     12  O   UNL     1      11.129 -31.103  15.775  1.00  0.00    -0.504 OA
ATOM     13  H   UNL     1      11.819 -31.447  16.431  1.00  0.00     0.293 HD
ENDBRANCH   4  12
TORSDOF 3
ENDMDL
MODEL 5
REMARK VINA RESULT:    -3.441      1.935      3.575
REMARK INTER + INTRA:          -4.034
REMARK INTER:                  -3.968
REMARK INTRA:                  -0.066
REMARK UNBOUND:                -0.089
REMARK SMILES COc1cc(C(C)=O)ccc1O
REMARK SMILES IDX 5 1 4 2 3 3 11 4 10 5 9 6 6 7 7 8 8 9 2 10 1 11 12 12
REMARK H PARENT 12 13
REMARK Flexibility Score: inf
ROOT
ATOM      1  C   UNL     1       9.162 -31.885  16.314  1.00  0.00     0.021 A 
ATOM      2  C   UNL     1       7.949 -32.603  16.307  1.00  0.00     0.062 A 
ATOM      3  C   UNL     1       7.541 -33.325  15.168  1.00  0.00     0.161 A 
ATOM      4  C   UNL     1       8.360 -33.325  14.024  1.00  0.00     0.157 A 
ATOM      5  C   UNL     1       9.562 -32.615  14.027  1.00  0.00     0.051 A 
ATOM      6  C   UNL     1       9.962 -31.902  15.158  1.00  0.00     0.016 A 
ENDROOT
BRANCH   1   7
ATOM      7  C   UNL     1       9.605 -31.120  17.512  1.00  0.00     0.159 C 
ATOM      8  C   UNL     1       9.126 -31.458  18.892  1.00  0.00     0.093 C 
ATOM      9  O   UNL     1      10.406 -30.155  17.377  1.00  0.00    -0.295 OA
ENDBRANCH   1   7
BRANCH   3  10
ATOM     10  O   UNL     1       6.338 -34.048  15.136  1.00  0.00    -0.493 OA
ATOM     11  C   UNL     1       6.228 -35.448  15.374  1.00  0.00     0.278 C 
ENDBRANCH   3  10
BRANCH   4  12
ATOM     12  O   UNL     1       7.995 -34.026  12.875  1.00  0.00    -0.504 OA
ATOM     13  H   UNL     1       7.111 -34.514  12.799  1.00  0.00     0.293 HD
ENDBRANCH   4  12
TORSDOF 3
ENDMDL
MODEL 6
REMARK VINA RESULT:    -3.383      1.299      2.880
REMARK INTER + INTRA:          -3.967
REMARK INTER:                  -3.971
REMARK INTRA:                   0.004
REMARK UNBOUND:                -0.089
REMARK SMILES COc1cc(C(C)=O)ccc1O
REMARK SMILES IDX 5 1 4 2 3 3 11 4 10 5 9 6 6 7 7 8 8 9 2 10 1 11 12 12
REMARK H PARENT 12 13
REMARK Flexibility Score: inf
ROOT
ATOM      1  C   UNL     1      10.003 -32.253  14.309  1.00  0.00     0.021 A 
ATOM      2  C   UNL     1       8.990 -32.591  13.390  1.00  0.00     0.062 A 
ATOM      3  C   UNL     1       7.640 -32.649  13.789  1.00  0.00     0.161 A 
ATOM      4  C   UNL     1       7.306 -32.366  15.126  1.00  0.00     0.157 A 
ATOM      5  C   UNL     1       8.307 -32.031  16.040  1.00  0.00     0.051 A 
ATOM      6  C   UNL     1       9.642 -31.973  15.639  1.00  0.00     0.016 A 
ENDROOT
BRANCH   1   7
ATOM      7  C   UNL     1      11.434 -32.187  13.899  1.00  0.00     0.159 C 
ATOM      8  C   UNL     1      12.114 -33.327  13.202  1.00  0.00     0.093 C 
ATOM      9  O   UNL     1      12.106 -31.147  14.139  1.00  0.00    -0.295 OA
ENDBRANCH   1   7
BRANCH   3  10
ATOM     10  O   UNL     1       6.611 -32.983  12.894  1.00  0.00    -0.493 OA
ATOM     11  C   UNL     1       5.928 -34.233  12.875  1.00  0.00     0.278 C 
ENDBRANCH   3  10
BRANCH   4  12
ATOM     12  O   UNL     1       5.982 -32.411  15.564  1.00  0.00    -0.504 OA
ATOM     13  H   UNL     1       5.218 -32.663  14.949  1.00  0.00     0.293 HD
ENDBRANCH   4  12
TORSDOF 3
ENDMDL
MODEL 7
REMARK VINA RESULT:    -3.372     17.181     17.911
REMARK INTER + INTRA:          -3.954
REMARK INTER:                  -3.835
REMARK INTRA:                  -0.119
REMARK UNBOUND:                -0.089
REMARK SMILES COc1cc(C(C)=O)ccc1O
REMARK SMILES IDX 5 1 4 2 3 3 11 4 10 5 9 6 6 7 7 8 8 9 2 10 1 11 12 12
REMARK H PARENT 12 13
REMARK Flexibility Score: inf
ROOT
ATOM      1  C   UNL     1      15.857 -35.202  30.930  1.00  0.00     0.021 A 
ATOM      2  C   UNL     1      14.868 -35.899  31.653  1.00  0.00     0.062 A 
ATOM      3  C   UNL     1      13.889 -35.206  32.392  1.00  0.00     0.161 A 
ATOM      4  C   UNL     1      13.904 -33.800  32.405  1.00  0.00     0.157 A 
ATOM      5  C   UNL     1      14.882 -33.106  31.690  1.00  0.00     0.051 A 
ATOM      6  C   UNL     1      15.849 -33.796  30.959  1.00  0.00     0.016 A 
ENDROOT
BRANCH   1   7
ATOM      7  C   UNL     1      16.896 -35.922  30.143  1.00  0.00     0.159 C 
ATOM      8  C   UNL     1      17.646 -35.260  29.025  1.00  0.00     0.093 C 
ATOM      9  O   UNL     1      17.164 -37.124  30.412  1.00  0.00    -0.295 OA
ENDBRANCH   1   7
BRANCH   3  10
ATOM     10  O   UNL     1      12.893 -35.877  33.121  1.00  0.00    -0.493 OA
ATOM     11  C   UNL     1      12.183 -37.021  32.658  1.00  0.00     0.278 C 
ENDBRANCH   3  10
BRANCH   4  12
ATOM     12  O   UNL     1      12.953 -33.075  33.124  1.00  0.00    -0.504 OA
ATOM     13  H   UNL     1      12.449 -32.295  32.718  1.00  0.00     0.293 HD
ENDBRANCH   4  12
TORSDOF 3
ENDMDL
MODEL 8
REMARK VINA RESULT:    -3.346      1.268      2.801
REMARK INTER + INTRA:          -3.925
REMARK INTER:                  -3.806
REMARK INTRA:                  -0.119
REMARK UNBOUND:                -0.089
REMARK SMILES COc1cc(C(C)=O)ccc1O
REMARK SMILES IDX 5 1 4 2 3 3 11 4 10 5 9 6 6 7 7 8 8 9 2 10 1 11 12 12
REMARK H PARENT 12 13
REMARK Flexibility Score: inf
ROOT
ATOM      1  C   UNL     1      10.752 -31.550  15.417  1.00  0.00     0.021 A 
ATOM      2  C   UNL     1       9.507 -32.205  15.341  1.00  0.00     0.062 A 
ATOM      3  C   UNL     1       8.576 -32.114  16.396  1.00  0.00     0.161 A 
ATOM      4  C   UNL     1       8.901 -31.359  17.537  1.00  0.00     0.157 A 
ATOM      5  C   UNL     1      10.134 -30.709  17.616  1.00  0.00     0.051 A 
ATOM      6  C   UNL     1      11.052 -30.801  16.569  1.00  0.00     0.016 A 
ENDROOT
BRANCH   1   7
ATOM      7  C   UNL     1      11.744 -31.637  14.309  1.00  0.00     0.159 C 
ATOM      8  C   UNL     1      13.051 -30.903  14.354  1.00  0.00     0.093 C 
ATOM      9  O   UNL     1      11.490 -32.344  13.296  1.00  0.00    -0.295 OA
ENDBRANCH   1   7
BRANCH   3  10
ATOM     10  O   UNL     1       7.328 -32.757  16.345  1.00  0.00    -0.493 OA
ATOM     11  C   UNL     1       6.570 -32.961  15.157  1.00  0.00     0.278 C 
ENDBRANCH   3  10
BRANCH   4  12
ATOM     12  O   UNL     1       8.009 -31.242  18.603  1.00  0.00    -0.504 OA
ATOM     13  H   UNL     1       8.049 -30.471  19.258  1.00  0.00     0.293 HD
ENDBRANCH   4  12
TORSDOF 3
ENDMDL
MODEL 9
REMARK VINA RESULT:    -3.135     16.127     17.579
REMARK INTER + INTRA:          -3.683
REMARK INTER:                  -3.571
REMARK INTRA:                  -0.112
REMARK UNBOUND:                -0.089
REMARK SMILES COc1cc(C(C)=O)ccc1O
REMARK SMILES IDX 5 1 4 2 3 3 11 4 10 5 9 6 6 7 7 8 8 9 2 10 1 11 12 12
REMARK H PARENT 12 13
REMARK Flexibility Score: inf
ROOT
ATOM      1  C   UNL     1      16.752 -35.776  29.806  1.00  0.00     0.021 A 
ATOM      2  C   UNL     1      16.190 -34.620  30.382  1.00  0.00     0.062 A 
ATOM      3  C   UNL     1      15.326 -34.711  31.492  1.00  0.00     0.161 A 
ATOM      4  C   UNL     1      15.025 -35.976  32.027  1.00  0.00     0.157 A 
ATOM      5  C   UNL     1      15.579 -37.124  31.458  1.00  0.00     0.051 A 
ATOM      6  C   UNL     1      16.435 -37.029  30.360  1.00  0.00     0.016 A 
ENDROOT
BRANCH   1   7
ATOM      7  C   UNL     1      17.666 -35.694  28.633  1.00  0.00     0.159 C 
ATOM      8  C   UNL     1      17.489 -36.564  27.424  1.00  0.00     0.093 C 
ATOM      9  O   UNL     1      18.624 -34.873  28.643  1.00  0.00    -0.295 OA
ENDBRANCH   1   7
BRANCH   3  10
ATOM     10  O   UNL     1      14.753 -33.574  32.085  1.00  0.00    -0.493 OA
ATOM     11  C   UNL     1      15.452 -32.364  32.358  1.00  0.00     0.278 C 
ENDBRANCH   3  10
BRANCH   4  12
ATOM     12  O   UNL     1      14.175 -36.112  33.125  1.00  0.00    -0.504 OA
ATOM     13  H   UNL     1      14.250 -35.518  33.942  1.00  0.00     0.293 HD
ENDBRANCH   4  12
TORSDOF 3
ENDMDL
