MODEL 1
REMARK VINA RESULT:    -5.089      0.000      0.000
REMARK INTER + INTRA:          -6.944
REMARK INTER:                  -7.172
REMARK INTRA:                   0.228
REMARK UNBOUND:                 0.228
REMARK SMILES CC1=CCC(=C(C)C)C(=O)CC(C)=CCC1
REMARK SMILES IDX 12 1 14 2 13 3 15 4 16 5 2 6 1 7 3 8 11 10 9 11 10 12 5 13
REMARK SMILES IDX 6 14 7 15 8 16 4 17
REMARK H PARENT
REMARK Flexibility Score: 60.00
ROOT
ATOM      1  C   UNL     1      48.860  13.184   9.349  1.00  0.00    -0.070 C 
ATOM      2  C   UNL     1      47.959  12.204   9.594  1.00  0.00    -0.027 C 
ATOM      3  C   UNL     1      48.407  14.617   9.474  1.00  0.00     0.039 C 
ENDROOT
BRANCH   2   4
ATOM      4  C   UNL     1      48.261  10.726   9.640  1.00  0.00     0.032 C 
BRANCH   4   5
ATOM      5  C   UNL     1      47.967   9.955   8.345  1.00  0.00     0.034 C 
BRANCH   5   6
ATOM      6  C   UNL     1      49.181   9.274   7.742  1.00  0.00    -0.077 C 
ATOM      7  C   UNL     1      49.516   7.883   8.220  1.00  0.00     0.039 C 
ATOM      8  C   UNL     1      50.031   9.853   6.856  1.00  0.00    -0.023 CG0
ATOM      9  G   UNL     1      49.869  11.164   6.111  1.00  0.00     0.000 G0
ENDBRANCH   5   6
ENDBRANCH   4   5
ENDBRANCH   2   4
BRANCH   1  10
ATOM     10  C   UNL     1      50.273  12.919   8.877  1.00  0.00     0.111 C 
BRANCH  10  11
ATOM     11  C   UNL     1      50.436  13.279   7.422  1.00  0.00     0.163 C 
ATOM     12  O   UNL     1      50.209  14.464   7.058  1.00  0.00    -0.294 OA
BRANCH  11  13
ATOM     13  C   UNL     1      50.846  12.280   6.400  1.00  0.00    -0.002 C 
ATOM     14  C   UNL     1      51.979  12.470   5.669  1.00  0.00    -0.069 C 
ATOM     15  C   UNL     1      52.352  11.544   4.535  1.00  0.00     0.039 C 
ATOM     16  C   UNL     1      52.920  13.608   5.990  1.00  0.00     0.039 C 
BRANCH  13  17
ATOM     17  C   UNL     1      49.864  11.163   6.100  1.00  0.00     0.066 CG0
ATOM     18  G   UNL     1      50.044   9.860   6.856  1.00  0.00     0.000 G0
ENDBRANCH  13  17
ENDBRANCH  11  13
ENDBRANCH  10  11
ENDBRANCH   1  10
TORSDOF 0
ENDMDL
MODEL 2
REMARK VINA RESULT:    -5.023      2.389      4.535
REMARK INTER + INTRA:          -6.851
REMARK INTER:                  -6.771
REMARK INTRA:                  -0.080
REMARK UNBOUND:                 0.228
REMARK SMILES CC1=CCC(=C(C)C)C(=O)CC(C)=CCC1
REMARK SMILES IDX 12 1 14 2 13 3 15 4 16 5 2 6 1 7 3 8 11 10 9 11 10 12 5 13
REMARK SMILES IDX 6 14 7 15 8 16 4 17
REMARK H PARENT
REMARK Flexibility Score: 60.00
ROOT
ATOM      1  C   UNL     1      46.804  14.028   9.810  1.00  0.00    -0.070 C 
ATOM      2  C   UNL     1      48.134  14.268   9.757  1.00  0.00    -0.027 C 
ATOM      3  C   UNL     1      46.018  14.614  10.956  1.00  0.00     0.039 C 
ENDROOT
BRANCH   2   4
ATOM      4  C   UNL     1      49.054  13.871   8.626  1.00  0.00     0.032 C 
BRANCH   4   5
ATOM      5  C   UNL     1      49.925  12.635   8.893  1.00  0.00     0.034 C 
BRANCH   5   6
ATOM      6  C   UNL     1      50.027  11.687   7.713  1.00  0.00    -0.077 C 
ATOM      7  C   UNL     1      51.113  11.943   6.697  1.00  0.00     0.039 C 
ATOM      8  C   UNL     1      49.168  10.666   7.465  1.00  0.00    -0.023 CG0
ATOM      9  G   UNL     1      48.088  10.102   8.369  1.00  0.00     0.000 G0
ENDBRANCH   5   6
ENDBRANCH   4   5
ENDBRANCH   2   4
BRANCH   1  10
ATOM     10  C   UNL     1      46.078  13.134   8.829  1.00  0.00     0.111 C 
BRANCH  10  11
ATOM     11  C   UNL     1      46.239  11.680   9.196  1.00  0.00     0.163 C 
ATOM     12  O   UNL     1      46.000  11.320  10.380  1.00  0.00    -0.294 OA
BRANCH  11  13
ATOM     13  C   UNL     1      46.681  10.658   8.210  1.00  0.00    -0.002 C 
ATOM     14  C   UNL     1      45.798  10.141   7.313  1.00  0.00    -0.069 C 
ATOM     15  C   UNL     1      46.182   9.010   6.388  1.00  0.00     0.039 C 
ATOM     16  C   UNL     1      44.401  10.706   7.196  1.00  0.00     0.039 C 
BRANCH  13  17
ATOM     17  C   UNL     1      48.087  10.109   8.375  1.00  0.00     0.066 CG0
ATOM     18  G   UNL     1      49.163  10.675   7.469  1.00  0.00     0.000 G0
ENDBRANCH  13  17
ENDBRANCH  11  13
ENDBRANCH  10  11
ENDBRANCH   1  10
TORSDOF 0
ENDMDL
MODEL 3
REMARK VINA RESULT:    -4.749      6.811      9.517
REMARK INTER + INTRA:          -6.464
REMARK INTER:                  -6.481
REMARK INTRA:                   0.016
REMARK UNBOUND:                 0.228
REMARK SMILES CC1=CCC(=C(C)C)C(=O)CC(C)=CCC1
REMARK SMILES IDX 12 1 14 2 13 3 15 4 16 5 2 6 1 7 3 8 11 10 9 11 10 12 5 13
REMARK SMILES IDX 6 14 7 15 8 16 4 17
REMARK H PARENT
REMARK Flexibility Score: 60.00
ROOT
ATOM      1  C   UNL     1      58.189  14.686   2.080  1.00  0.00    -0.070 C 
ATOM      2  C   UNL     1      57.421  15.376   2.955  1.00  0.00    -0.027 C 
ATOM      3  C   UNL     1      59.591  15.176   1.821  1.00  0.00     0.039 C 
ENDROOT
BRANCH   2   4
ATOM      4  C   UNL     1      56.047  14.967   3.430  1.00  0.00     0.032 C 
BRANCH   4   5
ATOM      5  C   UNL     1      54.885  15.806   2.879  1.00  0.00     0.034 C 
BRANCH   5   6
ATOM      6  C   UNL     1      53.644  14.999   2.549  1.00  0.00    -0.077 C 
ATOM      7  C   UNL     1      52.585  14.870   3.616  1.00  0.00     0.039 C 
ATOM      8  C   UNL     1      53.448  14.323   1.388  1.00  0.00    -0.023 CG0
ATOM      9  G   UNL     1      54.265  14.384   0.112  1.00  0.00     0.000 G0
ENDBRANCH   5   6
ENDBRANCH   4   5
ENDBRANCH   2   4
BRANCH   1  10
ATOM     10  C   UNL     1      57.688  13.498   1.288  1.00  0.00     0.111 C 
BRANCH  10  11
ATOM     11  C   UNL     1      56.788  13.938   0.161  1.00  0.00     0.163 C 
ATOM     12  O   UNL     1      57.203  14.811  -0.647  1.00  0.00    -0.294 OA
BRANCH  11  13
ATOM     13  C   UNL     1      55.420  13.383  -0.023  1.00  0.00    -0.002 C 
ATOM     14  C   UNL     1      55.250  12.098  -0.438  1.00  0.00    -0.069 C 
ATOM     15  C   UNL     1      53.882  11.546  -0.760  1.00  0.00     0.039 C 
ATOM     16  C   UNL     1      56.434  11.167  -0.566  1.00  0.00     0.039 C 
BRANCH  13  17
ATOM     17  C   UNL     1      54.262  14.356   0.100  1.00  0.00     0.066 CG0
ATOM     18  G   UNL     1      53.456  14.315   1.384  1.00  0.00     0.000 G0
ENDBRANCH  13  17
ENDBRANCH  11  13
ENDBRANCH  10  11
ENDBRANCH   1  10
TORSDOF 0
ENDMDL
MODEL 4
REMARK VINA RESULT:    -4.718      2.070      4.216
REMARK INTER + INTRA:          -6.421
REMARK INTER:                  -6.440
REMARK INTRA:                   0.018
REMARK UNBOUND:                 0.228
REMARK SMILES CC1=CCC(=C(C)C)C(=O)CC(C)=CCC1
REMARK SMILES IDX 12 1 14 2 13 3 15 4 16 5 2 6 1 7 3 8 11 10 9 11 10 12 5 13
REMARK SMILES IDX 6 14 7 15 8 16 4 17
REMARK H PARENT
REMARK Flexibility Score: 60.00
ROOT
ATOM      1  C   UNL     1      47.441  12.270   9.110  1.00  0.00    -0.070 C 
ATOM      2  C   UNL     1      48.496  13.111   9.211  1.00  0.00    -0.027 C 
ATOM      3  C   UNL     1      46.203  12.759   8.401  1.00  0.00     0.039 C 
ENDROOT
BRANCH   2   4
ATOM      4  C   UNL     1      49.852  12.756   9.772  1.00  0.00     0.032 C 
BRANCH   4   5
ATOM      5  C   UNL     1      50.972  12.601   8.733  1.00  0.00     0.034 C 
BRANCH   5   6
ATOM      6  C   UNL     1      50.517  12.807   7.300  1.00  0.00    -0.077 C 
ATOM      7  C   UNL     1      50.758  14.158   6.674  1.00  0.00     0.039 C 
ATOM      8  C   UNL     1      49.843  11.887   6.564  1.00  0.00    -0.023 CG0
ATOM      9  G   UNL     1      49.589  10.426   6.882  1.00  0.00     0.000 G0
ENDBRANCH   5   6
ENDBRANCH   4   5
ENDBRANCH   2   4
BRANCH   1  10
ATOM     10  C   UNL     1      47.406  10.897   9.744  1.00  0.00     0.111 C 
BRANCH  10  11
ATOM     11  C   UNL     1      48.100   9.879   8.875  1.00  0.00     0.163 C 
ATOM     12  O   UNL     1      48.605   8.858   9.414  1.00  0.00    -0.294 OA
BRANCH  11  13
ATOM     13  C   UNL     1      48.219  10.045   7.402  1.00  0.00    -0.002 C 
ATOM     14  C   UNL     1      47.179   9.718   6.587  1.00  0.00    -0.069 C 
ATOM     15  C   UNL     1      47.313   9.750   5.083  1.00  0.00     0.039 C 
ATOM     16  C   UNL     1      45.838   9.334   7.168  1.00  0.00     0.039 C 
BRANCH  13  17
ATOM     17  C   UNL     1      49.588  10.417   6.861  1.00  0.00     0.066 CG0
ATOM     18  G   UNL     1      49.842  11.883   6.567  1.00  0.00     0.000 G0
ENDBRANCH  13  17
ENDBRANCH  11  13
ENDBRANCH  10  11
ENDBRANCH   1  10
TORSDOF 0
ENDMDL
MODEL 5
REMARK VINA RESULT:    -4.710      1.852      3.857
REMARK INTER + INTRA:          -6.410
REMARK INTER:                  -6.328
REMARK INTRA:                  -0.082
REMARK UNBOUND:                 0.228
REMARK SMILES CC1=CCC(=C(C)C)C(=O)CC(C)=CCC1
REMARK SMILES IDX 12 1 14 2 13 3 15 4 16 5 2 6 1 7 3 8 11 10 9 11 10 12 5 13
REMARK SMILES IDX 6 14 7 15 8 16 4 17
REMARK H PARENT
REMARK Flexibility Score: 60.00
ROOT
ATOM      1  C   UNL     1      47.606   9.677   7.288  1.00  0.00    -0.070 C 
ATOM      2  C   UNL     1      46.909  10.078   8.376  1.00  0.00    -0.027 C 
ATOM      3  C   UNL     1      47.636   8.205   6.961  1.00  0.00     0.039 C 
ENDROOT
BRANCH   2   4
ATOM      4  C   UNL     1      46.666  11.511   8.785  1.00  0.00     0.032 C 
BRANCH   4   5
ATOM      5  C   UNL     1      47.702  12.103   9.750  1.00  0.00     0.034 C 
BRANCH   5   6
ATOM      6  C   UNL     1      48.298  13.418   9.284  1.00  0.00    -0.077 C 
ATOM      7  C   UNL     1      47.484  14.671   9.488  1.00  0.00     0.039 C 
ATOM      8  C   UNL     1      49.482  13.542   8.631  1.00  0.00    -0.023 CG0
ATOM      9  G   UNL     1      50.555  12.491   8.416  1.00  0.00     0.000 G0
ENDBRANCH   5   6
ENDBRANCH   4   5
ENDBRANCH   2   4
BRANCH   1  10
ATOM     10  C   UNL     1      48.425  10.617   6.430  1.00  0.00     0.111 C 
BRANCH  10  11
ATOM     11  C   UNL     1      49.875  10.607   6.844  1.00  0.00     0.163 C 
ATOM     12  O   UNL     1      50.445   9.500   7.041  1.00  0.00    -0.294 OA
BRANCH  11  13
ATOM     13  C   UNL     1      50.652  11.860   7.039  1.00  0.00    -0.002 C 
ATOM     14  C   UNL     1      51.508  12.295   6.075  1.00  0.00    -0.069 C 
ATOM     15  C   UNL     1      52.407  13.488   6.296  1.00  0.00     0.039 C 
ATOM     16  C   UNL     1      51.568  11.606   4.731  1.00  0.00     0.039 C 
BRANCH  13  17
ATOM     17  C   UNL     1      50.574  12.509   8.409  1.00  0.00     0.066 CG0
ATOM     18  G   UNL     1      49.482  13.539   8.627  1.00  0.00     0.000 G0
ENDBRANCH  13  17
ENDBRANCH  11  13
ENDBRANCH  10  11
ENDBRANCH   1  10
TORSDOF 0
ENDMDL
MODEL 6
REMARK VINA RESULT:    -4.644      3.003      4.781
REMARK INTER + INTRA:          -6.316
REMARK INTER:                  -6.657
REMARK INTRA:                   0.341
REMARK UNBOUND:                 0.228
REMARK SMILES CC1=CCC(=C(C)C)C(=O)CC(C)=CCC1
REMARK SMILES IDX 12 1 14 2 13 3 15 4 16 5 2 6 1 7 3 8 11 10 9 11 10 12 5 13
REMARK SMILES IDX 6 14 7 15 8 16 4 17
REMARK H PARENT
REMARK Flexibility Score: 60.00
ROOT
ATOM      1  C   UNL     1      44.747  11.564   8.237  1.00  0.00    -0.070 C 
ATOM      2  C   UNL     1      45.059  11.011   7.042  1.00  0.00    -0.027 C 
ATOM      3  C   UNL     1      44.158  12.952   8.251  1.00  0.00     0.039 C 
ENDROOT
BRANCH   2   4
ATOM      4  C   UNL     1      45.536   9.595   6.827  1.00  0.00     0.032 C 
BRANCH   4   5
ATOM      5  C   UNL     1      46.867   9.242   7.507  1.00  0.00     0.034 C 
BRANCH   5   6
ATOM      6  C   UNL     1      47.982  10.234   7.234  1.00  0.00    -0.077 C 
ATOM      7  C   UNL     1      48.477  10.362   5.815  1.00  0.00     0.039 C 
ATOM      8  C   UNL     1      48.617  10.964   8.186  1.00  0.00    -0.023 CG0
ATOM      9  G   UNL     1      48.244  11.136   9.647  1.00  0.00     0.000 G0
ENDBRANCH   5   6
ENDBRANCH   4   5
ENDBRANCH   2   4
BRANCH   1  10
ATOM     10  C   UNL     1      45.034  10.896   9.564  1.00  0.00     0.111 C 
BRANCH  10  11
ATOM     11  C   UNL     1      45.902  11.768  10.435  1.00  0.00     0.163 C 
ATOM     12  O   UNL     1      45.466  12.136  11.559  1.00  0.00    -0.294 OA
BRANCH  11  13
ATOM     13  C   UNL     1      47.253  12.220  10.008  1.00  0.00    -0.002 C 
ATOM     14  C   UNL     1      47.501  13.542   9.797  1.00  0.00    -0.069 C 
ATOM     15  C   UNL     1      48.821  14.019   9.238  1.00  0.00     0.039 C 
ATOM     16  C   UNL     1      46.463  14.584  10.144  1.00  0.00     0.039 C 
BRANCH  13  17
ATOM     17  C   UNL     1      48.259  11.139   9.656  1.00  0.00     0.066 CG0
ATOM     18  G   UNL     1      48.603  10.964   8.189  1.00  0.00     0.000 G0
ENDBRANCH  13  17
ENDBRANCH  11  13
ENDBRANCH  10  11
ENDBRANCH   1  10
TORSDOF 0
ENDMDL
MODEL 7
REMARK VINA RESULT:    -4.612      2.148      4.365
REMARK INTER + INTRA:          -6.271
REMARK INTER:                  -6.733
REMARK INTRA:                   0.462
REMARK UNBOUND:                 0.228
REMARK SMILES CC1=CCC(=C(C)C)C(=O)CC(C)=CCC1
REMARK SMILES IDX 12 1 14 2 13 3 15 4 16 5 2 6 1 7 3 8 11 10 9 11 10 12 5 13
REMARK SMILES IDX 6 14 7 15 8 16 4 17
REMARK H PARENT
REMARK Flexibility Score: 60.00
ROOT
ATOM      1  C   UNL     1      49.086  13.259   9.203  1.00  0.00    -0.070 C 
ATOM      2  C   UNL     1      49.877  13.575   8.152  1.00  0.00    -0.027 C 
ATOM      3  C   UNL     1      48.016  14.239   9.613  1.00  0.00     0.039 C 
ENDROOT
BRANCH   2   4
ATOM      4  C   UNL     1      50.909  12.670   7.525  1.00  0.00     0.032 C 
BRANCH   4   5
ATOM      5  C   UNL     1      50.405  11.806   6.360  1.00  0.00     0.034 C 
BRANCH   5   6
ATOM      6  C   UNL     1      49.965  10.413   6.771  1.00  0.00    -0.077 C 
ATOM      7  C   UNL     1      50.996   9.312   6.739  1.00  0.00     0.039 C 
ATOM      8  C   UNL     1      48.693  10.069   7.096  1.00  0.00    -0.023 CG0
ATOM      9  G   UNL     1      47.503  10.978   7.342  1.00  0.00     0.000 G0
ENDBRANCH   5   6
ENDBRANCH   4   5
ENDBRANCH   2   4
BRANCH   1  10
ATOM     10  C   UNL     1      49.274  12.013  10.041  1.00  0.00     0.111 C 
BRANCH  10  11
ATOM     11  C   UNL     1      48.149  11.034   9.819  1.00  0.00     0.163 C 
ATOM     12  O   UNL     1      48.099   9.991  10.524  1.00  0.00    -0.294 OA
BRANCH  11  13
ATOM     13  C   UNL     1      47.101  11.252   8.786  1.00  0.00    -0.002 C 
ATOM     14  C   UNL     1      45.821  11.531   9.154  1.00  0.00    -0.069 C 
ATOM     15  C   UNL     1      44.709  11.627   8.135  1.00  0.00     0.039 C 
ATOM     16  C   UNL     1      45.474  11.781  10.603  1.00  0.00     0.039 C 
BRANCH  13  17
ATOM     17  C   UNL     1      47.490  10.975   7.345  1.00  0.00     0.066 CG0
ATOM     18  G   UNL     1      48.687  10.073   7.111  1.00  0.00     0.000 G0
ENDBRANCH  13  17
ENDBRANCH  11  13
ENDBRANCH  10  11
ENDBRANCH   1  10
TORSDOF 0
ENDMDL
MODEL 8
REMARK VINA RESULT:    -4.530      1.763      4.325
REMARK INTER + INTRA:          -6.156
REMARK INTER:                  -6.126
REMARK INTRA:                  -0.030
REMARK UNBOUND:                 0.228
REMARK SMILES CC1=CCC(=C(C)C)C(=O)CC(C)=CCC1
REMARK SMILES IDX 12 1 14 2 13 3 15 4 16 5 2 6 1 7 3 8 11 10 9 11 10 12 5 13
REMARK SMILES IDX 6 14 7 15 8 16 4 17
REMARK H PARENT
REMARK Flexibility Score: 60.00
ROOT
ATOM      1  C   UNL     1      50.591  12.802   6.812  1.00  0.00    -0.070 C 
ATOM      2  C   UNL     1      50.631  11.579   6.234  1.00  0.00    -0.027 C 
ATOM      3  C   UNL     1      51.827  13.663   6.749  1.00  0.00     0.039 C 
ENDROOT
BRANCH   2   4
ATOM      4  C   UNL     1      49.460  10.637   6.091  1.00  0.00     0.032 C 
BRANCH   4   5
ATOM      5  C   UNL     1      49.356   9.550   7.171  1.00  0.00     0.034 C 
BRANCH   5   6
ATOM      6  C   UNL     1      47.938   9.274   7.634  1.00  0.00    -0.077 C 
ATOM      7  C   UNL     1      47.088   8.359   6.789  1.00  0.00     0.039 C 
ATOM      8  C   UNL     1      47.353   9.849   8.717  1.00  0.00    -0.023 CG0
ATOM      9  G   UNL     1      47.999  10.684   9.805  1.00  0.00     0.000 G0
ENDBRANCH   5   6
ENDBRANCH   4   5
ENDBRANCH   2   4
BRANCH   1  10
ATOM     10  C   UNL     1      49.400  13.317   7.591  1.00  0.00     0.111 C 
BRANCH  10  11
ATOM     11  C   UNL     1      49.348  12.709   8.970  1.00  0.00     0.163 C 
ATOM     12  O   UNL     1      50.411  12.627   9.642  1.00  0.00    -0.294 OA
BRANCH  11  13
ATOM     13  C   UNL     1      48.085  12.191   9.560  1.00  0.00    -0.002 C 
ATOM     14  C   UNL     1      47.127  13.054   9.999  1.00  0.00    -0.069 C 
ATOM     15  C   UNL     1      45.894  12.564  10.721  1.00  0.00     0.039 C 
ATOM     16  C   UNL     1      47.258  14.539   9.751  1.00  0.00     0.039 C 
BRANCH  13  17
ATOM     17  C   UNL     1      48.003  10.695   9.804  1.00  0.00     0.066 CG0
ATOM     18  G   UNL     1      47.361   9.850   8.720  1.00  0.00     0.000 G0
ENDBRANCH  13  17
ENDBRANCH  11  13
ENDBRANCH  10  11
ENDBRANCH   1  10
TORSDOF 0
ENDMDL
MODEL 9
REMARK VINA RESULT:    -4.518      6.198      8.602
REMARK INTER + INTRA:          -6.139
REMARK INTER:                  -6.555
REMARK INTRA:                   0.416
REMARK UNBOUND:                 0.228
REMARK SMILES CC1=CCC(=C(C)C)C(=O)CC(C)=CCC1
REMARK SMILES IDX 12 1 14 2 13 3 15 4 16 5 2 6 1 7 3 8 11 10 9 11 10 12 5 13
REMARK SMILES IDX 6 14 7 15 8 16 4 17
REMARK H PARENT
REMARK Flexibility Score: 60.00
ROOT
ATOM      1  C   UNL     1      55.958  15.139   2.634  1.00  0.00    -0.070 C 
ATOM      2  C   UNL     1      55.172  14.904   3.711  1.00  0.00    -0.027 C 
ATOM      3  C   UNL     1      57.435  14.864   2.755  1.00  0.00     0.039 C 
ENDROOT
BRANCH   2   4
ATOM      4  C   UNL     1      53.665  15.001   3.736  1.00  0.00     0.032 C 
BRANCH   4   5
ATOM      5  C   UNL     1      52.958  14.565   2.445  1.00  0.00     0.034 C 
BRANCH   5   6
ATOM      6  C   UNL     1      52.983  13.067   2.203  1.00  0.00    -0.077 C 
ATOM      7  C   UNL     1      52.347  12.177   3.241  1.00  0.00     0.039 C 
ATOM      8  C   UNL     1      53.600  12.464   1.155  1.00  0.00    -0.023 CG0
ATOM      9  G   UNL     1      54.188  13.104  -0.088  1.00  0.00     0.000 G0
ENDBRANCH   5   6
ENDBRANCH   4   5
ENDBRANCH   2   4
BRANCH   1  10
ATOM     10  C   UNL     1      55.445  15.741   1.344  1.00  0.00     0.111 C 
BRANCH  10  11
ATOM     11  C   UNL     1      55.938  14.965   0.149  1.00  0.00     0.163 C 
ATOM     12  O   UNL     1      56.602  15.567  -0.738  1.00  0.00    -0.294 OA
BRANCH  11  13
ATOM     13  C   UNL     1      55.657  13.515  -0.025  1.00  0.00    -0.002 C 
ATOM     14  C   UNL     1      56.673  12.644  -0.275  1.00  0.00    -0.069 C 
ATOM     15  C   UNL     1      56.408  11.190  -0.586  1.00  0.00     0.039 C 
ATOM     16  C   UNL     1      58.112  13.103  -0.222  1.00  0.00     0.039 C 
BRANCH  13  17
ATOM     17  C   UNL     1      54.198  13.101  -0.087  1.00  0.00     0.066 CG0
ATOM     18  G   UNL     1      53.607  12.459   1.153  1.00  0.00     0.000 G0
ENDBRANCH  13  17
ENDBRANCH  11  13
ENDBRANCH  10  11
ENDBRANCH   1  10
TORSDOF 0
ENDMDL
