MODEL 1
REMARK VINA RESULT:    -4.741      0.000      0.000
REMARK INTER + INTRA:         -11.667
REMARK INTER:                  -9.176
REMARK INTRA:                  -2.491
REMARK UNBOUND:                -2.491
REMARK SMILES CCCCCCCCCCCCCCCCCC(=O)[O-]
REMARK SMILES IDX 10 1 11 2 12 3 13 4 14 5 15 6 16 7 17 8 18 9 19 10 20 11
REMARK SMILES IDX 9 12 8 13 7 14 6 15 5 16 4 17 3 18 2 19 1 20
REMARK H PARENT
REMARK Flexibility Score: inf
ROOT
ATOM      1  C   UNL     1      12.205  16.040 -18.212  1.00  0.00     0.000 C 
ENDROOT
BRANCH   1   2
ATOM      2  C   UNL     1      12.635  15.521 -16.827  1.00  0.00     0.000 C 
BRANCH   2   3
ATOM      3  C   UNL     1      12.631  16.618 -15.752  1.00  0.00     0.000 C 
BRANCH   3   4
ATOM      4  C   UNL     1      13.765  17.626 -15.990  1.00  0.00     0.000 C 
BRANCH   4   5
ATOM      5  C   UNL     1      15.150  16.958 -16.026  1.00  0.00     0.000 C 
BRANCH   5   6
ATOM      6  C   UNL     1      15.846  17.120 -17.388  1.00  0.00     0.000 C 
BRANCH   6   7
ATOM      7  C   UNL     1      16.856  15.998 -17.673  1.00  0.00     0.006 C 
BRANCH   7   8
ATOM      8  C   UNL     1      16.200  14.613 -17.748  1.00  0.00     0.053 C 
BRANCH   8   9
ATOM      9  C   UNL     1      16.892  13.659 -16.827  1.00  0.00     0.041 C 
ATOM     10  O   UNL     1      17.984  13.129 -17.166  1.00  0.00    -0.550 OA
ATOM     11  O   UNL     1      16.356  13.393 -15.572  1.00  0.00    -0.550 OA
ENDBRANCH   8   9
ENDBRANCH   7   8
ENDBRANCH   6   7
ENDBRANCH   5   6
ENDBRANCH   4   5
ENDBRANCH   3   4
ENDBRANCH   2   3
ENDBRANCH   1   2
BRANCH   1  12
ATOM     12  C   UNL     1      13.088  15.575 -19.388  1.00  0.00     0.000 C 
BRANCH  12  13
ATOM     13  C   UNL     1      12.333  15.289 -20.698  1.00  0.00    -0.000 C 
BRANCH  13  14
ATOM     14  C   UNL     1      13.166  14.475 -21.699  1.00  0.00    -0.000 C 
BRANCH  14  15
ATOM     15  C   UNL     1      14.132  13.530 -20.971  1.00  0.00    -0.000 C 
BRANCH  15  16
ATOM     16  C   UNL     1      14.006  12.066 -21.432  1.00  0.00    -0.000 C 
BRANCH  16  17
ATOM     17  C   UNL     1      12.676  11.379 -21.071  1.00  0.00    -0.000 C 
BRANCH  17  18
ATOM     18  C   UNL     1      12.253  11.616 -19.613  1.00  0.00    -0.000 C 
BRANCH  18  19
ATOM     19  C   UNL     1      10.811  12.135 -19.496  1.00  0.00    -0.003 C 
ATOM     20  C   UNL     1      10.526  12.796 -18.147  1.00  0.00     0.004 C 
ENDBRANCH  18  19
ENDBRANCH  17  18
ENDBRANCH  16  17
ENDBRANCH  15  16
ENDBRANCH  14  15
ENDBRANCH  13  14
ENDBRANCH  12  13
ENDBRANCH   1  12
TORSDOF 16
ENDMDL
MODEL 2
REMARK VINA RESULT:    -4.723      1.751      4.402
REMARK INTER + INTRA:         -11.631
REMARK INTER:                  -8.936
REMARK INTRA:                  -2.695
REMARK UNBOUND:                -2.491
REMARK SMILES CCCCCCCCCCCCCCCCCC(=O)[O-]
REMARK SMILES IDX 10 1 11 2 12 3 13 4 14 5 15 6 16 7 17 8 18 9 19 10 20 11
REMARK SMILES IDX 9 12 8 13 7 14 6 15 5 16 4 17 3 18 2 19 1 20
REMARK H PARENT
REMARK Flexibility Score: inf
ROOT
ATOM      1  C   UNL     1      13.392  11.734 -21.829  1.00  0.00     0.000 C 
ENDROOT
BRANCH   1   2
ATOM      2  C   UNL     1      14.115  13.077 -21.610  1.00  0.00     0.000 C 
BRANCH   2   3
ATOM      3  C   UNL     1      13.218  14.290 -21.897  1.00  0.00     0.000 C 
BRANCH   3   4
ATOM      4  C   UNL     1      13.249  15.286 -20.727  1.00  0.00     0.000 C 
BRANCH   4   5
ATOM      5  C   UNL     1      14.056  14.761 -19.528  1.00  0.00     0.000 C 
BRANCH   5   6
ATOM      6  C   UNL     1      13.672  15.457 -18.211  1.00  0.00     0.000 C 
BRANCH   6   7
ATOM      7  C   UNL     1      14.091  14.651 -16.972  1.00  0.00     0.006 C 
BRANCH   7   8
ATOM      8  C   UNL     1      15.423  15.124 -16.378  1.00  0.00     0.053 C 
BRANCH   8   9
ATOM      9  C   UNL     1      16.462  14.057 -16.514  1.00  0.00     0.041 C 
ATOM     10  O   UNL     1      16.468  13.073 -15.725  1.00  0.00    -0.550 OA
ATOM     11  O   UNL     1      17.395  14.121 -17.543  1.00  0.00    -0.550 OA
ENDBRANCH   8   9
ENDBRANCH   7   8
ENDBRANCH   6   7
ENDBRANCH   5   6
ENDBRANCH   4   5
ENDBRANCH   3   4
ENDBRANCH   2   3
ENDBRANCH   1   2
BRANCH   1  12
ATOM     12  C   UNL     1      12.912  11.033 -20.541  1.00  0.00     0.000 C 
BRANCH  12  13
ATOM     13  C   UNL     1      11.675  11.664 -19.878  1.00  0.00    -0.000 C 
BRANCH  13  14
ATOM     14  C   UNL     1      11.900  12.001 -18.396  1.00  0.00    -0.000 C 
BRANCH  14  15
ATOM     15  C   UNL     1      10.765  12.880 -17.853  1.00  0.00    -0.000 C 
BRANCH  15  16
ATOM     16  C   UNL     1      10.291  13.943 -18.860  1.00  0.00    -0.000 C 
BRANCH  16  17
ATOM     17  C   UNL     1       9.974  15.323 -18.255  1.00  0.00    -0.000 C 
BRANCH  17  18
ATOM     18  C   UNL     1       9.924  16.443 -19.305  1.00  0.00    -0.000 C 
BRANCH  18  19
ATOM     19  C   UNL     1       9.277  15.986 -20.622  1.00  0.00    -0.003 C 
ATOM     20  C   UNL     1       7.750  16.012 -20.573  1.00  0.00     0.004 C 
ENDBRANCH  18  19
ENDBRANCH  17  18
ENDBRANCH  16  17
ENDBRANCH  15  16
ENDBRANCH  14  15
ENDBRANCH  13  14
ENDBRANCH  12  13
ENDBRANCH   1  12
TORSDOF 16
ENDMDL
MODEL 3
REMARK VINA RESULT:    -4.653      2.899      6.276
REMARK INTER + INTRA:         -11.496
REMARK INTER:                  -8.916
REMARK INTRA:                  -2.581
REMARK UNBOUND:                -2.491
REMARK SMILES CCCCCCCCCCCCCCCCCC(=O)[O-]
REMARK SMILES IDX 10 1 11 2 12 3 13 4 14 5 15 6 16 7 17 8 18 9 19 10 20 11
REMARK SMILES IDX 9 12 8 13 7 14 6 15 5 16 4 17 3 18 2 19 1 20
REMARK H PARENT
REMARK Flexibility Score: inf
ROOT
ATOM      1  C   UNL     1      15.631  13.386 -20.145  1.00  0.00     0.000 C 
ENDROOT
BRANCH   1   2
ATOM      2  C   UNL     1      15.629  12.315 -21.251  1.00  0.00     0.000 C 
BRANCH   2   3
ATOM      3  C   UNL     1      14.230  12.059 -21.830  1.00  0.00     0.000 C 
BRANCH   3   4
ATOM      4  C   UNL     1      13.151  12.761 -20.992  1.00  0.00     0.000 C 
BRANCH   4   5
ATOM      5  C   UNL     1      12.242  11.767 -20.250  1.00  0.00     0.000 C 
BRANCH   5   6
ATOM      6  C   UNL     1      12.270  11.970 -18.725  1.00  0.00     0.000 C 
BRANCH   6   7
ATOM      7  C   UNL     1      10.922  12.450 -18.167  1.00  0.00     0.006 C 
BRANCH   7   8
ATOM      8  C   UNL     1      10.038  13.110 -19.234  1.00  0.00     0.053 C 
BRANCH   8   9
ATOM      9  C   UNL     1      10.147  14.599 -19.151  1.00  0.00     0.041 C 
ATOM     10  O   UNL     1       9.720  15.210 -18.134  1.00  0.00    -0.550 OA
ATOM     11  O   UNL     1      10.766  15.310 -20.173  1.00  0.00    -0.550 OA
ENDBRANCH   8   9
ENDBRANCH   7   8
ENDBRANCH   6   7
ENDBRANCH   5   6
ENDBRANCH   4   5
ENDBRANCH   3   4
ENDBRANCH   2   3
ENDBRANCH   1   2
BRANCH   1  12
ATOM     12  C   UNL     1      17.019  13.720 -19.560  1.00  0.00     0.000 C 
BRANCH  12  13
ATOM     13  C   UNL     1      17.115  15.076 -18.840  1.00  0.00    -0.000 C 
BRANCH  13  14
ATOM     14  C   UNL     1      17.503  14.939 -17.360  1.00  0.00    -0.000 C 
BRANCH  14  15
ATOM     15  C   UNL     1      17.193  13.527 -16.840  1.00  0.00    -0.000 C 
BRANCH  15  16
ATOM     16  C   UNL     1      16.101  13.511 -15.755  1.00  0.00    -0.000 C 
BRANCH  16  17
ATOM     17  C   UNL     1      14.656  13.588 -16.281  1.00  0.00    -0.000 C 
BRANCH  17  18
ATOM     18  C   UNL     1      14.146  15.030 -16.431  1.00  0.00    -0.000 C 
BRANCH  18  19
ATOM     19  C   UNL     1      13.476  15.277 -17.792  1.00  0.00    -0.003 C 
ATOM     20  C   UNL     1      13.757  16.674 -18.346  1.00  0.00     0.004 C 
ENDBRANCH  18  19
ENDBRANCH  17  18
ENDBRANCH  16  17
ENDBRANCH  15  16
ENDBRANCH  14  15
ENDBRANCH  13  14
ENDBRANCH  12  13
ENDBRANCH   1  12
TORSDOF 16
ENDMDL
MODEL 4
REMARK VINA RESULT:    -4.652      1.071      4.048
REMARK INTER + INTRA:         -11.495
REMARK INTER:                  -8.749
REMARK INTRA:                  -2.746
REMARK UNBOUND:                -2.491
REMARK SMILES CCCCCCCCCCCCCCCCCC(=O)[O-]
REMARK SMILES IDX 10 1 11 2 12 3 13 4 14 5 15 6 16 7 17 8 18 9 19 10 20 11
REMARK SMILES IDX 9 12 8 13 7 14 6 15 5 16 4 17 3 18 2 19 1 20
REMARK H PARENT
REMARK Flexibility Score: inf
ROOT
ATOM      1  C   UNL     1      13.607  12.944 -21.237  1.00  0.00     0.000 C 
ENDROOT
BRANCH   1   2
ATOM      2  C   UNL     1      13.818  14.015 -20.150  1.00  0.00     0.000 C 
BRANCH   2   3
ATOM      3  C   UNL     1      13.412  15.422 -20.614  1.00  0.00     0.000 C 
BRANCH   3   4
ATOM      4  C   UNL     1      14.258  16.496 -19.912  1.00  0.00     0.000 C 
BRANCH   4   5
ATOM      5  C   UNL     1      15.464  15.903 -19.167  1.00  0.00     0.000 C 
BRANCH   5   6
ATOM      6  C   UNL     1      16.031  16.864 -18.107  1.00  0.00     0.000 C 
BRANCH   6   7
ATOM      7  C   UNL     1      16.571  16.128 -16.871  1.00  0.00     0.006 C 
BRANCH   7   8
ATOM      8  C   UNL     1      15.703  14.929 -16.466  1.00  0.00     0.053 C 
BRANCH   8   9
ATOM      9  C   UNL     1      16.560  13.734 -16.197  1.00  0.00     0.041 C 
ATOM     10  O   UNL     1      17.682  13.618 -16.761  1.00  0.00    -0.550 OA
ATOM     11  O   UNL     1      16.144  12.771 -15.285  1.00  0.00    -0.550 OA
ENDBRANCH   8   9
ENDBRANCH   7   8
ENDBRANCH   6   7
ENDBRANCH   5   6
ENDBRANCH   4   5
ENDBRANCH   3   4
ENDBRANCH   2   3
ENDBRANCH   1   2
BRANCH   1  12
ATOM     12  C   UNL     1      12.619  11.819 -20.862  1.00  0.00     0.000 C 
BRANCH  12  13
ATOM     13  C   UNL     1      12.018  11.923 -19.450  1.00  0.00    -0.000 C 
BRANCH  13  14
ATOM     14  C   UNL     1      10.503  12.170 -19.464  1.00  0.00    -0.000 C 
BRANCH  14  15
ATOM     15  C   UNL     1      10.179  13.621 -19.079  1.00  0.00    -0.000 C 
BRANCH  15  16
ATOM     16  C   UNL     1      10.976  14.113 -17.857  1.00  0.00    -0.000 C 
BRANCH  16  17
ATOM     17  C   UNL     1      11.137  15.640 -17.753  1.00  0.00    -0.000 C 
BRANCH  17  18
ATOM     18  C   UNL     1      12.094  16.069 -16.628  1.00  0.00    -0.000 C 
BRANCH  18  19
ATOM     19  C   UNL     1      12.567  17.523 -16.782  1.00  0.00    -0.003 C 
ATOM     20  C   UNL     1      13.506  17.962 -15.659  1.00  0.00     0.004 C 
ENDBRANCH  18  19
ENDBRANCH  17  18
ENDBRANCH  16  17
ENDBRANCH  15  16
ENDBRANCH  14  15
ENDBRANCH  13  14
ENDBRANCH  12  13
ENDBRANCH   1  12
TORSDOF 16
ENDMDL
MODEL 5
REMARK VINA RESULT:    -4.652      1.151      2.057
REMARK INTER + INTRA:         -11.494
REMARK INTER:                  -8.978
REMARK INTRA:                  -2.517
REMARK UNBOUND:                -2.491
REMARK SMILES CCCCCCCCCCCCCCCCCC(=O)[O-]
REMARK SMILES IDX 10 1 11 2 12 3 13 4 14 5 15 6 16 7 17 8 18 9 19 10 20 11
REMARK SMILES IDX 9 12 8 13 7 14 6 15 5 16 4 17 3 18 2 19 1 20
REMARK H PARENT
REMARK Flexibility Score: inf
ROOT
ATOM      1  C   UNL     1      10.278  15.902 -16.911  1.00  0.00     0.000 C 
ENDROOT
BRANCH   1   2
ATOM      2  C   UNL     1      11.509  16.827 -16.852  1.00  0.00     0.000 C 
BRANCH   2   3
ATOM      3  C   UNL     1      12.387  16.573 -15.618  1.00  0.00     0.000 C 
BRANCH   3   4
ATOM      4  C   UNL     1      13.873  16.782 -15.947  1.00  0.00     0.000 C 
BRANCH   4   5
ATOM      5  C   UNL     1      14.096  17.248 -17.395  1.00  0.00     0.000 C 
BRANCH   5   6
ATOM      6  C   UNL     1      15.586  17.304 -17.773  1.00  0.00     0.000 C 
BRANCH   6   7
ATOM      7  C   UNL     1      16.454  16.396 -16.890  1.00  0.00     0.006 C 
BRANCH   7   8
ATOM      8  C   UNL     1      17.119  15.259 -17.678  1.00  0.00     0.053 C 
BRANCH   8   9
ATOM      9  C   UNL     1      16.956  13.960 -16.954  1.00  0.00     0.041 C 
ATOM     10  O   UNL     1      17.878  13.101 -16.979  1.00  0.00    -0.550 OA
ATOM     11  O   UNL     1      15.807  13.718 -16.210  1.00  0.00    -0.550 OA
ENDBRANCH   8   9
ENDBRANCH   7   8
ENDBRANCH   6   7
ENDBRANCH   5   6
ENDBRANCH   4   5
ENDBRANCH   3   4
ENDBRANCH   2   3
ENDBRANCH   1   2
BRANCH   1  12
ATOM     12  C   UNL     1      10.379  14.744 -17.925  1.00  0.00     0.000 C 
BRANCH  12  13
ATOM     13  C   UNL     1      11.760  14.569 -18.580  1.00  0.00    -0.000 C 
BRANCH  13  14
ATOM     14  C   UNL     1      11.806  15.092 -20.023  1.00  0.00    -0.000 C 
BRANCH  14  15
ATOM     15  C   UNL     1      13.254  15.206 -20.520  1.00  0.00    -0.000 C 
BRANCH  15  16
ATOM     16  C   UNL     1      14.238  14.335 -19.718  1.00  0.00    -0.000 C 
BRANCH  16  17
ATOM     17  C   UNL     1      14.876  13.176 -20.504  1.00  0.00    -0.000 C 
BRANCH  17  18
ATOM     18  C   UNL     1      13.965  12.629 -21.615  1.00  0.00    -0.000 C 
BRANCH  18  19
ATOM     19  C   UNL     1      13.371  11.256 -21.264  1.00  0.00    -0.003 C 
ATOM     20  C   UNL     1      12.106  11.357 -20.412  1.00  0.00     0.004 C 
ENDBRANCH  18  19
ENDBRANCH  17  18
ENDBRANCH  16  17
ENDBRANCH  15  16
ENDBRANCH  14  15
ENDBRANCH  13  14
ENDBRANCH  12  13
ENDBRANCH   1  12
TORSDOF 16
ENDMDL
MODEL 6
REMARK VINA RESULT:    -4.644      1.451      3.311
REMARK INTER + INTRA:         -11.479
REMARK INTER:                  -8.912
REMARK INTRA:                  -2.567
REMARK UNBOUND:                -2.491
REMARK SMILES CCCCCCCCCCCCCCCCCC(=O)[O-]
REMARK SMILES IDX 10 1 11 2 12 3 13 4 14 5 15 6 16 7 17 8 18 9 19 10 20 11
REMARK SMILES IDX 9 12 8 13 7 14 6 15 5 16 4 17 3 18 2 19 1 20
REMARK H PARENT
REMARK Flexibility Score: inf
ROOT
ATOM      1  C   UNL     1      14.524  13.506 -20.326  1.00  0.00     0.000 C 
ENDROOT
BRANCH   1   2
ATOM      2  C   UNL     1      14.075  14.711 -19.479  1.00  0.00     0.000 C 
BRANCH   2   3
ATOM      3  C   UNL     1      13.998  16.014 -20.290  1.00  0.00     0.000 C 
BRANCH   3   4
ATOM      4  C   UNL     1      14.473  17.212 -19.454  1.00  0.00     0.000 C 
BRANCH   4   5
ATOM      5  C   UNL     1      13.949  17.166 -18.009  1.00  0.00     0.000 C 
BRANCH   5   6
ATOM      6  C   UNL     1      14.984  17.676 -16.991  1.00  0.00     0.000 C 
BRANCH   6   7
ATOM      7  C   UNL     1      16.375  17.059 -17.202  1.00  0.00     0.006 C 
BRANCH   7   8
ATOM      8  C   UNL     1      16.485  15.636 -16.641  1.00  0.00     0.053 C 
BRANCH   8   9
ATOM      9  C   UNL     1      17.201  14.749 -17.610  1.00  0.00     0.041 C 
ATOM     10  O   UNL     1      17.527  13.578 -17.276  1.00  0.00    -0.550 OA
ATOM     11  O   UNL     1      17.463  15.197 -18.900  1.00  0.00    -0.550 OA
ENDBRANCH   8   9
ENDBRANCH   7   8
ENDBRANCH   6   7
ENDBRANCH   5   6
ENDBRANCH   4   5
ENDBRANCH   3   4
ENDBRANCH   2   3
ENDBRANCH   1   2
BRANCH   1  12
ATOM     12  C   UNL     1      13.564  13.117 -21.470  1.00  0.00     0.000 C 
BRANCH  12  13
ATOM     13  C   UNL     1      13.253  11.614 -21.578  1.00  0.00    -0.000 C 
BRANCH  13  14
ATOM     14  C   UNL     1      12.641  11.040 -20.292  1.00  0.00    -0.000 C 
BRANCH  14  15
ATOM     15  C   UNL     1      11.380  11.818 -19.887  1.00  0.00    -0.000 C 
BRANCH  15  16
ATOM     16  C   UNL     1      11.396  12.268 -18.416  1.00  0.00    -0.000 C 
BRANCH  16  17
ATOM     17  C   UNL     1      10.492  13.472 -18.091  1.00  0.00    -0.000 C 
BRANCH  17  18
ATOM     18  C   UNL     1      10.016  14.222 -19.345  1.00  0.00    -0.000 C 
BRANCH  18  19
ATOM     19  C   UNL     1      10.497  15.681 -19.375  1.00  0.00    -0.003 C 
ATOM     20  C   UNL     1      10.327  16.333 -20.747  1.00  0.00     0.004 C 
ENDBRANCH  18  19
ENDBRANCH  17  18
ENDBRANCH  16  17
ENDBRANCH  15  16
ENDBRANCH  14  15
ENDBRANCH  13  14
ENDBRANCH  12  13
ENDBRANCH   1  12
TORSDOF 16
ENDMDL
MODEL 7
REMARK VINA RESULT:    -4.643      1.431      3.253
REMARK INTER + INTRA:         -11.477
REMARK INTER:                  -8.578
REMARK INTRA:                  -2.899
REMARK UNBOUND:                -2.491
REMARK SMILES CCCCCCCCCCCCCCCCCC(=O)[O-]
REMARK SMILES IDX 10 1 11 2 12 3 13 4 14 5 15 6 16 7 17 8 18 9 19 10 20 11
REMARK SMILES IDX 9 12 8 13 7 14 6 15 5 16 4 17 3 18 2 19 1 20
REMARK H PARENT
REMARK Flexibility Score: inf
ROOT
ATOM      1  C   UNL     1      11.170  16.089 -20.343  1.00  0.00     0.000 C 
ENDROOT
BRANCH   1   2
ATOM      2  C   UNL     1      12.414  15.288 -20.771  1.00  0.00     0.000 C 
BRANCH   2   3
ATOM      3  C   UNL     1      13.649  15.603 -19.913  1.00  0.00     0.000 C 
BRANCH   3   4
ATOM      4  C   UNL     1      13.298  16.584 -18.784  1.00  0.00     0.000 C 
BRANCH   4   5
ATOM      5  C   UNL     1      13.725  16.067 -17.400  1.00  0.00     0.000 C 
BRANCH   5   6
ATOM      6  C   UNL     1      13.714  14.531 -17.317  1.00  0.00     0.000 C 
BRANCH   6   7
ATOM      7  C   UNL     1      14.964  13.967 -16.626  1.00  0.00     0.006 C 
BRANCH   7   8
ATOM      8  C   UNL     1      16.129  14.965 -16.597  1.00  0.00     0.053 C 
BRANCH   8   9
ATOM      9  C   UNL     1      17.263  14.465 -17.434  1.00  0.00     0.041 C 
ATOM     10  O   UNL     1      17.482  14.967 -18.570  1.00  0.00    -0.550 OA
ATOM     11  O   UNL     1      18.111  13.481 -16.940  1.00  0.00    -0.550 OA
ENDBRANCH   8   9
ENDBRANCH   7   8
ENDBRANCH   6   7
ENDBRANCH   5   6
ENDBRANCH   4   5
ENDBRANCH   3   4
ENDBRANCH   2   3
ENDBRANCH   1   2
BRANCH   1  12
ATOM     12  C   UNL     1       9.994  15.239 -19.818  1.00  0.00     0.000 C 
BRANCH  12  13
ATOM     13  C   UNL     1      10.138  14.753 -18.366  1.00  0.00    -0.000 C 
BRANCH  13  14
ATOM     14  C   UNL     1      10.461  13.255 -18.269  1.00  0.00    -0.000 C 
BRANCH  14  15
ATOM     15  C   UNL     1      10.002  12.511 -19.531  1.00  0.00    -0.000 C 
BRANCH  15  16
ATOM     16  C   UNL     1      11.104  11.628 -20.145  1.00  0.00    -0.000 C 
BRANCH  16  17
ATOM     17  C   UNL     1      12.457  11.668 -19.413  1.00  0.00    -0.000 C 
BRANCH  17  18
ATOM     18  C   UNL     1      13.632  12.018 -20.340  1.00  0.00    -0.000 C 
BRANCH  18  19
ATOM     19  C   UNL     1      13.372  11.610 -21.798  1.00  0.00    -0.003 C 
ATOM     20  C   UNL     1      14.158  12.456 -22.800  1.00  0.00     0.004 C 
ENDBRANCH  18  19
ENDBRANCH  17  18
ENDBRANCH  16  17
ENDBRANCH  15  16
ENDBRANCH  14  15
ENDBRANCH  13  14
ENDBRANCH  12  13
ENDBRANCH   1  12
TORSDOF 16
ENDMDL
MODEL 8
REMARK VINA RESULT:    -4.572      2.256      5.502
REMARK INTER + INTRA:         -11.340
REMARK INTER:                  -8.865
REMARK INTRA:                  -2.475
REMARK UNBOUND:                -2.491
REMARK SMILES CCCCCCCCCCCCCCCCCC(=O)[O-]
REMARK SMILES IDX 10 1 11 2 12 3 13 4 14 5 15 6 16 7 17 8 18 9 19 10 20 11
REMARK SMILES IDX 9 12 8 13 7 14 6 15 5 16 4 17 3 18 2 19 1 20
REMARK H PARENT
REMARK Flexibility Score: inf
ROOT
ATOM      1  C   UNL     1      10.134  16.251 -17.577  1.00  0.00     0.000 C 
ENDROOT
BRANCH   1   2
ATOM      2  C   UNL     1      10.148  15.886 -19.073  1.00  0.00     0.000 C 
BRANCH   2   3
ATOM      3  C   UNL     1      10.782  14.513 -19.346  1.00  0.00     0.000 C 
BRANCH   3   4
ATOM      4  C   UNL     1      10.752  13.633 -18.086  1.00  0.00     0.000 C 
BRANCH   4   5
ATOM      5  C   UNL     1      11.238  12.200 -18.358  1.00  0.00     0.000 C 
BRANCH   5   6
ATOM      6  C   UNL     1      11.353  11.892 -19.861  1.00  0.00     0.000 C 
BRANCH   6   7
ATOM      7  C   UNL     1      12.678  11.205 -20.223  1.00  0.00     0.006 C 
BRANCH   7   8
ATOM      8  C   UNL     1      13.103  11.461 -21.675  1.00  0.00     0.053 C 
BRANCH   8   9
ATOM      9  C   UNL     1      13.996  12.658 -21.752  1.00  0.00     0.041 C 
ATOM     10  O   UNL     1      13.502  13.810 -21.884  1.00  0.00    -0.550 OA
ATOM     11  O   UNL     1      15.373  12.508 -21.628  1.00  0.00    -0.550 OA
ENDBRANCH   8   9
ENDBRANCH   7   8
ENDBRANCH   6   7
ENDBRANCH   5   6
ENDBRANCH   4   5
ENDBRANCH   3   4
ENDBRANCH   2   3
ENDBRANCH   1   2
BRANCH   1  12
ATOM     12  C   UNL     1      11.322  17.115 -17.104  1.00  0.00     0.000 C 
BRANCH  12  13
ATOM     13  C   UNL     1      12.055  16.590 -15.857  1.00  0.00    -0.000 C 
BRANCH  13  14
ATOM     14  C   UNL     1      13.345  15.832 -16.201  1.00  0.00    -0.000 C 
BRANCH  14  15
ATOM     15  C   UNL     1      14.067  16.486 -17.388  1.00  0.00    -0.000 C 
BRANCH  15  16
ATOM     16  C   UNL     1      14.142  15.574 -18.626  1.00  0.00    -0.000 C 
BRANCH  16  17
ATOM     17  C   UNL     1      14.929  14.265 -18.427  1.00  0.00    -0.000 C 
BRANCH  17  18
ATOM     18  C   UNL     1      16.438  14.428 -18.670  1.00  0.00    -0.000 C 
BRANCH  18  19
ATOM     19  C   UNL     1      17.278  13.984 -17.463  1.00  0.00    -0.003 C 
ATOM     20  C   UNL     1      16.436  13.739 -16.211  1.00  0.00     0.004 C 
ENDBRANCH  18  19
ENDBRANCH  17  18
ENDBRANCH  16  17
ENDBRANCH  15  16
ENDBRANCH  14  15
ENDBRANCH  13  14
ENDBRANCH  12  13
ENDBRANCH   1  12
TORSDOF 16
ENDMDL
MODEL 9
REMARK VINA RESULT:    -4.566      1.399      4.530
REMARK INTER + INTRA:         -11.329
REMARK INTER:                  -8.238
REMARK INTRA:                  -3.091
REMARK UNBOUND:                -2.491
REMARK SMILES CCCCCCCCCCCCCCCCCC(=O)[O-]
REMARK SMILES IDX 10 1 11 2 12 3 13 4 14 5 15 6 16 7 17 8 18 9 19 10 20 11
REMARK SMILES IDX 9 12 8 13 7 14 6 15 5 16 4 17 3 18 2 19 1 20
REMARK H PARENT
REMARK Flexibility Score: inf
ROOT
ATOM      1  C   UNL     1      12.149  11.476 -20.303  1.00  0.00     0.000 C 
ENDROOT
BRANCH   1   2
ATOM      2  C   UNL     1      13.177  12.294 -21.108  1.00  0.00     0.000 C 
BRANCH   2   3
ATOM      3  C   UNL     1      14.044  13.199 -20.221  1.00  0.00     0.000 C 
BRANCH   3   4
ATOM      4  C   UNL     1      13.670  14.677 -20.411  1.00  0.00     0.000 C 
BRANCH   4   5
ATOM      5  C   UNL     1      13.992  15.531 -19.174  1.00  0.00     0.000 C 
BRANCH   5   6
ATOM      6  C   UNL     1      14.313  14.675 -17.936  1.00  0.00     0.000 C 
BRANCH   6   7
ATOM      7  C   UNL     1      15.292  15.368 -16.976  1.00  0.00     0.006 C 
BRANCH   7   8
ATOM      8  C   UNL     1      16.701  15.511 -17.564  1.00  0.00     0.053 C 
BRANCH   8   9
ATOM      9  C   UNL     1      17.262  14.167 -17.905  1.00  0.00     0.041 C 
ATOM     10  O   UNL     1      17.327  13.794 -19.107  1.00  0.00    -0.550 OA
ATOM     11  O   UNL     1      17.760  13.346 -16.900  1.00  0.00    -0.550 OA
ENDBRANCH   8   9
ENDBRANCH   7   8
ENDBRANCH   6   7
ENDBRANCH   5   6
ENDBRANCH   4   5
ENDBRANCH   3   4
ENDBRANCH   2   3
ENDBRANCH   1   2
BRANCH   1  12
ATOM     12  C   UNL     1      12.063  11.829 -18.803  1.00  0.00     0.000 C 
BRANCH  12  13
ATOM     13  C   UNL     1      10.696  12.358 -18.336  1.00  0.00    -0.000 C 
BRANCH  13  14
ATOM     14  C   UNL     1      10.686  13.880 -18.131  1.00  0.00    -0.000 C 
BRANCH  14  15
ATOM     15  C   UNL     1      10.110  14.596 -19.362  1.00  0.00    -0.000 C 
BRANCH  15  16
ATOM     16  C   UNL     1      10.194  16.130 -19.262  1.00  0.00    -0.000 C 
BRANCH  16  17
ATOM     17  C   UNL     1      10.394  16.682 -17.839  1.00  0.00    -0.000 C 
BRANCH  17  18
ATOM     18  C   UNL     1      11.422  17.824 -17.777  1.00  0.00    -0.000 C 
BRANCH  18  19
ATOM     19  C   UNL     1      12.350  17.713 -16.556  1.00  0.00    -0.003 C 
ATOM     20  C   UNL     1      11.991  16.539 -15.644  1.00  0.00     0.004 C 
ENDBRANCH  18  19
ENDBRANCH  17  18
ENDBRANCH  16  17
ENDBRANCH  15  16
ENDBRANCH  14  15
ENDBRANCH  13  14
ENDBRANCH  12  13
ENDBRANCH   1  12
TORSDOF 16
ENDMDL
