MODEL 1
REMARK VINA RESULT:    -3.673      0.000      0.000
REMARK INTER + INTRA:          -5.793
REMARK INTER:                  -5.605
REMARK INTRA:                  -0.187
REMARK UNBOUND:                -0.187
REMARK SMILES CC1=CCC[C@@H](C)C(=O)C[C@H](C(C)C)C(=O)C1
REMARK SMILES IDX 8 1 9 2 6 3 7 4 5 5 4 6 3 7 2 8 1 9 10 11 11 12 15 13 16 14
REMARK SMILES IDX 17 15 12 17 13 18 14 19
REMARK H PARENT
REMARK Flexibility Score: 70.00
ROOT
ATOM      1  C   UNL     1      -3.428  -0.020  28.473  1.00  0.00     0.136 C 
ATOM      2  O   UNL     1      -3.577  -1.227  28.613  1.00  0.00    -0.299 OA
ENDROOT
BRANCH   1   3
ATOM      3  C   UNL     1      -2.319   0.498  27.577  1.00  0.00     0.053 C 
ATOM      4  C   UNL     1      -2.553   0.063  26.123  1.00  0.00     0.016 C 
BRANCH   3   5
ATOM      5  C   UNL     1      -0.946   0.008  28.089  1.00  0.00     0.015 C 
BRANCH   5   6
ATOM      6  C   UNL     1      -0.234   1.067  28.954  1.00  0.00     0.028 C 
BRANCH   6   7
ATOM      7  C   UNL     1      -0.573   2.464  28.500  1.00  0.00    -0.028 C 
ATOM      8  C   UNL     1      -1.265   3.372  29.227  1.00  0.00    -0.070 CG0
ATOM      9  C   UNL     1      -1.460   4.746  28.639  1.00  0.00     0.039 C 
ATOM     10  G   UNL     1      -1.839   3.078  30.604  1.00  0.00     0.000 G0
ENDBRANCH   6   7
ENDBRANCH   5   6
ENDBRANCH   3   5
ENDBRANCH   1   3
BRANCH   1  11
ATOM     11  C   UNL     1      -4.356   0.926  29.197  1.00  0.00     0.087 C 
BRANCH  11  12
ATOM     12  C   UNL     1      -3.827   1.320  30.600  1.00  0.00     0.066 C 
BRANCH  12  13
ATOM     13  C   UNL     1      -3.316   2.757  30.604  1.00  0.00     0.140 C 
ATOM     14  O   UNL     1      -4.127   3.669  30.535  1.00  0.00    -0.299 OA
BRANCH  13  15
ATOM     15  C   UNL     1      -1.839   3.083  30.617  1.00  0.00     0.106 CG0
ATOM     16  G   UNL     1      -1.295   3.350  29.222  1.00  0.00     0.000 G0
ENDBRANCH  13  15
ENDBRANCH  12  13
BRANCH  12  17
ATOM     17  C   UNL     1      -4.871   1.080  31.738  1.00  0.00    -0.006 C 
ATOM     18  C   UNL     1      -4.309   1.516  33.104  1.00  0.00     0.008 C 
ATOM     19  C   UNL     1      -5.309  -0.392  31.831  1.00  0.00     0.008 C 
ENDBRANCH  12  17
ENDBRANCH  11  12
ENDBRANCH   1  11
TORSDOF 1
ENDMDL
MODEL 2
REMARK VINA RESULT:    -3.498     15.273     16.586
REMARK INTER + INTRA:          -5.526
REMARK INTER:                  -5.230
REMARK INTRA:                  -0.296
REMARK UNBOUND:                -0.187
REMARK SMILES CC1=CCC[C@@H](C)C(=O)C[C@H](C(C)C)C(=O)C1
REMARK SMILES IDX 8 1 9 2 6 3 7 4 5 5 4 6 3 7 2 8 1 9 10 11 11 12 15 13 16 14
REMARK SMILES IDX 17 15 12 17 13 18 14 19
REMARK H PARENT
REMARK Flexibility Score: 70.00
ROOT
ATOM      1  C   UNL     1     -12.320  11.397  19.871  1.00  0.00     0.136 C 
ATOM      2  O   UNL     1     -12.994  12.418  19.813  1.00  0.00    -0.299 OA
ENDROOT
BRANCH   1   3
ATOM      3  C   UNL     1     -11.237  11.155  18.837  1.00  0.00     0.053 C 
ATOM      4  C   UNL     1     -10.131  12.213  18.957  1.00  0.00     0.016 C 
BRANCH   3   5
ATOM      5  C   UNL     1     -11.847  11.149  17.417  1.00  0.00     0.015 C 
BRANCH   5   6
ATOM      6  C   UNL     1     -12.438   9.775  17.042  1.00  0.00     0.028 C 
BRANCH   6   7
ATOM      7  C   UNL     1     -11.486   8.657  17.382  1.00  0.00    -0.028 C 
ATOM      8  C   UNL     1     -11.774   7.606  18.185  1.00  0.00    -0.070 CG0
ATOM      9  C   UNL     1     -10.718   6.546  18.366  1.00  0.00     0.039 C 
ATOM     10  G   UNL     1     -13.107   7.439  18.897  1.00  0.00     0.000 G0
ENDBRANCH   6   7
ENDBRANCH   5   6
ENDBRANCH   3   5
ENDBRANCH   1   3
BRANCH   1  11
ATOM     11  C   UNL     1     -12.584  10.402  20.976  1.00  0.00     0.087 C 
BRANCH  11  12
ATOM     12  C   UNL     1     -13.686   9.377  20.601  1.00  0.00     0.066 C 
BRANCH  12  13
ATOM     13  C   UNL     1     -13.079   8.012  20.301  1.00  0.00     0.140 C 
ATOM     14  O   UNL     1     -12.506   7.413  21.200  1.00  0.00    -0.299 OA
BRANCH  13  15
ATOM     15  C   UNL     1     -13.100   7.411  18.913  1.00  0.00     0.106 CG0
ATOM     16  G   UNL     1     -11.775   7.588  18.188  1.00  0.00     0.000 G0
ENDBRANCH  13  15
ENDBRANCH  12  13
BRANCH  12  17
ATOM     17  C   UNL     1     -14.819   9.278  21.672  1.00  0.00    -0.006 C 
ATOM     18  C   UNL     1     -16.043   8.526  21.114  1.00  0.00     0.008 C 
ATOM     19  C   UNL     1     -15.276  10.660  22.174  1.00  0.00     0.008 C 
ENDBRANCH  12  17
ENDBRANCH  11  12
ENDBRANCH   1  11
TORSDOF 1
ENDMDL
MODEL 3
REMARK VINA RESULT:    -3.480     10.438     12.019
REMARK INTER + INTRA:          -5.499
REMARK INTER:                  -5.214
REMARK INTRA:                  -0.285
REMARK UNBOUND:                -0.187
REMARK SMILES CC1=CCC[C@@H](C)C(=O)C[C@H](C(C)C)C(=O)C1
REMARK SMILES IDX 8 1 9 2 6 3 7 4 5 5 4 6 3 7 2 8 1 9 10 11 11 12 15 13 16 14
REMARK SMILES IDX 17 15 12 17 13 18 14 19
REMARK H PARENT
REMARK Flexibility Score: 70.00
ROOT
ATOM      1  C   UNL     1     -12.503   8.025  32.179  1.00  0.00     0.136 C 
ATOM      2  O   UNL     1     -13.516   8.098  32.862  1.00  0.00    -0.299 OA
ENDROOT
BRANCH   1   3
ATOM      3  C   UNL     1     -11.237   7.443  32.778  1.00  0.00     0.053 C 
ATOM      4  C   UNL     1     -11.476   6.001  33.247  1.00  0.00     0.016 C 
BRANCH   3   5
ATOM      5  C   UNL     1     -10.741   8.330  33.942  1.00  0.00     0.015 C 
BRANCH   5   6
ATOM      6  C   UNL     1      -9.742   9.406  33.470  1.00  0.00     0.028 C 
BRANCH   6   7
ATOM      7  C   UNL     1      -8.901   8.909  32.323  1.00  0.00    -0.028 C 
ATOM      8  C   UNL     1      -8.857   9.468  31.091  1.00  0.00    -0.070 CG0
ATOM      9  C   UNL     1      -7.911   8.874  30.080  1.00  0.00     0.039 C 
ATOM     10  G   UNL     1      -9.699  10.668  30.686  1.00  0.00     0.000 G0
ENDBRANCH   6   7
ENDBRANCH   5   6
ENDBRANCH   3   5
ENDBRANCH   1   3
BRANCH   1  11
ATOM     11  C   UNL     1     -12.540   8.516  30.752  1.00  0.00     0.087 C 
BRANCH  11  12
ATOM     12  C   UNL     1     -12.252  10.036  30.639  1.00  0.00     0.066 C 
BRANCH  12  13
ATOM     13  C   UNL     1     -10.933  10.287  29.917  1.00  0.00     0.140 C 
ATOM     14  O   UNL     1     -10.883  10.114  28.708  1.00  0.00    -0.299 OA
BRANCH  13  15
ATOM     15  C   UNL     1      -9.673  10.672  30.659  1.00  0.00     0.106 CG0
ATOM     16  G   UNL     1      -8.865   9.459  31.091  1.00  0.00     0.000 G0
ENDBRANCH  13  15
ENDBRANCH  12  13
BRANCH  12  17
ATOM     17  C   UNL     1     -13.425  10.834  29.984  1.00  0.00    -0.006 C 
ATOM     18  C   UNL     1     -13.669  12.163  30.723  1.00  0.00     0.008 C 
ATOM     19  C   UNL     1     -14.740  10.033  29.961  1.00  0.00     0.008 C 
ENDBRANCH  12  17
ENDBRANCH  11  12
ENDBRANCH   1  11
TORSDOF 1
ENDMDL
MODEL 4
REMARK VINA RESULT:    -3.446      1.561      3.918
REMARK INTER + INTRA:          -5.447
REMARK INTER:                  -5.315
REMARK INTRA:                  -0.132
REMARK UNBOUND:                -0.187
REMARK SMILES CC1=CCC[C@@H](C)C(=O)C[C@H](C(C)C)C(=O)C1
REMARK SMILES IDX 8 1 9 2 6 3 7 4 5 5 4 6 3 7 2 8 1 9 10 11 11 12 15 13 16 14
REMARK SMILES IDX 17 15 12 17 13 18 14 19
REMARK H PARENT
REMARK Flexibility Score: 70.00
ROOT
ATOM      1  C   UNL     1      -3.286  -0.135  29.568  1.00  0.00     0.136 C 
ATOM      2  O   UNL     1      -4.065  -0.825  28.922  1.00  0.00    -0.299 OA
ENDROOT
BRANCH   1   3
ATOM      3  C   UNL     1      -3.608   0.209  31.009  1.00  0.00     0.053 C 
ATOM      4  C   UNL     1      -4.918  -0.464  31.444  1.00  0.00     0.016 C 
BRANCH   3   5
ATOM      5  C   UNL     1      -3.687   1.742  31.188  1.00  0.00     0.015 C 
BRANCH   5   6
ATOM      6  C   UNL     1      -2.349   2.342  31.664  1.00  0.00     0.028 C 
BRANCH   6   7
ATOM      7  C   UNL     1      -2.135   3.722  31.100  1.00  0.00    -0.028 C 
ATOM      8  C   UNL     1      -1.435   4.004  29.975  1.00  0.00    -0.070 CG0
ATOM      9  C   UNL     1      -1.374   5.440  29.523  1.00  0.00     0.039 C 
ATOM     10  G   UNL     1      -0.725   2.946  29.146  1.00  0.00     0.000 G0
ENDBRANCH   6   7
ENDBRANCH   5   6
ENDBRANCH   3   5
ENDBRANCH   1   3
BRANCH   1  11
ATOM     11  C   UNL     1      -2.019   0.357  28.910  1.00  0.00     0.087 C 
BRANCH  11  12
ATOM     12  C   UNL     1      -2.299   1.341  27.743  1.00  0.00     0.066 C 
BRANCH  12  13
ATOM     13  C   UNL     1      -1.440   2.593  27.871  1.00  0.00     0.140 C 
ATOM     14  O   UNL     1      -1.288   3.304  26.887  1.00  0.00    -0.299 OA
BRANCH  13  15
ATOM     15  C   UNL     1      -0.714   2.942  29.151  1.00  0.00     0.106 CG0
ATOM     16  G   UNL     1      -1.448   4.001  29.959  1.00  0.00     0.000 G0
ENDBRANCH  13  15
ENDBRANCH  12  13
BRANCH  12  17
ATOM     17  C   UNL     1      -2.144   0.680  26.336  1.00  0.00    -0.006 C 
ATOM     18  C   UNL     1      -3.520   0.386  25.709  1.00  0.00     0.008 C 
ATOM     19  C   UNL     1      -1.335  -0.629  26.387  1.00  0.00     0.008 C 
ENDBRANCH  12  17
ENDBRANCH  11  12
ENDBRANCH   1  11
TORSDOF 1
ENDMDL
MODEL 5
REMARK VINA RESULT:    -3.443      1.796      4.180
REMARK INTER + INTRA:          -5.442
REMARK INTER:                  -5.512
REMARK INTRA:                   0.071
REMARK UNBOUND:                -0.187
REMARK SMILES CC1=CCC[C@@H](C)C(=O)C[C@H](C(C)C)C(=O)C1
REMARK SMILES IDX 8 1 9 2 6 3 7 4 5 5 4 6 3 7 2 8 1 9 10 11 11 12 15 13 16 14
REMARK SMILES IDX 17 15 12 17 13 18 14 19
REMARK H PARENT
REMARK Flexibility Score: 70.00
ROOT
ATOM      1  C   UNL     1      -3.514   0.100  30.080  1.00  0.00     0.136 C 
ATOM      2  O   UNL     1      -4.247  -0.299  29.185  1.00  0.00    -0.299 OA
ENDROOT
BRANCH   1   3
ATOM      3  C   UNL     1      -4.094   0.382  31.453  1.00  0.00     0.053 C 
ATOM      4  C   UNL     1      -5.400  -0.399  31.657  1.00  0.00     0.016 C 
BRANCH   3   5
ATOM      5  C   UNL     1      -4.321   1.899  31.635  1.00  0.00     0.015 C 
BRANCH   5   6
ATOM      6  C   UNL     1      -3.752   2.416  32.972  1.00  0.00     0.028 C 
BRANCH   6   7
ATOM      7  C   UNL     1      -2.933   3.665  32.774  1.00  0.00    -0.028 C 
ATOM      8  C   UNL     1      -1.734   3.718  32.149  1.00  0.00    -0.070 CG0
ATOM      9  C   UNL     1      -1.081   5.067  31.987  1.00  0.00     0.039 C 
ATOM     10  G   UNL     1      -1.024   2.492  31.595  1.00  0.00     0.000 G0
ENDBRANCH   6   7
ENDBRANCH   5   6
ENDBRANCH   3   5
ENDBRANCH   1   3
BRANCH   1  11
ATOM     11  C   UNL     1      -2.044   0.300  29.795  1.00  0.00     0.087 C 
BRANCH  11  12
ATOM     12  C   UNL     1      -1.744   1.690  29.175  1.00  0.00     0.066 C 
BRANCH  12  13
ATOM     13  C   UNL     1      -0.853   2.515  30.097  1.00  0.00     0.140 C 
ATOM     14  O   UNL     1       0.047   3.180  29.604  1.00  0.00    -0.299 OA
BRANCH  13  15
ATOM     15  C   UNL     1      -1.001   2.477  31.602  1.00  0.00     0.106 CG0
ATOM     16  G   UNL     1      -1.721   3.703  32.141  1.00  0.00     0.000 G0
ENDBRANCH  13  15
ENDBRANCH  12  13
BRANCH  12  17
ATOM     17  C   UNL     1      -1.151   1.601  27.733  1.00  0.00    -0.006 C 
ATOM     18  C   UNL     1      -2.053   2.329  26.718  1.00  0.00     0.008 C 
ATOM     19  C   UNL     1      -0.956   0.147  27.266  1.00  0.00     0.008 C 
ENDBRANCH  12  17
ENDBRANCH  11  12
ENDBRANCH   1  11
TORSDOF 1
ENDMDL
MODEL 6
REMARK VINA RESULT:    -3.340      2.124      4.343
REMARK INTER + INTRA:          -5.285
REMARK INTER:                  -5.222
REMARK INTRA:                  -0.063
REMARK UNBOUND:                -0.187
REMARK SMILES CC1=CCC[C@@H](C)C(=O)C[C@H](C(C)C)C(=O)C1
REMARK SMILES IDX 8 1 9 2 6 3 7 4 5 5 4 6 3 7 2 8 1 9 10 11 11 12 15 13 16 14
REMARK SMILES IDX 17 15 12 17 13 18 14 19
REMARK H PARENT
REMARK Flexibility Score: 70.00
ROOT
ATOM      1  C   UNL     1      -4.109   2.134  31.801  1.00  0.00     0.136 C 
ATOM      2  O   UNL     1      -4.065   2.379  32.999  1.00  0.00    -0.299 OA
ENDROOT
BRANCH   1   3
ATOM      3  C   UNL     1      -5.244   1.291  31.250  1.00  0.00     0.053 C 
ATOM      4  C   UNL     1      -5.252  -0.097  31.907  1.00  0.00     0.016 C 
BRANCH   3   5
ATOM      5  C   UNL     1      -5.127   1.177  29.714  1.00  0.00     0.015 C 
BRANCH   5   6
ATOM      6  C   UNL     1      -4.475  -0.151  29.277  1.00  0.00     0.028 C 
BRANCH   6   7
ATOM      7  C   UNL     1      -3.454   0.070  28.191  1.00  0.00    -0.028 C 
ATOM      8  C   UNL     1      -2.117   0.157  28.386  1.00  0.00    -0.070 CG0
ATOM      9  C   UNL     1      -1.237   0.320  27.173  1.00  0.00     0.039 C 
ATOM     10  G   UNL     1      -1.466   0.084  29.758  1.00  0.00     0.000 G0
ENDBRANCH   6   7
ENDBRANCH   5   6
ENDBRANCH   3   5
ENDBRANCH   1   3
BRANCH   1  11
ATOM     11  C   UNL     1      -3.030   2.681  30.897  1.00  0.00     0.087 C 
BRANCH  11  12
ATOM     12  C   UNL     1      -1.610   2.226  31.324  1.00  0.00     0.066 C 
BRANCH  12  13
ATOM     13  C   UNL     1      -0.934   1.436  30.209  1.00  0.00     0.140 C 
ATOM     14  O   UNL     1       0.015   1.940  29.625  1.00  0.00    -0.299 OA
BRANCH  13  15
ATOM     15  C   UNL     1      -1.444   0.086  29.759  1.00  0.00     0.106 CG0
ATOM     16  G   UNL     1      -2.108   0.147  28.392  1.00  0.00     0.000 G0
ENDBRANCH  13  15
ENDBRANCH  12  13
BRANCH  12  17
ATOM     17  C   UNL     1      -0.713   3.406  31.817  1.00  0.00    -0.006 C 
ATOM     18  C   UNL     1      -0.178   3.138  33.237  1.00  0.00     0.008 C 
ATOM     19  C   UNL     1      -1.459   4.752  31.816  1.00  0.00     0.008 C 
ENDBRANCH  12  17
ENDBRANCH  11  12
ENDBRANCH   1  11
TORSDOF 1
ENDMDL
MODEL 7
REMARK VINA RESULT:    -3.242     11.357     12.790
REMARK INTER + INTRA:          -5.135
REMARK INTER:                  -4.866
REMARK INTRA:                  -0.269
REMARK UNBOUND:                -0.187
REMARK SMILES CC1=CCC[C@@H](C)C(=O)C[C@H](C(C)C)C(=O)C1
REMARK SMILES IDX 8 1 9 2 6 3 7 4 5 5 4 6 3 7 2 8 1 9 10 11 11 12 15 13 16 14
REMARK SMILES IDX 17 15 12 17 13 18 14 19
REMARK H PARENT
REMARK Flexibility Score: 70.00
ROOT
ATOM      1  C   UNL     1     -10.785  10.114  31.455  1.00  0.00     0.136 C 
ATOM      2  O   UNL     1     -10.576  11.047  32.220  1.00  0.00    -0.299 OA
ENDROOT
BRANCH   1   3
ATOM      3  C   UNL     1     -11.251  10.397  30.040  1.00  0.00     0.053 C 
ATOM      4  C   UNL     1     -10.159  11.133  29.250  1.00  0.00     0.016 C 
BRANCH   3   5
ATOM      5  C   UNL     1     -12.563  11.213  30.063  1.00  0.00     0.015 C 
BRANCH   5   6
ATOM      6  C   UNL     1     -13.761  10.376  30.557  1.00  0.00     0.028 C 
BRANCH   6   7
ATOM      7  C   UNL     1     -14.023   9.203  29.648  1.00  0.00    -0.028 C 
ATOM      8  C   UNL     1     -14.167   7.920  30.054  1.00  0.00    -0.070 CG0
ATOM      9  C   UNL     1     -14.486   6.881  29.011  1.00  0.00     0.039 C 
ATOM     10  G   UNL     1     -14.037   7.483  31.505  1.00  0.00     0.000 G0
ENDBRANCH   6   7
ENDBRANCH   5   6
ENDBRANCH   3   5
ENDBRANCH   1   3
BRANCH   1  11
ATOM     11  C   UNL     1     -10.572   8.700  31.941  1.00  0.00     0.087 C 
BRANCH  11  12
ATOM     12  C   UNL     1     -11.784   8.159  32.743  1.00  0.00     0.066 C 
BRANCH  12  13
ATOM     13  C   UNL     1     -12.599   7.182  31.902  1.00  0.00     0.140 C 
ATOM     14  O   UNL     1     -12.056   6.167  31.490  1.00  0.00    -0.299 OA
BRANCH  13  15
ATOM     15  C   UNL     1     -14.031   7.466  31.505  1.00  0.00     0.106 CG0
ATOM     16  G   UNL     1     -14.147   7.928  30.061  1.00  0.00     0.000 G0
ENDBRANCH  13  15
ENDBRANCH  12  13
BRANCH  12  17
ATOM     17  C   UNL     1     -11.379   7.533  34.116  1.00  0.00    -0.006 C 
ATOM     18  C   UNL     1     -12.580   7.493  35.081  1.00  0.00     0.008 C 
ATOM     19  C   UNL     1     -10.227   8.298  34.793  1.00  0.00     0.008 C 
ENDBRANCH  12  17
ENDBRANCH  11  12
ENDBRANCH   1  11
TORSDOF 1
ENDMDL
MODEL 8
REMARK VINA RESULT:    -3.051     10.883     12.361
REMARK INTER + INTRA:          -4.843
REMARK INTER:                  -4.656
REMARK INTRA:                  -0.187
REMARK UNBOUND:                -0.187
REMARK SMILES CC1=CCC[C@@H](C)C(=O)C[C@H](C(C)C)C(=O)C1
REMARK SMILES IDX 8 1 9 2 6 3 7 4 5 5 4 6 3 7 2 8 1 9 10 11 11 12 15 13 16 14
REMARK SMILES IDX 17 15 12 17 13 18 14 19
REMARK H PARENT
REMARK Flexibility Score: 70.00
ROOT
ATOM      1  C   UNL     1     -11.861   7.684  32.611  1.00  0.00     0.136 C 
ATOM      2  O   UNL     1     -12.420   7.344  33.646  1.00  0.00    -0.299 OA
ENDROOT
BRANCH   1   3
ATOM      3  C   UNL     1     -10.442   8.218  32.668  1.00  0.00     0.053 C 
ATOM      4  C   UNL     1      -9.541   7.270  33.472  1.00  0.00     0.016 C 
BRANCH   3   5
ATOM      5  C   UNL     1     -10.431   9.640  33.272  1.00  0.00     0.015 C 
BRANCH   5   6
ATOM      6  C   UNL     1     -10.433  10.734  32.185  1.00  0.00     0.028 C 
BRANCH   6   7
ATOM      7  C   UNL     1      -9.886  10.214  30.882  1.00  0.00    -0.028 C 
ATOM      8  C   UNL     1     -10.570  10.167  29.714  1.00  0.00    -0.070 CG0
ATOM      9  C   UNL     1      -9.844   9.670  28.490  1.00  0.00     0.039 C 
ATOM     10  G   UNL     1     -12.021  10.601  29.577  1.00  0.00     0.000 G0
ENDBRANCH   6   7
ENDBRANCH   5   6
ENDBRANCH   3   5
ENDBRANCH   1   3
BRANCH   1  11
ATOM     11  C   UNL     1     -12.599   7.560  31.300  1.00  0.00     0.087 C 
BRANCH  11  12
ATOM     12  C   UNL     1     -13.434   8.824  30.967  1.00  0.00     0.066 C 
BRANCH  12  13
ATOM     13  C   UNL     1     -12.989   9.436  29.644  1.00  0.00     0.140 C 
ATOM     14  O   UNL     1     -13.379   8.929  28.601  1.00  0.00    -0.299 OA
BRANCH  13  15
ATOM     15  C   UNL     1     -12.027  10.602  29.582  1.00  0.00     0.106 CG0
ATOM     16  G   UNL     1     -10.578  10.160  29.706  1.00  0.00     0.000 G0
ENDBRANCH  13  15
ENDBRANCH  12  13
BRANCH  12  17
ATOM     17  C   UNL     1     -14.975   8.563  30.989  1.00  0.00    -0.006 C 
ATOM     18  C   UNL     1     -15.563   8.841  32.385  1.00  0.00     0.008 C 
ATOM     19  C   UNL     1     -15.332   7.122  30.581  1.00  0.00     0.008 C 
ENDBRANCH  12  17
ENDBRANCH  11  12
ENDBRANCH   1  11
TORSDOF 1
ENDMDL
MODEL 9
REMARK VINA RESULT:    -3.024     16.378     17.895
REMARK INTER + INTRA:          -4.802
REMARK INTER:                  -4.841
REMARK INTRA:                   0.039
REMARK UNBOUND:                -0.187
REMARK SMILES CC1=CCC[C@@H](C)C(=O)C[C@H](C(C)C)C(=O)C1
REMARK SMILES IDX 8 1 9 2 6 3 7 4 5 5 4 6 3 7 2 8 1 9 10 11 11 12 15 13 16 14
REMARK SMILES IDX 17 15 12 17 13 18 14 19
REMARK H PARENT
REMARK Flexibility Score: 70.00
ROOT
ATOM      1  C   UNL     1     -13.748  10.484  21.243  1.00  0.00     0.136 C 
ATOM      2  O   UNL     1     -12.746   9.995  21.748  1.00  0.00    -0.299 OA
ENDROOT
BRANCH   1   3
ATOM      3  C   UNL     1     -14.960  10.770  22.109  1.00  0.00     0.053 C 
ATOM      4  C   UNL     1     -14.703  11.986  23.011  1.00  0.00     0.016 C 
BRANCH   3   5
ATOM      5  C   UNL     1     -15.322   9.524  22.948  1.00  0.00     0.015 C 
BRANCH   5   6
ATOM      6  C   UNL     1     -15.325   8.234  22.104  1.00  0.00     0.028 C 
BRANCH   6   7
ATOM      7  C   UNL     1     -16.538   8.163  21.213  1.00  0.00    -0.028 C 
ATOM      8  C   UNL     1     -16.518   7.873  19.891  1.00  0.00    -0.070 CG0
ATOM      9  C   UNL     1     -17.837   7.786  19.167  1.00  0.00     0.039 C 
ATOM     10  G   UNL     1     -15.238   7.619  19.111  1.00  0.00     0.000 G0
ENDBRANCH   6   7
ENDBRANCH   5   6
ENDBRANCH   3   5
ENDBRANCH   1   3
BRANCH   1  11
ATOM     11  C   UNL     1     -13.751  10.793  19.765  1.00  0.00     0.087 C 
BRANCH  11  12
ATOM     12  C   UNL     1     -13.422   9.549  18.897  1.00  0.00     0.066 C 
BRANCH  12  13
ATOM     13  C   UNL     1     -14.699   8.863  18.426  1.00  0.00     0.140 C 
ATOM     14  O   UNL     1     -15.340   9.374  17.518  1.00  0.00    -0.299 OA
BRANCH  13  15
ATOM     15  C   UNL     1     -15.233   7.614  19.092  1.00  0.00     0.106 CG0
ATOM     16  G   UNL     1     -16.500   7.883  19.888  1.00  0.00     0.000 G0
ENDBRANCH  13  15
ENDBRANCH  12  13
BRANCH  12  17
ATOM     17  C   UNL     1     -12.470   9.873  17.702  1.00  0.00    -0.006 C 
ATOM     18  C   UNL     1     -11.474   8.722  17.462  1.00  0.00     0.008 C 
ATOM     19  C   UNL     1     -11.677  11.174  17.918  1.00  0.00     0.008 C 
ENDBRANCH  12  17
ENDBRANCH  11  12
ENDBRANCH   1  11
TORSDOF 1
ENDMDL
