MODEL 1
REMARK VINA RESULT:    -5.257      0.000      0.000
REMARK INTER + INTRA:          -5.564
REMARK INTER:                  -5.564
REMARK INTRA:                   0.000
REMARK UNBOUND:                 0.000
REMARK SMILES O=c1ccc2cc(O)c(O)cc2o1
REMARK SMILES IDX 4 1 3 2 2 3 1 4 13 5 12 6 11 7 9 8 7 9 6 10 5 11 8 12 10 14
REMARK H PARENT 8 13 10 15
REMARK Flexibility Score: inf
ROOT
ATOM      1  C   UNL     1      10.763 -17.660   8.541  1.00  0.00     0.019 A 
ATOM      2  C   UNL     1       9.416 -17.442   8.255  1.00  0.00     0.094 A 
ATOM      3  C   UNL     1       9.034 -16.226   7.678  1.00  0.00     0.336 A 
ATOM      4  O   UNL     1       7.822 -16.010   7.413  1.00  0.00    -0.246 OA
ATOM      5  O   UNL     1       9.944 -15.293   7.407  1.00  0.00    -0.423 OA
ATOM      6  C   UNL     1      11.239 -15.461   7.664  1.00  0.00     0.142 A 
ATOM      7  C   UNL     1      12.150 -14.447   7.357  1.00  0.00     0.098 A 
ATOM      8  C   UNL     1      13.514 -14.615   7.625  1.00  0.00     0.161 A 
ATOM      9  C   UNL     1      13.973 -15.812   8.205  1.00  0.00     0.158 A 
ATOM     10  C   UNL     1      13.062 -16.833   8.514  1.00  0.00     0.062 A 
ATOM     11  C   UNL     1      11.698 -16.663   8.246  1.00  0.00     0.022 A 
ENDROOT
BRANCH   9  12
ATOM     12  O   UNL     1      15.331 -15.982   8.471  1.00  0.00    -0.504 OA
ATOM     13  H   UNL     1      15.653 -16.522   9.265  1.00  0.00     0.293 HD
ENDBRANCH   9  12
BRANCH   8  14
ATOM     14  O   UNL     1      14.397 -13.584   7.307  1.00  0.00    -0.504 OA
ATOM     15  H   UNL     1      15.074 -13.230   7.973  1.00  0.00     0.293 HD
ENDBRANCH   8  14
TORSDOF 2
ENDMDL
MODEL 2
REMARK VINA RESULT:    -5.197      1.126      2.272
REMARK INTER + INTRA:          -5.500
REMARK INTER:                  -5.500
REMARK INTRA:                   0.000
REMARK UNBOUND:                 0.000
REMARK SMILES O=c1ccc2cc(O)c(O)cc2o1
REMARK SMILES IDX 4 1 3 2 2 3 1 4 13 5 12 6 11 7 9 8 7 9 6 10 5 11 8 12 10 14
REMARK H PARENT 8 13 10 15
REMARK Flexibility Score: inf
ROOT
ATOM      1  C   UNL     1      10.177 -15.006   7.464  1.00  0.00     0.019 A 
ATOM      2  C   UNL     1       9.248 -15.987   7.806  1.00  0.00     0.094 A 
ATOM      3  C   UNL     1       9.706 -17.198   8.337  1.00  0.00     0.336 A 
ATOM      4  O   UNL     1       8.882 -18.097   8.651  1.00  0.00    -0.246 OA
ATOM      5  O   UNL     1      11.008 -17.408   8.512  1.00  0.00    -0.423 OA
ATOM      6  C   UNL     1      11.927 -16.498   8.200  1.00  0.00     0.142 A 
ATOM      7  C   UNL     1      13.282 -16.773   8.406  1.00  0.00     0.098 A 
ATOM      8  C   UNL     1      14.256 -15.822   8.080  1.00  0.00     0.161 A 
ATOM      9  C   UNL     1      13.871 -14.581   7.541  1.00  0.00     0.158 A 
ATOM     10  C   UNL     1      12.513 -14.300   7.332  1.00  0.00     0.062 A 
ATOM     11  C   UNL     1      11.540 -15.252   7.659  1.00  0.00     0.022 A 
ENDROOT
BRANCH   9  12
ATOM     12  O   UNL     1      14.839 -13.631   7.215  1.00  0.00    -0.504 OA
ATOM     13  H   UNL     1      14.920 -12.759   7.724  1.00  0.00     0.293 HD
ENDBRANCH   9  12
BRANCH   8  14
ATOM     14  O   UNL     1      15.599 -16.127   8.298  1.00  0.00    -0.504 OA
ATOM     15  H   UNL     1      15.892 -17.003   8.712  1.00  0.00     0.293 HD
ENDBRANCH   8  14
TORSDOF 2
ENDMDL
MODEL 3
REMARK VINA RESULT:    -4.889      1.018      4.500
REMARK INTER + INTRA:          -5.175
REMARK INTER:                  -5.175
REMARK INTRA:                   0.000
REMARK UNBOUND:                 0.000
REMARK SMILES O=c1ccc2cc(O)c(O)cc2o1
REMARK SMILES IDX 4 1 3 2 2 3 1 4 13 5 12 6 11 7 9 8 7 9 6 10 5 11 8 12 10 14
REMARK H PARENT 8 13 10 15
REMARK Flexibility Score: inf
ROOT
ATOM      1  C   UNL     1      13.488 -16.755   8.483  1.00  0.00     0.019 A 
ATOM      2  C   UNL     1      14.440 -15.765   8.244  1.00  0.00     0.094 A 
ATOM      3  C   UNL     1      14.024 -14.537   7.719  1.00  0.00     0.336 A 
ATOM      4  O   UNL     1      14.869 -13.631   7.496  1.00  0.00    -0.246 OA
ATOM      5  O   UNL     1      12.738 -14.318   7.453  1.00  0.00    -0.423 OA
ATOM      6  C   UNL     1      11.798 -15.235   7.666  1.00  0.00     0.142 A 
ATOM      7  C   UNL     1      10.462 -14.950   7.368  1.00  0.00     0.098 A 
ATOM      8  C   UNL     1       9.467 -15.909   7.589  1.00  0.00     0.161 A 
ATOM      9  C   UNL     1       9.810 -17.168   8.114  1.00  0.00     0.158 A 
ATOM     10  C   UNL     1      11.149 -17.459   8.416  1.00  0.00     0.062 A 
ATOM     11  C   UNL     1      12.144 -16.499   8.194  1.00  0.00     0.022 A 
ENDROOT
BRANCH   9  12
ATOM     12  O   UNL     1       8.820 -18.125   8.336  1.00  0.00    -0.504 OA
ATOM     13  H   UNL     1       9.036 -19.113   8.379  1.00  0.00     0.293 HD
ENDBRANCH   9  12
BRANCH   8  14
ATOM     14  O   UNL     1       8.144 -15.594   7.281  1.00  0.00    -0.504 OA
ATOM     15  H   UNL     1       7.771 -14.660   7.402  1.00  0.00     0.293 HD
ENDBRANCH   8  14
TORSDOF 2
ENDMDL
MODEL 4
REMARK VINA RESULT:    -4.887      1.492      1.690
REMARK INTER + INTRA:          -5.173
REMARK INTER:                  -5.173
REMARK INTRA:                   0.000
REMARK UNBOUND:                 0.000
REMARK SMILES O=c1ccc2cc(O)c(O)cc2o1
REMARK SMILES IDX 4 1 3 2 2 3 1 4 13 5 12 6 11 7 9 8 7 9 6 10 5 11 8 12 10 14
REMARK H PARENT 8 13 10 15
REMARK Flexibility Score: inf
ROOT
ATOM      1  C   UNL     1       9.378 -18.093   7.176  1.00  0.00     0.019 A 
ATOM      2  C   UNL     1       8.179 -17.592   7.681  1.00  0.00     0.094 A 
ATOM      3  C   UNL     1       8.172 -16.328   8.283  1.00  0.00     0.336 A 
ATOM      4  O   UNL     1       7.099 -15.859   8.745  1.00  0.00    -0.246 OA
ATOM      5  O   UNL     1       9.294 -15.618   8.371  1.00  0.00    -0.423 OA
ATOM      6  C   UNL     1      10.459 -16.059   7.902  1.00  0.00     0.142 A 
ATOM      7  C   UNL     1      11.606 -15.269   8.022  1.00  0.00     0.098 A 
ATOM      8  C   UNL     1      12.835 -15.725   7.532  1.00  0.00     0.161 A 
ATOM      9  C   UNL     1      12.919 -16.986   6.913  1.00  0.00     0.158 A 
ATOM     10  C   UNL     1      11.771 -17.783   6.790  1.00  0.00     0.062 A 
ATOM     11  C   UNL     1      10.542 -17.325   7.282  1.00  0.00     0.022 A 
ENDROOT
BRANCH   9  12
ATOM     12  O   UNL     1      14.142 -17.443   6.424  1.00  0.00    -0.504 OA
ATOM     13  H   UNL     1      14.969 -16.858   6.432  1.00  0.00     0.293 HD
ENDBRANCH   9  12
BRANCH   8  14
ATOM     14  O   UNL     1      13.960 -14.913   7.667  1.00  0.00    -0.504 OA
ATOM     15  H   UNL     1      14.365 -14.699   8.570  1.00  0.00     0.293 HD
ENDBRANCH   8  14
TORSDOF 2
ENDMDL
MODEL 5
REMARK VINA RESULT:    -4.757      1.569      2.415
REMARK INTER + INTRA:          -5.035
REMARK INTER:                  -5.035
REMARK INTRA:                   0.000
REMARK UNBOUND:                 0.000
REMARK SMILES O=c1ccc2cc(O)c(O)cc2o1
REMARK SMILES IDX 4 1 3 2 2 3 1 4 13 5 12 6 11 7 9 8 7 9 6 10 5 11 8 12 10 14
REMARK H PARENT 8 13 10 15
REMARK Flexibility Score: inf
ROOT
ATOM      1  C   UNL     1      10.030 -15.321   7.509  1.00  0.00     0.019 A 
ATOM      2  C   UNL     1       8.875 -16.013   7.146  1.00  0.00     0.094 A 
ATOM      3  C   UNL     1       8.979 -17.361   6.785  1.00  0.00     0.336 A 
ATOM      4  O   UNL     1       7.947 -18.004   6.454  1.00  0.00    -0.246 OA
ATOM      5  O   UNL     1      10.162 -17.971   6.789  1.00  0.00    -0.423 OA
ATOM      6  C   UNL     1      11.287 -17.347   7.128  1.00  0.00     0.142 A 
ATOM      7  C   UNL     1      12.502 -18.038   7.114  1.00  0.00     0.098 A 
ATOM      8  C   UNL     1      13.690 -17.389   7.469  1.00  0.00     0.161 A 
ATOM      9  C   UNL     1      13.665 -16.033   7.843  1.00  0.00     0.158 A 
ATOM     10  C   UNL     1      12.448 -15.335   7.860  1.00  0.00     0.062 A 
ATOM     11  C   UNL     1      11.260 -15.986   7.504  1.00  0.00     0.022 A 
ENDROOT
BRANCH   9  12
ATOM     12  O   UNL     1      14.847 -15.385   8.198  1.00  0.00    -0.504 OA
ATOM     13  H   UNL     1      14.861 -14.403   8.446  1.00  0.00     0.293 HD
ENDBRANCH   9  12
BRANCH   8  14
ATOM     14  O   UNL     1      14.886 -18.107   7.444  1.00  0.00    -0.504 OA
ATOM     15  H   UNL     1      15.639 -17.876   6.809  1.00  0.00     0.293 HD
ENDBRANCH   8  14
TORSDOF 2
ENDMDL
MODEL 6
REMARK VINA RESULT:    -4.671      1.545      4.773
REMARK INTER + INTRA:          -4.944
REMARK INTER:                  -4.944
REMARK INTRA:                   0.000
REMARK UNBOUND:                 0.000
REMARK SMILES O=c1ccc2cc(O)c(O)cc2o1
REMARK SMILES IDX 4 1 3 2 2 3 1 4 13 5 12 6 11 7 9 8 7 9 6 10 5 11 8 12 10 14
REMARK H PARENT 8 13 10 15
REMARK Flexibility Score: inf
ROOT
ATOM      1  C   UNL     1      12.435 -17.621   6.501  1.00  0.00     0.019 A 
ATOM      2  C   UNL     1      13.592 -16.898   6.786  1.00  0.00     0.094 A 
ATOM      3  C   UNL     1      13.496 -15.759   7.595  1.00  0.00     0.336 A 
ATOM      4  O   UNL     1      14.530 -15.091   7.863  1.00  0.00    -0.246 OA
ATOM      5  O   UNL     1      12.319 -15.375   8.083  1.00  0.00    -0.423 OA
ATOM      6  C   UNL     1      11.192 -16.038   7.835  1.00  0.00     0.142 A 
ATOM      7  C   UNL     1       9.984 -15.588   8.375  1.00  0.00     0.098 A 
ATOM      8  C   UNL     1       8.793 -16.279   8.120  1.00  0.00     0.161 A 
ATOM      9  C   UNL     1       8.810 -17.433   7.315  1.00  0.00     0.158 A 
ATOM     10  C   UNL     1      10.021 -17.888   6.771  1.00  0.00     0.062 A 
ATOM     11  C   UNL     1      11.211 -17.196   7.027  1.00  0.00     0.022 A 
ENDROOT
BRANCH   9  12
ATOM     12  O   UNL     1       7.626 -18.123   7.059  1.00  0.00    -0.504 OA
ATOM     13  H   UNL     1       7.042 -18.471   7.809  1.00  0.00     0.293 HD
ENDBRANCH   9  12
BRANCH   8  14
ATOM     14  O   UNL     1       7.605 -15.805   8.673  1.00  0.00    -0.504 OA
ATOM     15  H   UNL     1       6.889 -15.360   8.112  1.00  0.00     0.293 HD
ENDBRANCH   8  14
TORSDOF 2
ENDMDL
MODEL 7
REMARK VINA RESULT:    -4.620      2.012      5.124
REMARK INTER + INTRA:          -4.890
REMARK INTER:                  -4.890
REMARK INTRA:                   0.000
REMARK UNBOUND:                 0.000
REMARK SMILES O=c1ccc2cc(O)c(O)cc2o1
REMARK SMILES IDX 4 1 3 2 2 3 1 4 13 5 12 6 11 7 9 8 7 9 6 10 5 11 8 12 10 14
REMARK H PARENT 8 13 10 15
REMARK Flexibility Score: inf
ROOT
ATOM      1  C   UNL     1      11.888 -15.529   8.289  1.00  0.00     0.019 A 
ATOM      2  C   UNL     1      13.060 -16.039   7.730  1.00  0.00     0.094 A 
ATOM      3  C   UNL     1      12.981 -17.163   6.900  1.00  0.00     0.336 A 
ATOM      4  O   UNL     1      14.028 -17.638   6.386  1.00  0.00    -0.246 OA
ATOM      5  O   UNL     1      11.806 -17.734   6.648  1.00  0.00    -0.423 OA
ATOM      6  C   UNL     1      10.665 -17.280   7.160  1.00  0.00     0.142 A 
ATOM      7  C   UNL     1       9.459 -17.920   6.861  1.00  0.00     0.098 A 
ATOM      8  C   UNL     1       8.255 -17.449   7.397  1.00  0.00     0.161 A 
ATOM      9  C   UNL     1       8.255 -16.323   8.241  1.00  0.00     0.158 A 
ATOM     10  C   UNL     1       9.463 -15.676   8.544  1.00  0.00     0.062 A 
ATOM     11  C   UNL     1      10.667 -16.150   8.008  1.00  0.00     0.022 A 
ENDROOT
BRANCH   9  12
ATOM     12  O   UNL     1       7.057 -15.852   8.775  1.00  0.00    -0.504 OA
ATOM     13  H   UNL     1       6.842 -14.862   8.806  1.00  0.00     0.293 HD
ENDBRANCH   9  12
BRANCH   8  14
ATOM     14  O   UNL     1       7.069 -18.110   7.079  1.00  0.00    -0.504 OA
ATOM     15  H   UNL     1       6.918 -19.084   7.310  1.00  0.00     0.293 HD
ENDBRANCH   8  14
TORSDOF 2
ENDMDL
MODEL 8
REMARK VINA RESULT:    -4.491      1.827      2.655
REMARK INTER + INTRA:          -4.754
REMARK INTER:                  -4.754
REMARK INTRA:                   0.000
REMARK UNBOUND:                 0.000
REMARK SMILES O=c1ccc2cc(O)c(O)cc2o1
REMARK SMILES IDX 4 1 3 2 2 3 1 4 13 5 12 6 11 7 9 8 7 9 6 10 5 11 8 12 10 14
REMARK H PARENT 8 13 10 15
REMARK Flexibility Score: inf
ROOT
ATOM      1  C   UNL     1       8.983 -15.685   8.482  1.00  0.00     0.019 A 
ATOM      2  C   UNL     1       7.766 -16.334   8.273  1.00  0.00     0.094 A 
ATOM      3  C   UNL     1       7.751 -17.524   7.537  1.00  0.00     0.336 A 
ATOM      4  O   UNL     1       6.662 -18.124   7.338  1.00  0.00    -0.246 OA
ATOM      5  O   UNL     1       8.881 -18.027   7.046  1.00  0.00    -0.423 OA
ATOM      6  C   UNL     1      10.062 -17.440   7.223  1.00  0.00     0.142 A 
ATOM      7  C   UNL     1      11.216 -18.015   6.683  1.00  0.00     0.098 A 
ATOM      8  C   UNL     1      12.462 -17.404   6.864  1.00  0.00     0.161 A 
ATOM      9  C   UNL     1      12.557 -16.204   7.593  1.00  0.00     0.158 A 
ATOM     10  C   UNL     1      11.401 -15.624   8.136  1.00  0.00     0.062 A 
ATOM     11  C   UNL     1      10.155 -16.236   7.954  1.00  0.00     0.022 A 
ENDROOT
BRANCH   9  12
ATOM     12  O   UNL     1      13.797 -15.594   7.774  1.00  0.00    -0.504 OA
ATOM     13  H   UNL     1      14.663 -16.099   7.632  1.00  0.00     0.293 HD
ENDBRANCH   9  12
BRANCH   8  14
ATOM     14  O   UNL     1      13.595 -18.003   6.313  1.00  0.00    -0.504 OA
ATOM     15  H   UNL     1      13.909 -17.798   5.372  1.00  0.00     0.293 HD
ENDBRANCH   8  14
TORSDOF 2
ENDMDL
MODEL 9
REMARK VINA RESULT:    -4.462      1.086      5.034
REMARK INTER + INTRA:          -4.723
REMARK INTER:                  -4.723
REMARK INTRA:                   0.000
REMARK UNBOUND:                 0.000
REMARK SMILES O=c1ccc2cc(O)c(O)cc2o1
REMARK SMILES IDX 4 1 3 2 2 3 1 4 13 5 12 6 11 7 9 8 7 9 6 10 5 11 8 12 10 14
REMARK H PARENT 8 13 10 15
REMARK Flexibility Score: inf
ROOT
ATOM      1  C   UNL     1      12.412 -14.222   7.269  1.00  0.00     0.019 A 
ATOM      2  C   UNL     1      13.738 -14.457   7.628  1.00  0.00     0.094 A 
ATOM      3  C   UNL     1      14.059 -15.647   8.292  1.00  0.00     0.336 A 
ATOM      4  O   UNL     1      15.252 -15.877   8.625  1.00  0.00    -0.246 OA
ATOM      5  O   UNL     1      13.113 -16.538   8.574  1.00  0.00    -0.423 OA
ATOM      6  C   UNL     1      11.836 -16.353   8.248  1.00  0.00     0.142 A 
ATOM      7  C   UNL     1      10.884 -17.324   8.570  1.00  0.00     0.098 A 
ATOM      8  C   UNL     1       9.538 -17.137   8.232  1.00  0.00     0.161 A 
ATOM      9  C   UNL     1       9.139 -15.965   7.563  1.00  0.00     0.158 A 
ATOM     10  C   UNL     1      10.091 -14.987   7.238  1.00  0.00     0.062 A 
ATOM     11  C   UNL     1      11.437 -15.176   7.577  1.00  0.00     0.022 A 
ENDROOT
BRANCH   9  12
ATOM     12  O   UNL     1       7.800 -15.777   7.225  1.00  0.00    -0.504 OA
ATOM     13  H   UNL     1       7.368 -16.286   6.464  1.00  0.00     0.293 HD
ENDBRANCH   9  12
BRANCH   8  14
ATOM     14  O   UNL     1       8.613 -18.125   8.567  1.00  0.00    -0.504 OA
ATOM     15  H   UNL     1       8.399 -18.895   7.945  1.00  0.00     0.293 HD
ENDBRANCH   8  14
TORSDOF 2
ENDMDL
