MODEL 1
REMARK VINA RESULT:    -4.167      0.000      0.000
REMARK INTER + INTRA:          -4.870
REMARK INTER:                  -5.141
REMARK INTRA:                   0.271
REMARK UNBOUND:                 0.271
REMARK SMILES C=C1[C@@H]2CC[C@H]3[C@H]2C(C)(C)CCC[C@@]13C
REMARK SMILES IDX 14 1 6 2 7 3 3 4 2 5 1 6 4 7 5 8 15 9 8 10 9 11 10 12 11 13
REMARK SMILES IDX 13 15 12 16
REMARK H PARENT
REMARK Flexibility Score: 80.00
ROOT
ATOM      1  C   UNL     1       2.918  -1.623  15.226  1.00  0.00    -0.008 C 
ATOM      2  C   UNL     1       1.824  -1.380  16.262  1.00  0.00     0.003 C 
ATOM      3  C   UNL     1       1.427  -2.847  16.494  1.00  0.00     0.006 C 
ATOM      4  C   UNL     1       0.858  -3.025  15.095  1.00  0.00     0.019 C 
ATOM      5  C   UNL     1       2.115  -2.571  14.315  1.00  0.00    -0.068 C 
ATOM      6  C   UNL     1       2.469  -2.997  13.099  1.00  0.00     0.009 C 
ATOM      7  C   UNL     1      -0.167  -1.909  14.981  1.00  0.00     0.008 C 
ATOM      8  C   UNL     1       0.515  -0.755  15.718  1.00  0.00     0.005 C 
ATOM      9  C   UNL     1       3.365  -0.339  14.501  1.00  0.00     0.016 C 
ENDROOT
BRANCH   3  10
ATOM     10  C   UNL     1       1.509  -3.234  17.986  1.00  0.00    -0.032 C 
ATOM     11  C   UNL     1       0.859  -4.626  18.193  1.00  0.00     0.011 C 
ATOM     12  C   UNL     1       0.761  -2.240  18.906  1.00  0.00     0.011 C 
BRANCH  10  13
ATOM     13  C   UNL     1       3.068  -3.295  18.357  1.00  0.00     0.007 CG0
ATOM     14  G   UNL     1       4.099  -2.350  17.592  1.00  0.00     0.000 G0
ENDBRANCH  10  13
ENDBRANCH   3  10
BRANCH   1  15
ATOM     15  C   UNL     1       4.140  -2.329  15.987  1.00  0.00     0.011 C 
BRANCH  15  16
ATOM     16  C   UNL     1       4.103  -2.360  17.583  1.00  0.00     0.001 CG0
ATOM     17  G   UNL     1       3.073  -3.298  18.358  1.00  0.00     0.000 G0
ENDBRANCH  15  16
ENDBRANCH   1  15
TORSDOF 0
ENDMDL
MODEL 2
REMARK VINA RESULT:    -3.989      2.330      4.790
REMARK INTER + INTRA:          -4.650
REMARK INTER:                  -4.918
REMARK INTRA:                   0.268
REMARK UNBOUND:                 0.271
REMARK SMILES C=C1[C@@H]2CC[C@H]3[C@H]2C(C)(C)CCC[C@@]13C
REMARK SMILES IDX 14 1 6 2 7 3 3 4 2 5 1 6 4 7 5 8 15 9 8 10 9 11 10 12 11 13
REMARK SMILES IDX 13 15 12 16
REMARK H PARENT
REMARK Flexibility Score: 80.00
ROOT
ATOM      1  C   UNL     1       5.093  -2.762  18.681  1.00  0.00    -0.008 C 
ATOM      2  C   UNL     1       4.160  -3.969  18.705  1.00  0.00     0.003 C 
ATOM      3  C   UNL     1       3.147  -3.427  19.726  1.00  0.00     0.006 C 
ATOM      4  C   UNL     1       4.137  -3.449  20.881  1.00  0.00     0.019 C 
ATOM      5  C   UNL     1       5.239  -2.598  20.206  1.00  0.00    -0.068 C 
ATOM      6  C   UNL     1       6.106  -1.805  20.843  1.00  0.00     0.009 C 
ATOM      7  C   UNL     1       4.631  -4.886  20.901  1.00  0.00     0.008 C 
ATOM      8  C   UNL     1       4.716  -5.230  19.413  1.00  0.00     0.005 C 
ATOM      9  C   UNL     1       6.437  -3.046  17.982  1.00  0.00     0.016 C 
ENDROOT
BRANCH   3  10
ATOM     10  C   UNL     1       1.706  -3.453  19.173  1.00  0.00    -0.032 C 
ATOM     11  C   UNL     1       0.710  -3.135  20.317  1.00  0.00     0.011 C 
ATOM     12  C   UNL     1       1.310  -4.831  18.592  1.00  0.00     0.011 C 
BRANCH  10  13
ATOM     13  C   UNL     1       1.630  -2.314  18.046  1.00  0.00     0.007 CG0
ATOM     14  G   UNL     1       2.937  -1.937  17.215  1.00  0.00     0.000 G0
ENDBRANCH  10  13
ENDBRANCH   3  10
BRANCH   1  15
ATOM     15  C   UNL     1       4.300  -1.565  17.969  1.00  0.00     0.011 C 
BRANCH  15  16
ATOM     16  C   UNL     1       2.933  -1.921  17.224  1.00  0.00     0.001 CG0
ATOM     17  G   UNL     1       1.628  -2.314  18.051  1.00  0.00     0.000 G0
ENDBRANCH  15  16
ENDBRANCH   1  15
TORSDOF 0
ENDMDL
MODEL 3
REMARK VINA RESULT:    -3.970      1.725      4.258
REMARK INTER + INTRA:          -4.627
REMARK INTER:                  -4.887
REMARK INTRA:                   0.259
REMARK UNBOUND:                 0.271
REMARK SMILES C=C1[C@@H]2CC[C@H]3[C@H]2C(C)(C)CCC[C@@]13C
REMARK SMILES IDX 14 1 6 2 7 3 3 4 2 5 1 6 4 7 5 8 15 9 8 10 9 11 10 12 11 13
REMARK SMILES IDX 13 15 12 16
REMARK H PARENT
REMARK Flexibility Score: 80.00
ROOT
ATOM      1  C   UNL     1       1.354  -2.157  15.831  1.00  0.00    -0.008 C 
ATOM      2  C   UNL     1       1.448  -2.817  14.459  1.00  0.00     0.003 C 
ATOM      3  C   UNL     1       1.542  -1.534  13.617  1.00  0.00     0.006 C 
ATOM      4  C   UNL     1       0.124  -1.090  13.940  1.00  0.00     0.019 C 
ATOM      5  C   UNL     1       0.253  -1.137  15.481  1.00  0.00    -0.068 C 
ATOM      6  C   UNL     1      -0.421  -0.366  16.340  1.00  0.00     0.009 C 
ATOM      7  C   UNL     1      -0.726  -2.279  13.526  1.00  0.00     0.008 C 
ATOM      8  C   UNL     1       0.141  -3.469  13.939  1.00  0.00     0.005 C 
ATOM      9  C   UNL     1       0.928  -3.131  16.947  1.00  0.00     0.016 C 
ENDROOT
BRANCH   3  10
ATOM     10  C   UNL     1       2.792  -1.535  12.711  1.00  0.00    -0.032 C 
ATOM     11  C   UNL     1       2.706  -0.350  11.715  1.00  0.00     0.011 C 
ATOM     12  C   UNL     1       2.924  -2.828  11.871  1.00  0.00     0.011 C 
BRANCH  10  13
ATOM     13  C   UNL     1       4.058  -1.350  13.678  1.00  0.00     0.007 CG0
ATOM     14  G   UNL     1       3.994  -1.894  15.174  1.00  0.00     0.000 G0
ENDBRANCH  10  13
ENDBRANCH   3  10
BRANCH   1  15
ATOM     15  C   UNL     1       2.782  -1.496  16.137  1.00  0.00     0.011 C 
BRANCH  15  16
ATOM     16  C   UNL     1       4.001  -1.890  15.182  1.00  0.00     0.001 CG0
ATOM     17  G   UNL     1       4.063  -1.367  13.678  1.00  0.00     0.000 G0
ENDBRANCH  15  16
ENDBRANCH   1  15
TORSDOF 0
ENDMDL
MODEL 4
REMARK VINA RESULT:    -3.966      3.357      5.491
REMARK INTER + INTRA:          -4.622
REMARK INTER:                  -4.892
REMARK INTRA:                   0.270
REMARK UNBOUND:                 0.271
REMARK SMILES C=C1[C@@H]2CC[C@H]3[C@H]2C(C)(C)CCC[C@@]13C
REMARK SMILES IDX 14 1 6 2 7 3 3 4 2 5 1 6 4 7 5 8 15 9 8 10 9 11 10 12 11 13
REMARK SMILES IDX 13 15 12 16
REMARK H PARENT
REMARK Flexibility Score: 80.00
ROOT
ATOM      1  C   UNL     1       1.264  -4.053  19.688  1.00  0.00    -0.008 C 
ATOM      2  C   UNL     1       2.177  -3.490  20.774  1.00  0.00     0.003 C 
ATOM      3  C   UNL     1       2.915  -4.794  21.121  1.00  0.00     0.006 C 
ATOM      4  C   UNL     1       1.680  -5.463  21.705  1.00  0.00     0.019 C 
ATOM      5  C   UNL     1       0.761  -5.280  20.473  1.00  0.00    -0.068 C 
ATOM      6  C   UNL     1      -0.239  -6.094  20.123  1.00  0.00     0.009 C 
ATOM      7  C   UNL     1       1.209  -4.482  22.765  1.00  0.00     0.008 C 
ATOM      8  C   UNL     1       1.481  -3.128  22.110  1.00  0.00     0.005 C 
ATOM      9  C   UNL     1       0.126  -3.093  19.292  1.00  0.00     0.016 C 
ENDROOT
BRANCH   3  10
ATOM     10  C   UNL     1       4.446  -4.633  21.006  1.00  0.00    -0.032 C 
ATOM     11  C   UNL     1       5.141  -5.879  21.613  1.00  0.00     0.011 C 
ATOM     12  C   UNL     1       4.979  -3.396  21.768  1.00  0.00     0.011 C 
BRANCH  10  13
ATOM     13  C   UNL     1       4.777  -4.526  19.440  1.00  0.00     0.007 CG0
ATOM     14  G   UNL     1       3.704  -3.890  18.448  1.00  0.00     0.000 G0
ENDBRANCH  10  13
ENDBRANCH   3  10
BRANCH   1  15
ATOM     15  C   UNL     1       2.193  -4.419  18.433  1.00  0.00     0.011 C 
BRANCH  15  16
ATOM     16  C   UNL     1       3.701  -3.894  18.449  1.00  0.00     0.001 CG0
ATOM     17  G   UNL     1       4.776  -4.524  19.443  1.00  0.00     0.000 G0
ENDBRANCH  15  16
ENDBRANCH   1  15
TORSDOF 0
ENDMDL
MODEL 5
REMARK VINA RESULT:    -3.918     11.605     13.894
REMARK INTER + INTRA:          -4.563
REMARK INTER:                  -4.821
REMARK INTRA:                   0.258
REMARK UNBOUND:                 0.271
REMARK SMILES C=C1[C@@H]2CC[C@H]3[C@H]2C(C)(C)CCC[C@@]13C
REMARK SMILES IDX 14 1 6 2 7 3 3 4 2 5 1 6 4 7 5 8 15 9 8 10 9 11 10 12 11 13
REMARK SMILES IDX 13 15 12 16
REMARK H PARENT
REMARK Flexibility Score: 80.00
ROOT
ATOM      1  C   UNL     1      11.402   0.281  25.498  1.00  0.00    -0.008 C 
ATOM      2  C   UNL     1      10.524  -0.276  26.615  1.00  0.00     0.003 C 
ATOM      3  C   UNL     1      10.311   1.036  27.387  1.00  0.00     0.006 C 
ATOM      4  C   UNL     1      11.768   1.148  27.810  1.00  0.00     0.019 C 
ATOM      5  C   UNL     1      12.387   1.056  26.395  1.00  0.00    -0.068 C 
ATOM      6  C   UNL     1      13.536   1.621  26.013  1.00  0.00     0.009 C 
ATOM      7  C   UNL     1      12.041  -0.176  28.505  1.00  0.00     0.008 C 
ATOM      8  C   UNL     1      11.249  -1.169  27.654  1.00  0.00     0.005 C 
ATOM      9  C   UNL     1      12.093  -0.814  24.664  1.00  0.00     0.016 C 
ENDROOT
BRANCH   3  10
ATOM     10  C   UNL     1       8.813   1.348  27.584  1.00  0.00    -0.032 C 
ATOM     11  C   UNL     1       8.660   2.540  28.563  1.00  0.00     0.011 C 
ATOM     12  C   UNL     1       8.025   0.159  28.185  1.00  0.00     0.011 C 
BRANCH  10  13
ATOM     13  C   UNL     1       8.235   1.745  26.141  1.00  0.00     0.007 CG0
ATOM     14  G   UNL     1       8.906   1.139  24.829  1.00  0.00     0.000 G0
ENDBRANCH  10  13
ENDBRANCH   3  10
BRANCH   1  15
ATOM     15  C   UNL     1      10.472   1.219  24.589  1.00  0.00     0.011 C 
BRANCH  15  16
ATOM     16  C   UNL     1       8.894   1.148  24.822  1.00  0.00     0.001 CG0
ATOM     17  G   UNL     1       8.233   1.751  26.141  1.00  0.00     0.000 G0
ENDBRANCH  15  16
ENDBRANCH   1  15
TORSDOF 0
ENDMDL
MODEL 6
REMARK VINA RESULT:    -3.856      2.507      4.322
REMARK INTER + INTRA:          -4.487
REMARK INTER:                  -4.757
REMARK INTRA:                   0.271
REMARK UNBOUND:                 0.271
REMARK SMILES C=C1[C@@H]2CC[C@H]3[C@H]2C(C)(C)CCC[C@@]13C
REMARK SMILES IDX 14 1 6 2 7 3 3 4 2 5 1 6 4 7 5 8 15 9 8 10 9 11 10 12 11 13
REMARK SMILES IDX 13 15 12 16
REMARK H PARENT
REMARK Flexibility Score: 80.00
ROOT
ATOM      1  C   UNL     1       3.120  -1.898  14.622  1.00  0.00    -0.008 C 
ATOM      2  C   UNL     1       2.059  -2.972  14.842  1.00  0.00     0.003 C 
ATOM      3  C   UNL     1       0.845  -2.170  14.344  1.00  0.00     0.006 C 
ATOM      4  C   UNL     1       0.896  -1.176  15.495  1.00  0.00     0.019 C 
ATOM      5  C   UNL     1       2.369  -0.740  15.308  1.00  0.00    -0.068 C 
ATOM      6  C   UNL     1       2.867   0.460  15.618  1.00  0.00     0.009 C 
ATOM      7  C   UNL     1       0.843  -2.058  16.731  1.00  0.00     0.008 C 
ATOM      8  C   UNL     1       1.694  -3.260  16.320  1.00  0.00     0.005 C 
ATOM      9  C   UNL     1       4.463  -2.221  15.304  1.00  0.00     0.016 C 
ENDROOT
BRANCH   3  10
ATOM     10  C   UNL     1       0.085  -2.916  13.227  1.00  0.00    -0.032 C 
ATOM     11  C   UNL     1      -1.260  -2.196  12.951  1.00  0.00     0.011 C 
ATOM     12  C   UNL     1      -0.249  -4.380  13.600  1.00  0.00     0.011 C 
BRANCH  10  13
ATOM     13  C   UNL     1       1.017  -2.857  11.923  1.00  0.00     0.007 CG0
ATOM     14  G   UNL     1       2.602  -2.807  12.088  1.00  0.00     0.000 G0
ENDBRANCH  10  13
ENDBRANCH   3  10
BRANCH   1  15
ATOM     15  C   UNL     1       3.290  -1.718  13.038  1.00  0.00     0.011 C 
BRANCH  15  16
ATOM     16  C   UNL     1       2.604  -2.804  12.090  1.00  0.00     0.001 CG0
ATOM     17  G   UNL     1       1.019  -2.865  11.928  1.00  0.00     0.000 G0
ENDBRANCH  15  16
ENDBRANCH   1  15
TORSDOF 0
ENDMDL
MODEL 7
REMARK VINA RESULT:    -3.694     12.300     14.182
REMARK INTER + INTRA:          -4.287
REMARK INTER:                  -4.549
REMARK INTRA:                   0.262
REMARK UNBOUND:                 0.271
REMARK SMILES C=C1[C@@H]2CC[C@H]3[C@H]2C(C)(C)CCC[C@@]13C
REMARK SMILES IDX 14 1 6 2 7 3 3 4 2 5 1 6 4 7 5 8 15 9 8 10 9 11 10 12 11 13
REMARK SMILES IDX 13 15 12 16
REMARK H PARENT
REMARK Flexibility Score: 80.00
ROOT
ATOM      1  C   UNL     1       9.068   0.429  27.937  1.00  0.00    -0.008 C 
ATOM      2  C   UNL     1      10.552   0.762  27.809  1.00  0.00     0.003 C 
ATOM      3  C   UNL     1      10.948  -0.401  26.886  1.00  0.00     0.006 C 
ATOM      4  C   UNL     1      10.692  -1.467  27.941  1.00  0.00     0.019 C 
ATOM      5  C   UNL     1       9.233  -1.067  28.268  1.00  0.00    -0.068 C 
ATOM      6  C   UNL     1       8.276  -1.900  28.688  1.00  0.00     0.009 C 
ATOM      7  C   UNL     1      11.551  -1.023  29.113  1.00  0.00     0.008 C 
ATOM      8  C   UNL     1      11.408   0.499  29.074  1.00  0.00     0.005 C 
ATOM      9  C   UNL     1       8.363   1.212  29.060  1.00  0.00     0.016 C 
ENDROOT
BRANCH   3  10
ATOM     10  C   UNL     1      11.643   0.098  25.602  1.00  0.00    -0.032 C 
ATOM     11  C   UNL     1      12.241  -1.110  24.837  1.00  0.00     0.011 C 
ATOM     12  C   UNL     1      12.807   1.077  25.890  1.00  0.00     0.011 C 
BRANCH  10  13
ATOM     13  C   UNL     1      10.510   0.805  24.713  1.00  0.00     0.007 CG0
ATOM     14  G   UNL     1       9.261   1.491  25.428  1.00  0.00     0.000 G0
ENDBRANCH  10  13
ENDBRANCH   3  10
BRANCH   1  15
ATOM     15  C   UNL     1       8.397   0.710  26.509  1.00  0.00     0.011 C 
BRANCH  15  16
ATOM     16  C   UNL     1       9.262   1.501  25.424  1.00  0.00     0.001 CG0
ATOM     17  G   UNL     1      10.504   0.808  24.705  1.00  0.00     0.000 G0
ENDBRANCH  15  16
ENDBRANCH   1  15
TORSDOF 0
ENDMDL
MODEL 8
REMARK VINA RESULT:    -3.659     12.471     14.418
REMARK INTER + INTRA:          -4.243
REMARK INTER:                  -4.499
REMARK INTRA:                   0.256
REMARK UNBOUND:                 0.271
REMARK SMILES C=C1[C@@H]2CC[C@H]3[C@H]2C(C)(C)CCC[C@@]13C
REMARK SMILES IDX 14 1 6 2 7 3 3 4 2 5 1 6 4 7 5 8 15 9 8 10 9 11 10 12 11 13
REMARK SMILES IDX 13 15 12 16
REMARK H PARENT
REMARK Flexibility Score: 80.00
ROOT
ATOM      1  C   UNL     1      12.125  -0.800  27.376  1.00  0.00    -0.008 C 
ATOM      2  C   UNL     1      11.607   0.559  27.837  1.00  0.00     0.003 C 
ATOM      3  C   UNL     1      10.563   0.770  26.728  1.00  0.00     0.006 C 
ATOM      4  C   UNL     1      11.602   0.901  25.626  1.00  0.00     0.019 C 
ATOM      5  C   UNL     1      12.336  -0.435  25.894  1.00  0.00    -0.068 C 
ATOM      6  C   UNL     1      12.969  -1.170  24.975  1.00  0.00     0.009 C 
ATOM      7  C   UNL     1      12.509   2.016  26.119  1.00  0.00     0.008 C 
ATOM      8  C   UNL     1      12.574   1.751  27.624  1.00  0.00     0.005 C 
ATOM      9  C   UNL     1      13.431  -1.223  28.076  1.00  0.00     0.016 C 
ENDROOT
BRANCH   3  10
ATOM     10  C   UNL     1       9.158   1.040  27.308  1.00  0.00    -0.032 C 
ATOM     11  C   UNL     1       8.204   1.476  26.166  1.00  0.00     0.011 C 
ATOM     12  C   UNL     1       9.151   2.171  28.365  1.00  0.00     0.011 C 
BRANCH  10  13
ATOM     13  C   UNL     1       8.654  -0.342  27.947  1.00  0.00     0.007 CG0
ATOM     14  G   UNL     1       9.720  -1.390  28.501  1.00  0.00     0.000 G0
ENDBRANCH  10  13
ENDBRANCH   3  10
BRANCH   1  15
ATOM     15  C   UNL     1      10.950  -1.863  27.625  1.00  0.00     0.011 C 
BRANCH  15  16
ATOM     16  C   UNL     1       9.705  -1.398  28.510  1.00  0.00     0.001 CG0
ATOM     17  G   UNL     1       8.655  -0.337  27.952  1.00  0.00     0.000 G0
ENDBRANCH  15  16
ENDBRANCH   1  15
TORSDOF 0
ENDMDL
MODEL 9
REMARK VINA RESULT:    -3.589      3.757      6.066
REMARK INTER + INTRA:          -4.157
REMARK INTER:                  -4.437
REMARK INTRA:                   0.280
REMARK UNBOUND:                 0.271
REMARK SMILES C=C1[C@@H]2CC[C@H]3[C@H]2C(C)(C)CCC[C@@]13C
REMARK SMILES IDX 14 1 6 2 7 3 3 4 2 5 1 6 4 7 5 8 15 9 8 10 9 11 10 12 11 13
REMARK SMILES IDX 13 15 12 16
REMARK H PARENT
REMARK Flexibility Score: 80.00
ROOT
ATOM      1  C   UNL     1       1.718  -4.012  22.340  1.00  0.00    -0.008 C 
ATOM      2  C   UNL     1       2.199  -4.722  21.077  1.00  0.00     0.003 C 
ATOM      3  C   UNL     1       2.570  -3.470  20.265  1.00  0.00     0.006 C 
ATOM      4  C   UNL     1       1.131  -2.994  20.138  1.00  0.00     0.019 C 
ATOM      5  C   UNL     1       0.796  -2.989  21.649  1.00  0.00    -0.068 C 
ATOM      6  C   UNL     1      -0.083  -2.179  22.246  1.00  0.00     0.009 C 
ATOM      7  C   UNL     1       0.413  -4.185  19.525  1.00  0.00     0.008 C 
ATOM      8  C   UNL     1       1.090  -5.372  20.212  1.00  0.00     0.005 C 
ATOM      9  C   UNL     1       0.957  -4.940  23.306  1.00  0.00     0.016 C 
ENDROOT
BRANCH   3  10
ATOM     10  C   UNL     1       4.031  -3.521  19.771  1.00  0.00    -0.032 C 
ATOM     11  C   UNL     1       4.269  -2.381  18.748  1.00  0.00     0.011 C 
ATOM     12  C   UNL     1       4.380  -4.851  19.060  1.00  0.00     0.011 C 
BRANCH  10  13
ATOM     13  C   UNL     1       4.958  -3.303  21.062  1.00  0.00     0.007 CG0
ATOM     14  G   UNL     1       4.450  -3.796  22.490  1.00  0.00     0.000 G0
ENDBRANCH  10  13
ENDBRANCH   3  10
BRANCH   1  15
ATOM     15  C   UNL     1       3.008  -3.363  23.037  1.00  0.00     0.011 C 
BRANCH  15  16
ATOM     16  C   UNL     1       4.444  -3.794  22.488  1.00  0.00     0.001 CG0
ATOM     17  G   UNL     1       4.956  -3.302  21.061  1.00  0.00     0.000 G0
ENDBRANCH  15  16
ENDBRANCH   1  15
TORSDOF 0
ENDMDL
