MODEL 1
REMARK VINA RESULT:    -6.899      0.000      0.000
REMARK INTER + INTRA:          -7.763
REMARK INTER:                  -7.706
REMARK INTRA:                  -0.057
REMARK UNBOUND:                -0.057
REMARK SMILES COc1cc2ccc(=O)oc2c(O)c1O
REMARK SMILES IDX 3 1 14 2 12 3 11 4 5 5 4 6 6 7 7 8 8 9 9 10 10 11 2 12 1 13
REMARK SMILES IDX 15 14 13 16
REMARK H PARENT 15 15 13 17
REMARK Flexibility Score: inf
ROOT
ATOM      1  C   UNL     1       4.743  30.102  38.015  1.00  0.00     0.165 A 
ATOM      2  C   UNL     1       6.019  30.159  37.427  1.00  0.00     0.204 A 
ATOM      3  C   UNL     1       6.240  29.579  36.154  1.00  0.00     0.205 A 
ATOM      4  C   UNL     1       5.180  28.949  35.487  1.00  0.00     0.184 A 
ATOM      5  C   UNL     1       3.902  28.892  36.080  1.00  0.00     0.025 A 
ATOM      6  C   UNL     1       3.687  29.466  37.336  1.00  0.00     0.062 A 
ATOM      7  C   UNL     1       2.869  28.255  35.384  1.00  0.00     0.020 A 
ATOM      8  C   UNL     1       3.128  27.696  34.133  1.00  0.00     0.094 A 
ATOM      9  C   UNL     1       4.419  27.789  33.606  1.00  0.00     0.336 A 
ATOM     10  O   UNL     1       4.675  27.292  32.478  1.00  0.00    -0.246 OA
ATOM     11  O   UNL     1       5.383  28.401  34.289  1.00  0.00    -0.419 OA
ENDROOT
BRANCH   1  12
ATOM     12  O   UNL     1       4.567  30.689  39.279  1.00  0.00    -0.493 OA
ATOM     13  C   UNL     1       3.387  31.365  39.699  1.00  0.00     0.278 C 
ENDBRANCH   1  12
BRANCH   2  14
ATOM     14  O   UNL     1       7.034  30.800  38.141  1.00  0.00    -0.502 OA
ATOM     15  H   UNL     1       7.267  31.778  38.045  1.00  0.00     0.293 HD
ENDBRANCH   2  14
BRANCH   3  16
ATOM     16  O   UNL     1       7.486  29.606  35.522  1.00  0.00    -0.502 OA
ATOM     17  H   UNL     1       7.672  30.087  34.654  1.00  0.00     0.293 HD
ENDBRANCH   3  16
TORSDOF 3
ENDMDL
MODEL 2
REMARK VINA RESULT:    -6.879     10.146     11.395
REMARK INTER + INTRA:          -7.740
REMARK INTER:                  -7.683
REMARK INTRA:                  -0.057
REMARK UNBOUND:                -0.057
REMARK SMILES COc1cc2ccc(=O)oc2c(O)c1O
REMARK SMILES IDX 3 1 14 2 12 3 11 4 5 5 4 6 6 7 7 8 8 9 9 10 10 11 2 12 1 13
REMARK SMILES IDX 15 14 13 16
REMARK H PARENT 15 15 13 17
REMARK Flexibility Score: inf
ROOT
ATOM      1  C   UNL     1      -4.930  32.839  38.216  1.00  0.00     0.165 A 
ATOM      2  C   UNL     1      -6.288  32.750  37.862  1.00  0.00     0.204 A 
ATOM      3  C   UNL     1      -6.698  33.050  36.540  1.00  0.00     0.205 A 
ATOM      4  C   UNL     1      -5.742  33.436  35.590  1.00  0.00     0.184 A 
ATOM      5  C   UNL     1      -4.381  33.525  35.949  1.00  0.00     0.025 A 
ATOM      6  C   UNL     1      -3.980  33.227  37.254  1.00  0.00     0.062 A 
ATOM      7  C   UNL     1      -3.456  33.913  34.973  1.00  0.00     0.020 A 
ATOM      8  C   UNL     1      -3.900  34.201  33.684  1.00  0.00     0.094 A 
ATOM      9  C   UNL     1      -5.264  34.092  33.399  1.00  0.00     0.336 A 
ATOM     10  O   UNL     1      -5.686  34.346  32.240  1.00  0.00    -0.246 OA
ATOM     11  O   UNL     1      -6.122  33.720  34.345  1.00  0.00    -0.419 OA
ENDROOT
BRANCH   1  12
ATOM     12  O   UNL     1      -4.567  32.533  39.538  1.00  0.00    -0.493 OA
ATOM     13  C   UNL     1      -3.377  31.846  39.911  1.00  0.00     0.278 C 
ENDBRANCH   1  12
BRANCH   2  14
ATOM     14  O   UNL     1      -7.193  32.360  38.853  1.00  0.00    -0.502 OA
ATOM     15  H   UNL     1      -7.653  31.462  38.882  1.00  0.00     0.293 HD
ENDBRANCH   2  14
BRANCH   3  16
ATOM     16  O   UNL     1      -8.033  32.979  36.132  1.00  0.00    -0.502 OA
ATOM     17  H   UNL     1      -8.357  33.224  35.208  1.00  0.00     0.293 HD
ENDBRANCH   3  16
TORSDOF 3
ENDMDL
MODEL 3
REMARK VINA RESULT:    -6.727      9.562     11.608
REMARK INTER + INTRA:          -7.570
REMARK INTER:                  -7.517
REMARK INTRA:                  -0.053
REMARK UNBOUND:                -0.057
REMARK SMILES COc1cc2ccc(=O)oc2c(O)c1O
REMARK SMILES IDX 3 1 14 2 12 3 11 4 5 5 4 6 6 7 7 8 8 9 9 10 10 11 2 12 1 13
REMARK SMILES IDX 15 14 13 16
REMARK H PARENT 15 15 13 17
REMARK Flexibility Score: inf
ROOT
ATOM      1  C   UNL     1      -5.635  33.532  35.379  1.00  0.00     0.165 A 
ATOM      2  C   UNL     1      -6.607  33.155  36.322  1.00  0.00     0.204 A 
ATOM      3  C   UNL     1      -6.215  32.757  37.624  1.00  0.00     0.205 A 
ATOM      4  C   UNL     1      -4.855  32.742  37.964  1.00  0.00     0.184 A 
ATOM      5  C   UNL     1      -3.883  33.121  37.015  1.00  0.00     0.025 A 
ATOM      6  C   UNL     1      -4.272  33.513  35.731  1.00  0.00     0.062 A 
ATOM      7  C   UNL     1      -2.535  33.094  37.392  1.00  0.00     0.020 A 
ATOM      8  C   UNL     1      -2.192  32.696  38.682  1.00  0.00     0.094 A 
ATOM      9  C   UNL     1      -3.209  32.333  39.571  1.00  0.00     0.336 A 
ATOM     10  O   UNL     1      -2.920  31.971  40.742  1.00  0.00    -0.246 OA
ATOM     11  O   UNL     1      -4.482  32.369  39.187  1.00  0.00    -0.419 OA
ENDROOT
BRANCH   1  12
ATOM     12  O   UNL     1      -6.065  33.920  34.099  1.00  0.00    -0.493 OA
ATOM     13  C   UNL     1      -5.288  34.678  33.179  1.00  0.00     0.278 C 
ENDBRANCH   1  12
BRANCH   2  14
ATOM     14  O   UNL     1      -7.945  33.190  35.923  1.00  0.00    -0.502 OA
ATOM     15  H   UNL     1      -8.615  32.458  36.113  1.00  0.00     0.293 HD
ENDBRANCH   2  14
BRANCH   3  16
ATOM     16  O   UNL     1      -7.137  32.371  38.601  1.00  0.00    -0.502 OA
ATOM     17  H   UNL     1      -7.121  31.480  39.076  1.00  0.00     0.293 HD
ENDBRANCH   3  16
TORSDOF 3
ENDMDL
MODEL 4
REMARK VINA RESULT:    -6.284      1.540      4.637
REMARK INTER + INTRA:          -7.075
REMARK INTER:                  -7.016
REMARK INTRA:                  -0.059
REMARK UNBOUND:                -0.057
REMARK SMILES COc1cc2ccc(=O)oc2c(O)c1O
REMARK SMILES IDX 3 1 14 2 12 3 11 4 5 5 4 6 6 7 7 8 8 9 9 10 10 11 2 12 1 13
REMARK SMILES IDX 15 14 13 16
REMARK H PARENT 15 15 13 17
REMARK Flexibility Score: inf
ROOT
ATOM      1  C   UNL     1       4.727  28.016  36.242  1.00  0.00     0.165 A 
ATOM      2  C   UNL     1       5.792  28.727  36.821  1.00  0.00     0.204 A 
ATOM      3  C   UNL     1       5.536  29.893  37.583  1.00  0.00     0.205 A 
ATOM      4  C   UNL     1       4.215  30.331  37.755  1.00  0.00     0.184 A 
ATOM      5  C   UNL     1       3.149  29.616  37.173  1.00  0.00     0.025 A 
ATOM      6  C   UNL     1       3.405  28.465  36.421  1.00  0.00     0.062 A 
ATOM      7  C   UNL     1       1.845  30.084  37.367  1.00  0.00     0.020 A 
ATOM      8  C   UNL     1       1.635  31.235  38.124  1.00  0.00     0.094 A 
ATOM      9  C   UNL     1       2.740  31.895  38.671  1.00  0.00     0.336 A 
ATOM     10  O   UNL     1       2.572  32.936  39.358  1.00  0.00    -0.246 OA
ATOM     11  O   UNL     1       3.969  31.428  38.472  1.00  0.00    -0.419 OA
ENDROOT
BRANCH   1  12
ATOM     12  O   UNL     1       5.025  26.865  35.493  1.00  0.00    -0.493 OA
ATOM     13  C   UNL     1       4.408  26.523  34.257  1.00  0.00     0.278 C 
ENDBRANCH   1  12
BRANCH   2  14
ATOM     14  O   UNL     1       7.086  28.241  36.613  1.00  0.00    -0.502 OA
ATOM     15  H   UNL     1       7.727  28.607  35.925  1.00  0.00     0.293 HD
ENDBRANCH   2  14
BRANCH   3  16
ATOM     16  O   UNL     1       6.555  30.640  38.181  1.00  0.00    -0.502 OA
ATOM     17  H   UNL     1       6.640  30.790  39.176  1.00  0.00     0.293 HD
ENDBRANCH   3  16
TORSDOF 3
ENDMDL
MODEL 5
REMARK VINA RESULT:    -6.071      2.784      4.976
REMARK INTER + INTRA:          -6.837
REMARK INTER:                  -6.778
REMARK INTRA:                  -0.059
REMARK UNBOUND:                -0.057
REMARK SMILES COc1cc2ccc(=O)oc2c(O)c1O
REMARK SMILES IDX 3 1 14 2 12 3 11 4 5 5 4 6 6 7 7 8 8 9 9 10 10 11 2 12 1 13
REMARK SMILES IDX 15 14 13 16
REMARK H PARENT 15 15 13 17
REMARK Flexibility Score: inf
ROOT
ATOM      1  C   UNL     1       4.313  29.845  36.872  1.00  0.00     0.165 A 
ATOM      2  C   UNL     1       4.463  30.653  38.013  1.00  0.00     0.204 A 
ATOM      3  C   UNL     1       3.324  31.215  38.639  1.00  0.00     0.205 A 
ATOM      4  C   UNL     1       2.049  30.961  38.114  1.00  0.00     0.184 A 
ATOM      5  C   UNL     1       1.902  30.151  36.969  1.00  0.00     0.025 A 
ATOM      6  C   UNL     1       3.028  29.597  36.354  1.00  0.00     0.062 A 
ATOM      7  C   UNL     1       0.614  29.919  36.475  1.00  0.00     0.020 A 
ATOM      8  C   UNL     1      -0.481  30.491  37.120  1.00  0.00     0.094 A 
ATOM      9  C   UNL     1      -0.261  31.284  38.250  1.00  0.00     0.336 A 
ATOM     10  O   UNL     1      -1.237  31.809  38.848  1.00  0.00    -0.246 OA
ATOM     11  O   UNL     1       0.974  31.487  38.700  1.00  0.00    -0.419 OA
ENDROOT
BRANCH   1  12
ATOM     12  O   UNL     1       5.469  29.308  36.281  1.00  0.00    -0.493 OA
ATOM     13  C   UNL     1       5.957  27.992  36.511  1.00  0.00     0.278 C 
ENDBRANCH   1  12
BRANCH   2  14
ATOM     14  O   UNL     1       5.759  30.870  38.488  1.00  0.00    -0.502 OA
ATOM     15  H   UNL     1       6.207  30.307  39.196  1.00  0.00     0.293 HD
ENDBRANCH   2  14
BRANCH   3  16
ATOM     16  O   UNL     1       3.413  32.025  39.774  1.00  0.00    -0.502 OA
ATOM     17  H   UNL     1       3.454  33.034  39.750  1.00  0.00     0.293 HD
ENDBRANCH   3  16
TORSDOF 3
ENDMDL
MODEL 6
REMARK VINA RESULT:    -5.945      7.608      9.581
REMARK INTER + INTRA:          -6.697
REMARK INTER:                  -6.644
REMARK INTRA:                  -0.052
REMARK UNBOUND:                -0.057
REMARK SMILES COc1cc2ccc(=O)oc2c(O)c1O
REMARK SMILES IDX 3 1 14 2 12 3 11 4 5 5 4 6 6 7 7 8 8 9 9 10 10 11 2 12 1 13
REMARK SMILES IDX 15 14 13 16
REMARK H PARENT 15 15 13 17
REMARK Flexibility Score: inf
ROOT
ATOM      1  C   UNL     1      -4.797  32.900  37.150  1.00  0.00     0.165 A 
ATOM      2  C   UNL     1      -4.752  32.577  38.518  1.00  0.00     0.204 A 
ATOM      3  C   UNL     1      -3.518  32.246  39.128  1.00  0.00     0.205 A 
ATOM      4  C   UNL     1      -2.344  32.243  38.361  1.00  0.00     0.184 A 
ATOM      5  C   UNL     1      -2.393  32.567  36.990  1.00  0.00     0.025 A 
ATOM      6  C   UNL     1      -3.612  32.893  36.390  1.00  0.00     0.062 A 
ATOM      7  C   UNL     1      -1.201  32.553  36.257  1.00  0.00     0.020 A 
ATOM      8  C   UNL     1      -0.007  32.222  36.896  1.00  0.00     0.094 A 
ATOM      9  C   UNL     1      -0.034  31.910  38.258  1.00  0.00     0.336 A 
ATOM     10  O   UNL     1       1.034  31.609  38.855  1.00  0.00    -0.246 OA
ATOM     11  O   UNL     1      -1.181  31.932  38.932  1.00  0.00    -0.419 OA
ENDROOT
BRANCH   1  12
ATOM     12  O   UNL     1      -6.041  33.222  36.583  1.00  0.00    -0.493 OA
ATOM     13  C   UNL     1      -6.253  33.500  35.204  1.00  0.00     0.278 C 
ENDBRANCH   1  12
BRANCH   2  14
ATOM     14  O   UNL     1      -5.955  32.597  39.228  1.00  0.00    -0.502 OA
ATOM     15  H   UNL     1      -6.803  32.142  38.924  1.00  0.00     0.293 HD
ENDBRANCH   2  14
BRANCH   3  16
ATOM     16  O   UNL     1      -3.414  31.916  40.483  1.00  0.00    -0.502 OA
ATOM     17  H   UNL     1      -3.046  31.041  40.827  1.00  0.00     0.293 HD
ENDBRANCH   3  16
TORSDOF 3
ENDMDL
MODEL 7
REMARK VINA RESULT:    -5.756      8.022      9.605
REMARK INTER + INTRA:          -6.486
REMARK INTER:                  -6.433
REMARK INTRA:                  -0.053
REMARK UNBOUND:                -0.057
REMARK SMILES COc1cc2ccc(=O)oc2c(O)c1O
REMARK SMILES IDX 3 1 14 2 12 3 11 4 5 5 4 6 6 7 7 8 8 9 9 10 10 11 2 12 1 13
REMARK SMILES IDX 15 14 13 16
REMARK H PARENT 15 15 13 17
REMARK Flexibility Score: inf
ROOT
ATOM      1  C   UNL     1      -1.989  30.823  37.682  1.00  0.00     0.165 A 
ATOM      2  C   UNL     1      -3.037  31.042  38.593  1.00  0.00     0.204 A 
ATOM      3  C   UNL     1      -4.047  31.991  38.298  1.00  0.00     0.205 A 
ATOM      4  C   UNL     1      -3.994  32.707  37.095  1.00  0.00     0.184 A 
ATOM      5  C   UNL     1      -2.941  32.485  36.184  1.00  0.00     0.025 A 
ATOM      6  C   UNL     1      -1.946  31.549  36.477  1.00  0.00     0.062 A 
ATOM      7  C   UNL     1      -2.922  33.220  34.992  1.00  0.00     0.020 A 
ATOM      8  C   UNL     1      -3.935  34.143  34.740  1.00  0.00     0.094 A 
ATOM      9  C   UNL     1      -4.947  34.312  35.689  1.00  0.00     0.336 A 
ATOM     10  O   UNL     1      -5.872  35.141  35.481  1.00  0.00    -0.246 OA
ATOM     11  O   UNL     1      -4.942  33.600  36.813  1.00  0.00    -0.419 OA
ENDROOT
BRANCH   1  12
ATOM     12  O   UNL     1      -1.007  29.875  38.013  1.00  0.00    -0.493 OA
ATOM     13  C   UNL     1       0.296  29.826  37.442  1.00  0.00     0.278 C 
ENDBRANCH   1  12
BRANCH   2  14
ATOM     14  O   UNL     1      -3.034  30.298  39.776  1.00  0.00    -0.502 OA
ATOM     15  H   UNL     1      -2.691  30.639  40.662  1.00  0.00     0.293 HD
ENDBRANCH   2  14
BRANCH   3  16
ATOM     16  O   UNL     1      -5.111  32.250  39.167  1.00  0.00    -0.502 OA
ATOM     17  H   UNL     1      -5.815  32.956  39.007  1.00  0.00     0.293 HD
ENDBRANCH   3  16
TORSDOF 3
ENDMDL
MODEL 8
REMARK VINA RESULT:    -5.738      3.649      5.446
REMARK INTER + INTRA:          -6.466
REMARK INTER:                  -6.398
REMARK INTRA:                  -0.068
REMARK UNBOUND:                -0.057
REMARK SMILES COc1cc2ccc(=O)oc2c(O)c1O
REMARK SMILES IDX 3 1 14 2 12 3 11 4 5 5 4 6 6 7 7 8 8 9 9 10 10 11 2 12 1 13
REMARK SMILES IDX 15 14 13 16
REMARK H PARENT 15 15 13 17
REMARK Flexibility Score: inf
ROOT
ATOM      1  C   UNL     1      -0.350  30.777  37.522  1.00  0.00     0.165 A 
ATOM      2  C   UNL     1       0.160  32.076  37.699  1.00  0.00     0.204 A 
ATOM      3  C   UNL     1       1.555  32.277  37.838  1.00  0.00     0.205 A 
ATOM      4  C   UNL     1       2.421  31.175  37.798  1.00  0.00     0.184 A 
ATOM      5  C   UNL     1       1.906  29.875  37.621  1.00  0.00     0.025 A 
ATOM      6  C   UNL     1       0.529  29.679  37.484  1.00  0.00     0.062 A 
ATOM      7  C   UNL     1       2.802  28.800  37.586  1.00  0.00     0.020 A 
ATOM      8  C   UNL     1       4.167  29.040  37.726  1.00  0.00     0.094 A 
ATOM      9  C   UNL     1       4.607  30.356  37.899  1.00  0.00     0.336 A 
ATOM     10  O   UNL     1       5.837  30.595  38.027  1.00  0.00    -0.246 OA
ATOM     11  O   UNL     1       3.735  31.360  37.928  1.00  0.00    -0.419 OA
ENDROOT
BRANCH   1  12
ATOM     12  O   UNL     1      -1.739  30.622  37.390  1.00  0.00    -0.493 OA
ATOM     13  C   UNL     1      -2.605  30.169  38.425  1.00  0.00     0.278 C 
ENDBRANCH   1  12
BRANCH   2  14
ATOM     14  O   UNL     1      -0.753  33.132  37.731  1.00  0.00    -0.502 OA
ATOM     15  H   UNL     1      -1.291  33.395  38.545  1.00  0.00     0.293 HD
ENDBRANCH   2  14
BRANCH   3  16
ATOM     16  O   UNL     1       2.118  33.544  38.016  1.00  0.00    -0.502 OA
ATOM     17  H   UNL     1       3.110  33.731  38.003  1.00  0.00     0.293 HD
ENDBRANCH   3  16
TORSDOF 3
ENDMDL
MODEL 9
REMARK VINA RESULT:    -5.706      2.137      3.079
REMARK INTER + INTRA:          -6.430
REMARK INTER:                  -6.378
REMARK INTRA:                  -0.052
REMARK UNBOUND:                -0.057
REMARK SMILES COc1cc2ccc(=O)oc2c(O)c1O
REMARK SMILES IDX 3 1 14 2 12 3 11 4 5 5 4 6 6 7 7 8 8 9 9 10 10 11 2 12 1 13
REMARK SMILES IDX 15 14 13 16
REMARK H PARENT 15 15 13 17
REMARK Flexibility Score: inf
ROOT
ATOM      1  C   UNL     1       1.568  31.191  38.352  1.00  0.00     0.165 A 
ATOM      2  C   UNL     1       2.882  31.418  38.798  1.00  0.00     0.204 A 
ATOM      3  C   UNL     1       3.978  30.889  38.074  1.00  0.00     0.205 A 
ATOM      4  C   UNL     1       3.744  30.140  36.912  1.00  0.00     0.184 A 
ATOM      5  C   UNL     1       2.426  29.914  36.468  1.00  0.00     0.025 A 
ATOM      6  C   UNL     1       1.345  30.437  37.184  1.00  0.00     0.062 A 
ATOM      7  C   UNL     1       2.232  29.162  35.304  1.00  0.00     0.020 A 
ATOM      8  C   UNL     1       3.338  28.660  34.620  1.00  0.00     0.094 A 
ATOM      9  C   UNL     1       4.617  28.923  35.119  1.00  0.00     0.336 A 
ATOM     10  O   UNL     1       5.630  28.479  34.517  1.00  0.00    -0.246 OA
ATOM     11  O   UNL     1       4.773  29.641  36.228  1.00  0.00    -0.419 OA
ENDROOT
BRANCH   1  12
ATOM     12  O   UNL     1       0.509  31.732  39.100  1.00  0.00    -0.493 OA
ATOM     13  C   UNL     1      -0.860  31.686  38.713  1.00  0.00     0.278 C 
ENDBRANCH   1  12
BRANCH   2  14
ATOM     14  O   UNL     1       3.049  32.171  39.963  1.00  0.00    -0.502 OA
ATOM     15  H   UNL     1       3.541  33.052  40.005  1.00  0.00     0.293 HD
ENDBRANCH   2  14
BRANCH   3  16
ATOM     16  O   UNL     1       5.304  31.083  38.471  1.00  0.00    -0.502 OA
ATOM     17  H   UNL     1       5.850  30.402  38.979  1.00  0.00     0.293 HD
ENDBRANCH   3  16
TORSDOF 3
ENDMDL
