MODEL 1
REMARK VINA RESULT:    -5.478      0.000      0.000
REMARK INTER + INTRA:          -6.169
REMARK INTER:                  -6.119
REMARK INTRA:                  -0.051
REMARK UNBOUND:                -0.051
REMARK SMILES COc1cc2ccc(=O)oc2c(O)c1O
REMARK SMILES IDX 3 1 14 2 12 3 11 4 5 5 4 6 6 7 7 8 8 9 9 10 10 11 2 12 1 13
REMARK SMILES IDX 15 14 13 16
REMARK H PARENT 15 15 13 17
REMARK Flexibility Score: inf
ROOT
ATOM      1  C   UNL     1      32.247   4.560  98.886  1.00  0.00     0.165 A 
ATOM      2  C   UNL     1      32.621   5.343  99.990  1.00  0.00     0.204 A 
ATOM      3  C   UNL     1      32.995   4.734 101.202  1.00  0.00     0.205 A 
ATOM      4  C   UNL     1      32.992   3.333 101.310  1.00  0.00     0.184 A 
ATOM      5  C   UNL     1      32.616   2.544 100.201  1.00  0.00     0.025 A 
ATOM      6  C   UNL     1      32.246   3.157  98.998  1.00  0.00     0.062 A 
ATOM      7  C   UNL     1      32.623   1.153 100.338  1.00  0.00     0.020 A 
ATOM      8  C   UNL     1      32.999   0.585 101.554  1.00  0.00     0.094 A 
ATOM      9  C   UNL     1      33.359   1.426 102.610  1.00  0.00     0.336 A 
ATOM     10  O   UNL     1      33.702   0.935 103.717  1.00  0.00    -0.246 OA
ATOM     11  O   UNL     1      33.344   2.747 102.453  1.00  0.00    -0.419 OA
ENDROOT
BRANCH   1  12
ATOM     12  O   UNL     1      31.883   5.214  97.698  1.00  0.00    -0.493 OA
ATOM     13  C   UNL     1      31.503   4.552  96.496  1.00  0.00     0.278 C 
ENDBRANCH   1  12
BRANCH   2  14
ATOM     14  O   UNL     1      32.617   6.733  99.863  1.00  0.00    -0.502 OA
ATOM     15  H   UNL     1      32.342   7.344 100.623  1.00  0.00     0.293 HD
ENDBRANCH   2  14
BRANCH   3  16
ATOM     16  O   UNL     1      33.364   5.529 102.287  1.00  0.00    -0.502 OA
ATOM     17  H   UNL     1      33.219   6.532 102.297  1.00  0.00     0.293 HD
ENDBRANCH   3  16
TORSDOF 3
ENDMDL
MODEL 2
REMARK VINA RESULT:    -5.397     12.969     15.167
REMARK INTER + INTRA:          -6.078
REMARK INTER:                  -6.028
REMARK INTRA:                  -0.051
REMARK UNBOUND:                -0.051
REMARK SMILES COc1cc2ccc(=O)oc2c(O)c1O
REMARK SMILES IDX 3 1 14 2 12 3 11 4 5 5 4 6 6 7 7 8 8 9 9 10 10 11 2 12 1 13
REMARK SMILES IDX 15 14 13 16
REMARK H PARENT 15 15 13 17
REMARK Flexibility Score: inf
ROOT
ATOM      1  C   UNL     1      22.287  -6.055 106.672  1.00  0.00     0.165 A 
ATOM      2  C   UNL     1      21.422  -6.386 105.616  1.00  0.00     0.204 A 
ATOM      3  C   UNL     1      21.934  -6.671 104.338  1.00  0.00     0.205 A 
ATOM      4  C   UNL     1      23.320  -6.623 104.113  1.00  0.00     0.184 A 
ATOM      5  C   UNL     1      24.191  -6.290 105.173  1.00  0.00     0.025 A 
ATOM      6  C   UNL     1      23.675  -6.008 106.443  1.00  0.00     0.062 A 
ATOM      7  C   UNL     1      25.566  -6.251 104.920  1.00  0.00     0.020 A 
ATOM      8  C   UNL     1      26.037  -6.539 103.640  1.00  0.00     0.094 A 
ATOM      9  C   UNL     1      25.117  -6.861 102.638  1.00  0.00     0.336 A 
ATOM     10  O   UNL     1      25.520  -7.125 101.476  1.00  0.00    -0.246 OA
ATOM     11  O   UNL     1      23.814  -6.892 102.906  1.00  0.00    -0.419 OA
ENDROOT
BRANCH   1  12
ATOM     12  O   UNL     1      21.728  -5.778 107.929  1.00  0.00    -0.493 OA
ATOM     13  C   UNL     1      22.483  -5.527 109.111  1.00  0.00     0.278 C 
ENDBRANCH   1  12
BRANCH   2  14
ATOM     14  O   UNL     1      20.048  -6.428 105.859  1.00  0.00    -0.502 OA
ATOM     15  H   UNL     1      19.432  -5.663 105.613  1.00  0.00     0.293 HD
ENDBRANCH   2  14
BRANCH   3  16
ATOM     16  O   UNL     1      21.057  -6.999 103.302  1.00  0.00    -0.502 OA
ATOM     17  H   UNL     1      20.833  -6.350 102.557  1.00  0.00     0.293 HD
ENDBRANCH   3  16
TORSDOF 3
ENDMDL
MODEL 3
REMARK VINA RESULT:    -5.029      1.079      1.079
REMARK INTER + INTRA:          -5.668
REMARK INTER:                  -5.610
REMARK INTRA:                  -0.058
REMARK UNBOUND:                -0.051
REMARK SMILES COc1cc2ccc(=O)oc2c(O)c1O
REMARK SMILES IDX 3 1 14 2 12 3 11 4 5 5 4 6 6 7 7 8 8 9 9 10 10 11 2 12 1 13
REMARK SMILES IDX 15 14 13 16
REMARK H PARENT 15 15 13 17
REMARK Flexibility Score: inf
ROOT
ATOM      1  C   UNL     1      32.301   4.352  99.330  1.00  0.00     0.165 A 
ATOM      2  C   UNL     1      32.743   5.186 100.369  1.00  0.00     0.204 A 
ATOM      3  C   UNL     1      32.787   4.714 101.693  1.00  0.00     0.205 A 
ATOM      4  C   UNL     1      32.385   3.398 101.980  1.00  0.00     0.184 A 
ATOM      5  C   UNL     1      31.940   2.558 100.936  1.00  0.00     0.025 A 
ATOM      6  C   UNL     1      31.899   3.034  99.621  1.00  0.00     0.062 A 
ATOM      7  C   UNL     1      31.546   1.253 101.251  1.00  0.00     0.020 A 
ATOM      8  C   UNL     1      31.603   0.820 102.575  1.00  0.00     0.094 A 
ATOM      9  C   UNL     1      32.054   1.706 103.557  1.00  0.00     0.336 A 
ATOM     10  O   UNL     1      32.114   1.335 104.758  1.00  0.00    -0.246 OA
ATOM     11  O   UNL     1      32.423   2.941 103.230  1.00  0.00    -0.419 OA
ENDROOT
BRANCH   1  12
ATOM     12  O   UNL     1      32.275   4.868  98.025  1.00  0.00    -0.493 OA
ATOM     13  C   UNL     1      31.211   4.673  97.099  1.00  0.00     0.278 C 
ENDBRANCH   1  12
BRANCH   2  14
ATOM     14  O   UNL     1      33.139   6.489 100.065  1.00  0.00    -0.502 OA
ATOM     15  H   UNL     1      33.816   6.693  99.340  1.00  0.00     0.293 HD
ENDBRANCH   2  14
BRANCH   3  16
ATOM     16  O   UNL     1      33.231   5.558 102.712  1.00  0.00    -0.502 OA
ATOM     17  H   UNL     1      34.170   5.938 102.729  1.00  0.00     0.293 HD
ENDBRANCH   3  16
TORSDOF 3
ENDMDL
MODEL 4
REMARK VINA RESULT:    -4.894     12.632     14.781
REMARK INTER + INTRA:          -5.516
REMARK INTER:                  -5.456
REMARK INTRA:                  -0.061
REMARK UNBOUND:                -0.051
REMARK SMILES COc1cc2ccc(=O)oc2c(O)c1O
REMARK SMILES IDX 3 1 14 2 12 3 11 4 5 5 4 6 6 7 7 8 8 9 9 10 10 11 2 12 1 13
REMARK SMILES IDX 15 14 13 16
REMARK H PARENT 15 15 13 17
REMARK Flexibility Score: inf
ROOT
ATOM      1  C   UNL     1      22.452  -6.183 105.976  1.00  0.00     0.165 A 
ATOM      2  C   UNL     1      21.538  -6.572 104.983  1.00  0.00     0.204 A 
ATOM      3  C   UNL     1      21.852  -6.408 103.621  1.00  0.00     0.205 A 
ATOM      4  C   UNL     1      23.086  -5.849 103.251  1.00  0.00     0.184 A 
ATOM      5  C   UNL     1      24.006  -5.457 104.248  1.00  0.00     0.025 A 
ATOM      6  C   UNL     1      23.688  -5.624 105.601  1.00  0.00     0.062 A 
ATOM      7  C   UNL     1      25.228  -4.905 103.849  1.00  0.00     0.020 A 
ATOM      8  C   UNL     1      25.503  -4.757 102.491  1.00  0.00     0.094 A 
ATOM      9  C   UNL     1      24.547  -5.166 101.559  1.00  0.00     0.336 A 
ATOM     10  O   UNL     1      24.775  -5.042 100.328  1.00  0.00    -0.246 OA
ATOM     11  O   UNL     1      23.392  -5.689 101.965  1.00  0.00    -0.419 OA
ENDROOT
BRANCH   1  12
ATOM     12  O   UNL     1      22.094  -6.368 107.320  1.00  0.00    -0.493 OA
ATOM     13  C   UNL     1      22.169  -5.359 108.322  1.00  0.00     0.278 C 
ENDBRANCH   1  12
BRANCH   2  14
ATOM     14  O   UNL     1      20.317  -7.125 105.370  1.00  0.00    -0.502 OA
ATOM     15  H   UNL     1      20.152  -8.125 105.373  1.00  0.00     0.293 HD
ENDBRANCH   2  14
BRANCH   3  16
ATOM     16  O   UNL     1      20.930  -6.801 102.650  1.00  0.00    -0.502 OA
ATOM     17  H   UNL     1      20.098  -7.333 102.877  1.00  0.00     0.293 HD
ENDBRANCH   3  16
TORSDOF 3
ENDMDL
MODEL 5
REMARK VINA RESULT:    -4.724      1.666      5.417
REMARK INTER + INTRA:          -5.327
REMARK INTER:                  -5.259
REMARK INTRA:                  -0.068
REMARK UNBOUND:                -0.051
REMARK SMILES COc1cc2ccc(=O)oc2c(O)c1O
REMARK SMILES IDX 3 1 14 2 12 3 11 4 5 5 4 6 6 7 7 8 8 9 9 10 10 11 2 12 1 13
REMARK SMILES IDX 15 14 13 16
REMARK H PARENT 15 15 13 17
REMARK Flexibility Score: inf
ROOT
ATOM      1  C   UNL     1      33.640   2.283 102.384  1.00  0.00     0.165 A 
ATOM      2  C   UNL     1      33.366   1.262 101.459  1.00  0.00     0.204 A 
ATOM      3  C   UNL     1      32.878   1.574 100.177  1.00  0.00     0.205 A 
ATOM      4  C   UNL     1      32.662   2.916  99.818  1.00  0.00     0.184 A 
ATOM      5  C   UNL     1      32.937   3.943 100.748  1.00  0.00     0.025 A 
ATOM      6  C   UNL     1      33.422   3.625 102.021  1.00  0.00     0.062 A 
ATOM      7  C   UNL     1      32.712   5.269 100.363  1.00  0.00     0.020 A 
ATOM      8  C   UNL     1      32.229   5.540  99.084  1.00  0.00     0.094 A 
ATOM      9  C   UNL     1      31.979   4.474  98.216  1.00  0.00     0.336 A 
ATOM     10  O   UNL     1      31.542   4.696  97.057  1.00  0.00    -0.246 OA
ATOM     11  O   UNL     1      32.201   3.222  98.607  1.00  0.00    -0.419 OA
ENDROOT
BRANCH   1  12
ATOM     12  O   UNL     1      34.125   1.921 103.650  1.00  0.00    -0.493 OA
ATOM     13  C   UNL     1      33.413   2.102 104.870  1.00  0.00     0.278 C 
ENDBRANCH   1  12
BRANCH   2  14
ATOM     14  O   UNL     1      33.587  -0.064 101.833  1.00  0.00    -0.502 OA
ATOM     15  H   UNL     1      34.123  -0.705 101.260  1.00  0.00     0.293 HD
ENDBRANCH   2  14
BRANCH   3  16
ATOM     16  O   UNL     1      32.613   0.546  99.271  1.00  0.00    -0.502 OA
ATOM     17  H   UNL     1      33.214  -0.264  99.182  1.00  0.00     0.293 HD
ENDBRANCH   3  16
TORSDOF 3
ENDMDL
MODEL 6
REMARK VINA RESULT:    -4.591      1.922      5.046
REMARK INTER + INTRA:          -5.178
REMARK INTER:                  -5.109
REMARK INTRA:                  -0.069
REMARK UNBOUND:                -0.051
REMARK SMILES COc1cc2ccc(=O)oc2c(O)c1O
REMARK SMILES IDX 3 1 14 2 12 3 11 4 5 5 4 6 6 7 7 8 8 9 9 10 10 11 2 12 1 13
REMARK SMILES IDX 15 14 13 16
REMARK H PARENT 15 15 13 17
REMARK Flexibility Score: inf
ROOT
ATOM      1  C   UNL     1      32.722   2.449 104.072  1.00  0.00     0.165 A 
ATOM      2  C   UNL     1      33.203   3.755 104.260  1.00  0.00     0.204 A 
ATOM      3  C   UNL     1      33.236   4.664 103.187  1.00  0.00     0.205 A 
ATOM      4  C   UNL     1      32.786   4.263 101.917  1.00  0.00     0.184 A 
ATOM      5  C   UNL     1      32.303   2.950 101.727  1.00  0.00     0.025 A 
ATOM      6  C   UNL     1      32.272   2.052 102.799  1.00  0.00     0.062 A 
ATOM      7  C   UNL     1      31.861   2.580 100.453  1.00  0.00     0.020 A 
ATOM      8  C   UNL     1      31.909   3.507  99.413  1.00  0.00     0.094 A 
ATOM      9  C   UNL     1      32.400   4.789  99.673  1.00  0.00     0.336 A 
ATOM     10  O   UNL     1      32.452   5.642  98.749  1.00  0.00    -0.246 OA
ATOM     11  O   UNL     1      32.814   5.116 100.895  1.00  0.00    -0.419 OA
ENDROOT
BRANCH   1  12
ATOM     12  O   UNL     1      32.708   1.580 105.174  1.00  0.00    -0.493 OA
ATOM     13  C   UNL     1      31.552   1.270 105.944  1.00  0.00     0.278 C 
ENDBRANCH   1  12
BRANCH   2  14
ATOM     14  O   UNL     1      33.646   4.135 105.528  1.00  0.00    -0.502 OA
ATOM     15  H   UNL     1      34.567   3.894 105.873  1.00  0.00     0.293 HD
ENDBRANCH   2  14
BRANCH   3  16
ATOM     16  O   UNL     1      33.717   5.957 103.394  1.00  0.00    -0.502 OA
ATOM     17  H   UNL     1      34.632   6.137 103.790  1.00  0.00     0.293 HD
ENDBRANCH   3  16
TORSDOF 3
ENDMDL
MODEL 7
REMARK VINA RESULT:    -4.585     12.973     14.318
REMARK INTER + INTRA:          -5.172
REMARK INTER:                  -5.103
REMARK INTRA:                  -0.069
REMARK UNBOUND:                -0.051
REMARK SMILES COc1cc2ccc(=O)oc2c(O)c1O
REMARK SMILES IDX 3 1 14 2 12 3 11 4 5 5 4 6 6 7 7 8 8 9 9 10 10 11 2 12 1 13
REMARK SMILES IDX 15 14 13 16
REMARK H PARENT 15 15 13 17
REMARK Flexibility Score: inf
ROOT
ATOM      1  C   UNL     1      23.979  -6.842 102.841  1.00  0.00     0.165 A 
ATOM      2  C   UNL     1      25.144  -6.624 103.593  1.00  0.00     0.204 A 
ATOM      3  C   UNL     1      25.063  -6.339 104.968  1.00  0.00     0.205 A 
ATOM      4  C   UNL     1      23.807  -6.270 105.594  1.00  0.00     0.184 A 
ATOM      5  C   UNL     1      22.634  -6.489 104.839  1.00  0.00     0.025 A 
ATOM      6  C   UNL     1      22.723  -6.773 103.472  1.00  0.00     0.062 A 
ATOM      7  C   UNL     1      21.398  -6.415 105.489  1.00  0.00     0.020 A 
ATOM      8  C   UNL     1      21.355  -6.130 106.853  1.00  0.00     0.094 A 
ATOM      9  C   UNL     1      22.556  -5.925 107.538  1.00  0.00     0.336 A 
ATOM     10  O   UNL     1      22.541  -5.666 108.769  1.00  0.00    -0.246 OA
ATOM     11  O   UNL     1      23.718  -6.001 106.896  1.00  0.00    -0.419 OA
ENDROOT
BRANCH   1  12
ATOM     12  O   UNL     1      24.112  -7.124 101.473  1.00  0.00    -0.493 OA
ATOM     13  C   UNL     1      23.736  -6.237 100.424  1.00  0.00     0.278 C 
ENDBRANCH   1  12
BRANCH   2  14
ATOM     14  O   UNL     1      26.383  -6.697 102.954  1.00  0.00    -0.502 OA
ATOM     15  H   UNL     1      26.901  -5.869 102.684  1.00  0.00     0.293 HD
ENDBRANCH   2  14
BRANCH   3  16
ATOM     16  O   UNL     1      26.233  -6.126 105.699  1.00  0.00    -0.502 OA
ATOM     17  H   UNL     1      27.134  -6.469 105.388  1.00  0.00     0.293 HD
ENDBRANCH   3  16
TORSDOF 3
ENDMDL
MODEL 8
REMARK VINA RESULT:    -4.565      8.834     10.097
REMARK INTER + INTRA:          -5.149
REMARK INTER:                  -5.098
REMARK INTRA:                  -0.051
REMARK UNBOUND:                -0.051
REMARK SMILES COc1cc2ccc(=O)oc2c(O)c1O
REMARK SMILES IDX 3 1 14 2 12 3 11 4 5 5 4 6 6 7 7 8 8 9 9 10 10 11 2 12 1 13
REMARK SMILES IDX 15 14 13 16
REMARK H PARENT 15 15 13 17
REMARK Flexibility Score: inf
ROOT
ATOM      1  C   UNL     1      31.495  -2.661  94.319  1.00  0.00     0.165 A 
ATOM      2  C   UNL     1      30.928  -2.268  95.542  1.00  0.00     0.204 A 
ATOM      3  C   UNL     1      29.618  -2.656  95.879  1.00  0.00     0.205 A 
ATOM      4  C   UNL     1      28.871  -3.441  94.986  1.00  0.00     0.184 A 
ATOM      5  C   UNL     1      29.439  -3.838  93.755  1.00  0.00     0.025 A 
ATOM      6  C   UNL     1      30.743  -3.449  93.427  1.00  0.00     0.062 A 
ATOM      7  C   UNL     1      28.671  -4.620  92.886  1.00  0.00     0.020 A 
ATOM      8  C   UNL     1      27.377  -4.985  93.253  1.00  0.00     0.094 A 
ATOM      9  C   UNL     1      26.879  -4.557  94.487  1.00  0.00     0.336 A 
ATOM     10  O   UNL     1      25.713  -4.875  94.838  1.00  0.00    -0.246 OA
ATOM     11  O   UNL     1      27.630  -3.814  95.295  1.00  0.00    -0.419 OA
ENDROOT
BRANCH   1  12
ATOM     12  O   UNL     1      32.805  -2.250  94.029  1.00  0.00    -0.493 OA
ATOM     13  C   UNL     1      33.539  -2.646  92.875  1.00  0.00     0.278 C 
ENDBRANCH   1  12
BRANCH   2  14
ATOM     14  O   UNL     1      31.686  -1.488  96.416  1.00  0.00    -0.502 OA
ATOM     15  H   UNL     1      31.458  -1.401  97.400  1.00  0.00     0.293 HD
ENDBRANCH   2  14
BRANCH   3  16
ATOM     16  O   UNL     1      29.073  -2.255  97.099  1.00  0.00    -0.502 OA
ATOM     17  H   UNL     1      28.566  -1.384  97.205  1.00  0.00     0.293 HD
ENDBRANCH   3  16
TORSDOF 3
ENDMDL
MODEL 9
REMARK VINA RESULT:    -4.561      3.120      5.725
REMARK INTER + INTRA:          -5.145
REMARK INTER:                  -5.075
REMARK INTRA:                  -0.069
REMARK UNBOUND:                -0.051
REMARK SMILES COc1cc2ccc(=O)oc2c(O)c1O
REMARK SMILES IDX 3 1 14 2 12 3 11 4 5 5 4 6 6 7 7 8 8 9 9 10 10 11 2 12 1 13
REMARK SMILES IDX 15 14 13 16
REMARK H PARENT 15 15 13 17
REMARK Flexibility Score: inf
ROOT
ATOM      1  C   UNL     1      32.453   3.454 105.727  1.00  0.00     0.165 A 
ATOM      2  C   UNL     1      31.554   4.483 105.402  1.00  0.00     0.204 A 
ATOM      3  C   UNL     1      31.493   4.989 104.091  1.00  0.00     0.205 A 
ATOM      4  C   UNL     1      32.338   4.463 103.099  1.00  0.00     0.184 A 
ATOM      5  C   UNL     1      33.244   3.429 103.425  1.00  0.00     0.025 A 
ATOM      6  C   UNL     1      33.298   2.930 104.731  1.00  0.00     0.062 A 
ATOM      7  C   UNL     1      34.072   2.926 102.417  1.00  0.00     0.020 A 
ATOM      8  C   UNL     1      33.984   3.452 101.129  1.00  0.00     0.094 A 
ATOM      9  C   UNL     1      33.065   4.474 100.878  1.00  0.00     0.336 A 
ATOM     10  O   UNL     1      32.969   4.964  99.723  1.00  0.00    -0.246 OA
ATOM     11  O   UNL     1      32.288   4.935 101.855  1.00  0.00    -0.419 OA
ENDROOT
BRANCH   1  12
ATOM     12  O   UNL     1      32.477   2.983 107.049  1.00  0.00    -0.493 OA
ATOM     13  C   UNL     1      31.960   1.723 107.467  1.00  0.00     0.278 C 
ENDBRANCH   1  12
BRANCH   2  14
ATOM     14  O   UNL     1      30.723   4.992 106.401  1.00  0.00    -0.502 OA
ATOM     15  H   UNL     1      30.711   4.612 107.340  1.00  0.00     0.293 HD
ENDBRANCH   2  14
BRANCH   3  16
ATOM     16  O   UNL     1      30.592   6.010 103.788  1.00  0.00    -0.502 OA
ATOM     17  H   UNL     1      30.897   6.939 103.523  1.00  0.00     0.293 HD
ENDBRANCH   3  16
TORSDOF 3
ENDMDL
