MODEL 1
REMARK VINA RESULT:    -2.704      0.000      0.000
REMARK INTER + INTRA:          -2.704
REMARK INTER:                  -2.704
REMARK INTRA:                   0.000
REMARK UNBOUND:                 0.000
REMARK SMILES CC(=O)[O-]
REMARK SMILES IDX 1 1 2 2 3 3 4 4
REMARK H PARENT
REMARK Flexibility Score: inf
ROOT
ATOM      1  C   UNL     1      -7.101  -6.002  -5.764  1.00  0.00     0.063 C 
ATOM      2  C   UNL     1      -6.578  -5.299  -4.557  1.00  0.00     0.038 C 
ATOM      3  O   UNL     1      -6.148  -5.963  -3.578  1.00  0.00    -0.550 OA
ATOM      4  O   UNL     1      -6.615  -3.913  -4.488  1.00  0.00    -0.550 OA
ENDROOT
TORSDOF 0
ENDMDL
MODEL 2
REMARK VINA RESULT:    -2.643      2.241      2.453
REMARK INTER + INTRA:          -2.643
REMARK INTER:                  -2.643
REMARK INTRA:                   0.000
REMARK UNBOUND:                 0.000
REMARK SMILES CC(=O)[O-]
REMARK SMILES IDX 1 1 2 2 3 3 4 4
REMARK H PARENT
REMARK Flexibility Score: inf
ROOT
ATOM      1  C   UNL     1      -6.461  -5.720  -4.434  1.00  0.00     0.063 C 
ATOM      2  C   UNL     1      -6.453  -6.085  -5.879  1.00  0.00     0.038 C 
ATOM      3  O   UNL     1      -5.363  -6.316  -6.465  1.00  0.00    -0.550 OA
ATOM      4  O   UNL     1      -7.641  -6.118  -6.596  1.00  0.00    -0.550 OA
ENDROOT
TORSDOF 0
ENDMDL
MODEL 3
REMARK VINA RESULT:    -2.503     16.401     16.779
REMARK INTER + INTRA:          -2.503
REMARK INTER:                  -2.503
REMARK INTRA:                   0.000
REMARK UNBOUND:                 0.000
REMARK SMILES CC(=O)[O-]
REMARK SMILES IDX 1 1 2 2 3 3 4 4
REMARK H PARENT
REMARK Flexibility Score: inf
ROOT
ATOM      1  C   UNL     1       7.202  -6.729   5.191  1.00  0.00     0.063 C 
ATOM      2  C   UNL     1       7.350  -7.821   4.187  1.00  0.00     0.038 C 
ATOM      3  O   UNL     1       7.516  -9.009   4.566  1.00  0.00    -0.550 OA
ATOM      4  O   UNL     1       7.362  -7.522   2.831  1.00  0.00    -0.550 OA
ENDROOT
TORSDOF 0
ENDMDL
MODEL 4
REMARK VINA RESULT:    -2.436      8.364      8.714
REMARK INTER + INTRA:          -2.436
REMARK INTER:                  -2.436
REMARK INTRA:                   0.000
REMARK UNBOUND:                 0.000
REMARK SMILES CC(=O)[O-]
REMARK SMILES IDX 1 1 2 2 3 3 4 4
REMARK H PARENT
REMARK Flexibility Score: inf
ROOT
ATOM      1  C   UNL     1      -0.078  -0.817  -4.346  1.00  0.00     0.063 C 
ATOM      2  C   UNL     1       1.045  -1.608  -4.926  1.00  0.00     0.038 C 
ATOM      3  O   UNL     1       1.025  -1.935  -6.141  1.00  0.00    -0.550 OA
ATOM      4  O   UNL     1       2.089  -2.033  -4.115  1.00  0.00    -0.550 OA
ENDROOT
TORSDOF 0
ENDMDL
MODEL 5
REMARK VINA RESULT:    -2.374      8.360      8.667
REMARK INTER + INTRA:          -2.374
REMARK INTER:                  -2.374
REMARK INTRA:                   0.000
REMARK UNBOUND:                 0.000
REMARK SMILES CC(=O)[O-]
REMARK SMILES IDX 1 1 2 2 3 3 4 4
REMARK H PARENT
REMARK Flexibility Score: inf
ROOT
ATOM      1  C   UNL     1       0.733  -1.370  -6.134  1.00  0.00     0.063 C 
ATOM      2  C   UNL     1       1.001  -1.476  -4.671  1.00  0.00     0.038 C 
ATOM      3  O   UNL     1       0.138  -1.089  -3.841  1.00  0.00    -0.550 OA
ATOM      4  O   UNL     1       2.226  -1.951  -4.221  1.00  0.00    -0.550 OA
ENDROOT
TORSDOF 0
ENDMDL
MODEL 6
REMARK VINA RESULT:    -2.335     12.198     12.482
REMARK INTER + INTRA:          -2.335
REMARK INTER:                  -2.335
REMARK INTRA:                   0.000
REMARK UNBOUND:                 0.000
REMARK SMILES CC(=O)[O-]
REMARK SMILES IDX 1 1 2 2 3 3 4 4
REMARK H PARENT
REMARK Flexibility Score: inf
ROOT
ATOM      1  C   UNL     1       5.385   0.245  -3.089  1.00  0.00     0.063 C 
ATOM      2  C   UNL     1       4.865  -1.053  -3.608  1.00  0.00     0.038 C 
ATOM      3  O   UNL     1       3.938  -1.649  -3.002  1.00  0.00    -0.550 OA
ATOM      4  O   UNL     1       5.440  -1.634  -4.730  1.00  0.00    -0.550 OA
ENDROOT
TORSDOF 0
ENDMDL
MODEL 7
REMARK VINA RESULT:    -2.321     16.359     16.743
REMARK INTER + INTRA:          -2.321
REMARK INTER:                  -2.321
REMARK INTRA:                   0.000
REMARK UNBOUND:                 0.000
REMARK SMILES CC(=O)[O-]
REMARK SMILES IDX 1 1 2 2 3 3 4 4
REMARK H PARENT
REMARK Flexibility Score: inf
ROOT
ATOM      1  C   UNL     1       7.606  -8.869   4.780  1.00  0.00     0.063 C 
ATOM      2  C   UNL     1       7.390  -7.578   4.066  1.00  0.00     0.038 C 
ATOM      3  O   UNL     1       7.345  -7.552   2.809  1.00  0.00    -0.550 OA
ATOM      4  O   UNL     1       7.293  -6.394   4.785  1.00  0.00    -0.550 OA
ENDROOT
TORSDOF 0
ENDMDL
MODEL 8
REMARK VINA RESULT:    -2.196     14.563     14.887
REMARK INTER + INTRA:          -2.196
REMARK INTER:                  -2.196
REMARK INTRA:                   0.000
REMARK UNBOUND:                 0.000
REMARK SMILES CC(=O)[O-]
REMARK SMILES IDX 1 1 2 2 3 3 4 4
REMARK H PARENT
REMARK Flexibility Score: inf
ROOT
ATOM      1  C   UNL     1     -10.797 -10.571   7.277  1.00  0.00     0.063 C 
ATOM      2  C   UNL     1     -10.422 -10.834   8.696  1.00  0.00     0.038 C 
ATOM      3  O   UNL     1     -10.074 -11.989   9.053  1.00  0.00    -0.550 OA
ATOM      4  O   UNL     1     -10.510  -9.818   9.638  1.00  0.00    -0.550 OA
ENDROOT
TORSDOF 0
ENDMDL
MODEL 9
REMARK VINA RESULT:    -2.144      9.323      9.677
REMARK INTER + INTRA:          -2.144
REMARK INTER:                  -2.144
REMARK INTRA:                   0.000
REMARK UNBOUND:                 0.000
REMARK SMILES CC(=O)[O-]
REMARK SMILES IDX 1 1 2 2 3 3 4 4
REMARK H PARENT
REMARK Flexibility Score: inf
ROOT
ATOM      1  C   UNL     1      -0.376   0.087  -3.980  1.00  0.00     0.063 C 
ATOM      2  C   UNL     1       0.665   1.041  -4.460  1.00  0.00     0.038 C 
ATOM      3  O   UNL     1       1.857   0.919  -4.077  1.00  0.00    -0.550 OA
ATOM      4  O   UNL     1       0.311   2.099  -5.286  1.00  0.00    -0.550 OA
ENDROOT
TORSDOF 0
ENDMDL
