MODEL 1
REMARK VINA RESULT:    -3.808      0.000      0.000
REMARK INTER + INTRA:          -5.767
REMARK INTER:                  -5.143
REMARK INTRA:                  -0.624
REMARK UNBOUND:                -0.624
REMARK SMILES CC(=O)CCC=C(C)CCC=C(C)C
REMARK SMILES IDX 7 1 6 2 8 3 9 4 10 5 11 6 13 7 12 8 14 9 5 10 4 11 2 12 3 13
REMARK SMILES IDX 1 14
REMARK H PARENT
REMARK Flexibility Score: inf
ROOT
ATOM      1  C   UNL     1       0.635 -21.815 -19.127  1.00  0.00    -0.077 C 
ATOM      2  C   UNL     1       1.609 -21.606 -20.042  1.00  0.00    -0.028 C 
ATOM      3  C   UNL     1       0.951 -22.125 -17.681  1.00  0.00     0.039 C 
ENDROOT
BRANCH   1   4
ATOM      4  C   UNL     1      -0.812 -21.753 -19.567  1.00  0.00     0.034 C 
BRANCH   4   5
ATOM      5  C   UNL     1      -1.341 -20.316 -19.495  1.00  0.00     0.032 C 
BRANCH   5   6
ATOM      6  C   UNL     1      -2.790 -20.260 -19.908  1.00  0.00    -0.028 C 
ATOM      7  C   UNL     1      -5.227 -20.421 -19.637  1.00  0.00     0.039 C 
ATOM      8  C   UNL     1      -3.827 -20.570 -19.099  1.00  0.00    -0.080 C 
ATOM      9  C   UNL     1      -3.621 -21.073 -17.690  1.00  0.00     0.039 C 
ENDBRANCH   5   6
ENDBRANCH   4   5
ENDBRANCH   1   4
BRANCH   2  10
ATOM     10  C   UNL     1       3.085 -21.600 -19.731  1.00  0.00     0.035 C 
BRANCH  10  11
ATOM     11  C   UNL     1       3.648 -20.177 -19.795  1.00  0.00     0.079 C 
BRANCH  11  12
ATOM     12  C   UNL     1       3.110 -19.340 -18.667  1.00  0.00     0.130 C 
ATOM     13  O   UNL     1       3.576 -19.465 -17.544  1.00  0.00    -0.300 OA
ATOM     14  C   UNL     1       2.014 -18.349 -18.913  1.00  0.00     0.087 C 
ENDBRANCH  11  12
ENDBRANCH  10  11
ENDBRANCH   2  10
TORSDOF 6
ENDMDL
MODEL 2
REMARK VINA RESULT:    -3.755     21.320     23.023
REMARK INTER + INTRA:          -5.695
REMARK INTER:                  -4.887
REMARK INTRA:                  -0.809
REMARK UNBOUND:                -0.624
REMARK SMILES CC(=O)CCC=C(C)CCC=C(C)C
REMARK SMILES IDX 7 1 6 2 8 3 9 4 10 5 11 6 13 7 12 8 14 9 5 10 4 11 2 12 3 13
REMARK SMILES IDX 1 14
REMARK H PARENT
REMARK Flexibility Score: inf
ROOT
ATOM      1  C   UNL     1      -8.063  -6.362  -5.571  1.00  0.00    -0.077 C 
ATOM      2  C   UNL     1      -8.948  -5.393  -5.896  1.00  0.00    -0.028 C 
ATOM      3  C   UNL     1      -6.939  -6.761  -6.500  1.00  0.00     0.039 C 
ENDROOT
BRANCH   1   4
ATOM      4  C   UNL     1      -8.211  -7.080  -4.247  1.00  0.00     0.034 C 
BRANCH   4   5
ATOM      5  C   UNL     1      -9.123  -6.291  -3.300  1.00  0.00     0.032 C 
BRANCH   5   6
ATOM      6  C   UNL     1      -8.431  -6.030  -1.986  1.00  0.00    -0.028 C 
ATOM      7  C   UNL     1      -7.030  -4.822  -0.369  1.00  0.00     0.039 C 
ATOM      8  C   UNL     1      -7.616  -4.979  -1.748  1.00  0.00    -0.080 C 
ATOM      9  C   UNL     1      -7.266  -3.977  -2.824  1.00  0.00     0.039 C 
ENDBRANCH   5   6
ENDBRANCH   4   5
ENDBRANCH   1   4
BRANCH   2  10
ATOM     10  C   UNL     1      -8.893  -4.576  -7.162  1.00  0.00     0.035 C 
BRANCH  10  11
ATOM     11  C   UNL     1      -8.258  -3.207  -6.898  1.00  0.00     0.079 C 
BRANCH  11  12
ATOM     12  C   UNL     1      -7.781  -2.584  -8.181  1.00  0.00     0.130 C 
ATOM     13  O   UNL     1      -6.786  -1.875  -8.177  1.00  0.00    -0.300 OA
ATOM     14  C   UNL     1      -8.513  -2.835  -9.464  1.00  0.00     0.087 C 
ENDBRANCH  11  12
ENDBRANCH  10  11
ENDBRANCH   2  10
TORSDOF 6
ENDMDL
MODEL 3
REMARK VINA RESULT:    -3.696     21.504     23.111
REMARK INTER + INTRA:          -5.617
REMARK INTER:                  -4.895
REMARK INTRA:                  -0.722
REMARK UNBOUND:                -0.624
REMARK SMILES CC(=O)CCC=C(C)CCC=C(C)C
REMARK SMILES IDX 7 1 6 2 8 3 9 4 10 5 11 6 13 7 12 8 14 9 5 10 4 11 2 12 3 13
REMARK SMILES IDX 1 14
REMARK H PARENT
REMARK Flexibility Score: inf
ROOT
ATOM      1  C   UNL     1      -8.236  -6.070  -5.288  1.00  0.00    -0.077 C 
ATOM      2  C   UNL     1      -8.967  -5.807  -4.180  1.00  0.00    -0.028 C 
ATOM      3  C   UNL     1      -6.923  -6.815  -5.219  1.00  0.00     0.039 C 
ENDROOT
BRANCH   1   4
ATOM      4  C   UNL     1      -8.739  -5.590  -6.632  1.00  0.00     0.034 C 
BRANCH   4   5
ATOM      5  C   UNL     1      -8.874  -4.063  -6.648  1.00  0.00     0.032 C 
BRANCH   5   6
ATOM      6  C   UNL     1      -8.988  -3.552  -8.062  1.00  0.00    -0.028 C 
ATOM      7  C   UNL     1      -8.400  -2.213 -10.037  1.00  0.00     0.039 C 
ATOM      8  C   UNL     1      -8.201  -2.589  -8.592  1.00  0.00    -0.080 C 
ATOM      9  C   UNL     1      -7.149  -1.875  -7.775  1.00  0.00     0.039 C 
ENDBRANCH   5   6
ENDBRANCH   4   5
ENDBRANCH   1   4
BRANCH   2  10
ATOM     10  C   UNL     1      -8.602  -6.259  -2.789  1.00  0.00     0.035 C 
BRANCH  10  11
ATOM     11  C   UNL     1      -8.408  -5.057  -1.860  1.00  0.00     0.079 C 
BRANCH  11  12
ATOM     12  C   UNL     1      -7.206  -4.252  -2.273  1.00  0.00     0.130 C 
ATOM     13  O   UNL     1      -6.127  -4.806  -2.419  1.00  0.00    -0.300 OA
ATOM     14  C   UNL     1      -7.327  -2.779  -2.517  1.00  0.00     0.087 C 
ENDBRANCH  11  12
ENDBRANCH  10  11
ENDBRANCH   2  10
TORSDOF 6
ENDMDL
MODEL 4
REMARK VINA RESULT:    -3.695      2.803      6.178
REMARK INTER + INTRA:          -5.614
REMARK INTER:                  -4.906
REMARK INTRA:                  -0.708
REMARK UNBOUND:                -0.624
REMARK SMILES CC(=O)CCC=C(C)CCC=C(C)C
REMARK SMILES IDX 7 1 6 2 8 3 9 4 10 5 11 6 13 7 12 8 14 9 5 10 4 11 2 12 3 13
REMARK SMILES IDX 1 14
REMARK H PARENT
REMARK Flexibility Score: inf
ROOT
ATOM      1  C   UNL     1      -0.982 -22.101 -18.618  1.00  0.00    -0.077 C 
ATOM      2  C   UNL     1      -2.069 -22.094 -17.814  1.00  0.00    -0.028 C 
ATOM      3  C   UNL     1      -1.104 -22.103 -20.125  1.00  0.00     0.039 C 
ENDROOT
BRANCH   1   4
ATOM      4  C   UNL     1       0.396 -22.125 -17.992  1.00  0.00     0.034 C 
BRANCH   4   5
ATOM      5  C   UNL     1       1.470 -21.769 -19.027  1.00  0.00     0.032 C 
BRANCH   5   6
ATOM      6  C   UNL     1       2.166 -20.485 -18.654  1.00  0.00    -0.028 C 
ATOM      7  C   UNL     1       2.532 -18.057 -18.552  1.00  0.00     0.039 C 
ATOM      8  C   UNL     1       1.761 -19.256 -19.042  1.00  0.00    -0.080 C 
ATOM      9  C   UNL     1       0.578 -19.055 -19.960  1.00  0.00     0.039 C 
ENDBRANCH   5   6
ENDBRANCH   4   5
ENDBRANCH   1   4
BRANCH   2  10
ATOM     10  C   UNL     1      -3.493 -22.033 -18.304  1.00  0.00     0.035 C 
BRANCH  10  11
ATOM     11  C   UNL     1      -3.953 -20.579 -18.455  1.00  0.00     0.079 C 
BRANCH  11  12
ATOM     12  C   UNL     1      -5.120 -20.485 -19.399  1.00  0.00     0.130 C 
ATOM     13  O   UNL     1      -5.655 -19.404 -19.596  1.00  0.00    -0.300 OA
ATOM     14  C   UNL     1      -5.623 -21.705 -20.107  1.00  0.00     0.087 C 
ENDBRANCH  11  12
ENDBRANCH  10  11
ENDBRANCH   2  10
TORSDOF 6
ENDMDL
MODEL 5
REMARK VINA RESULT:    -3.442      2.751      6.249
REMARK INTER + INTRA:          -5.274
REMARK INTER:                  -4.753
REMARK INTRA:                  -0.521
REMARK UNBOUND:                -0.624
REMARK SMILES CC(=O)CCC=C(C)CCC=C(C)C
REMARK SMILES IDX 7 1 6 2 8 3 9 4 10 5 11 6 13 7 12 8 14 9 5 10 4 11 2 12 3 13
REMARK SMILES IDX 1 14
REMARK H PARENT
REMARK Flexibility Score: inf
ROOT
ATOM      1  C   UNL     1      -0.551 -21.799 -18.978  1.00  0.00    -0.077 C 
ATOM      2  C   UNL     1      -1.834 -21.650 -19.378  1.00  0.00    -0.028 C 
ATOM      3  C   UNL     1      -0.194 -22.125 -17.545  1.00  0.00     0.039 C 
ENDROOT
BRANCH   1   4
ATOM      4  C   UNL     1       0.561 -21.619 -19.989  1.00  0.00     0.034 C 
BRANCH   4   5
ATOM      5  C   UNL     1       0.950 -20.142 -20.112  1.00  0.00     0.032 C 
BRANCH   5   6
ATOM      6  C   UNL     1       1.673 -19.675 -18.874  1.00  0.00    -0.028 C 
ATOM      7  C   UNL     1       3.600 -19.125 -17.452  1.00  0.00     0.039 C 
ATOM      8  C   UNL     1       3.017 -19.665 -18.732  1.00  0.00    -0.080 C 
ATOM      9  C   UNL     1       3.939 -20.193 -19.806  1.00  0.00     0.039 C 
ENDBRANCH   5   6
ENDBRANCH   4   5
ENDBRANCH   1   4
BRANCH   2  10
ATOM     10  C   UNL     1      -3.034 -21.838 -18.486  1.00  0.00     0.035 C 
BRANCH  10  11
ATOM     11  C   UNL     1      -3.811 -20.527 -18.336  1.00  0.00     0.079 C 
BRANCH  11  12
ATOM     12  C   UNL     1      -4.894 -20.427 -19.374  1.00  0.00     0.130 C 
ATOM     13  O   UNL     1      -5.494 -21.433 -19.723  1.00  0.00    -0.300 OA
ATOM     14  C   UNL     1      -5.250 -19.101 -19.974  1.00  0.00     0.087 C 
ENDBRANCH  11  12
ENDBRANCH  10  11
ENDBRANCH   2  10
TORSDOF 6
ENDMDL
MODEL 6
REMARK VINA RESULT:    -2.645     22.384     24.707
REMARK INTER + INTRA:          -4.197
REMARK INTER:                  -3.424
REMARK INTRA:                  -0.773
REMARK UNBOUND:                -0.624
REMARK SMILES CC(=O)CCC=C(C)CCC=C(C)C
REMARK SMILES IDX 7 1 6 2 8 3 9 4 10 5 11 6 13 7 12 8 14 9 5 10 4 11 2 12 3 13
REMARK SMILES IDX 1 14
REMARK H PARENT
REMARK Flexibility Score: inf
ROOT
ATOM      1  C   UNL     1       7.950  -3.112  -2.885  1.00  0.00    -0.077 C 
ATOM      2  C   UNL     1       9.074  -3.241  -3.625  1.00  0.00    -0.028 C 
ATOM      3  C   UNL     1       6.627  -2.719  -3.503  1.00  0.00     0.039 C 
ENDROOT
BRANCH   1   4
ATOM      4  C   UNL     1       8.021  -3.351  -1.392  1.00  0.00     0.034 C 
BRANCH   4   5
ATOM      5  C   UNL     1       9.412  -3.851  -0.987  1.00  0.00     0.032 C 
BRANCH   5   6
ATOM      6  C   UNL     1       9.324  -5.213  -0.346  1.00  0.00    -0.028 C 
ATOM      7  C   UNL     1       9.750  -7.618  -0.077  1.00  0.00     0.039 C 
ATOM      8  C   UNL     1       9.882  -6.334  -0.854  1.00  0.00    -0.080 C 
ATOM      9  C   UNL     1      10.613  -6.336  -2.176  1.00  0.00     0.039 C 
ENDBRANCH   5   6
ENDBRANCH   4   5
ENDBRANCH   1   4
BRANCH   2  10
ATOM     10  C   UNL     1       9.135  -3.069  -5.122  1.00  0.00     0.035 C 
BRANCH  10  11
ATOM     11  C   UNL     1      10.278  -3.897  -5.717  1.00  0.00     0.079 C 
BRANCH  11  12
ATOM     12  C   UNL     1       9.839  -4.577  -6.985  1.00  0.00     0.130 C 
ATOM     13  O   UNL     1       9.565  -5.768  -6.971  1.00  0.00    -0.300 OA
ATOM     14  C   UNL     1       9.726  -3.801  -8.262  1.00  0.00     0.087 C 
ENDBRANCH  11  12
ENDBRANCH  10  11
ENDBRANCH   2  10
TORSDOF 6
ENDMDL
MODEL 7
REMARK VINA RESULT:    -2.555     22.419     24.628
REMARK INTER + INTRA:          -4.074
REMARK INTER:                  -3.312
REMARK INTRA:                  -0.763
REMARK UNBOUND:                -0.624
REMARK SMILES CC(=O)CCC=C(C)CCC=C(C)C
REMARK SMILES IDX 7 1 6 2 8 3 9 4 10 5 11 6 13 7 12 8 14 9 5 10 4 11 2 12 3 13
REMARK SMILES IDX 1 14
REMARK H PARENT
REMARK Flexibility Score: inf
ROOT
ATOM      1  C   UNL     1      10.366  -5.652  -2.282  1.00  0.00    -0.077 C 
ATOM      2  C   UNL     1      10.241  -4.645  -3.176  1.00  0.00    -0.028 C 
ATOM      3  C   UNL     1      10.917  -7.004  -2.673  1.00  0.00     0.039 C 
ENDROOT
BRANCH   1   4
ATOM      4  C   UNL     1       9.926  -5.423  -0.852  1.00  0.00     0.034 C 
BRANCH   4   5
ATOM      5  C   UNL     1       9.493  -3.968  -0.642  1.00  0.00     0.032 C 
BRANCH   5   6
ATOM      6  C   UNL     1       8.093  -3.901  -0.088  1.00  0.00    -0.028 C 
ATOM      7  C   UNL     1       5.666  -3.518  -0.115  1.00  0.00     0.039 C 
ATOM      8  C   UNL     1       7.014  -3.486  -0.787  1.00  0.00    -0.080 C 
ATOM      9  C   UNL     1       7.126  -2.979  -2.206  1.00  0.00     0.039 C 
ENDBRANCH   5   6
ENDBRANCH   4   5
ENDBRANCH   1   4
BRANCH   2  10
ATOM     10  C   UNL     1      10.675  -4.726  -4.618  1.00  0.00     0.035 C 
BRANCH  10  11
ATOM     11  C   UNL     1       9.655  -4.041  -5.532  1.00  0.00     0.079 C 
BRANCH  11  12
ATOM     12  C   UNL     1       9.671  -4.655  -6.905  1.00  0.00     0.130 C 
ATOM     13  O   UNL     1       9.612  -5.870  -7.026  1.00  0.00    -0.300 OA
ATOM     14  C   UNL     1       9.750  -3.788  -8.123  1.00  0.00     0.087 C 
ENDBRANCH  11  12
ENDBRANCH  10  11
ENDBRANCH   2  10
TORSDOF 6
ENDMDL
MODEL 8
REMARK VINA RESULT:    -2.474     22.725     24.410
REMARK INTER + INTRA:          -3.966
REMARK INTER:                  -3.127
REMARK INTRA:                  -0.839
REMARK UNBOUND:                -0.624
REMARK SMILES CC(=O)CCC=C(C)CCC=C(C)C
REMARK SMILES IDX 7 1 6 2 8 3 9 4 10 5 11 6 13 7 12 8 14 9 5 10 4 11 2 12 3 13
REMARK SMILES IDX 1 14
REMARK H PARENT
REMARK Flexibility Score: inf
ROOT
ATOM      1  C   UNL     1      10.544  -5.089  -3.321  1.00  0.00    -0.077 C 
ATOM      2  C   UNL     1      10.402  -4.235  -4.360  1.00  0.00    -0.028 C 
ATOM      3  C   UNL     1      11.121  -6.475  -3.500  1.00  0.00     0.039 C 
ENDROOT
BRANCH   1   4
ATOM      4  C   UNL     1      10.097  -4.652  -1.943  1.00  0.00     0.034 C 
BRANCH   4   5
ATOM      5  C   UNL     1       9.548  -3.220  -1.977  1.00  0.00     0.032 C 
BRANCH   5   6
ATOM      6  C   UNL     1       8.144  -3.173  -1.431  1.00  0.00    -0.028 C 
ATOM      7  C   UNL     1       5.691  -3.044  -1.506  1.00  0.00     0.039 C 
ATOM      8  C   UNL     1       7.035  -3.027  -2.188  1.00  0.00    -0.080 C 
ATOM      9  C   UNL     1       7.106  -2.832  -3.685  1.00  0.00     0.039 C 
ENDBRANCH   5   6
ENDBRANCH   4   5
ENDBRANCH   1   4
BRANCH   2  10
ATOM     10  C   UNL     1      10.840  -4.528  -5.772  1.00  0.00     0.035 C 
BRANCH  10  11
ATOM     11  C   UNL     1       9.664  -4.394  -6.745  1.00  0.00     0.079 C 
BRANCH  11  12
ATOM     12  C   UNL     1      10.009  -3.461  -7.873  1.00  0.00     0.130 C 
ATOM     13  O   UNL     1       9.390  -3.525  -8.924  1.00  0.00    -0.300 OA
ATOM     14  C   UNL     1      11.101  -2.448  -7.712  1.00  0.00     0.087 C 
ENDBRANCH  11  12
ENDBRANCH  10  11
ENDBRANCH   2  10
TORSDOF 6
ENDMDL
MODEL 9
REMARK VINA RESULT:    -2.356     22.626     24.751
REMARK INTER + INTRA:          -3.807
REMARK INTER:                  -3.017
REMARK INTRA:                  -0.789
REMARK UNBOUND:                -0.624
REMARK SMILES CC(=O)CCC=C(C)CCC=C(C)C
REMARK SMILES IDX 7 1 6 2 8 3 9 4 10 5 11 6 13 7 12 8 14 9 5 10 4 11 2 12 3 13
REMARK SMILES IDX 1 14
REMARK H PARENT
REMARK Flexibility Score: inf
ROOT
ATOM      1  C   UNL     1       8.122  -2.717  -3.530  1.00  0.00    -0.077 C 
ATOM      2  C   UNL     1       9.147  -3.184  -2.782  1.00  0.00    -0.028 C 
ATOM      3  C   UNL     1       6.681  -3.023  -3.190  1.00  0.00     0.039 C 
ENDROOT
BRANCH   1   4
ATOM      4  C   UNL     1       8.427  -1.878  -4.752  1.00  0.00     0.034 C 
BRANCH   4   5
ATOM      5  C   UNL     1       9.862  -2.118  -5.233  1.00  0.00     0.032 C 
BRANCH   5   6
ATOM      6  C   UNL     1       9.906  -2.264  -6.733  1.00  0.00    -0.028 C 
ATOM      7  C   UNL     1       9.859  -3.434  -8.893  1.00  0.00     0.039 C 
ATOM      8  C   UNL     1       9.852  -3.445  -7.387  1.00  0.00    -0.080 C 
ATOM      9  C   UNL     1       9.804  -4.765  -6.653  1.00  0.00     0.039 C 
ENDBRANCH   5   6
ENDBRANCH   4   5
ENDBRANCH   1   4
BRANCH   2  10
ATOM     10  C   UNL     1       8.984  -3.996  -1.522  1.00  0.00     0.035 C 
BRANCH  10  11
ATOM     11  C   UNL     1      10.303  -4.675  -1.139  1.00  0.00     0.079 C 
BRANCH  11  12
ATOM     12  C   UNL     1      10.326  -6.102  -1.615  1.00  0.00     0.130 C 
ATOM     13  O   UNL     1       9.810  -6.976  -0.935  1.00  0.00    -0.300 OA
ATOM     14  C   UNL     1      10.968  -6.455  -2.921  1.00  0.00     0.087 C 
ENDBRANCH  11  12
ENDBRANCH  10  11
ENDBRANCH   2  10
TORSDOF 6
ENDMDL
