MODEL 1
REMARK VINA RESULT:    -4.997      0.000      0.000
REMARK INTER + INTRA:          -6.249
REMARK INTER:                  -6.165
REMARK INTRA:                  -0.084
REMARK UNBOUND:                -0.084
REMARK SMILES O=c1c(O)c(-c2cc(O)c(O)c(O)c2)oc2cc(O)cc(O)c12
REMARK SMILES IDX 5 1 3 2 2 3 1 4 23 5 21 6 20 7 18 8 17 9 16 10 15 11 6 12
REMARK SMILES IDX 7 13 8 14 14 15 10 16 12 17 9 18 11 20 13 22 4 24 22 26
REMARK SMILES IDX 19 28
REMARK H PARENT 9 19 11 21 13 23 4 25 22 27 19 29
REMARK Flexibility Score: inf
ROOT
ATOM      1  C   UNL     1       8.342 -31.753  15.590  1.00  0.00     0.180 A 
ATOM      2  C   UNL     1       7.081 -32.265  15.237  1.00  0.00     0.208 A 
ATOM      3  C   UNL     1       7.000 -33.236  14.226  1.00  0.00     0.238 A 
ATOM      4  O   UNL     1       5.875 -33.730  13.952  1.00  0.00    -0.285 OA
ATOM      5  C   UNL     1       8.176 -33.671  13.570  1.00  0.00     0.111 A 
ATOM      6  C   UNL     1       8.206 -34.620  12.504  1.00  0.00     0.134 A 
ATOM      7  C   UNL     1       9.439 -35.073  12.017  1.00  0.00     0.093 A 
ATOM      8  C   UNL     1      10.641 -34.562  12.514  1.00  0.00     0.123 A 
ATOM      9  C   UNL     1      10.620 -33.591  13.512  1.00  0.00     0.094 A 
ATOM     10  C   UNL     1       9.407 -33.146  14.042  1.00  0.00     0.146 A 
ATOM     11  O   UNL     1       9.432 -32.228  15.002  1.00  0.00    -0.452 OA
ENDROOT
BRANCH   1  12
ATOM     12  C   UNL     1       8.505 -30.709  16.627  1.00  0.00     0.029 A 
ATOM     13  C   UNL     1       8.044 -30.953  17.930  1.00  0.00     0.062 A 
ATOM     14  C   UNL     1       8.203 -29.991  18.937  1.00  0.00     0.162 A 
ATOM     15  C   UNL     1       9.164 -29.499  16.351  1.00  0.00     0.062 A 
ATOM     16  C   UNL     1       8.846 -28.775  18.647  1.00  0.00     0.200 A 
ATOM     17  C   UNL     1       9.329 -28.534  17.353  1.00  0.00     0.162 A 
BRANCH  14  18
ATOM     18  O   UNL     1       7.729 -30.240  20.224  1.00  0.00    -0.504 OA
ATOM     19  H   UNL     1       6.866 -30.746  20.383  1.00  0.00     0.293 HD
ENDBRANCH  14  18
BRANCH  16  20
ATOM     20  O   UNL     1       9.015 -27.801  19.630  1.00  0.00    -0.502 OA
ATOM     21  H   UNL     1       9.903 -27.652  20.094  1.00  0.00     0.293 HD
ENDBRANCH  16  20
BRANCH  17  22
ATOM     22  O   UNL     1       9.977 -27.333  17.074  1.00  0.00    -0.504 OA
ATOM     23  H   UNL     1      10.125 -26.630  17.790  1.00  0.00     0.293 HD
ENDBRANCH  17  22
ENDBRANCH   1  12
BRANCH   2  24
ATOM     24  O   UNL     1       5.934 -31.838  15.912  1.00  0.00    -0.502 OA
ATOM     25  H   UNL     1       5.969 -31.196  16.693  1.00  0.00     0.293 HD
ENDBRANCH   2  24
BRANCH   6  26
ATOM     26  O   UNL     1       7.064 -35.123  11.875  1.00  0.00    -0.507 OA
ATOM     27  H   UNL     1       6.147 -35.159  12.292  1.00  0.00     0.293 HD
ENDBRANCH   6  26
BRANCH   8  28
ATOM     28  O   UNL     1      11.862 -35.007  12.013  1.00  0.00    -0.508 OA
ATOM     29  H   UNL     1      11.966 -35.932  11.614  1.00  0.00     0.293 HD
ENDBRANCH   8  28
TORSDOF 7
ENDMDL
