MODEL 1
REMARK VINA RESULT:    -3.683      0.000      0.000
REMARK INTER + INTRA:          -7.909
REMARK INTER:                  -6.482
REMARK INTRA:                  -1.427
REMARK UNBOUND:                -1.427
REMARK SMILES CCCCCCCCCCCCCCC(=O)[O-]
REMARK SMILES IDX 9 1 10 2 11 3 12 4 13 5 14 6 15 7 16 8 17 9 8 10 7 11 6 12
REMARK SMILES IDX 5 13 4 14 3 15 2 16 1 17
REMARK H PARENT
REMARK Flexibility Score: inf
ROOT
ATOM      1  C   UNL     1       1.919  -0.648   9.945  1.00  0.00     0.000 C 
ENDROOT
BRANCH   1   2
ATOM      2  C   UNL     1       3.028   0.328   9.536  1.00  0.00     0.000 C 
BRANCH   2   3
ATOM      3  C   UNL     1       2.538   1.782   9.614  1.00  0.00     0.000 C 
BRANCH   3   4
ATOM      4  C   UNL     1       2.889   2.594   8.357  1.00  0.00     0.000 C 
BRANCH   4   5
ATOM      5  C   UNL     1       4.289   2.271   7.815  1.00  0.00     0.006 C 
BRANCH   5   6
ATOM      6  C   UNL     1       5.101   3.552   7.598  1.00  0.00     0.053 C 
BRANCH   6   7
ATOM      7  C   UNL     1       6.567   3.262   7.669  1.00  0.00     0.041 C 
ATOM      8  O   UNL     1       6.974   2.170   8.149  1.00  0.00    -0.550 OA
ATOM      9  O   UNL     1       7.486   4.215   7.251  1.00  0.00    -0.550 OA
ENDBRANCH   6   7
ENDBRANCH   5   6
ENDBRANCH   4   5
ENDBRANCH   3   4
ENDBRANCH   2   3
ENDBRANCH   1   2
BRANCH   1  10
ATOM     10  C   UNL     1       1.458  -1.491   8.750  1.00  0.00     0.000 C 
BRANCH  10  11
ATOM     11  C   UNL     1      -0.014  -1.219   8.419  1.00  0.00    -0.000 C 
BRANCH  11  12
ATOM     12  C   UNL     1      -0.163   0.059   7.584  1.00  0.00    -0.000 C 
BRANCH  12  13
ATOM     13  C   UNL     1      -0.895   1.150   8.374  1.00  0.00    -0.000 C 
BRANCH  13  14
ATOM     14  C   UNL     1      -1.935   0.535   9.325  1.00  0.00    -0.000 C 
BRANCH  14  15
ATOM     15  C   UNL     1      -3.376   0.917   8.952  1.00  0.00    -0.000 C 
BRANCH  15  16
ATOM     16  C   UNL     1      -4.192  -0.278   8.439  1.00  0.00    -0.003 C 
ATOM     17  C   UNL     1      -3.781  -1.566   9.145  1.00  0.00     0.004 C 
ENDBRANCH  15  16
ENDBRANCH  14  15
ENDBRANCH  13  14
ENDBRANCH  12  13
ENDBRANCH  11  12
ENDBRANCH  10  11
ENDBRANCH   1  10
TORSDOF 13
ENDMDL
MODEL 2
REMARK VINA RESULT:    -3.648      1.975      2.863
REMARK INTER + INTRA:          -7.848
REMARK INTER:                  -5.738
REMARK INTRA:                  -2.110
REMARK UNBOUND:                -1.427
REMARK SMILES CCCCCCCCCCCCCCC(=O)[O-]
REMARK SMILES IDX 9 1 10 2 11 3 12 4 13 5 14 6 15 7 16 8 17 9 8 10 7 11 6 12
REMARK SMILES IDX 5 13 4 14 3 15 2 16 1 17
REMARK H PARENT
REMARK Flexibility Score: inf
ROOT
ATOM      1  C   UNL     1       2.506   0.422  10.426  1.00  0.00     0.000 C 
ENDROOT
BRANCH   1   2
ATOM      2  C   UNL     1       2.753   1.854   9.938  1.00  0.00     0.000 C 
BRANCH   2   3
ATOM      3  C   UNL     1       3.100   1.873   8.442  1.00  0.00     0.000 C 
BRANCH   3   4
ATOM      4  C   UNL     1       4.340   2.727   8.132  1.00  0.00     0.000 C 
BRANCH   4   5
ATOM      5  C   UNL     1       5.459   1.921   7.454  1.00  0.00     0.006 C 
BRANCH   5   6
ATOM      6  C   UNL     1       6.673   1.786   8.379  1.00  0.00     0.053 C 
BRANCH   6   7
ATOM      7  C   UNL     1       6.492   0.632   9.315  1.00  0.00     0.041 C 
ATOM      8  O   UNL     1       6.158   0.835  10.513  1.00  0.00    -0.550 OA
ATOM      9  O   UNL     1       6.739  -0.663   8.879  1.00  0.00    -0.550 OA
ENDBRANCH   6   7
ENDBRANCH   5   6
ENDBRANCH   4   5
ENDBRANCH   3   4
ENDBRANCH   2   3
ENDBRANCH   1   2
BRANCH   1  10
ATOM     10  C   UNL     1       3.026  -0.605   9.412  1.00  0.00     0.000 C 
BRANCH  10  11
ATOM     11  C   UNL     1       2.061  -1.788   9.282  1.00  0.00    -0.000 C 
BRANCH  11  12
ATOM     12  C   UNL     1       0.603  -1.310   9.258  1.00  0.00    -0.000 C 
BRANCH  12  13
ATOM     13  C   UNL     1       0.150  -0.996   7.828  1.00  0.00    -0.000 C 
BRANCH  13  14
ATOM     14  C   UNL     1      -0.261   0.479   7.693  1.00  0.00    -0.000 C 
BRANCH  14  15
ATOM     15  C   UNL     1      -1.458   0.843   8.585  1.00  0.00    -0.000 C 
BRANCH  15  16
ATOM     16  C   UNL     1      -1.157   2.016   9.529  1.00  0.00    -0.003 C 
ATOM     17  C   UNL     1      -0.438   3.142   8.793  1.00  0.00     0.004 C 
ENDBRANCH  15  16
ENDBRANCH  14  15
ENDBRANCH  13  14
ENDBRANCH  12  13
ENDBRANCH  11  12
ENDBRANCH  10  11
ENDBRANCH   1  10
TORSDOF 13
ENDMDL
MODEL 3
REMARK VINA RESULT:    -3.629      1.819      4.121
REMARK INTER + INTRA:          -7.814
REMARK INTER:                  -6.027
REMARK INTRA:                  -1.787
REMARK UNBOUND:                -1.427
REMARK SMILES CCCCCCCCCCCCCCC(=O)[O-]
REMARK SMILES IDX 9 1 10 2 11 3 12 4 13 5 14 6 15 7 16 8 17 9 8 10 7 11 6 12
REMARK SMILES IDX 5 13 4 14 3 15 2 16 1 17
REMARK H PARENT
REMARK Flexibility Score: inf
ROOT
ATOM      1  C   UNL     1      -0.671   2.810   9.093  1.00  0.00     0.000 C 
ENDROOT
BRANCH   1   2
ATOM      2  C   UNL     1       0.555   3.122   9.960  1.00  0.00     0.000 C 
BRANCH   2   3
ATOM      3  C   UNL     1       1.786   3.413   9.089  1.00  0.00     0.000 C 
BRANCH   3   4
ATOM      4  C   UNL     1       1.483   3.320   7.585  1.00  0.00     0.000 C 
BRANCH   4   5
ATOM      5  C   UNL     1       2.497   4.093   6.728  1.00  0.00     0.006 C 
BRANCH   5   6
ATOM      6  C   UNL     1       3.933   3.749   7.138  1.00  0.00     0.053 C 
BRANCH   6   7
ATOM      7  C   UNL     1       4.822   4.943   6.986  1.00  0.00     0.041 C 
ATOM      8  O   UNL     1       6.074   4.811   7.034  1.00  0.00    -0.550 OA
ATOM      9  O   UNL     1       4.268   6.208   6.841  1.00  0.00    -0.550 OA
ENDBRANCH   6   7
ENDBRANCH   5   6
ENDBRANCH   4   5
ENDBRANCH   3   4
ENDBRANCH   2   3
ENDBRANCH   1   2
BRANCH   1  10
ATOM     10  C   UNL     1      -1.232   1.419   9.411  1.00  0.00     0.000 C 
BRANCH  10  11
ATOM     11  C   UNL     1      -1.436   0.602   8.130  1.00  0.00    -0.000 C 
BRANCH  11  12
ATOM     12  C   UNL     1      -0.104   0.043   7.615  1.00  0.00    -0.000 C 
BRANCH  12  13
ATOM     13  C   UNL     1       0.115  -1.394   8.101  1.00  0.00    -0.000 C 
BRANCH  13  14
ATOM     14  C   UNL     1       1.318  -1.473   9.055  1.00  0.00    -0.000 C 
BRANCH  14  15
ATOM     15  C   UNL     1       2.134  -0.172   9.088  1.00  0.00    -0.000 C 
BRANCH  15  16
ATOM     16  C   UNL     1       3.502  -0.348   9.764  1.00  0.00    -0.003 C 
ATOM     17  C   UNL     1       4.426   0.824   9.446  1.00  0.00     0.004 C 
ENDBRANCH  15  16
ENDBRANCH  14  15
ENDBRANCH  13  14
ENDBRANCH  12  13
ENDBRANCH  11  12
ENDBRANCH  10  11
ENDBRANCH   1  10
TORSDOF 13
ENDMDL
MODEL 4
REMARK VINA RESULT:    -3.612      2.592      5.699
REMARK INTER + INTRA:          -7.785
REMARK INTER:                  -6.519
REMARK INTRA:                  -1.266
REMARK UNBOUND:                -1.427
REMARK SMILES CCCCCCCCCCCCCCC(=O)[O-]
REMARK SMILES IDX 9 1 10 2 11 3 12 4 13 5 14 6 15 7 16 8 17 9 8 10 7 11 6 12
REMARK SMILES IDX 5 13 4 14 3 15 2 16 1 17
REMARK H PARENT
REMARK Flexibility Score: inf
ROOT
ATOM      1  C   UNL     1      -0.048  -0.685   8.819  1.00  0.00     0.000 C 
ENDROOT
BRANCH   1   2
ATOM      2  C   UNL     1       0.661  -1.977   8.394  1.00  0.00     0.000 C 
BRANCH   2   3
ATOM      3  C   UNL     1       2.003  -2.133   9.124  1.00  0.00     0.000 C 
BRANCH   3   4
ATOM      4  C   UNL     1       2.634  -0.783   9.500  1.00  0.00     0.000 C 
BRANCH   4   5
ATOM      5  C   UNL     1       3.956  -0.941  10.268  1.00  0.00     0.006 C 
BRANCH   5   6
ATOM      6  C   UNL     1       4.429  -2.399  10.249  1.00  0.00     0.053 C 
BRANCH   6   7
ATOM      7  C   UNL     1       5.870  -2.476   9.857  1.00  0.00     0.041 C 
ATOM      8  O   UNL     1       6.547  -1.423   9.722  1.00  0.00    -0.550 OA
ATOM      9  O   UNL     1       6.454  -3.709   9.594  1.00  0.00    -0.550 OA
ENDBRANCH   6   7
ENDBRANCH   5   6
ENDBRANCH   4   5
ENDBRANCH   3   4
ENDBRANCH   2   3
ENDBRANCH   1   2
BRANCH   1  10
ATOM     10  C   UNL     1      -0.241   0.257   7.624  1.00  0.00     0.000 C 
BRANCH  10  11
ATOM     11  C   UNL     1      -0.386   1.711   8.088  1.00  0.00    -0.000 C 
BRANCH  11  12
ATOM     12  C   UNL     1       0.987   2.361   8.301  1.00  0.00    -0.000 C 
BRANCH  12  13
ATOM     13  C   UNL     1       1.247   3.452   7.256  1.00  0.00    -0.000 C 
BRANCH  13  14
ATOM     14  C   UNL     1       2.751   3.748   7.134  1.00  0.00    -0.000 C 
BRANCH  14  15
ATOM     15  C   UNL     1       3.604   2.870   8.062  1.00  0.00    -0.000 C 
BRANCH  15  16
ATOM     16  C   UNL     1       5.098   2.912   7.709  1.00  0.00    -0.003 C 
ATOM     17  C   UNL     1       5.746   1.545   7.902  1.00  0.00     0.004 C 
ENDBRANCH  15  16
ENDBRANCH  14  15
ENDBRANCH  13  14
ENDBRANCH  12  13
ENDBRANCH  11  12
ENDBRANCH  10  11
ENDBRANCH   1  10
TORSDOF 13
ENDMDL
MODEL 5
REMARK VINA RESULT:    -3.607     12.223     14.189
REMARK INTER + INTRA:          -7.776
REMARK INTER:                  -5.722
REMARK INTRA:                  -2.055
REMARK UNBOUND:                -1.427
REMARK SMILES CCCCCCCCCCCCCCC(=O)[O-]
REMARK SMILES IDX 9 1 10 2 11 3 12 4 13 5 14 6 15 7 16 8 17 9 8 10 7 11 6 12
REMARK SMILES IDX 5 13 4 14 3 15 2 16 1 17
REMARK H PARENT
REMARK Flexibility Score: inf
ROOT
ATOM      1  C   UNL     1       2.031  -2.158  -5.493  1.00  0.00     0.000 C 
ENDROOT
BRANCH   1   2
ATOM      2  C   UNL     1       0.826  -1.788  -4.620  1.00  0.00     0.000 C 
BRANCH   2   3
ATOM      3  C   UNL     1       1.278  -1.152  -3.298  1.00  0.00     0.000 C 
BRANCH   3   4
ATOM      4  C   UNL     1       1.210  -2.131  -2.115  1.00  0.00     0.000 C 
BRANCH   4   5
ATOM      5  C   UNL     1       0.322  -3.350  -2.407  1.00  0.00     0.006 C 
BRANCH   5   6
ATOM      6  C   UNL     1       0.748  -4.552  -1.557  1.00  0.00     0.053 C 
BRANCH   6   7
ATOM      7  C   UNL     1      -0.389  -5.019  -0.704  1.00  0.00     0.041 C 
ATOM      8  O   UNL     1      -0.336  -4.889   0.548  1.00  0.00    -0.550 OA
ATOM      9  O   UNL     1      -1.486  -5.641  -1.285  1.00  0.00    -0.550 OA
ENDBRANCH   6   7
ENDBRANCH   5   6
ENDBRANCH   4   5
ENDBRANCH   3   4
ENDBRANCH   2   3
ENDBRANCH   1   2
BRANCH   1  10
ATOM     10  C   UNL     1       2.256  -3.675  -5.510  1.00  0.00     0.000 C 
BRANCH  10  11
ATOM     11  C   UNL     1       3.695  -4.023  -5.113  1.00  0.00    -0.000 C 
BRANCH  11  12
ATOM     12  C   UNL     1       3.777  -4.426  -3.636  1.00  0.00    -0.000 C 
BRANCH  12  13
ATOM     13  C   UNL     1       5.003  -3.798  -2.962  1.00  0.00    -0.000 C 
BRANCH  13  14
ATOM     14  C   UNL     1       4.802  -2.288  -2.754  1.00  0.00    -0.000 C 
BRANCH  14  15
ATOM     15  C   UNL     1       5.607  -1.441  -3.752  1.00  0.00    -0.000 C 
BRANCH  15  16
ATOM     16  C   UNL     1       4.890  -0.140  -4.137  1.00  0.00    -0.003 C 
ATOM     17  C   UNL     1       5.871   0.877  -4.712  1.00  0.00     0.004 C 
ENDBRANCH  15  16
ENDBRANCH  14  15
ENDBRANCH  13  14
ENDBRANCH  12  13
ENDBRANCH  11  12
ENDBRANCH  10  11
ENDBRANCH   1  10
TORSDOF 13
ENDMDL
MODEL 6
REMARK VINA RESULT:    -3.601     12.205     13.981
REMARK INTER + INTRA:          -7.765
REMARK INTER:                  -6.084
REMARK INTRA:                  -1.680
REMARK UNBOUND:                -1.427
REMARK SMILES CCCCCCCCCCCCCCC(=O)[O-]
REMARK SMILES IDX 9 1 10 2 11 3 12 4 13 5 14 6 15 7 16 8 17 9 8 10 7 11 6 12
REMARK SMILES IDX 5 13 4 14 3 15 2 16 1 17
REMARK H PARENT
REMARK Flexibility Score: inf
ROOT
ATOM      1  C   UNL     1       3.428  -2.431  -3.213  1.00  0.00     0.000 C 
ENDROOT
BRANCH   1   2
ATOM      2  C   UNL     1       2.504  -1.257  -2.870  1.00  0.00     0.000 C 
BRANCH   2   3
ATOM      3  C   UNL     1       1.090  -1.750  -2.531  1.00  0.00     0.000 C 
BRANCH   3   4
ATOM      4  C   UNL     1       0.628  -2.899  -3.441  1.00  0.00     0.000 C 
BRANCH   4   5
ATOM      5  C   UNL     1      -0.033  -4.044  -2.658  1.00  0.00     0.006 C 
BRANCH   5   6
ATOM      6  C   UNL     1       0.477  -4.086  -1.214  1.00  0.00     0.053 C 
BRANCH   6   7
ATOM      7  C   UNL     1      -0.270  -5.113  -0.424  1.00  0.00     0.041 C 
ATOM      8  O   UNL     1      -1.084  -5.884  -0.999  1.00  0.00    -0.550 OA
ATOM      9  O   UNL     1      -0.106  -5.187   0.953  1.00  0.00    -0.550 OA
ENDBRANCH   6   7
ENDBRANCH   5   6
ENDBRANCH   4   5
ENDBRANCH   3   4
ENDBRANCH   2   3
ENDBRANCH   1   2
BRANCH   1  10
ATOM     10  C   UNL     1       4.902  -2.031  -3.079  1.00  0.00     0.000 C 
BRANCH  10  11
ATOM     11  C   UNL     1       5.075  -0.514  -3.212  1.00  0.00    -0.000 C 
BRANCH  11  12
ATOM     12  C   UNL     1       5.866  -0.159  -4.478  1.00  0.00    -0.000 C 
BRANCH  12  13
ATOM     13  C   UNL     1       5.136   0.909  -5.300  1.00  0.00    -0.000 C 
BRANCH  13  14
ATOM     14  C   UNL     1       3.866   0.333  -5.945  1.00  0.00    -0.000 C 
BRANCH  14  15
ATOM     15  C   UNL     1       2.697   1.332  -5.947  1.00  0.00    -0.000 C 
BRANCH  15  16
ATOM     16  C   UNL     1       1.340   0.656  -5.707  1.00  0.00    -0.003 C 
ATOM     17  C   UNL     1       1.282  -0.712  -6.380  1.00  0.00     0.004 C 
ENDBRANCH  15  16
ENDBRANCH  14  15
ENDBRANCH  13  14
ENDBRANCH  12  13
ENDBRANCH  11  12
ENDBRANCH  10  11
ENDBRANCH   1  10
TORSDOF 13
ENDMDL
MODEL 7
REMARK VINA RESULT:    -3.599      7.361     11.117
REMARK INTER + INTRA:          -7.761
REMARK INTER:                  -7.012
REMARK INTRA:                  -0.748
REMARK UNBOUND:                -1.427
REMARK SMILES CCCCCCCCCCCCCCC(=O)[O-]
REMARK SMILES IDX 9 1 10 2 11 3 12 4 13 5 14 6 15 7 16 8 17 9 8 10 7 11 6 12
REMARK SMILES IDX 5 13 4 14 3 15 2 16 1 17
REMARK H PARENT
REMARK Flexibility Score: inf
ROOT
ATOM      1  C   UNL     1      -6.438  -3.617   9.583  1.00  0.00     0.000 C 
ENDROOT
BRANCH   1   2
ATOM      2  C   UNL     1      -6.889  -4.797   8.713  1.00  0.00     0.000 C 
BRANCH   2   3
ATOM      3  C   UNL     1      -5.707  -5.391   7.934  1.00  0.00     0.000 C 
BRANCH   3   4
ATOM      4  C   UNL     1      -5.937  -5.390   6.415  1.00  0.00     0.000 C 
BRANCH   4   5
ATOM      5  C   UNL     1      -7.420  -5.248   6.041  1.00  0.00     0.006 C 
BRANCH   5   6
ATOM      6  C   UNL     1      -7.580  -4.904   4.557  1.00  0.00     0.053 C 
BRANCH   6   7
ATOM      7  C   UNL     1      -8.387  -5.954   3.860  1.00  0.00     0.041 C 
ATOM      8  O   UNL     1      -9.467  -6.361   4.365  1.00  0.00    -0.550 OA
ATOM      9  O   UNL     1      -7.922  -6.519   2.680  1.00  0.00    -0.550 OA
ENDBRANCH   6   7
ENDBRANCH   5   6
ENDBRANCH   4   5
ENDBRANCH   3   4
ENDBRANCH   2   3
ENDBRANCH   1   2
BRANCH   1  10
ATOM     10  C   UNL     1      -5.041  -3.133   9.173  1.00  0.00     0.000 C 
BRANCH  10  11
ATOM     11  C   UNL     1      -4.814  -1.680   9.605  1.00  0.00    -0.000 C 
BRANCH  11  12
ATOM     12  C   UNL     1      -4.385  -0.812   8.415  1.00  0.00    -0.000 C 
BRANCH  12  13
ATOM     13  C   UNL     1      -3.563   0.394   8.882  1.00  0.00    -0.000 C 
BRANCH  13  14
ATOM     14  C   UNL     1      -2.083   0.018   9.051  1.00  0.00    -0.000 C 
BRANCH  14  15
ATOM     15  C   UNL     1      -1.163   0.784   8.087  1.00  0.00    -0.000 C 
BRANCH  15  16
ATOM     16  C   UNL     1       0.006  -0.071   7.577  1.00  0.00    -0.003 C 
ATOM     17  C   UNL     1       0.031  -1.432   8.267  1.00  0.00     0.004 C 
ENDBRANCH  15  16
ENDBRANCH  14  15
ENDBRANCH  13  14
ENDBRANCH  12  13
ENDBRANCH  11  12
ENDBRANCH  10  11
ENDBRANCH   1  10
TORSDOF 13
ENDMDL
MODEL 8
REMARK VINA RESULT:    -3.579     12.015     13.904
REMARK INTER + INTRA:          -7.726
REMARK INTER:                  -5.671
REMARK INTRA:                  -2.055
REMARK UNBOUND:                -1.427
REMARK SMILES CCCCCCCCCCCCCCC(=O)[O-]
REMARK SMILES IDX 9 1 10 2 11 3 12 4 13 5 14 6 15 7 16 8 17 9 8 10 7 11 6 12
REMARK SMILES IDX 5 13 4 14 3 15 2 16 1 17
REMARK H PARENT
REMARK Flexibility Score: inf
ROOT
ATOM      1  C   UNL     1       1.403  -1.589  -4.992  1.00  0.00     0.000 C 
ENDROOT
BRANCH   1   2
ATOM      2  C   UNL     1       1.320  -0.802  -3.678  1.00  0.00     0.000 C 
BRANCH   2   3
ATOM      3  C   UNL     1       1.409  -1.743  -2.467  1.00  0.00     0.000 C 
BRANCH   3   4
ATOM      4  C   UNL     1       0.871  -3.150  -2.769  1.00  0.00     0.000 C 
BRANCH   4   5
ATOM      5  C   UNL     1       0.332  -3.859  -1.516  1.00  0.00     0.006 C 
BRANCH   5   6
ATOM      6  C   UNL     1       0.867  -5.292  -1.427  1.00  0.00     0.053 C 
BRANCH   6   7
ATOM      7  C   UNL     1       0.509  -5.903  -0.109  1.00  0.00     0.041 C 
ATOM      8  O   UNL     1       0.899  -7.066   0.176  1.00  0.00    -0.550 OA
ATOM      9  O   UNL     1      -0.297  -5.208   0.784  1.00  0.00    -0.550 OA
ENDBRANCH   6   7
ENDBRANCH   5   6
ENDBRANCH   4   5
ENDBRANCH   3   4
ENDBRANCH   2   3
ENDBRANCH   1   2
BRANCH   1  10
ATOM     10  C   UNL     1       2.631  -1.170  -5.810  1.00  0.00     0.000 C 
BRANCH  10  11
ATOM     11  C   UNL     1       3.354   0.011  -5.152  1.00  0.00    -0.000 C 
BRANCH  11  12
ATOM     12  C   UNL     1       4.833  -0.315  -4.910  1.00  0.00    -0.000 C 
BRANCH  12  13
ATOM     13  C   UNL     1       5.147  -0.371  -3.411  1.00  0.00    -0.000 C 
BRANCH  13  14
ATOM     14  C   UNL     1       4.952  -1.793  -2.861  1.00  0.00    -0.000 C 
BRANCH  14  15
ATOM     15  C   UNL     1       5.366  -2.878  -3.868  1.00  0.00    -0.000 C 
BRANCH  15  16
ATOM     16  C   UNL     1       4.300  -3.972  -4.031  1.00  0.00    -0.003 C 
ATOM     17  C   UNL     1       4.284  -4.906  -2.825  1.00  0.00     0.004 C 
ENDBRANCH  15  16
ENDBRANCH  14  15
ENDBRANCH  13  14
ENDBRANCH  12  13
ENDBRANCH  11  12
ENDBRANCH  10  11
ENDBRANCH   1  10
TORSDOF 13
ENDMDL
MODEL 9
REMARK VINA RESULT:    -3.561      1.521      2.135
REMARK INTER + INTRA:          -7.694
REMARK INTER:                  -6.052
REMARK INTRA:                  -1.642
REMARK UNBOUND:                -1.427
REMARK SMILES CCCCCCCCCCCCCCC(=O)[O-]
REMARK SMILES IDX 9 1 10 2 11 3 12 4 13 5 14 6 15 7 16 8 17 9 8 10 7 11 6 12
REMARK SMILES IDX 5 13 4 14 3 15 2 16 1 17
REMARK H PARENT
REMARK Flexibility Score: inf
ROOT
ATOM      1  C   UNL     1       0.983  -2.154   9.075  1.00  0.00     0.000 C 
ENDROOT
BRANCH   1   2
ATOM      2  C   UNL     1       2.075  -1.078   9.085  1.00  0.00     0.000 C 
BRANCH   2   3
ATOM      3  C   UNL     1       2.045  -0.275  10.394  1.00  0.00     0.000 C 
BRANCH   3   4
ATOM      4  C   UNL     1       2.596   1.150  10.228  1.00  0.00     0.000 C 
BRANCH   4   5
ATOM      5  C   UNL     1       2.517   1.650   8.778  1.00  0.00     0.006 C 
BRANCH   5   6
ATOM      6  C   UNL     1       3.885   2.143   8.294  1.00  0.00     0.053 C 
BRANCH   6   7
ATOM      7  C   UNL     1       3.762   3.497   7.669  1.00  0.00     0.041 C 
ATOM      8  O   UNL     1       2.862   3.721   6.816  1.00  0.00    -0.550 OA
ATOM      9  O   UNL     1       4.671   4.496   7.990  1.00  0.00    -0.550 OA
ENDBRANCH   6   7
ENDBRANCH   5   6
ENDBRANCH   4   5
ENDBRANCH   3   4
ENDBRANCH   2   3
ENDBRANCH   1   2
BRANCH   1  10
ATOM     10  C   UNL     1      -0.373  -1.560   8.673  1.00  0.00     0.000 C 
BRANCH  10  11
ATOM     11  C   UNL     1      -0.201  -0.457   7.623  1.00  0.00    -0.000 C 
BRANCH  11  12
ATOM     12  C   UNL     1      -1.054   0.770   7.969  1.00  0.00    -0.000 C 
BRANCH  12  13
ATOM     13  C   UNL     1      -1.609   0.671   9.394  1.00  0.00    -0.000 C 
BRANCH  13  14
ATOM     14  C   UNL     1      -3.133   0.874   9.405  1.00  0.00    -0.000 C 
BRANCH  14  15
ATOM     15  C   UNL     1      -3.841   0.103   8.280  1.00  0.00    -0.000 C 
BRANCH  15  16
ATOM     16  C   UNL     1      -4.395  -1.251   8.748  1.00  0.00    -0.003 C 
ATOM     17  C   UNL     1      -4.588  -1.272  10.260  1.00  0.00     0.004 C 
ENDBRANCH  15  16
ENDBRANCH  14  15
ENDBRANCH  13  14
ENDBRANCH  12  13
ENDBRANCH  11  12
ENDBRANCH  10  11
ENDBRANCH   1  10
TORSDOF 13
ENDMDL
