MODEL 1
REMARK VINA RESULT:    -4.531      0.000      0.000
REMARK INTER + INTRA:          -5.129
REMARK INTER:                  -4.929
REMARK INTRA:                  -0.200
REMARK UNBOUND:                -0.200
REMARK SMILES C=C(C)[C@H]1CC[C@@H](C)C[C@@H]1O
REMARK SMILES IDX 8 1 7 2 6 3 5 4 4 5 10 6 9 7 11 8 2 10 1 11 3 12
REMARK H PARENT 11 9
REMARK Flexibility Score: inf
ROOT
ATOM      1  C   UNL     1     147.383 137.929 140.925  1.00  0.00     0.008 C 
ATOM      2  C   UNL     1     148.887 138.243 140.867  1.00  0.00    -0.012 C 
ATOM      3  C   UNL     1     149.374 138.986 142.127  1.00  0.00     0.004 C 
ATOM      4  C   UNL     1     148.917 140.450 142.157  1.00  0.00     0.011 C 
ATOM      5  C   UNL     1     149.348 141.197 140.878  1.00  0.00     0.043 C 
ATOM      6  C   UNL     1     148.816 140.483 139.610  1.00  0.00     0.121 C 
ATOM      7  C   UNL     1     149.272 139.014 139.586  1.00  0.00     0.035 C 
ENDROOT
BRANCH   6   8
ATOM      8  O   UNL     1     149.312 141.120 138.460  1.00  0.00    -0.392 OA
ATOM      9  H   UNL     1     149.746 140.420 137.903  1.00  0.00     0.210 HD
ENDBRANCH   6   8
BRANCH   5  10
ATOM     10  C   UNL     1     148.914 142.657 140.932  1.00  0.00    -0.075 C 
ATOM     11  C   UNL     1     147.616 142.997 141.000  1.00  0.00     0.008 C 
ATOM     12  C   UNL     1     149.946 143.754 140.906  1.00  0.00     0.039 C 
ENDBRANCH   5  10
TORSDOF 2
ENDMDL
MODEL 2
REMARK VINA RESULT:    -4.267     12.647     14.378
REMARK INTER + INTRA:          -4.841
REMARK INTER:                  -4.690
REMARK INTRA:                  -0.152
REMARK UNBOUND:                -0.200
REMARK SMILES C=C(C)[C@H]1CC[C@@H](C)C[C@@H]1O
REMARK SMILES IDX 8 1 7 2 6 3 5 4 4 5 10 6 9 7 11 8 2 10 1 11 3 12
REMARK H PARENT 11 9
REMARK Flexibility Score: inf
ROOT
ATOM      1  C   UNL     1     136.562 137.531 145.564  1.00  0.00     0.008 C 
ATOM      2  C   UNL     1     136.669 138.692 144.561  1.00  0.00    -0.012 C 
ATOM      3  C   UNL     1     135.330 139.436 144.391  1.00  0.00     0.004 C 
ATOM      4  C   UNL     1     134.310 138.629 143.577  1.00  0.00     0.011 C 
ATOM      5  C   UNL     1     134.888 138.217 142.208  1.00  0.00     0.043 C 
ATOM      6  C   UNL     1     136.207 137.421 142.376  1.00  0.00     0.121 C 
ATOM      7  C   UNL     1     137.225 138.232 143.197  1.00  0.00     0.035 C 
ENDROOT
BRANCH   6   8
ATOM      8  O   UNL     1     136.767 137.153 141.115  1.00  0.00    -0.392 OA
ATOM      9  H   UNL     1     136.895 138.027 140.660  1.00  0.00     0.210 HD
ENDBRANCH   6   8
BRANCH   5  10
ATOM     10  C   UNL     1     133.856 137.441 141.397  1.00  0.00    -0.075 C 
ATOM     11  C   UNL     1     133.131 138.037 140.436  1.00  0.00     0.008 C 
ATOM     12  C   UNL     1     133.628 135.976 141.668  1.00  0.00     0.039 C 
ENDBRANCH   5  10
TORSDOF 2
ENDMDL
MODEL 3
REMARK VINA RESULT:    -4.237      1.386      1.795
REMARK INTER + INTRA:          -4.809
REMARK INTER:                  -4.662
REMARK INTRA:                  -0.148
REMARK UNBOUND:                -0.200
REMARK SMILES C=C(C)[C@H]1CC[C@@H](C)C[C@@H]1O
REMARK SMILES IDX 8 1 7 2 6 3 5 4 4 5 10 6 9 7 11 8 2 10 1 11 3 12
REMARK H PARENT 11 9
REMARK Flexibility Score: inf
ROOT
ATOM      1  C   UNL     1     147.904 137.797 138.641  1.00  0.00     0.008 C 
ATOM      2  C   UNL     1     149.194 138.591 138.379  1.00  0.00    -0.012 C 
ATOM      3  C   UNL     1     150.123 138.612 139.609  1.00  0.00     0.004 C 
ATOM      4  C   UNL     1     149.604 139.534 140.720  1.00  0.00     0.011 C 
ATOM      5  C   UNL     1     149.359 140.962 140.192  1.00  0.00     0.043 C 
ATOM      6  C   UNL     1     148.384 140.952 138.988  1.00  0.00     0.121 C 
ATOM      7  C   UNL     1     148.905 140.022 137.878  1.00  0.00     0.035 C 
ENDROOT
BRANCH   6   8
ATOM      8  O   UNL     1     148.263 142.249 138.460  1.00  0.00    -0.392 OA
ATOM      9  H   UNL     1     147.399 142.617 138.784  1.00  0.00     0.210 HD
ENDBRANCH   6   8
BRANCH   5  10
ATOM     10  C   UNL     1     148.872 141.876 141.310  1.00  0.00    -0.075 C 
ATOM     11  C   UNL     1     147.927 141.475 142.177  1.00  0.00     0.008 C 
ATOM     12  C   UNL     1     149.445 143.261 141.459  1.00  0.00     0.039 C 
ENDBRANCH   5  10
TORSDOF 2
ENDMDL
MODEL 4
REMARK VINA RESULT:    -4.227      1.818      4.311
REMARK INTER + INTRA:          -4.798
REMARK INTER:                  -4.602
REMARK INTRA:                  -0.196
REMARK UNBOUND:                -0.200
REMARK SMILES C=C(C)[C@H]1CC[C@@H](C)C[C@@H]1O
REMARK SMILES IDX 8 1 7 2 6 3 5 4 4 5 10 6 9 7 11 8 2 10 1 11 3 12
REMARK H PARENT 11 9
REMARK Flexibility Score: inf
ROOT
ATOM      1  C   UNL     1     147.498 142.673 141.232  1.00  0.00     0.008 C 
ATOM      2  C   UNL     1     148.946 142.260 141.543  1.00  0.00    -0.012 C 
ATOM      3  C   UNL     1     149.787 142.084 140.264  1.00  0.00     0.004 C 
ATOM      4  C   UNL     1     149.428 140.803 139.498  1.00  0.00     0.011 C 
ATOM      5  C   UNL     1     149.539 139.561 140.404  1.00  0.00     0.043 C 
ATOM      6  C   UNL     1     148.654 139.710 141.667  1.00  0.00     0.121 C 
ATOM      7  C   UNL     1     149.013 140.997 142.429  1.00  0.00     0.035 C 
ENDROOT
BRANCH   6   8
ATOM      8  O   UNL     1     148.856 138.616 142.525  1.00  0.00    -0.392 OA
ATOM      9  H   UNL     1     148.170 138.676 143.242  1.00  0.00     0.210 HD
ENDBRANCH   6   8
BRANCH   5  10
ATOM     10  C   UNL     1     149.208 138.293 139.626  1.00  0.00    -0.075 C 
ATOM     11  C   UNL     1     150.125 137.328 139.439  1.00  0.00     0.008 C 
ATOM     12  C   UNL     1     147.832 138.101 139.042  1.00  0.00     0.039 C 
ENDBRANCH   5  10
TORSDOF 2
ENDMDL
MODEL 5
REMARK VINA RESULT:    -4.210     12.147     13.714
REMARK INTER + INTRA:          -4.780
REMARK INTER:                  -4.599
REMARK INTRA:                  -0.181
REMARK UNBOUND:                -0.200
REMARK SMILES C=C(C)[C@H]1CC[C@@H](C)C[C@@H]1O
REMARK SMILES IDX 8 1 7 2 6 3 5 4 4 5 10 6 9 7 11 8 2 10 1 11 3 12
REMARK H PARENT 11 9
REMARK Flexibility Score: inf
ROOT
ATOM      1  C   UNL     1     146.645 148.876 130.100  1.00  0.00     0.008 C 
ATOM      2  C   UNL     1     146.103 147.593 130.752  1.00  0.00    -0.012 C 
ATOM      3  C   UNL     1     145.192 146.797 129.799  1.00  0.00     0.004 C 
ATOM      4  C   UNL     1     143.820 147.458 129.610  1.00  0.00     0.011 C 
ATOM      5  C   UNL     1     143.123 147.696 130.965  1.00  0.00     0.043 C 
ATOM      6  C   UNL     1     144.014 148.542 131.909  1.00  0.00     0.121 C 
ATOM      7  C   UNL     1     145.390 147.878 132.092  1.00  0.00     0.035 C 
ENDROOT
BRANCH   6   8
ATOM      8  O   UNL     1     143.404 148.652 133.170  1.00  0.00    -0.392 OA
ATOM      9  H   UNL     1     142.615 149.246 133.062  1.00  0.00     0.210 HD
ENDBRANCH   6   8
BRANCH   5  10
ATOM     10  C   UNL     1     141.750 148.326 130.763  1.00  0.00    -0.075 C 
ATOM     11  C   UNL     1     140.624 147.607 130.902  1.00  0.00     0.008 C 
ATOM     12  C   UNL     1     141.634 149.783 130.396  1.00  0.00     0.039 C 
ENDBRANCH   5  10
TORSDOF 2
ENDMDL
MODEL 6
REMARK VINA RESULT:    -4.199      1.751      3.089
REMARK INTER + INTRA:          -4.767
REMARK INTER:                  -4.569
REMARK INTRA:                  -0.197
REMARK UNBOUND:                -0.200
REMARK SMILES C=C(C)[C@H]1CC[C@@H](C)C[C@@H]1O
REMARK SMILES IDX 8 1 7 2 6 3 5 4 4 5 10 6 9 7 11 8 2 10 1 11 3 12
REMARK H PARENT 11 9
REMARK Flexibility Score: inf
ROOT
ATOM      1  C   UNL     1     149.457 138.896 142.133  1.00  0.00     0.008 C 
ATOM      2  C   UNL     1     148.473 140.077 142.143  1.00  0.00    -0.012 C 
ATOM      3  C   UNL     1     147.143 139.729 141.448  1.00  0.00     0.004 C 
ATOM      4  C   UNL     1     147.279 139.662 139.921  1.00  0.00     0.011 C 
ATOM      5  C   UNL     1     147.870 140.970 139.355  1.00  0.00     0.043 C 
ATOM      6  C   UNL     1     149.234 141.296 140.013  1.00  0.00     0.121 C 
ATOM      7  C   UNL     1     149.094 141.357 141.544  1.00  0.00     0.035 C 
ENDROOT
BRANCH   6   8
ATOM      8  O   UNL     1     149.697 142.543 139.560  1.00  0.00    -0.392 OA
ATOM      9  H   UNL     1     150.262 142.372 138.761  1.00  0.00     0.210 HD
ENDBRANCH   6   8
BRANCH   5  10
ATOM     10  C   UNL     1     147.974 140.902 137.836  1.00  0.00    -0.075 C 
ATOM     11  C   UNL     1     147.229 141.696 137.048  1.00  0.00     0.008 C 
ATOM     12  C   UNL     1     148.924 139.930 137.185  1.00  0.00     0.039 C 
ENDBRANCH   5  10
TORSDOF 2
ENDMDL
MODEL 7
REMARK VINA RESULT:    -4.118      2.000      3.592
REMARK INTER + INTRA:          -4.679
REMARK INTER:                  -4.506
REMARK INTRA:                  -0.173
REMARK UNBOUND:                -0.200
REMARK SMILES C=C(C)[C@H]1CC[C@@H](C)C[C@@H]1O
REMARK SMILES IDX 8 1 7 2 6 3 5 4 4 5 10 6 9 7 11 8 2 10 1 11 3 12
REMARK H PARENT 11 9
REMARK Flexibility Score: inf
ROOT
ATOM      1  C   UNL     1     147.672 141.134 142.509  1.00  0.00     0.008 C 
ATOM      2  C   UNL     1     148.995 141.224 141.732  1.00  0.00    -0.012 C 
ATOM      3  C   UNL     1     149.020 142.423 140.765  1.00  0.00     0.004 C 
ATOM      4  C   UNL     1     148.139 142.198 139.530  1.00  0.00     0.011 C 
ATOM      5  C   UNL     1     148.522 140.895 138.800  1.00  0.00     0.043 C 
ATOM      6  C   UNL     1     148.447 139.677 139.755  1.00  0.00     0.121 C 
ATOM      7  C   UNL     1     149.329 139.910 140.995  1.00  0.00     0.035 C 
ENDROOT
BRANCH   6   8
ATOM      8  O   UNL     1     148.904 138.524 139.096  1.00  0.00    -0.392 OA
ATOM      9  H   UNL     1     148.123 137.919 138.990  1.00  0.00     0.210 HD
ENDBRANCH   6   8
BRANCH   5  10
ATOM     10  C   UNL     1     147.659 140.696 137.559  1.00  0.00    -0.075 C 
ATOM     11  C   UNL     1     148.210 140.504 136.348  1.00  0.00     0.008 C 
ATOM     12  C   UNL     1     146.156 140.718 137.672  1.00  0.00     0.039 C 
ENDBRANCH   5  10
TORSDOF 2
ENDMDL
MODEL 8
REMARK VINA RESULT:    -4.103     11.780     13.543
REMARK INTER + INTRA:          -4.662
REMARK INTER:                  -4.469
REMARK INTRA:                  -0.193
REMARK UNBOUND:                -0.200
REMARK SMILES C=C(C)[C@H]1CC[C@@H](C)C[C@@H]1O
REMARK SMILES IDX 8 1 7 2 6 3 5 4 4 5 10 6 9 7 11 8 2 10 1 11 3 12
REMARK H PARENT 11 9
REMARK Flexibility Score: inf
ROOT
ATOM      1  C   UNL     1     133.561 137.426 144.587  1.00  0.00     0.008 C 
ATOM      2  C   UNL     1     134.156 138.676 143.917  1.00  0.00    -0.012 C 
ATOM      3  C   UNL     1     134.494 138.434 142.434  1.00  0.00     0.004 C 
ATOM      4  C   UNL     1     135.743 137.561 142.252  1.00  0.00     0.011 C 
ATOM      5  C   UNL     1     136.953 138.153 143.003  1.00  0.00     0.043 C 
ATOM      6  C   UNL     1     136.635 138.348 144.507  1.00  0.00     0.121 C 
ATOM      7  C   UNL     1     135.380 139.221 144.684  1.00  0.00     0.035 C 
ENDROOT
BRANCH   6   8
ATOM      8  O   UNL     1     137.713 138.987 145.144  1.00  0.00    -0.392 OA
ATOM      9  H   UNL     1     137.913 139.810 144.623  1.00  0.00     0.210 HD
ENDBRANCH   6   8
BRANCH   5  10
ATOM     10  C   UNL     1     138.193 137.292 142.792  1.00  0.00    -0.075 C 
ATOM     11  C   UNL     1     138.180 135.973 143.049  1.00  0.00     0.008 C 
ATOM     12  C   UNL     1     139.470 137.916 142.291  1.00  0.00     0.039 C 
ENDBRANCH   5  10
TORSDOF 2
ENDMDL
MODEL 9
REMARK VINA RESULT:    -4.064      1.455      3.986
REMARK INTER + INTRA:          -4.621
REMARK INTER:                  -4.449
REMARK INTRA:                  -0.172
REMARK UNBOUND:                -0.200
REMARK SMILES C=C(C)[C@H]1CC[C@@H](C)C[C@@H]1O
REMARK SMILES IDX 8 1 7 2 6 3 5 4 4 5 10 6 9 7 11 8 2 10 1 11 3 12
REMARK H PARENT 11 9
REMARK Flexibility Score: inf
ROOT
ATOM      1  C   UNL     1     149.756 143.470 141.273  1.00  0.00     0.008 C 
ATOM      2  C   UNL     1     148.525 142.647 141.688  1.00  0.00    -0.012 C 
ATOM      3  C   UNL     1     148.913 141.266 142.249  1.00  0.00     0.004 C 
ATOM      4  C   UNL     1     149.376 140.297 141.154  1.00  0.00     0.011 C 
ATOM      5  C   UNL     1     148.315 140.161 140.043  1.00  0.00     0.043 C 
ATOM      6  C   UNL     1     147.960 141.543 139.438  1.00  0.00     0.121 C 
ATOM      7  C   UNL     1     147.501 142.513 140.541  1.00  0.00     0.035 C 
ENDROOT
BRANCH   6   8
ATOM      8  O   UNL     1     146.917 141.404 138.507  1.00  0.00    -0.392 OA
ATOM      9  H   UNL     1     147.301 141.584 137.609  1.00  0.00     0.210 HD
ENDBRANCH   6   8
BRANCH   5  10
ATOM     10  C   UNL     1     148.774 139.175 138.975  1.00  0.00    -0.075 C 
ATOM     11  C   UNL     1     150.003 139.249 138.437  1.00  0.00     0.008 C 
ATOM     12  C   UNL     1     147.843 138.091 138.496  1.00  0.00     0.039 C 
ENDBRANCH   5  10
TORSDOF 2
ENDMDL
