MODEL 1
REMARK VINA RESULT:    -5.085      0.000      0.000
REMARK INTER + INTRA:          -5.717
REMARK INTER:                  -5.531
REMARK INTRA:                  -0.186
REMARK UNBOUND:                -0.186
REMARK SMILES Cc1ccc(C(C)C)c(O)c1
REMARK SMILES IDX 1 1 2 2 11 3 9 4 5 5 4 6 3 7 10 8 6 10 7 11 8 12
REMARK H PARENT 10 9
REMARK Flexibility Score: inf
ROOT
ATOM      1  C   UNL     1      -5.824  -6.743  11.391  1.00  0.00     0.044 C 
ATOM      2  C   UNL     1      -5.476  -5.909  12.588  1.00  0.00    -0.047 A 
ATOM      3  C   UNL     1      -4.321  -5.119  12.586  1.00  0.00     0.049 A 
ATOM      4  C   UNL     1      -3.958  -4.373  13.715  1.00  0.00     0.119 A 
ATOM      5  C   UNL     1      -4.790  -4.378  14.866  1.00  0.00    -0.004 A 
ATOM      6  C   UNL     1      -5.914  -5.232  14.874  1.00  0.00     0.008 A 
ATOM      7  C   UNL     1      -6.253  -5.985  13.749  1.00  0.00     0.004 A 
ENDROOT
BRANCH   4   8
ATOM      8  O   UNL     1      -2.754  -3.664  13.652  1.00  0.00    -0.508 OA
ATOM      9  H   UNL     1      -1.948  -3.866  14.224  1.00  0.00     0.293 HD
ENDBRANCH   4   8
BRANCH   5  10
ATOM     10  C   UNL     1      -4.451  -3.546  16.100  1.00  0.00     0.017 C 
ATOM     11  C   UNL     1      -4.547  -4.407  17.362  1.00  0.00     0.012 C 
ATOM     12  C   UNL     1      -5.315  -2.281  16.237  1.00  0.00     0.012 C 
ENDBRANCH   5  10
TORSDOF 2
ENDMDL
MODEL 2
REMARK VINA RESULT:    -4.850      2.074      3.684
REMARK INTER + INTRA:          -5.461
REMARK INTER:                  -5.272
REMARK INTRA:                  -0.189
REMARK UNBOUND:                -0.186
REMARK SMILES Cc1ccc(C(C)C)c(O)c1
REMARK SMILES IDX 1 1 2 2 11 3 9 4 5 5 4 6 3 7 10 8 6 10 7 11 8 12
REMARK H PARENT 10 9
REMARK Flexibility Score: inf
ROOT
ATOM      1  C   UNL     1      -8.248  -7.611  14.413  1.00  0.00     0.044 C 
ATOM      2  C   UNL     1      -7.003  -6.924  13.937  1.00  0.00    -0.047 A 
ATOM      3  C   UNL     1      -6.609  -5.706  14.503  1.00  0.00     0.049 A 
ATOM      4  C   UNL     1      -5.475  -5.029  14.035  1.00  0.00     0.119 A 
ATOM      5  C   UNL     1      -4.682  -5.601  13.003  1.00  0.00    -0.004 A 
ATOM      6  C   UNL     1      -5.133  -6.795  12.400  1.00  0.00     0.008 A 
ATOM      7  C   UNL     1      -6.275  -7.448  12.863  1.00  0.00     0.004 A 
ENDROOT
BRANCH   4   8
ATOM      8  O   UNL     1      -5.190  -3.786  14.610  1.00  0.00    -0.508 OA
ATOM      9  H   UNL     1      -4.275  -3.510  14.935  1.00  0.00     0.293 HD
ENDBRANCH   4   8
BRANCH   5  10
ATOM     10  C   UNL     1      -3.417  -4.915  12.496  1.00  0.00     0.017 C 
ATOM     11  C   UNL     1      -3.759  -3.946  11.361  1.00  0.00     0.012 C 
ATOM     12  C   UNL     1      -2.324  -5.903  12.056  1.00  0.00     0.012 C 
ENDBRANCH   5  10
TORSDOF 2
ENDMDL
MODEL 3
REMARK VINA RESULT:    -4.764      2.347      3.946
REMARK INTER + INTRA:          -5.369
REMARK INTER:                  -5.179
REMARK INTRA:                  -0.190
REMARK UNBOUND:                -0.186
REMARK SMILES Cc1ccc(C(C)C)c(O)c1
REMARK SMILES IDX 1 1 2 2 11 3 9 4 5 5 4 6 3 7 10 8 6 10 7 11 8 12
REMARK H PARENT 10 9
REMARK Flexibility Score: inf
ROOT
ATOM      1  C   UNL     1      -3.944  -4.129  11.258  1.00  0.00     0.044 C 
ATOM      2  C   UNL     1      -4.842  -5.017  12.066  1.00  0.00    -0.047 A 
ATOM      3  C   UNL     1      -5.108  -4.719  13.408  1.00  0.00     0.049 A 
ATOM      4  C   UNL     1      -5.907  -5.565  14.188  1.00  0.00     0.119 A 
ATOM      5  C   UNL     1      -6.495  -6.720  13.606  1.00  0.00    -0.004 A 
ATOM      6  C   UNL     1      -6.162  -7.040  12.273  1.00  0.00     0.008 A 
ATOM      7  C   UNL     1      -5.349  -6.198  11.513  1.00  0.00     0.004 A 
ENDROOT
BRANCH   4   8
ATOM      8  O   UNL     1      -6.067  -5.229  15.536  1.00  0.00    -0.508 OA
ATOM      9  H   UNL     1      -6.667  -4.487  15.866  1.00  0.00     0.293 HD
ENDBRANCH   4   8
BRANCH   5  10
ATOM     10  C   UNL     1      -7.405  -7.644  14.412  1.00  0.00     0.017 C 
ATOM     11  C   UNL     1      -7.342  -9.068  13.853  1.00  0.00     0.012 C 
ATOM     12  C   UNL     1      -8.860  -7.153  14.484  1.00  0.00     0.012 C 
ENDBRANCH   5  10
TORSDOF 2
ENDMDL
MODEL 4
REMARK VINA RESULT:    -4.667     11.259     12.065
REMARK INTER + INTRA:          -5.262
REMARK INTER:                  -5.076
REMARK INTRA:                  -0.186
REMARK UNBOUND:                -0.186
REMARK SMILES Cc1ccc(C(C)C)c(O)c1
REMARK SMILES IDX 1 1 2 2 11 3 9 4 5 5 4 6 3 7 10 8 6 10 7 11 8 12
REMARK H PARENT 10 9
REMARK Flexibility Score: inf
ROOT
ATOM      1  C   UNL     1      -1.363  -7.456   3.842  1.00  0.00     0.044 C 
ATOM      2  C   UNL     1      -2.635  -6.755   3.471  1.00  0.00    -0.047 A 
ATOM      3  C   UNL     1      -3.872  -7.365   3.706  1.00  0.00     0.049 A 
ATOM      4  C   UNL     1      -5.067  -6.743   3.321  1.00  0.00     0.119 A 
ATOM      5  C   UNL     1      -5.034  -5.454   2.723  1.00  0.00    -0.004 A 
ATOM      6  C   UNL     1      -3.776  -4.884   2.433  1.00  0.00     0.008 A 
ATOM      7  C   UNL     1      -2.593  -5.525   2.805  1.00  0.00     0.004 A 
ENDROOT
BRANCH   4   8
ATOM      8  O   UNL     1      -6.254  -7.451   3.532  1.00  0.00    -0.508 OA
ATOM      9  H   UNL     1      -7.076  -7.362   2.954  1.00  0.00     0.293 HD
ENDBRANCH   4   8
BRANCH   5  10
ATOM     10  C   UNL     1      -6.316  -4.725   2.328  1.00  0.00     0.017 C 
ATOM     11  C   UNL     1      -6.744  -5.135   0.916  1.00  0.00     0.012 C 
ATOM     12  C   UNL     1      -6.205  -3.196   2.439  1.00  0.00     0.012 C 
ENDBRANCH   5  10
TORSDOF 2
ENDMDL
MODEL 5
REMARK VINA RESULT:    -4.612      9.880     10.842
REMARK INTER + INTRA:          -5.203
REMARK INTER:                  -5.011
REMARK INTRA:                  -0.192
REMARK UNBOUND:                -0.186
REMARK SMILES Cc1ccc(C(C)C)c(O)c1
REMARK SMILES IDX 1 1 2 2 11 3 9 4 5 5 4 6 3 7 10 8 6 10 7 11 8 12
REMARK H PARENT 10 9
REMARK Flexibility Score: inf
ROOT
ATOM      1  C   UNL     1      -4.238  -0.907   7.566  1.00  0.00     0.044 C 
ATOM      2  C   UNL     1      -4.353   0.569   7.325  1.00  0.00    -0.047 A 
ATOM      3  C   UNL     1      -5.597   1.204   7.418  1.00  0.00     0.049 A 
ATOM      4  C   UNL     1      -5.727   2.572   7.148  1.00  0.00     0.119 A 
ATOM      5  C   UNL     1      -4.580   3.343   6.819  1.00  0.00    -0.004 A 
ATOM      6  C   UNL     1      -3.347   2.673   6.666  1.00  0.00     0.008 A 
ATOM      7  C   UNL     1      -3.236   1.305   6.918  1.00  0.00     0.004 A 
ENDROOT
BRANCH   4   8
ATOM      8  O   UNL     1      -7.016   3.114   7.199  1.00  0.00    -0.508 OA
ATOM      9  H   UNL     1      -7.707   2.997   6.472  1.00  0.00     0.293 HD
ENDBRANCH   4   8
BRANCH   5  10
ATOM     10  C   UNL     1      -4.674   4.845   6.560  1.00  0.00     0.017 C 
ATOM     11  C   UNL     1      -3.702   5.252   5.449  1.00  0.00     0.012 C 
ATOM     12  C   UNL     1      -4.447   5.695   7.821  1.00  0.00     0.012 C 
ENDBRANCH   5  10
TORSDOF 2
ENDMDL
MODEL 6
REMARK VINA RESULT:    -4.597     10.796     11.971
REMARK INTER + INTRA:          -5.186
REMARK INTER:                  -4.999
REMARK INTRA:                  -0.188
REMARK UNBOUND:                -0.186
REMARK SMILES Cc1ccc(C(C)C)c(O)c1
REMARK SMILES IDX 1 1 2 2 11 3 9 4 5 5 4 6 3 7 10 8 6 10 7 11 8 12
REMARK H PARENT 10 9
REMARK Flexibility Score: inf
ROOT
ATOM      1  C   UNL     1      -4.072  -9.215   4.985  1.00  0.00     0.044 C 
ATOM      2  C   UNL     1      -3.663  -8.001   4.204  1.00  0.00    -0.047 A 
ATOM      3  C   UNL     1      -4.608  -7.296   3.451  1.00  0.00     0.049 A 
ATOM      4  C   UNL     1      -4.232  -6.189   2.679  1.00  0.00     0.119 A 
ATOM      5  C   UNL     1      -2.883  -5.743   2.689  1.00  0.00    -0.004 A 
ATOM      6  C   UNL     1      -1.933  -6.506   3.401  1.00  0.00     0.008 A 
ATOM      7  C   UNL     1      -2.319  -7.618   4.150  1.00  0.00     0.004 A 
ENDROOT
BRANCH   4   8
ATOM      8  O   UNL     1      -5.226  -5.582   1.904  1.00  0.00    -0.508 OA
ATOM      9  H   UNL     1      -5.247  -4.598   1.682  1.00  0.00     0.293 HD
ENDBRANCH   4   8
BRANCH   5  10
ATOM     10  C   UNL     1      -2.442  -4.517   1.894  1.00  0.00     0.017 C 
ATOM     11  C   UNL     1      -1.147  -4.816   1.134  1.00  0.00     0.012 C 
ATOM     12  C   UNL     1      -2.286  -3.255   2.759  1.00  0.00     0.012 C 
ENDBRANCH   5  10
TORSDOF 2
ENDMDL
MODEL 7
REMARK VINA RESULT:    -4.520      9.608     10.736
REMARK INTER + INTRA:          -5.103
REMARK INTER:                  -4.913
REMARK INTRA:                  -0.190
REMARK UNBOUND:                -0.186
REMARK SMILES Cc1ccc(C(C)C)c(O)c1
REMARK SMILES IDX 1 1 2 2 11 3 9 4 5 5 4 6 3 7 10 8 6 10 7 11 8 12
REMARK H PARENT 10 9
REMARK Flexibility Score: inf
ROOT
ATOM      1  C   UNL     1       1.637  -1.523  15.198  1.00  0.00     0.044 C 
ATOM      2  C   UNL     1       2.330  -0.193  15.158  1.00  0.00    -0.047 A 
ATOM      3  C   UNL     1       3.727  -0.127  15.093  1.00  0.00     0.049 A 
ATOM      4  C   UNL     1       4.390   1.107  15.103  1.00  0.00     0.119 A 
ATOM      5  C   UNL     1       3.640   2.314  15.134  1.00  0.00    -0.004 A 
ATOM      6  C   UNL     1       2.238   2.226  15.267  1.00  0.00     0.008 A 
ATOM      7  C   UNL     1       1.592   0.989  15.275  1.00  0.00     0.004 A 
ENDROOT
BRANCH   4   8
ATOM      8  O   UNL     1       5.788   1.082  15.102  1.00  0.00    -0.508 OA
ATOM      9  H   UNL     1       6.365   1.688  15.667  1.00  0.00     0.293 HD
ENDBRANCH   4   8
BRANCH   5  10
ATOM     10  C   UNL     1       4.324   3.679  15.104  1.00  0.00     0.017 C 
ATOM     11  C   UNL     1       3.654   4.628  16.101  1.00  0.00     0.012 C 
ATOM     12  C   UNL     1       4.368   4.306  13.701  1.00  0.00     0.012 C 
ENDBRANCH   5  10
TORSDOF 2
ENDMDL
MODEL 8
REMARK VINA RESULT:    -4.505      9.266     10.516
REMARK INTER + INTRA:          -5.086
REMARK INTER:                  -4.904
REMARK INTRA:                  -0.182
REMARK UNBOUND:                -0.186
REMARK SMILES Cc1ccc(C(C)C)c(O)c1
REMARK SMILES IDX 1 1 2 2 11 3 9 4 5 5 4 6 3 7 10 8 6 10 7 11 8 12
REMARK H PARENT 10 9
REMARK Flexibility Score: inf
ROOT
ATOM      1  C   UNL     1       0.881   0.548   6.944  1.00  0.00     0.044 C 
ATOM      2  C   UNL     1       1.048  -0.942   6.918  1.00  0.00    -0.047 A 
ATOM      3  C   UNL     1       2.286  -1.508   6.593  1.00  0.00     0.049 A 
ATOM      4  C   UNL     1       2.444  -2.898   6.519  1.00  0.00     0.119 A 
ATOM      5  C   UNL     1       1.350  -3.753   6.819  1.00  0.00    -0.004 A 
ATOM      6  C   UNL     1       0.094  -3.164   7.078  1.00  0.00     0.008 A 
ATOM      7  C   UNL     1      -0.054  -1.778   7.130  1.00  0.00     0.004 A 
ENDROOT
BRANCH   4   8
ATOM      8  O   UNL     1       3.696  -3.378   6.123  1.00  0.00    -0.508 OA
ATOM      9  H   UNL     1       4.496  -2.790   5.941  1.00  0.00     0.293 HD
ENDBRANCH   4   8
BRANCH   5  10
ATOM     10  C   UNL     1       1.493  -5.273   6.789  1.00  0.00     0.017 C 
ATOM     11  C   UNL     1       0.511  -5.877   5.782  1.00  0.00     0.012 C 
ATOM     12  C   UNL     1       1.327  -5.926   8.171  1.00  0.00     0.012 C 
ENDBRANCH   5  10
TORSDOF 2
ENDMDL
MODEL 9
REMARK VINA RESULT:    -4.458      1.220      4.086
REMARK INTER + INTRA:          -5.036
REMARK INTER:                  -4.877
REMARK INTRA:                  -0.159
REMARK UNBOUND:                -0.186
REMARK SMILES Cc1ccc(C(C)C)c(O)c1
REMARK SMILES IDX 1 1 2 2 11 3 9 4 5 5 4 6 3 7 10 8 6 10 7 11 8 12
REMARK H PARENT 10 9
REMARK Flexibility Score: inf
ROOT
ATOM      1  C   UNL     1      -4.306  -2.173  16.132  1.00  0.00     0.044 C 
ATOM      2  C   UNL     1      -4.594  -3.375  15.284  1.00  0.00    -0.047 A 
ATOM      3  C   UNL     1      -3.617  -3.879  14.418  1.00  0.00     0.049 A 
ATOM      4  C   UNL     1      -3.888  -4.972  13.584  1.00  0.00     0.119 A 
ATOM      5  C   UNL     1      -5.155  -5.612  13.644  1.00  0.00    -0.004 A 
ATOM      6  C   UNL     1      -6.149  -5.049  14.474  1.00  0.00     0.008 A 
ATOM      7  C   UNL     1      -5.871  -3.948  15.284  1.00  0.00     0.004 A 
ENDROOT
BRANCH   4   8
ATOM      8  O   UNL     1      -2.878  -5.369  12.703  1.00  0.00    -0.508 OA
ATOM      9  H   UNL     1      -3.008  -5.482  11.708  1.00  0.00     0.293 HD
ENDBRANCH   4   8
BRANCH   5  10
ATOM     10  C   UNL     1      -5.475  -6.831  12.783  1.00  0.00     0.017 C 
ATOM     11  C   UNL     1      -5.851  -6.393  11.365  1.00  0.00     0.012 C 
ATOM     12  C   UNL     1      -6.569  -7.729  13.382  1.00  0.00     0.012 C 
ENDBRANCH   5  10
TORSDOF 2
ENDMDL
