MODEL 1
REMARK VINA RESULT:    -3.962      0.000      0.000
REMARK INTER + INTRA:          -4.700
REMARK INTER:                  -4.541
REMARK INTRA:                  -0.159
REMARK UNBOUND:                -0.159
REMARK SMILES CC=Cc1ccc(O)c(OC)c1
REMARK SMILES IDX 4 1 12 2 9 3 7 4 6 5 5 6 3 7 1 8 2 9 10 10 11 11 8 12
REMARK H PARENT 8 13
REMARK Flexibility Score: inf
ROOT
ATOM      1  C   UNL     1       6.215  11.552   7.930  1.00  0.00    -0.022 A 
ATOM      2  C   UNL     1       7.379  10.888   7.509  1.00  0.00     0.058 A 
ATOM      3  C   UNL     1       8.527  11.611   7.129  1.00  0.00     0.161 A 
ATOM      4  C   UNL     1       8.498  13.011   7.163  1.00  0.00     0.157 A 
ATOM      5  C   UNL     1       7.337  13.680   7.567  1.00  0.00     0.051 A 
ATOM      6  C   UNL     1       6.202  12.960   7.944  1.00  0.00     0.012 A 
ENDROOT
BRANCH   1   7
ATOM      7  C   UNL     1       5.031  10.741   8.310  1.00  0.00     0.003 C 
ATOM      8  C   UNL     1       2.752   9.842   8.046  1.00  0.00     0.035 C 
ATOM      9  C   UNL     1       3.908  10.672   7.587  1.00  0.00    -0.030 C 
ENDBRANCH   1   7
BRANCH   3  10
ATOM     10  O   UNL     1       9.708  10.977   6.713  1.00  0.00    -0.493 OA
ATOM     11  C   UNL     1       9.760   9.889   5.795  1.00  0.00     0.278 C 
ENDBRANCH   3  10
BRANCH   4  12
ATOM     12  O   UNL     1       9.631  13.733   6.789  1.00  0.00    -0.504 OA
ATOM     13  H   UNL     1       9.613  14.381   6.009  1.00  0.00     0.293 HD
ENDBRANCH   4  12
TORSDOF 3
ENDMDL
MODEL 2
REMARK VINA RESULT:    -3.731     11.517     12.557
REMARK INTER + INTRA:          -4.436
REMARK INTER:                  -4.261
REMARK INTRA:                  -0.174
REMARK UNBOUND:                -0.159
REMARK SMILES CC=Cc1ccc(O)c(OC)c1
REMARK SMILES IDX 4 1 12 2 9 3 7 4 6 5 5 6 3 7 1 8 2 9 10 10 11 11 8 12
REMARK H PARENT 8 13
REMARK Flexibility Score: inf
ROOT
ATOM      1  C   UNL     1      14.767  14.079  -1.827  1.00  0.00    -0.022 A 
ATOM      2  C   UNL     1      13.961  12.929  -1.878  1.00  0.00     0.058 A 
ATOM      3  C   UNL     1      12.616  13.006  -2.293  1.00  0.00     0.161 A 
ATOM      4  C   UNL     1      12.078  14.249  -2.648  1.00  0.00     0.157 A 
ATOM      5  C   UNL     1      12.870  15.401  -2.587  1.00  0.00     0.051 A 
ATOM      6  C   UNL     1      14.202  15.321  -2.176  1.00  0.00     0.012 A 
ENDROOT
BRANCH   1   7
ATOM      7  C   UNL     1      16.173  13.942  -1.374  1.00  0.00     0.003 C 
ATOM      8  C   UNL     1      18.083  12.808  -0.307  1.00  0.00     0.035 C 
ATOM      9  C   UNL     1      16.655  12.863  -0.746  1.00  0.00    -0.030 C 
ENDBRANCH   1   7
BRANCH   3  10
ATOM     10  O   UNL     1      11.788  11.874  -2.363  1.00  0.00    -0.493 OA
ATOM     11  C   UNL     1      11.797  10.933  -3.432  1.00  0.00     0.278 C 
ENDBRANCH   3  10
BRANCH   4  12
ATOM     12  O   UNL     1      10.748  14.332  -3.061  1.00  0.00    -0.504 OA
ATOM     13  H   UNL     1      10.021  14.669  -2.440  1.00  0.00     0.293 HD
ENDBRANCH   4  12
TORSDOF 3
ENDMDL
MODEL 3
REMARK VINA RESULT:    -3.658      1.079      1.239
REMARK INTER + INTRA:          -4.352
REMARK INTER:                  -4.180
REMARK INTRA:                  -0.172
REMARK UNBOUND:                -0.159
REMARK SMILES CC=Cc1ccc(O)c(OC)c1
REMARK SMILES IDX 4 1 12 2 9 3 7 4 6 5 5 6 3 7 1 8 2 9 10 10 11 11 8 12
REMARK H PARENT 8 13
REMARK Flexibility Score: inf
ROOT
ATOM      1  C   UNL     1       5.228  11.852   7.772  1.00  0.00    -0.022 A 
ATOM      2  C   UNL     1       6.104  10.756   7.692  1.00  0.00     0.058 A 
ATOM      3  C   UNL     1       7.498  10.947   7.632  1.00  0.00     0.161 A 
ATOM      4  C   UNL     1       8.014  12.250   7.642  1.00  0.00     0.157 A 
ATOM      5  C   UNL     1       7.147  13.347   7.706  1.00  0.00     0.051 A 
ATOM      6  C   UNL     1       5.766  13.154   7.766  1.00  0.00     0.012 A 
ENDROOT
BRANCH   1   7
ATOM      7  C   UNL     1       3.768  11.594   7.823  1.00  0.00     0.003 C 
ATOM      8  C   UNL     1       1.722  10.242   7.580  1.00  0.00     0.035 C 
ATOM      9  C   UNL     1       3.205  10.419   7.518  1.00  0.00    -0.030 C 
ENDBRANCH   1   7
BRANCH   3  10
ATOM     10  O   UNL     1       8.399   9.873   7.562  1.00  0.00    -0.493 OA
ATOM     11  C   UNL     1       8.739   9.182   6.364  1.00  0.00     0.278 C 
ENDBRANCH   3  10
BRANCH   4  12
ATOM     12  O   UNL     1       9.393  12.446   7.583  1.00  0.00    -0.504 OA
ATOM     13  H   UNL     1       9.886  12.483   6.698  1.00  0.00     0.293 HD
ENDBRANCH   4  12
TORSDOF 3
ENDMDL
MODEL 4
REMARK VINA RESULT:    -3.632     10.732     12.488
REMARK INTER + INTRA:          -4.322
REMARK INTER:                  -4.157
REMARK INTRA:                  -0.165
REMARK UNBOUND:                -0.159
REMARK SMILES CC=Cc1ccc(O)c(OC)c1
REMARK SMILES IDX 4 1 12 2 9 3 7 4 6 5 5 6 3 7 1 8 2 9 10 10 11 11 8 12
REMARK H PARENT 8 13
REMARK Flexibility Score: inf
ROOT
ATOM      1  C   UNL     1      15.160  12.616  -1.154  1.00  0.00    -0.022 A 
ATOM      2  C   UNL     1      14.094  13.321  -1.736  1.00  0.00     0.058 A 
ATOM      3  C   UNL     1      12.824  12.725  -1.878  1.00  0.00     0.161 A 
ATOM      4  C   UNL     1      12.632  11.409  -1.439  1.00  0.00     0.157 A 
ATOM      5  C   UNL     1      13.693  10.695  -0.872  1.00  0.00     0.051 A 
ATOM      6  C   UNL     1      14.949  11.289  -0.733  1.00  0.00     0.012 A 
ENDROOT
BRANCH   1   7
ATOM      7  C   UNL     1      16.478  13.289  -1.038  1.00  0.00     0.003 C 
ATOM      8  C   UNL     1      18.827  13.509  -0.327  1.00  0.00     0.035 C 
ATOM      9  C   UNL     1      17.535  12.760  -0.413  1.00  0.00    -0.030 C 
ENDBRANCH   1   7
BRANCH   3  10
ATOM     10  O   UNL     1      11.736  13.406  -2.446  1.00  0.00    -0.493 OA
ATOM     11  C   UNL     1      11.811  14.705  -3.025  1.00  0.00     0.278 C 
ENDBRANCH   3  10
BRANCH   4  12
ATOM     12  O   UNL     1      11.378  10.813  -1.576  1.00  0.00    -0.504 OA
ATOM     13  H   UNL     1      11.265   9.915  -2.031  1.00  0.00     0.293 HD
ENDBRANCH   4  12
TORSDOF 3
ENDMDL
MODEL 5
REMARK VINA RESULT:    -3.622      2.623      4.693
REMARK INTER + INTRA:          -4.310
REMARK INTER:                  -4.149
REMARK INTRA:                  -0.161
REMARK UNBOUND:                -0.159
REMARK SMILES CC=Cc1ccc(O)c(OC)c1
REMARK SMILES IDX 4 1 12 2 9 3 7 4 6 5 5 6 3 7 1 8 2 9 10 10 11 11 8 12
REMARK H PARENT 8 13
REMARK Flexibility Score: inf
ROOT
ATOM      1  C   UNL     1       8.431  10.510   7.842  1.00  0.00    -0.022 A 
ATOM      2  C   UNL     1       8.846  11.309   8.921  1.00  0.00     0.058 A 
ATOM      3  C   UNL     1       7.933  12.145   9.594  1.00  0.00     0.161 A 
ATOM      4  C   UNL     1       6.599  12.186   9.171  1.00  0.00     0.157 A 
ATOM      5  C   UNL     1       6.181  11.405   8.088  1.00  0.00     0.051 A 
ATOM      6  C   UNL     1       7.088  10.577   7.423  1.00  0.00     0.012 A 
ENDROOT
BRANCH   1   7
ATOM      7  C   UNL     1       9.436   9.655   7.163  1.00  0.00     0.003 C 
ATOM      8  C   UNL     1      10.872   8.938   5.294  1.00  0.00     0.035 C 
ATOM      9  C   UNL     1       9.866   9.855   5.913  1.00  0.00    -0.030 C 
ENDBRANCH   1   7
BRANCH   3  10
ATOM     10  O   UNL     1       8.314  12.947  10.682  1.00  0.00    -0.493 OA
ATOM     11  C   UNL     1       9.065  12.485  11.800  1.00  0.00     0.278 C 
ENDBRANCH   3  10
BRANCH   4  12
ATOM     12  O   UNL     1       5.690  13.011   9.833  1.00  0.00    -0.504 OA
ATOM     13  H   UNL     1       5.964  13.563  10.639  1.00  0.00     0.293 HD
ENDBRANCH   4  12
TORSDOF 3
ENDMDL
MODEL 6
REMARK VINA RESULT:    -3.620      2.018      3.324
REMARK INTER + INTRA:          -4.308
REMARK INTER:                  -4.146
REMARK INTRA:                  -0.162
REMARK UNBOUND:                -0.159
REMARK SMILES CC=Cc1ccc(O)c(OC)c1
REMARK SMILES IDX 4 1 12 2 9 3 7 4 6 5 5 6 3 7 1 8 2 9 10 10 11 11 8 12
REMARK H PARENT 8 13
REMARK Flexibility Score: inf
ROOT
ATOM      1  C   UNL     1       7.645  10.072   7.382  1.00  0.00    -0.022 A 
ATOM      2  C   UNL     1       7.110  11.280   7.860  1.00  0.00     0.058 A 
ATOM      3  C   UNL     1       7.783  12.500   7.656  1.00  0.00     0.161 A 
ATOM      4  C   UNL     1       9.008  12.503   6.977  1.00  0.00     0.157 A 
ATOM      5  C   UNL     1       9.555  11.302   6.511  1.00  0.00     0.051 A 
ATOM      6  C   UNL     1       8.885  10.094   6.715  1.00  0.00     0.012 A 
ENDROOT
BRANCH   1   7
ATOM      7  C   UNL     1       6.898   8.815   7.634  1.00  0.00     0.003 C 
ATOM      8  C   UNL     1       5.834   6.679   7.018  1.00  0.00     0.035 C 
ATOM      9  C   UNL     1       6.604   7.917   6.687  1.00  0.00    -0.030 C 
ENDBRANCH   1   7
BRANCH   3  10
ATOM     10  O   UNL     1       7.270  13.725   8.112  1.00  0.00    -0.493 OA
ATOM     11  C   UNL     1       5.906  14.119   8.001  1.00  0.00     0.278 C 
ENDBRANCH   3  10
BRANCH   4  12
ATOM     12  O   UNL     1       9.680  13.707   6.771  1.00  0.00    -0.504 OA
ATOM     13  H   UNL     1      10.360  14.055   7.437  1.00  0.00     0.293 HD
ENDBRANCH   4  12
TORSDOF 3
ENDMDL
MODEL 7
REMARK VINA RESULT:    -3.550      2.748      4.572
REMARK INTER + INTRA:          -4.228
REMARK INTER:                  -4.056
REMARK INTRA:                  -0.172
REMARK UNBOUND:                -0.159
REMARK SMILES CC=Cc1ccc(O)c(OC)c1
REMARK SMILES IDX 4 1 12 2 9 3 7 4 6 5 5 6 3 7 1 8 2 9 10 10 11 11 8 12
REMARK H PARENT 8 13
REMARK Flexibility Score: inf
ROOT
ATOM      1  C   UNL     1       8.788  10.963   8.400  1.00  0.00    -0.022 A 
ATOM      2  C   UNL     1       8.028  12.012   7.856  1.00  0.00     0.058 A 
ATOM      3  C   UNL     1       7.450  12.993   8.687  1.00  0.00     0.161 A 
ATOM      4  C   UNL     1       7.629  12.909  10.074  1.00  0.00     0.157 A 
ATOM      5  C   UNL     1       8.372  11.858  10.624  1.00  0.00     0.051 A 
ATOM      6  C   UNL     1       8.944  10.889   9.798  1.00  0.00     0.012 A 
ENDROOT
BRANCH   1   7
ATOM      7  C   UNL     1       9.366   9.953   7.479  1.00  0.00     0.003 C 
ATOM      8  C   UNL     1      10.091   9.063   5.299  1.00  0.00     0.035 C 
ATOM      9  C   UNL     1       9.512  10.138   6.162  1.00  0.00    -0.030 C 
ENDBRANCH   1   7
BRANCH   3  10
ATOM     10  O   UNL     1       6.694  14.058   8.174  1.00  0.00    -0.493 OA
ATOM     11  C   UNL     1       5.428  13.917   7.539  1.00  0.00     0.278 C 
ENDBRANCH   3  10
BRANCH   4  12
ATOM     12  O   UNL     1       7.060  13.876  10.902  1.00  0.00    -0.504 OA
ATOM     13  H   UNL     1       6.735  14.763  10.535  1.00  0.00     0.293 HD
ENDBRANCH   4  12
TORSDOF 3
ENDMDL
MODEL 8
REMARK VINA RESULT:    -3.529      2.327      4.471
REMARK INTER + INTRA:          -4.204
REMARK INTER:                  -4.059
REMARK INTRA:                  -0.146
REMARK UNBOUND:                -0.159
REMARK SMILES CC=Cc1ccc(O)c(OC)c1
REMARK SMILES IDX 4 1 12 2 9 3 7 4 6 5 5 6 3 7 1 8 2 9 10 10 11 11 8 12
REMARK H PARENT 8 13
REMARK Flexibility Score: inf
ROOT
ATOM      1  C   UNL     1       7.940  11.222   7.506  1.00  0.00    -0.022 A 
ATOM      2  C   UNL     1       6.628  10.724   7.568  1.00  0.00     0.058 A 
ATOM      3  C   UNL     1       5.531  11.593   7.737  1.00  0.00     0.161 A 
ATOM      4  C   UNL     1       5.759  12.970   7.855  1.00  0.00     0.157 A 
ATOM      5  C   UNL     1       7.065  13.473   7.810  1.00  0.00     0.051 A 
ATOM      6  C   UNL     1       8.148  12.609   7.641  1.00  0.00     0.012 A 
ENDROOT
BRANCH   1   7
ATOM      7  C   UNL     1       9.058  10.261   7.336  1.00  0.00     0.003 C 
ATOM      8  C   UNL     1      10.628   8.853   6.063  1.00  0.00     0.035 C 
ATOM      9  C   UNL     1       9.504   9.835   6.150  1.00  0.00    -0.030 C 
ENDBRANCH   1   7
BRANCH   3  10
ATOM     10  O   UNL     1       4.208  11.128   7.792  1.00  0.00    -0.493 OA
ATOM     11  C   UNL     1       3.826   9.764   7.645  1.00  0.00     0.278 C 
ENDBRANCH   3  10
BRANCH   4  12
ATOM     12  O   UNL     1       4.679  13.836   8.022  1.00  0.00    -0.504 OA
ATOM     13  H   UNL     1       4.810  14.839   8.096  1.00  0.00     0.293 HD
ENDBRANCH   4  12
TORSDOF 3
ENDMDL
MODEL 9
REMARK VINA RESULT:    -3.479      2.800      4.523
REMARK INTER + INTRA:          -4.147
REMARK INTER:                  -3.976
REMARK INTRA:                  -0.171
REMARK UNBOUND:                -0.159
REMARK SMILES CC=Cc1ccc(O)c(OC)c1
REMARK SMILES IDX 4 1 12 2 9 3 7 4 6 5 5 6 3 7 1 8 2 9 10 10 11 11 8 12
REMARK H PARENT 8 13
REMARK Flexibility Score: inf
ROOT
ATOM      1  C   UNL     1       8.731   9.237   6.958  1.00  0.00    -0.022 A 
ATOM      2  C   UNL     1       8.599  10.629   6.821  1.00  0.00     0.058 A 
ATOM      3  C   UNL     1       8.752  11.482   7.932  1.00  0.00     0.161 A 
ATOM      4  C   UNL     1       9.028  10.930   9.189  1.00  0.00     0.157 A 
ATOM      5  C   UNL     1       9.145   9.543   9.337  1.00  0.00     0.051 A 
ATOM      6  C   UNL     1       8.994   8.700   8.234  1.00  0.00     0.012 A 
ENDROOT
BRANCH   1   7
ATOM      7  C   UNL     1       8.551   8.384   5.757  1.00  0.00     0.003 C 
ATOM      8  C   UNL     1       8.804   7.775   3.383  1.00  0.00     0.035 C 
ATOM      9  C   UNL     1       9.042   8.680   4.549  1.00  0.00    -0.030 C 
ENDBRANCH   1   7
BRANCH   3  10
ATOM     10  O   UNL     1       8.637  12.877   7.826  1.00  0.00    -0.493 OA
ATOM     11  C   UNL     1       7.402  13.579   7.715  1.00  0.00     0.278 C 
ENDBRANCH   3  10
BRANCH   4  12
ATOM     12  O   UNL     1       9.181  11.769  10.293  1.00  0.00    -0.504 OA
ATOM     13  H   UNL     1      10.058  11.826  10.798  1.00  0.00     0.293 HD
ENDBRANCH   4  12
TORSDOF 3
ENDMDL
