MODEL 1
REMARK VINA RESULT:    -4.444      0.000      0.000
REMARK INTER + INTRA:         -14.344
REMARK INTER:                 -10.159
REMARK INTRA:                  -4.185
REMARK UNBOUND:                -4.185
REMARK SMILES CCCCCCCCCCCCCCCCCCCCCCCC(=O)[O-]
REMARK SMILES IDX 13 1 14 2 15 3 16 4 17 5 18 6 19 7 20 8 21 9 22 10 23 11
REMARK SMILES IDX 24 12 25 13 26 14 12 15 11 16 10 17 9 18 8 19 7 20 6 21 5 22
REMARK SMILES IDX 4 23 3 24 2 25 1 26
REMARK H PARENT
REMARK Flexibility Score: inf
ROOT
ATOM      1  C   UNL     1       7.124 -16.125  19.931  1.00  0.00     0.000 C 
ENDROOT
BRANCH   1   2
ATOM      2  C   UNL     1       6.686 -14.663  19.734  1.00  0.00     0.000 C 
BRANCH   2   3
ATOM      3  C   UNL     1       5.644 -14.217  20.772  1.00  0.00     0.000 C 
BRANCH   3   4
ATOM      4  C   UNL     1       6.275 -13.882  22.135  1.00  0.00     0.000 C 
BRANCH   4   5
ATOM      5  C   UNL     1       5.896 -14.907  23.225  1.00  0.00     0.000 C 
BRANCH   5   6
ATOM      6  C   UNL     1       7.018 -15.180  24.246  1.00  0.00     0.000 C 
BRANCH   6   7
ATOM      7  C   UNL     1       8.360 -14.500  23.929  1.00  0.00     0.000 C 
BRANCH   7   8
ATOM      8  C   UNL     1       9.520 -15.051  24.777  1.00  0.00     0.000 C 
BRANCH   8   9
ATOM      9  C   UNL     1      10.706 -15.517  23.920  1.00  0.00     0.000 C 
BRANCH   9  10
ATOM     10  C   UNL     1      11.509 -16.647  24.589  1.00  0.00     0.006 C 
BRANCH  10  11
ATOM     11  C   UNL     1      10.758 -17.983  24.567  1.00  0.00     0.053 C 
BRANCH  11  12
ATOM     12  C   UNL     1      10.626 -18.569  25.940  1.00  0.00     0.041 C 
ATOM     13  O   UNL     1      10.884 -19.785  26.137  1.00  0.00    -0.550 OA
ATOM     14  O   UNL     1      10.183 -17.780  26.994  1.00  0.00    -0.550 OA
ENDBRANCH  11  12
ENDBRANCH  10  11
ENDBRANCH   9  10
ENDBRANCH   8   9
ENDBRANCH   7   8
ENDBRANCH   6   7
ENDBRANCH   5   6
ENDBRANCH   4   5
ENDBRANCH   3   4
ENDBRANCH   2   3
ENDBRANCH   1   2
BRANCH   1  15
ATOM     15  C   UNL     1       8.568 -16.250  20.448  1.00  0.00     0.000 C 
BRANCH  15  16
ATOM     16  C   UNL     1       8.790 -17.363  21.487  1.00  0.00     0.000 C 
BRANCH  16  17
ATOM     17  C   UNL     1       7.545 -18.245  21.689  1.00  0.00     0.000 C 
BRANCH  17  18
ATOM     18  C   UNL     1       7.248 -18.524  23.172  1.00  0.00    -0.000 C 
BRANCH  18  19
ATOM     19  C   UNL     1       6.882 -19.996  23.432  1.00  0.00    -0.000 C 
BRANCH  19  20
ATOM     20  C   UNL     1       7.860 -20.688  24.395  1.00  0.00    -0.000 C 
BRANCH  20  21
ATOM     21  C   UNL     1       8.620 -21.849  23.729  1.00  0.00    -0.000 C 
BRANCH  21  22
ATOM     22  C   UNL     1       9.955 -21.410  23.104  1.00  0.00    -0.000 C 
BRANCH  22  23
ATOM     23  C   UNL     1      10.286 -22.058  21.745  1.00  0.00    -0.000 C 
BRANCH  23  24
ATOM     24  C   UNL     1       9.068 -22.688  21.039  1.00  0.00    -0.000 C 
BRANCH  24  25
ATOM     25  C   UNL     1       8.444 -21.745  19.999  1.00  0.00    -0.003 C 
ATOM     26  C   UNL     1       9.414 -20.631  19.612  1.00  0.00     0.004 C 
ENDBRANCH  24  25
ENDBRANCH  23  24
ENDBRANCH  22  23
ENDBRANCH  21  22
ENDBRANCH  20  21
ENDBRANCH  19  20
ENDBRANCH  18  19
ENDBRANCH  17  18
ENDBRANCH  16  17
ENDBRANCH  15  16
ENDBRANCH   1  15
TORSDOF 22
ENDMDL
MODEL 2
REMARK VINA RESULT:    -4.399      2.344      4.902
REMARK INTER + INTRA:         -14.242
REMARK INTER:                 -10.364
REMARK INTRA:                  -3.878
REMARK UNBOUND:                -4.185
REMARK SMILES CCCCCCCCCCCCCCCCCCCCCCCC(=O)[O-]
REMARK SMILES IDX 13 1 14 2 15 3 16 4 17 5 18 6 19 7 20 8 21 9 22 10 23 11
REMARK SMILES IDX 24 12 25 13 26 14 12 15 11 16 10 17 9 18 8 19 7 20 6 21 5 22
REMARK SMILES IDX 4 23 3 24 2 25 1 26
REMARK H PARENT
REMARK Flexibility Score: inf
ROOT
ATOM      1  C   UNL     1       5.699 -15.047  23.621  1.00  0.00     0.000 C 
ENDROOT
BRANCH   1   2
ATOM      2  C   UNL     1       6.663 -14.440  22.586  1.00  0.00     0.000 C 
BRANCH   2   3
ATOM      3  C   UNL     1       5.947 -14.011  21.296  1.00  0.00     0.000 C 
BRANCH   3   4
ATOM      4  C   UNL     1       6.481 -14.746  20.054  1.00  0.00     0.000 C 
BRANCH   4   5
ATOM      5  C   UNL     1       7.511 -15.838  20.415  1.00  0.00     0.000 C 
BRANCH   5   6
ATOM      6  C   UNL     1       7.332 -17.152  19.630  1.00  0.00     0.000 C 
BRANCH   6   7
ATOM      7  C   UNL     1       7.968 -18.389  20.287  1.00  0.00     0.000 C 
BRANCH   7   8
ATOM      8  C   UNL     1       7.621 -18.513  21.781  1.00  0.00     0.000 C 
BRANCH   8   9
ATOM      9  C   UNL     1       7.178 -19.932  22.166  1.00  0.00     0.000 C 
BRANCH   9  10
ATOM     10  C   UNL     1       7.451 -20.958  21.053  1.00  0.00     0.006 C 
BRANCH  10  11
ATOM     11  C   UNL     1       8.267 -22.155  21.555  1.00  0.00     0.053 C 
BRANCH  11  12
ATOM     12  C   UNL     1       9.694 -22.083  21.104  1.00  0.00     0.041 C 
ATOM     13  O   UNL     1      10.012 -21.366  20.120  1.00  0.00    -0.550 OA
ATOM     14  O   UNL     1      10.667 -22.837  21.749  1.00  0.00    -0.550 OA
ENDBRANCH  11  12
ENDBRANCH  10  11
ENDBRANCH   9  10
ENDBRANCH   8   9
ENDBRANCH   7   8
ENDBRANCH   6   7
ENDBRANCH   5   6
ENDBRANCH   4   5
ENDBRANCH   3   4
ENDBRANCH   2   3
ENDBRANCH   1   2
BRANCH   1  15
ATOM     15  C   UNL     1       6.282 -16.286  24.323  1.00  0.00     0.000 C 
BRANCH  15  16
ATOM     16  C   UNL     1       7.777 -16.188  24.674  1.00  0.00     0.000 C 
BRANCH  16  17
ATOM     17  C   UNL     1       8.261 -17.357  25.549  1.00  0.00     0.000 C 
BRANCH  17  18
ATOM     18  C   UNL     1       7.241 -18.505  25.625  1.00  0.00    -0.000 C 
BRANCH  18  19
ATOM     19  C   UNL     1       7.303 -19.260  26.965  1.00  0.00    -0.000 C 
BRANCH  19  20
ATOM     20  C   UNL     1       7.704 -20.734  26.797  1.00  0.00    -0.000 C 
BRANCH  20  21
ATOM     21  C   UNL     1       7.900 -21.126  25.321  1.00  0.00    -0.000 C 
BRANCH  21  22
ATOM     22  C   UNL     1       9.357 -21.490  24.988  1.00  0.00    -0.000 C 
BRANCH  22  23
ATOM     23  C   UNL     1      10.295 -20.288  24.757  1.00  0.00    -0.000 C 
BRANCH  23  24
ATOM     24  C   UNL     1      11.514 -20.254  25.701  1.00  0.00    -0.000 C 
BRANCH  24  25
ATOM     25  C   UNL     1      11.587 -18.951  26.511  1.00  0.00    -0.003 C 
ATOM     26  C   UNL     1      10.861 -19.089  27.847  1.00  0.00     0.004 C 
ENDBRANCH  24  25
ENDBRANCH  23  24
ENDBRANCH  22  23
ENDBRANCH  21  22
ENDBRANCH  20  21
ENDBRANCH  19  20
ENDBRANCH  18  19
ENDBRANCH  17  18
ENDBRANCH  16  17
ENDBRANCH  15  16
ENDBRANCH   1  15
TORSDOF 22
ENDMDL
MODEL 3
REMARK VINA RESULT:    -4.383      1.818      3.750
REMARK INTER + INTRA:         -14.205
REMARK INTER:                  -9.650
REMARK INTRA:                  -4.555
REMARK UNBOUND:                -4.185
REMARK SMILES CCCCCCCCCCCCCCCCCCCCCCCC(=O)[O-]
REMARK SMILES IDX 13 1 14 2 15 3 16 4 17 5 18 6 19 7 20 8 21 9 22 10 23 11
REMARK SMILES IDX 24 12 25 13 26 14 12 15 11 16 10 17 9 18 8 19 7 20 6 21 5 22
REMARK SMILES IDX 4 23 3 24 2 25 1 26
REMARK H PARENT
REMARK Flexibility Score: inf
ROOT
ATOM      1  C   UNL     1       8.249 -17.210  26.176  1.00  0.00     0.000 C 
ENDROOT
BRANCH   1   2
ATOM      2  C   UNL     1       6.752 -16.945  25.938  1.00  0.00     0.000 C 
BRANCH   2   3
ATOM      3  C   UNL     1       6.392 -16.898  24.445  1.00  0.00     0.000 C 
BRANCH   3   4
ATOM      4  C   UNL     1       6.406 -15.467  23.880  1.00  0.00     0.000 C 
BRANCH   4   5
ATOM      5  C   UNL     1       7.135 -15.379  22.522  1.00  0.00     0.000 C 
BRANCH   5   6
ATOM      6  C   UNL     1       7.717 -16.721  22.036  1.00  0.00     0.000 C 
BRANCH   6   7
ATOM      7  C   UNL     1       9.253 -16.805  22.054  1.00  0.00     0.000 C 
BRANCH   7   8
ATOM      8  C   UNL     1       9.772 -17.998  22.875  1.00  0.00     0.000 C 
BRANCH   8   9
ATOM      9  C   UNL     1      11.237 -17.826  23.302  1.00  0.00     0.000 C 
BRANCH   9  10
ATOM     10  C   UNL     1      11.602 -18.690  24.522  1.00  0.00     0.006 C 
BRANCH  10  11
ATOM     11  C   UNL     1      12.827 -18.150  25.269  1.00  0.00     0.053 C 
BRANCH  11  12
ATOM     12  C   UNL     1      13.314 -19.114  26.308  1.00  0.00     0.041 C 
ATOM     13  O   UNL     1      12.508 -19.616  27.134  1.00  0.00    -0.550 OA
ATOM     14  O   UNL     1      14.665 -19.430  26.387  1.00  0.00    -0.550 OA
ENDBRANCH  11  12
ENDBRANCH  10  11
ENDBRANCH   9  10
ENDBRANCH   8   9
ENDBRANCH   7   8
ENDBRANCH   6   7
ENDBRANCH   5   6
ENDBRANCH   4   5
ENDBRANCH   3   4
ENDBRANCH   2   3
ENDBRANCH   1   2
BRANCH   1  15
ATOM     15  C   UNL     1       8.549 -18.683  26.505  1.00  0.00     0.000 C 
BRANCH  15  16
ATOM     16  C   UNL     1       7.318 -19.522  26.895  1.00  0.00     0.000 C 
BRANCH  16  17
ATOM     17  C   UNL     1       7.130 -20.756  25.995  1.00  0.00     0.000 C 
BRANCH  17  18
ATOM     18  C   UNL     1       8.405 -21.126  25.219  1.00  0.00    -0.000 C 
BRANCH  18  19
ATOM     19  C   UNL     1       8.172 -21.188  23.699  1.00  0.00    -0.000 C 
BRANCH  19  20
ATOM     20  C   UNL     1       7.037 -20.261  23.235  1.00  0.00    -0.000 C 
BRANCH  20  21
ATOM     21  C   UNL     1       6.737 -20.403  21.732  1.00  0.00    -0.000 C 
BRANCH  21  22
ATOM     22  C   UNL     1       7.842 -21.154  20.970  1.00  0.00    -0.000 C 
BRANCH  22  23
ATOM     23  C   UNL     1       8.759 -20.266  20.105  1.00  0.00    -0.000 C 
BRANCH  23  24
ATOM     24  C   UNL     1      10.263 -20.554  20.288  1.00  0.00    -0.000 C 
BRANCH  24  25
ATOM     25  C   UNL     1      10.518 -21.901  20.981  1.00  0.00    -0.003 C 
ATOM     26  C   UNL     1      11.559 -21.763  22.089  1.00  0.00     0.004 C 
ENDBRANCH  24  25
ENDBRANCH  23  24
ENDBRANCH  22  23
ENDBRANCH  21  22
ENDBRANCH  20  21
ENDBRANCH  19  20
ENDBRANCH  18  19
ENDBRANCH  17  18
ENDBRANCH  16  17
ENDBRANCH  15  16
ENDBRANCH   1  15
TORSDOF 22
ENDMDL
MODEL 4
REMARK VINA RESULT:    -4.337      1.980      3.407
REMARK INTER + INTRA:         -14.099
REMARK INTER:                  -9.409
REMARK INTRA:                  -4.691
REMARK UNBOUND:                -4.185
REMARK SMILES CCCCCCCCCCCCCCCCCCCCCCCC(=O)[O-]
REMARK SMILES IDX 13 1 14 2 15 3 16 4 17 5 18 6 19 7 20 8 21 9 22 10 23 11
REMARK SMILES IDX 24 12 25 13 26 14 12 15 11 16 10 17 9 18 8 19 7 20 6 21 5 22
REMARK SMILES IDX 4 23 3 24 2 25 1 26
REMARK H PARENT
REMARK Flexibility Score: inf
ROOT
ATOM      1  C   UNL     1      10.623 -15.691  24.406  1.00  0.00     0.000 C 
ENDROOT
BRANCH   1   2
ATOM      2  C   UNL     1       9.609 -14.605  24.005  1.00  0.00     0.000 C 
BRANCH   2   3
ATOM      3  C   UNL     1       8.306 -14.687  24.815  1.00  0.00     0.000 C 
BRANCH   3   4
ATOM      4  C   UNL     1       7.118 -15.186  23.973  1.00  0.00     0.000 C 
BRANCH   4   5
ATOM      5  C   UNL     1       6.487 -16.471  24.551  1.00  0.00     0.000 C 
BRANCH   5   6
ATOM      6  C   UNL     1       6.816 -16.716  26.037  1.00  0.00     0.000 C 
BRANCH   6   7
ATOM      7  C   UNL     1       7.257 -18.150  26.374  1.00  0.00     0.000 C 
BRANCH   7   8
ATOM      8  C   UNL     1       8.783 -18.336  26.296  1.00  0.00     0.000 C 
BRANCH   8   9
ATOM      9  C   UNL     1       9.199 -19.813  26.360  1.00  0.00     0.000 C 
BRANCH   9  10
ATOM     10  C   UNL     1      10.700 -19.991  26.649  1.00  0.00     0.006 C 
BRANCH  10  11
ATOM     11  C   UNL     1      11.468 -18.666  26.564  1.00  0.00     0.053 C 
BRANCH  11  12
ATOM     12  C   UNL     1      12.909 -18.880  26.216  1.00  0.00     0.041 C 
ATOM     13  O   UNL     1      13.737 -19.193  27.110  1.00  0.00    -0.550 OA
ATOM     14  O   UNL     1      13.344 -18.697  24.909  1.00  0.00    -0.550 OA
ENDBRANCH  11  12
ENDBRANCH  10  11
ENDBRANCH   9  10
ENDBRANCH   8   9
ENDBRANCH   7   8
ENDBRANCH   6   7
ENDBRANCH   5   6
ENDBRANCH   4   5
ENDBRANCH   3   4
ENDBRANCH   2   3
ENDBRANCH   1   2
BRANCH   1  15
ATOM     15  C   UNL     1      10.625 -16.889  23.442  1.00  0.00     0.000 C 
BRANCH  15  16
ATOM     16  C   UNL     1       9.965 -16.624  22.077  1.00  0.00     0.000 C 
BRANCH  16  17
ATOM     17  C   UNL     1       9.062 -17.782  21.618  1.00  0.00     0.000 C 
BRANCH  17  18
ATOM     18  C   UNL     1       8.658 -18.715  22.771  1.00  0.00    -0.000 C 
BRANCH  18  19
ATOM     19  C   UNL     1       7.334 -19.451  22.497  1.00  0.00    -0.000 C 
BRANCH  19  20
ATOM     20  C   UNL     1       7.248 -20.000  21.064  1.00  0.00    -0.000 C 
BRANCH  20  21
ATOM     21  C   UNL     1       7.501 -21.517  20.997  1.00  0.00    -0.000 C 
BRANCH  21  22
ATOM     22  C   UNL     1       8.883 -21.868  20.421  1.00  0.00    -0.000 C 
BRANCH  22  23
ATOM     23  C   UNL     1       9.795 -22.684  21.360  1.00  0.00    -0.000 C 
BRANCH  23  24
ATOM     24  C   UNL     1       9.374 -22.631  22.843  1.00  0.00    -0.000 C 
BRANCH  24  25
ATOM     25  C   UNL     1      10.543 -22.257  23.767  1.00  0.00    -0.003 C 
ATOM     26  C   UNL     1      11.390 -21.140  23.162  1.00  0.00     0.004 C 
ENDBRANCH  24  25
ENDBRANCH  23  24
ENDBRANCH  22  23
ENDBRANCH  21  22
ENDBRANCH  20  21
ENDBRANCH  19  20
ENDBRANCH  18  19
ENDBRANCH  17  18
ENDBRANCH  16  17
ENDBRANCH  15  16
ENDBRANCH   1  15
TORSDOF 22
ENDMDL
MODEL 5
REMARK VINA RESULT:    -4.330      2.758      4.576
REMARK INTER + INTRA:         -14.084
REMARK INTER:                  -9.752
REMARK INTRA:                  -4.333
REMARK UNBOUND:                -4.185
REMARK SMILES CCCCCCCCCCCCCCCCCCCCCCCC(=O)[O-]
REMARK SMILES IDX 13 1 14 2 15 3 16 4 17 5 18 6 19 7 20 8 21 9 22 10 23 11
REMARK SMILES IDX 24 12 25 13 26 14 12 15 11 16 10 17 9 18 8 19 7 20 6 21 5 22
REMARK SMILES IDX 4 23 3 24 2 25 1 26
REMARK H PARENT
REMARK Flexibility Score: inf
ROOT
ATOM      1  C   UNL     1      10.734 -16.173  24.996  1.00  0.00     0.000 C 
ENDROOT
BRANCH   1   2
ATOM      2  C   UNL     1       9.944 -15.068  24.273  1.00  0.00     0.000 C 
BRANCH   2   3
ATOM      3  C   UNL     1       8.610 -14.748  24.966  1.00  0.00     0.000 C 
BRANCH   3   4
ATOM      4  C   UNL     1       7.537 -14.254  23.980  1.00  0.00     0.000 C 
BRANCH   4   5
ATOM      5  C   UNL     1       6.384 -15.267  23.811  1.00  0.00     0.000 C 
BRANCH   5   6
ATOM      6  C   UNL     1       6.588 -16.583  24.587  1.00  0.00     0.000 C 
BRANCH   6   7
ATOM      7  C   UNL     1       6.738 -17.836  23.708  1.00  0.00     0.000 C 
BRANCH   7   8
ATOM      8  C   UNL     1       7.501 -17.557  22.401  1.00  0.00     0.000 C 
BRANCH   8   9
ATOM      9  C   UNL     1       8.950 -18.064  22.448  1.00  0.00     0.000 C 
BRANCH   9  10
ATOM     10  C   UNL     1       9.490 -18.437  21.056  1.00  0.00     0.006 C 
BRANCH  10  11
ATOM     11  C   UNL     1       8.504 -18.079  19.937  1.00  0.00     0.053 C 
BRANCH  11  12
ATOM     12  C   UNL     1       8.751 -18.886  18.699  1.00  0.00     0.041 C 
ATOM     13  O   UNL     1       7.894 -18.912  17.778  1.00  0.00    -0.550 OA
ATOM     14  O   UNL     1       9.913 -19.638  18.579  1.00  0.00    -0.550 OA
ENDBRANCH  11  12
ENDBRANCH  10  11
ENDBRANCH   9  10
ENDBRANCH   8   9
ENDBRANCH   7   8
ENDBRANCH   6   7
ENDBRANCH   5   6
ENDBRANCH   4   5
ENDBRANCH   3   4
ENDBRANCH   2   3
ENDBRANCH   1   2
BRANCH   1  15
ATOM     15  C   UNL     1      10.085 -16.597  26.325  1.00  0.00     0.000 C 
BRANCH  15  16
ATOM     16  C   UNL     1       9.365 -17.957  26.289  1.00  0.00     0.000 C 
BRANCH  16  17
ATOM     17  C   UNL     1      10.161 -19.071  26.992  1.00  0.00     0.000 C 
BRANCH  17  18
ATOM     18  C   UNL     1       9.466 -20.441  26.911  1.00  0.00    -0.000 C 
BRANCH  18  19
ATOM     19  C   UNL     1       8.080 -20.359  26.247  1.00  0.00    -0.000 C 
BRANCH  19  20
ATOM     20  C   UNL     1       8.026 -21.089  24.895  1.00  0.00    -0.000 C 
BRANCH  20  21
ATOM     21  C   UNL     1       9.323 -21.860  24.591  1.00  0.00    -0.000 C 
BRANCH  21  22
ATOM     22  C   UNL     1      10.110 -21.263  23.411  1.00  0.00    -0.000 C 
BRANCH  22  23
ATOM     23  C   UNL     1      10.074 -22.096  22.113  1.00  0.00    -0.000 C 
BRANCH  23  24
ATOM     24  C   UNL     1       8.690 -22.696  21.793  1.00  0.00    -0.000 C 
BRANCH  24  25
ATOM     25  C   UNL     1       7.936 -21.886  20.727  1.00  0.00    -0.003 C 
ATOM     26  C   UNL     1       6.860 -21.007  21.361  1.00  0.00     0.004 C 
ENDBRANCH  24  25
ENDBRANCH  23  24
ENDBRANCH  22  23
ENDBRANCH  21  22
ENDBRANCH  20  21
ENDBRANCH  19  20
ENDBRANCH  18  19
ENDBRANCH  17  18
ENDBRANCH  16  17
ENDBRANCH  15  16
ENDBRANCH   1  15
TORSDOF 22
ENDMDL
MODEL 6
REMARK VINA RESULT:    -4.325      2.061      5.203
REMARK INTER + INTRA:         -14.072
REMARK INTER:                  -9.544
REMARK INTRA:                  -4.529
REMARK UNBOUND:                -4.185
REMARK SMILES CCCCCCCCCCCCCCCCCCCCCCCC(=O)[O-]
REMARK SMILES IDX 13 1 14 2 15 3 16 4 17 5 18 6 19 7 20 8 21 9 22 10 23 11
REMARK SMILES IDX 24 12 25 13 26 14 12 15 11 16 10 17 9 18 8 19 7 20 6 21 5 22
REMARK SMILES IDX 4 23 3 24 2 25 1 26
REMARK H PARENT
REMARK Flexibility Score: inf
ROOT
ATOM      1  C   UNL     1       8.159 -16.538  22.131  1.00  0.00     0.000 C 
ENDROOT
BRANCH   1   2
ATOM      2  C   UNL     1       7.750 -17.681  21.186  1.00  0.00     0.000 C 
BRANCH   2   3
ATOM      3  C   UNL     1       7.747 -19.050  21.885  1.00  0.00     0.000 C 
BRANCH   3   4
ATOM      4  C   UNL     1       6.856 -19.068  23.140  1.00  0.00     0.000 C 
BRANCH   4   5
ATOM      5  C   UNL     1       7.089 -20.324  24.007  1.00  0.00     0.000 C 
BRANCH   5   6
ATOM      6  C   UNL     1       8.511 -20.908  23.894  1.00  0.00     0.000 C 
BRANCH   6   7
ATOM      7  C   UNL     1       9.189 -21.224  25.238  1.00  0.00     0.000 C 
BRANCH   7   8
ATOM      8  C   UNL     1       8.233 -21.077  26.434  1.00  0.00     0.000 C 
BRANCH   8   9
ATOM      9  C   UNL     1       8.979 -20.897  27.765  1.00  0.00     0.000 C 
BRANCH   9  10
ATOM     10  C   UNL     1      10.500 -21.073  27.616  1.00  0.00     0.006 C 
BRANCH  10  11
ATOM     11  C   UNL     1      11.281 -20.293  28.681  1.00  0.00     0.053 C 
BRANCH  11  12
ATOM     12  C   UNL     1      12.762 -20.428  28.494  1.00  0.00     0.041 C 
ATOM     13  O   UNL     1      13.521 -19.453  28.729  1.00  0.00    -0.550 OA
ATOM     14  O   UNL     1      13.298 -21.620  28.025  1.00  0.00    -0.550 OA
ENDBRANCH  11  12
ENDBRANCH  10  11
ENDBRANCH   9  10
ENDBRANCH   8   9
ENDBRANCH   7   8
ENDBRANCH   6   7
ENDBRANCH   5   6
ENDBRANCH   4   5
ENDBRANCH   3   4
ENDBRANCH   2   3
ENDBRANCH   1   2
BRANCH   1  15
ATOM     15  C   UNL     1       7.082 -15.445  22.244  1.00  0.00     0.000 C 
BRANCH  15  16
ATOM     16  C   UNL     1       6.717 -15.043  23.684  1.00  0.00     0.000 C 
BRANCH  16  17
ATOM     17  C   UNL     1       7.859 -14.304  24.403  1.00  0.00     0.000 C 
BRANCH  17  18
ATOM     18  C   UNL     1       8.389 -15.073  25.625  1.00  0.00    -0.000 C 
BRANCH  18  19
ATOM     19  C   UNL     1       7.531 -16.307  25.961  1.00  0.00    -0.000 C 
BRANCH  19  20
ATOM     20  C   UNL     1       8.376 -17.568  26.200  1.00  0.00    -0.000 C 
BRANCH  20  21
ATOM     21  C   UNL     1       9.812 -17.239  26.649  1.00  0.00    -0.000 C 
BRANCH  21  22
ATOM     22  C   UNL     1      10.881 -17.930  25.786  1.00  0.00    -0.000 C 
BRANCH  22  23
ATOM     23  C   UNL     1      10.707 -17.754  24.264  1.00  0.00    -0.000 C 
BRANCH  23  24
ATOM     24  C   UNL     1      11.964 -17.219  23.548  1.00  0.00    -0.000 C 
BRANCH  24  25
ATOM     25  C   UNL     1      11.649 -16.032  22.625  1.00  0.00    -0.003 C 
ATOM     26  C   UNL     1      11.405 -14.757  23.428  1.00  0.00     0.004 C 
ENDBRANCH  24  25
ENDBRANCH  23  24
ENDBRANCH  22  23
ENDBRANCH  21  22
ENDBRANCH  20  21
ENDBRANCH  19  20
ENDBRANCH  18  19
ENDBRANCH  17  18
ENDBRANCH  16  17
ENDBRANCH  15  16
ENDBRANCH   1  15
TORSDOF 22
ENDMDL
MODEL 7
REMARK VINA RESULT:    -4.313      1.976      4.545
REMARK INTER + INTRA:         -14.044
REMARK INTER:                  -8.941
REMARK INTRA:                  -5.103
REMARK UNBOUND:                -4.185
REMARK SMILES CCCCCCCCCCCCCCCCCCCCCCCC(=O)[O-]
REMARK SMILES IDX 13 1 14 2 15 3 16 4 17 5 18 6 19 7 20 8 21 9 22 10 23 11
REMARK SMILES IDX 24 12 25 13 26 14 12 15 11 16 10 17 9 18 8 19 7 20 6 21 5 22
REMARK SMILES IDX 4 23 3 24 2 25 1 26
REMARK H PARENT
REMARK Flexibility Score: inf
ROOT
ATOM      1  C   UNL     1       6.882 -16.586  23.904  1.00  0.00     0.000 C 
ENDROOT
BRANCH   1   2
ATOM      2  C   UNL     1       7.533 -16.874  22.540  1.00  0.00     0.000 C 
BRANCH   2   3
ATOM      3  C   UNL     1       7.567 -18.374  22.209  1.00  0.00     0.000 C 
BRANCH   3   4
ATOM      4  C   UNL     1       6.747 -19.216  23.204  1.00  0.00     0.000 C 
BRANCH   4   5
ATOM      5  C   UNL     1       7.549 -20.410  23.764  1.00  0.00     0.000 C 
BRANCH   5   6
ATOM      6  C   UNL     1       7.639 -20.437  25.302  1.00  0.00     0.000 C 
BRANCH   6   7
ATOM      7  C   UNL     1       8.886 -21.140  25.865  1.00  0.00     0.000 C 
BRANCH   7   8
ATOM      8  C   UNL     1       9.689 -21.880  24.781  1.00  0.00     0.000 C 
BRANCH   8   9
ATOM      9  C   UNL     1      11.012 -22.449  25.316  1.00  0.00     0.000 C 
BRANCH   9  10
ATOM     10  C   UNL     1      11.675 -21.524  26.352  1.00  0.00     0.006 C 
BRANCH  10  11
ATOM     11  C   UNL     1      12.961 -20.883  25.818  1.00  0.00     0.053 C 
BRANCH  11  12
ATOM     12  C   UNL     1      13.369 -19.693  26.632  1.00  0.00     0.041 C 
ATOM     13  O   UNL     1      13.489 -19.791  27.881  1.00  0.00    -0.550 OA
ATOM     14  O   UNL     1      13.579 -18.466  26.015  1.00  0.00    -0.550 OA
ENDBRANCH  11  12
ENDBRANCH  10  11
ENDBRANCH   9  10
ENDBRANCH   8   9
ENDBRANCH   7   8
ENDBRANCH   6   7
ENDBRANCH   5   6
ENDBRANCH   4   5
ENDBRANCH   3   4
ENDBRANCH   2   3
ENDBRANCH   1   2
BRANCH   1  15
ATOM     15  C   UNL     1       7.355 -15.259  24.522  1.00  0.00     0.000 C 
BRANCH  15  16
ATOM     16  C   UNL     1       8.279 -15.407  25.744  1.00  0.00     0.000 C 
BRANCH  16  17
ATOM     17  C   UNL     1       8.422 -16.867  26.209  1.00  0.00     0.000 C 
BRANCH  17  18
ATOM     18  C   UNL     1       9.867 -17.385  26.106  1.00  0.00    -0.000 C 
BRANCH  18  19
ATOM     19  C   UNL     1      10.747 -16.498  25.208  1.00  0.00    -0.000 C 
BRANCH  19  20
ATOM     20  C   UNL     1      11.011 -17.126  23.830  1.00  0.00    -0.000 C 
BRANCH  20  21
ATOM     21  C   UNL     1      10.829 -18.655  23.835  1.00  0.00    -0.000 C 
BRANCH  21  22
ATOM     22  C   UNL     1      11.619 -19.354  22.716  1.00  0.00    -0.000 C 
BRANCH  22  23
ATOM     23  C   UNL     1      10.758 -20.084  21.665  1.00  0.00    -0.000 C 
BRANCH  23  24
ATOM     24  C   UNL     1      11.192 -21.540  21.401  1.00  0.00    -0.000 C 
BRANCH  24  25
ATOM     25  C   UNL     1       9.993 -22.481  21.215  1.00  0.00    -0.003 C 
ATOM     26  C   UNL     1       8.836 -21.771  20.518  1.00  0.00     0.004 C 
ENDBRANCH  24  25
ENDBRANCH  23  24
ENDBRANCH  22  23
ENDBRANCH  21  22
ENDBRANCH  20  21
ENDBRANCH  19  20
ENDBRANCH  18  19
ENDBRANCH  17  18
ENDBRANCH  16  17
ENDBRANCH  15  16
ENDBRANCH   1  15
TORSDOF 22
ENDMDL
MODEL 8
REMARK VINA RESULT:    -4.295      2.441      4.088
REMARK INTER + INTRA:         -14.003
REMARK INTER:                  -9.453
REMARK INTRA:                  -4.550
REMARK UNBOUND:                -4.185
REMARK SMILES CCCCCCCCCCCCCCCCCCCCCCCC(=O)[O-]
REMARK SMILES IDX 13 1 14 2 15 3 16 4 17 5 18 6 19 7 20 8 21 9 22 10 23 11
REMARK SMILES IDX 24 12 25 13 26 14 12 15 11 16 10 17 9 18 8 19 7 20 6 21 5 22
REMARK SMILES IDX 4 23 3 24 2 25 1 26
REMARK H PARENT
REMARK Flexibility Score: inf
ROOT
ATOM      1  C   UNL     1       7.183 -16.079  25.458  1.00  0.00     0.000 C 
ENDROOT
BRANCH   1   2
ATOM      2  C   UNL     1       7.564 -17.378  26.192  1.00  0.00     0.000 C 
BRANCH   2   3
ATOM      3  C   UNL     1       9.082 -17.521  26.386  1.00  0.00     0.000 C 
BRANCH   3   4
ATOM      4  C   UNL     1       9.830 -16.192  26.177  1.00  0.00     0.000 C 
BRANCH   4   5
ATOM      5  C   UNL     1      10.847 -16.267  25.018  1.00  0.00     0.000 C 
BRANCH   5   6
ATOM      6  C   UNL     1      10.766 -15.081  24.036  1.00  0.00     0.000 C 
BRANCH   6   7
ATOM      7  C   UNL     1      12.011 -14.885  23.154  1.00  0.00     0.000 C 
BRANCH   7   8
ATOM      8  C   UNL     1      11.869 -15.548  21.772  1.00  0.00     0.000 C 
BRANCH   8   9
ATOM      9  C   UNL     1      12.875 -16.688  21.561  1.00  0.00     0.000 C 
BRANCH   9  10
ATOM     10  C   UNL     1      13.796 -16.895  22.777  1.00  0.00     0.006 C 
BRANCH  10  11
ATOM     11  C   UNL     1      13.638 -18.291  23.392  1.00  0.00     0.053 C 
BRANCH  11  12
ATOM     12  C   UNL     1      14.858 -19.135  23.176  1.00  0.00     0.041 C 
ATOM     13  O   UNL     1      15.768 -19.167  24.044  1.00  0.00    -0.550 OA
ATOM     14  O   UNL     1      15.005 -19.856  21.997  1.00  0.00    -0.550 OA
ENDBRANCH  11  12
ENDBRANCH  10  11
ENDBRANCH   9  10
ENDBRANCH   8   9
ENDBRANCH   7   8
ENDBRANCH   6   7
ENDBRANCH   5   6
ENDBRANCH   4   5
ENDBRANCH   3   4
ENDBRANCH   2   3
ENDBRANCH   1   2
BRANCH   1  15
ATOM     15  C   UNL     1       6.591 -16.336  24.062  1.00  0.00     0.000 C 
BRANCH  15  16
ATOM     16  C   UNL     1       7.309 -15.611  22.910  1.00  0.00     0.000 C 
BRANCH  16  17
ATOM     17  C   UNL     1       8.003 -16.580  21.937  1.00  0.00     0.000 C 
BRANCH  17  18
ATOM     18  C   UNL     1       8.202 -17.983  22.535  1.00  0.00    -0.000 C 
BRANCH  18  19
ATOM     19  C   UNL     1       9.643 -18.496  22.367  1.00  0.00    -0.000 C 
BRANCH  19  20
ATOM     20  C   UNL     1       9.977 -19.650  23.326  1.00  0.00    -0.000 C 
BRANCH  20  21
ATOM     21  C   UNL     1       8.728 -20.213  24.028  1.00  0.00    -0.000 C 
BRANCH  21  22
ATOM     22  C   UNL     1       8.266 -21.556  23.438  1.00  0.00    -0.000 C 
BRANCH  22  23
ATOM     23  C   UNL     1       9.369 -22.380  22.743  1.00  0.00    -0.000 C 
BRANCH  23  24
ATOM     24  C   UNL     1       8.946 -22.970  21.382  1.00  0.00    -0.000 C 
BRANCH  24  25
ATOM     25  C   UNL     1       7.945 -22.069  20.642  1.00  0.00    -0.003 C 
ATOM     26  C   UNL     1       8.664 -21.016  19.804  1.00  0.00     0.004 C 
ENDBRANCH  24  25
ENDBRANCH  23  24
ENDBRANCH  22  23
ENDBRANCH  21  22
ENDBRANCH  20  21
ENDBRANCH  19  20
ENDBRANCH  18  19
ENDBRANCH  17  18
ENDBRANCH  16  17
ENDBRANCH  15  16
ENDBRANCH   1  15
TORSDOF 22
ENDMDL
MODEL 9
REMARK VINA RESULT:    -4.282      1.922      6.066
REMARK INTER + INTRA:         -13.973
REMARK INTER:                  -9.477
REMARK INTRA:                  -4.497
REMARK UNBOUND:                -4.185
REMARK SMILES CCCCCCCCCCCCCCCCCCCCCCCC(=O)[O-]
REMARK SMILES IDX 13 1 14 2 15 3 16 4 17 5 18 6 19 7 20 8 21 9 22 10 23 11
REMARK SMILES IDX 24 12 25 13 26 14 12 15 11 16 10 17 9 18 8 19 7 20 6 21 5 22
REMARK SMILES IDX 4 23 3 24 2 25 1 26
REMARK H PARENT
REMARK Flexibility Score: inf
ROOT
ATOM      1  C   UNL     1       7.657 -20.771  24.184  1.00  0.00     0.000 C 
ENDROOT
BRANCH   1   2
ATOM      2  C   UNL     1       6.767 -19.905  23.276  1.00  0.00     0.000 C 
BRANCH   2   3
ATOM      3  C   UNL     1       6.710 -20.431  21.833  1.00  0.00     0.000 C 
BRANCH   3   4
ATOM      4  C   UNL     1       8.094 -20.453  21.159  1.00  0.00     0.000 C 
BRANCH   4   5
ATOM      5  C   UNL     1       8.324 -21.737  20.333  1.00  0.00     0.000 C 
BRANCH   5   6
ATOM      6  C   UNL     1       8.844 -22.929  21.161  1.00  0.00     0.000 C 
BRANCH   6   7
ATOM      7  C   UNL     1      10.231 -22.723  21.792  1.00  0.00     0.000 C 
BRANCH   7   8
ATOM      8  C   UNL     1      10.220 -22.902  23.321  1.00  0.00     0.000 C 
BRANCH   8   9
ATOM      9  C   UNL     1      11.584 -22.600  23.958  1.00  0.00     0.000 C 
BRANCH   9  10
ATOM     10  C   UNL     1      11.661 -23.050  25.428  1.00  0.00     0.006 C 
BRANCH  10  11
ATOM     11  C   UNL     1      11.346 -21.907  26.401  1.00  0.00     0.053 C 
BRANCH  11  12
ATOM     12  C   UNL     1      12.594 -21.280  26.944  1.00  0.00     0.041 C 
ATOM     13  O   UNL     1      13.723 -21.684  26.563  1.00  0.00    -0.550 OA
ATOM     14  O   UNL     1      12.508 -20.273  27.898  1.00  0.00    -0.550 OA
ENDBRANCH  11  12
ENDBRANCH  10  11
ENDBRANCH   9  10
ENDBRANCH   8   9
ENDBRANCH   7   8
ENDBRANCH   6   7
ENDBRANCH   5   6
ENDBRANCH   4   5
ENDBRANCH   3   4
ENDBRANCH   2   3
ENDBRANCH   1   2
BRANCH   1  15
ATOM     15  C   UNL     1       7.153 -20.825  25.637  1.00  0.00     0.000 C 
BRANCH  15  16
ATOM     16  C   UNL     1       8.095 -20.187  26.673  1.00  0.00     0.000 C 
BRANCH  16  17
ATOM     17  C   UNL     1       8.388 -18.705  26.380  1.00  0.00     0.000 C 
BRANCH  17  18
ATOM     18  C   UNL     1       9.851 -18.322  26.655  1.00  0.00    -0.000 C 
BRANCH  18  19
ATOM     19  C   UNL     1      10.586 -17.856  25.386  1.00  0.00    -0.000 C 
BRANCH  19  20
ATOM     20  C   UNL     1      10.716 -18.969  24.334  1.00  0.00    -0.000 C 
BRANCH  20  21
ATOM     21  C   UNL     1      10.572 -18.439  22.895  1.00  0.00    -0.000 C 
BRANCH  21  22
ATOM     22  C   UNL     1      10.029 -17.001  22.839  1.00  0.00    -0.000 C 
BRANCH  22  23
ATOM     23  C   UNL     1       8.958 -16.748  21.759  1.00  0.00    -0.000 C 
BRANCH  23  24
ATOM     24  C   UNL     1       7.536 -16.547  22.322  1.00  0.00    -0.000 C 
BRANCH  24  25
ATOM     25  C   UNL     1       7.549 -16.118  23.797  1.00  0.00    -0.003 C 
ATOM     26  C   UNL     1       6.202 -16.388  24.462  1.00  0.00     0.004 C 
ENDBRANCH  24  25
ENDBRANCH  23  24
ENDBRANCH  22  23
ENDBRANCH  21  22
ENDBRANCH  20  21
ENDBRANCH  19  20
ENDBRANCH  18  19
ENDBRANCH  17  18
ENDBRANCH  16  17
ENDBRANCH  15  16
ENDBRANCH   1  15
TORSDOF 22
ENDMDL
