MODEL 1
REMARK VINA RESULT:    23.455      0.000      0.000
REMARK INTER + INTRA:          37.478
REMARK INTER:                  35.796
REMARK INTRA:                   1.682
REMARK UNBOUND:                 1.682
REMARK SMILES CC1=CCC[C@H](C)C(=O)C[C@@H](C(C)C)C(=O)C1
REMARK SMILES IDX 8 1 9 2 6 3 7 4 5 5 4 6 3 7 2 8 1 9 10 11 11 12 15 13 16 14
REMARK SMILES IDX 17 15 12 17 13 18 14 19
REMARK H PARENT
REMARK Flexibility Score: 70.00
ROOT
ATOM      1  C   UNL     1       1.205  74.999  18.944  1.00  0.00     0.136 C 
ATOM      2  O   UNL     1       0.172  75.649  18.868  1.00  0.00    -0.299 OA
ENDROOT
BRANCH   1   3
ATOM      3  C   UNL     1       1.269  73.619  18.329  1.00  0.00     0.053 C 
ATOM      4  C   UNL     1      -0.113  72.957  18.369  1.00  0.00     0.016 C 
BRANCH   3   5
ATOM      5  C   UNL     1       1.807  73.675  16.886  1.00  0.00     0.015 C 
BRANCH   5   6
ATOM      6  C   UNL     1       3.332  73.912  16.824  1.00  0.00     0.028 C 
BRANCH   6   7
ATOM      7  C   UNL     1       4.104  72.645  17.114  1.00  0.00    -0.028 C 
ATOM      8  C   UNL     1       4.559  72.219  18.317  1.00  0.00    -0.070 CG0
ATOM      9  C   UNL     1       5.268  70.888  18.358  1.00  0.00     0.039 C 
ATOM     10  G   UNL     1       4.425  72.994  19.618  1.00  0.00     0.000 G0
ENDBRANCH   6   7
ENDBRANCH   5   6
ENDBRANCH   3   5
ENDBRANCH   1   3
BRANCH   1  11
ATOM     11  C   UNL     1       2.392  75.538  19.709  1.00  0.00     0.087 C 
BRANCH  11  12
ATOM     12  C   UNL     1       3.724  75.456  18.923  1.00  0.00     0.066 C 
BRANCH  12  13
ATOM     13  C   UNL     1       4.718  74.463  19.512  1.00  0.00     0.140 C 
ATOM     14  O   UNL     1       5.774  74.897  19.950  1.00  0.00    -0.299 OA
BRANCH  13  15
ATOM     15  C   UNL     1       4.435  72.983  19.645  1.00  0.00     0.106 CG0
ATOM     16  G   UNL     1       4.585  72.274  18.310  1.00  0.00     0.000 G0
ENDBRANCH  13  15
ENDBRANCH  12  13
BRANCH  12  17
ATOM     17  C   UNL     1       4.346  76.864  18.669  1.00  0.00    -0.006 C 
ATOM     18  C   UNL     1       5.064  77.000  17.317  1.00  0.00     0.008 C 
ATOM     19  C   UNL     1       3.294  77.974  18.815  1.00  0.00     0.008 C 
ENDBRANCH  12  17
ENDBRANCH  11  12
ENDBRANCH   1  11
TORSDOF 1
ENDMDL
MODEL 2
REMARK VINA RESULT:    23.997      1.427      3.941
REMARK INTER + INTRA:          38.304
REMARK INTER:                  36.195
REMARK INTRA:                   2.110
REMARK UNBOUND:                 1.682
REMARK SMILES CC1=CCC[C@H](C)C(=O)C[C@@H](C(C)C)C(=O)C1
REMARK SMILES IDX 8 1 9 2 6 3 7 4 5 5 4 6 3 7 2 8 1 9 10 11 11 12 15 13 16 14
REMARK SMILES IDX 17 15 12 17 13 18 14 19
REMARK H PARENT
REMARK Flexibility Score: 70.00
ROOT
ATOM      1  C   UNL     1       1.825  75.564  19.513  1.00  0.00     0.136 C 
ATOM      2  O   UNL     1       1.777  75.638  20.733  1.00  0.00    -0.299 OA
ENDROOT
BRANCH   1   3
ATOM      3  C   UNL     1       2.817  76.414  18.750  1.00  0.00     0.053 C 
ATOM      4  C   UNL     1       2.956  77.790  19.412  1.00  0.00     0.016 C 
BRANCH   3   5
ATOM      5  C   UNL     1       4.186  75.716  18.645  1.00  0.00     0.015 C 
BRANCH   5   6
ATOM      6  C   UNL     1       4.504  74.832  19.869  1.00  0.00     0.028 C 
BRANCH   6   7
ATOM      7  C   UNL     1       4.622  73.374  19.487  1.00  0.00    -0.028 C 
ATOM      8  C   UNL     1       4.393  72.823  18.271  1.00  0.00    -0.070 CG0
ATOM      9  C   UNL     1       4.625  71.339  18.127  1.00  0.00     0.039 C 
ATOM     10  G   UNL     1       3.899  73.587  17.053  1.00  0.00     0.000 G0
ENDBRANCH   6   7
ENDBRANCH   5   6
ENDBRANCH   3   5
ENDBRANCH   1   3
BRANCH   1  11
ATOM     11  C   UNL     1       0.854  74.684  18.761  1.00  0.00     0.087 C 
BRANCH  11  12
ATOM     12  C   UNL     1       1.499  73.398  18.188  1.00  0.00     0.066 C 
BRANCH  12  13
ATOM     13  C   UNL     1       2.401  73.653  16.986  1.00  0.00     0.140 C 
ATOM     14  O   UNL     1       1.876  73.998  15.937  1.00  0.00    -0.299 OA
BRANCH  13  15
ATOM     15  C   UNL     1       3.909  73.571  17.047  1.00  0.00     0.106 CG0
ATOM     16  G   UNL     1       4.368  72.802  18.275  1.00  0.00     0.000 G0
ENDBRANCH  13  15
ENDBRANCH  12  13
BRANCH  12  17
ATOM     17  C   UNL     1       0.449  72.274  17.934  1.00  0.00    -0.006 C 
ATOM     18  C   UNL     1       1.061  70.898  17.626  1.00  0.00     0.008 C 
ATOM     19  C   UNL     1      -0.536  72.155  19.108  1.00  0.00     0.008 C 
ENDBRANCH  12  17
ENDBRANCH  11  12
ENDBRANCH   1  11
TORSDOF 1
ENDMDL
MODEL 3
REMARK VINA RESULT:    24.070      1.956      4.198
REMARK INTER + INTRA:          38.416
REMARK INTER:                  36.895
REMARK INTRA:                   1.521
REMARK UNBOUND:                 1.682
REMARK SMILES CC1=CCC[C@H](C)C(=O)C[C@@H](C(C)C)C(=O)C1
REMARK SMILES IDX 8 1 9 2 6 3 7 4 5 5 4 6 3 7 2 8 1 9 10 11 11 12 15 13 16 14
REMARK SMILES IDX 17 15 12 17 13 18 14 19
REMARK H PARENT
REMARK Flexibility Score: 70.00
ROOT
ATOM      1  C   UNL     1       3.171  77.144  19.082  1.00  0.00     0.136 C 
ATOM      2  O   UNL     1       3.393  78.314  18.800  1.00  0.00    -0.299 OA
ENDROOT
BRANCH   1   3
ATOM      3  C   UNL     1       3.954  76.046  18.398  1.00  0.00     0.053 C 
ATOM      4  C   UNL     1       5.246  76.612  17.797  1.00  0.00     0.016 C 
BRANCH   3   5
ATOM      5  C   UNL     1       4.262  74.892  19.371  1.00  0.00     0.015 C 
BRANCH   5   6
ATOM      6  C   UNL     1       4.092  73.501  18.724  1.00  0.00     0.028 C 
BRANCH   6   7
ATOM      7  C   UNL     1       3.515  73.601  17.331  1.00  0.00    -0.028 C 
ATOM      8  C   UNL     1       2.208  73.704  16.989  1.00  0.00    -0.070 CG0
ATOM      9  C   UNL     1       1.884  73.838  15.521  1.00  0.00     0.039 C 
ATOM     10  G   UNL     1       1.050  73.671  17.973  1.00  0.00     0.000 G0
ENDBRANCH   6   7
ENDBRANCH   5   6
ENDBRANCH   3   5
ENDBRANCH   1   3
BRANCH   1  11
ATOM     11  C   UNL     1       2.071  76.790  20.056  1.00  0.00     0.087 C 
BRANCH  11  12
ATOM     12  C   UNL     1       1.635  75.306  19.984  1.00  0.00     0.066 C 
BRANCH  12  13
ATOM     13  C   UNL     1       0.869  74.956  18.714  1.00  0.00     0.140 C 
ATOM     14  O   UNL     1       0.119  75.800  18.245  1.00  0.00    -0.299 OA
BRANCH  13  15
ATOM     15  C   UNL     1       1.045  73.652  17.970  1.00  0.00     0.106 CG0
ATOM     16  G   UNL     1       2.201  73.733  16.987  1.00  0.00     0.000 G0
ENDBRANCH  13  15
ENDBRANCH  12  13
BRANCH  12  17
ATOM     17  C   UNL     1       0.906  74.842  21.283  1.00  0.00    -0.006 C 
ATOM     18  C   UNL     1       0.236  73.464  21.170  1.00  0.00     0.008 C 
ATOM     19  C   UNL     1       1.853  74.863  22.493  1.00  0.00     0.008 C 
ENDBRANCH  12  17
ENDBRANCH  11  12
ENDBRANCH   1  11
TORSDOF 1
ENDMDL
MODEL 4
REMARK VINA RESULT:    24.236      2.044      4.337
REMARK INTER + INTRA:          38.669
REMARK INTER:                  36.594
REMARK INTRA:                   2.075
REMARK UNBOUND:                 1.682
REMARK SMILES CC1=CCC[C@H](C)C(=O)C[C@@H](C(C)C)C(=O)C1
REMARK SMILES IDX 8 1 9 2 6 3 7 4 5 5 4 6 3 7 2 8 1 9 10 11 11 12 15 13 16 14
REMARK SMILES IDX 17 15 12 17 13 18 14 19
REMARK H PARENT
REMARK Flexibility Score: 70.00
ROOT
ATOM      1  C   UNL     1       1.858  73.903  17.638  1.00  0.00     0.136 C 
ATOM      2  O   UNL     1       1.338  72.844  17.314  1.00  0.00    -0.299 OA
ENDROOT
BRANCH   1   3
ATOM      3  C   UNL     1       0.989  75.068  18.055  1.00  0.00     0.053 C 
ATOM      4  C   UNL     1      -0.380  74.981  17.370  1.00  0.00     0.016 C 
BRANCH   3   5
ATOM      5  C   UNL     1       0.831  75.125  19.587  1.00  0.00     0.015 C 
BRANCH   5   6
ATOM      6  C   UNL     1       2.106  75.618  20.303  1.00  0.00     0.028 C 
BRANCH   6   7
ATOM      7  C   UNL     1       2.244  77.121  20.225  1.00  0.00    -0.028 C 
ATOM      8  C   UNL     1       2.961  77.834  19.323  1.00  0.00    -0.070 CG0
ATOM      9  C   UNL     1       2.903  79.338  19.424  1.00  0.00     0.039 C 
ATOM     10  G   UNL     1       3.832  77.227  18.235  1.00  0.00     0.000 G0
ENDBRANCH   6   7
ENDBRANCH   5   6
ENDBRANCH   3   5
ENDBRANCH   1   3
BRANCH   1  11
ATOM     11  C   UNL     1       3.357  74.074  17.555  1.00  0.00     0.087 C 
BRANCH  11  12
ATOM     12  C   UNL     1       3.992  74.610  18.861  1.00  0.00     0.066 C 
BRANCH  12  13
ATOM     13  C   UNL     1       4.587  76.006  18.722  1.00  0.00     0.140 C 
ATOM     14  O   UNL     1       5.775  76.152  18.970  1.00  0.00    -0.299 OA
BRANCH  13  15
ATOM     15  C   UNL     1       3.801  77.198  18.225  1.00  0.00     0.106 CG0
ATOM     16  G   UNL     1       2.970  77.810  19.341  1.00  0.00     0.000 G0
ENDBRANCH  13  15
ENDBRANCH  12  13
BRANCH  12  17
ATOM     17  C   UNL     1       4.982  73.586  19.498  1.00  0.00    -0.006 C 
ATOM     18  C   UNL     1       5.025  73.624  21.034  1.00  0.00     0.008 C 
ATOM     19  C   UNL     1       4.691  72.155  19.020  1.00  0.00     0.008 C 
ENDBRANCH  12  17
ENDBRANCH  11  12
ENDBRANCH   1  11
TORSDOF 1
ENDMDL
MODEL 5
REMARK VINA RESULT:    24.442      1.813      4.367
REMARK INTER + INTRA:          38.984
REMARK INTER:                  37.711
REMARK INTRA:                   1.272
REMARK UNBOUND:                 1.682
REMARK SMILES CC1=CCC[C@H](C)C(=O)C[C@@H](C(C)C)C(=O)C1
REMARK SMILES IDX 8 1 9 2 6 3 7 4 5 5 4 6 3 7 2 8 1 9 10 11 11 12 15 13 16 14
REMARK SMILES IDX 17 15 12 17 13 18 14 19
REMARK H PARENT
REMARK Flexibility Score: 70.00
ROOT
ATOM      1  C   UNL     1       3.947  75.502  18.866  1.00  0.00     0.136 C 
ATOM      2  O   UNL     1       4.652  76.043  18.025  1.00  0.00    -0.299 OA
ENDROOT
BRANCH   1   3
ATOM      3  C   UNL     1       3.025  76.339  19.723  1.00  0.00     0.053 C 
ATOM      4  C   UNL     1       2.871  77.741  19.122  1.00  0.00     0.016 C 
BRANCH   3   5
ATOM      5  C   UNL     1       1.651  75.662  19.892  1.00  0.00     0.015 C 
BRANCH   5   6
ATOM      6  C   UNL     1       1.105  75.076  18.573  1.00  0.00     0.028 C 
BRANCH   6   7
ATOM      7  C   UNL     1       0.298  73.821  18.813  1.00  0.00    -0.028 C 
ATOM      8  C   UNL     1       0.509  72.594  18.279  1.00  0.00    -0.070 CG0
ATOM      9  C   UNL     1      -0.413  71.481  18.712  1.00  0.00     0.039 C 
ATOM     10  G   UNL     1       1.592  72.266  17.263  1.00  0.00     0.000 G0
ENDBRANCH   6   7
ENDBRANCH   5   6
ENDBRANCH   3   5
ENDBRANCH   1   3
BRANCH   1  11
ATOM     11  C   UNL     1       4.046  74.012  19.101  1.00  0.00     0.087 C 
BRANCH  11  12
ATOM     12  C   UNL     1       4.010  73.176  17.798  1.00  0.00     0.066 C 
BRANCH  12  13
ATOM     13  C   UNL     1       2.673  73.241  17.069  1.00  0.00     0.140 C 
ATOM     14  O   UNL     1       2.501  74.143  16.262  1.00  0.00    -0.299 OA
BRANCH  13  15
ATOM     15  C   UNL     1       1.583  72.207  17.241  1.00  0.00     0.106 CG0
ATOM     16  G   UNL     1       0.572  72.646  18.288  1.00  0.00     0.000 G0
ENDBRANCH  13  15
ENDBRANCH  12  13
BRANCH  12  17
ATOM     17  C   UNL     1       4.514  71.717  18.019  1.00  0.00    -0.006 C 
ATOM     18  C   UNL     1       5.694  71.315  17.121  1.00  0.00     0.008 C 
ATOM     19  C   UNL     1       4.872  71.467  19.493  1.00  0.00     0.008 C 
ENDBRANCH  12  17
ENDBRANCH  11  12
ENDBRANCH   1  11
TORSDOF 1
ENDMDL
MODEL 6
REMARK VINA RESULT:    24.556      2.032      4.715
REMARK INTER + INTRA:          39.158
REMARK INTER:                  37.680
REMARK INTRA:                   1.478
REMARK UNBOUND:                 1.682
REMARK SMILES CC1=CCC[C@H](C)C(=O)C[C@@H](C(C)C)C(=O)C1
REMARK SMILES IDX 8 1 9 2 6 3 7 4 5 5 4 6 3 7 2 8 1 9 10 11 11 12 15 13 16 14
REMARK SMILES IDX 17 15 12 17 13 18 14 19
REMARK H PARENT
REMARK Flexibility Score: 70.00
ROOT
ATOM      1  C   UNL     1       4.400  72.945  18.643  1.00  0.00     0.136 C 
ATOM      2  O   UNL     1       5.073  72.045  19.126  1.00  0.00    -0.299 OA
ENDROOT
BRANCH   1   3
ATOM      3  C   UNL     1       4.264  74.258  19.380  1.00  0.00     0.053 C 
ATOM      4  C   UNL     1       5.368  74.390  20.436  1.00  0.00     0.016 C 
BRANCH   3   5
ATOM      5  C   UNL     1       4.294  75.451  18.406  1.00  0.00     0.015 C 
BRANCH   5   6
ATOM      6  C   UNL     1       3.409  76.628  18.871  1.00  0.00     0.028 C 
BRANCH   6   7
ATOM      7  C   UNL     1       2.393  76.188  19.900  1.00  0.00    -0.028 C 
ATOM      8  C   UNL     1       1.252  75.491  19.681  1.00  0.00    -0.070 CG0
ATOM      9  C   UNL     1       0.419  75.128  20.886  1.00  0.00     0.039 C 
ATOM     10  G   UNL     1       0.743  75.070  18.312  1.00  0.00     0.000 G0
ENDBRANCH   6   7
ENDBRANCH   5   6
ENDBRANCH   3   5
ENDBRANCH   1   3
BRANCH   1  11
ATOM     11  C   UNL     1       3.647  72.726  17.351  1.00  0.00     0.087 C 
BRANCH  11  12
ATOM     12  C   UNL     1       2.687  73.886  16.990  1.00  0.00     0.066 C 
BRANCH  12  13
ATOM     13  C   UNL     1       1.372  73.850  17.759  1.00  0.00     0.140 C 
ATOM     14  O   UNL     1       0.868  72.760  17.986  1.00  0.00    -0.299 OA
BRANCH  13  15
ATOM     15  C   UNL     1       0.701  75.086  18.315  1.00  0.00     0.106 CG0
ATOM     16  G   UNL     1       1.283  75.465  19.667  1.00  0.00     0.000 G0
ENDBRANCH  13  15
ENDBRANCH  12  13
BRANCH  12  17
ATOM     17  C   UNL     1       2.488  74.029  15.449  1.00  0.00    -0.006 C 
ATOM     18  C   UNL     1       1.214  74.789  15.047  1.00  0.00     0.008 C 
ATOM     19  C   UNL     1       3.713  74.677  14.786  1.00  0.00     0.008 C 
ENDBRANCH  12  17
ENDBRANCH  11  12
ENDBRANCH   1  11
TORSDOF 1
ENDMDL
MODEL 7
REMARK VINA RESULT:    24.814      1.734      3.672
REMARK INTER + INTRA:          39.551
REMARK INTER:                  37.745
REMARK INTRA:                   1.806
REMARK UNBOUND:                 1.682
REMARK SMILES CC1=CCC[C@H](C)C(=O)C[C@@H](C(C)C)C(=O)C1
REMARK SMILES IDX 8 1 9 2 6 3 7 4 5 5 4 6 3 7 2 8 1 9 10 11 11 12 15 13 16 14
REMARK SMILES IDX 17 15 12 17 13 18 14 19
REMARK H PARENT
REMARK Flexibility Score: 70.00
ROOT
ATOM      1  C   UNL     1       4.401  74.146  19.049  1.00  0.00     0.136 C 
ATOM      2  O   UNL     1       4.528  73.971  20.253  1.00  0.00    -0.299 OA
ENDROOT
BRANCH   1   3
ATOM      3  C   UNL     1       4.823  73.061  18.085  1.00  0.00     0.053 C 
ATOM      4  C   UNL     1       4.739  71.688  18.763  1.00  0.00     0.016 C 
BRANCH   3   5
ATOM      5  C   UNL     1       3.971  73.091  16.802  1.00  0.00     0.015 C 
BRANCH   5   6
ATOM      6  C   UNL     1       2.739  74.013  16.921  1.00  0.00     0.028 C 
BRANCH   6   7
ATOM      7  C   UNL     1       1.554  73.285  17.513  1.00  0.00    -0.028 C 
ATOM      8  C   UNL     1       0.609  73.793  18.340  1.00  0.00    -0.070 CG0
ATOM      9  C   UNL     1      -0.510  72.872  18.761  1.00  0.00     0.039 C 
ATOM     10  G   UNL     1       0.608  75.210  18.888  1.00  0.00     0.000 G0
ENDBRANCH   6   7
ENDBRANCH   5   6
ENDBRANCH   3   5
ENDBRANCH   1   3
BRANCH   1  11
ATOM     11  C   UNL     1       3.891  75.467  18.519  1.00  0.00     0.087 C 
BRANCH  11  12
ATOM     12  C   UNL     1       2.988  76.228  19.520  1.00  0.00     0.066 C 
BRANCH  12  13
ATOM     13  C   UNL     1       1.707  75.483  19.874  1.00  0.00     0.140 C 
ATOM     14  O   UNL     1       1.550  75.127  21.034  1.00  0.00    -0.299 OA
BRANCH  13  15
ATOM     15  C   UNL     1       0.594  75.226  18.883  1.00  0.00     0.106 CG0
ATOM     16  G   UNL     1       0.637  73.796  18.370  1.00  0.00     0.000 G0
ENDBRANCH  13  15
ENDBRANCH  12  13
BRANCH  12  17
ATOM     17  C   UNL     1       2.733  77.703  19.080  1.00  0.00    -0.006 C 
ATOM     18  C   UNL     1       2.471  78.671  20.244  1.00  0.00     0.008 C 
ATOM     19  C   UNL     1       3.883  78.233  18.210  1.00  0.00     0.008 C 
ENDBRANCH  12  17
ENDBRANCH  11  12
ENDBRANCH   1  11
TORSDOF 1
ENDMDL
MODEL 8
REMARK VINA RESULT:    24.879      1.470      2.266
REMARK INTER + INTRA:          39.650
REMARK INTER:                  38.682
REMARK INTRA:                   0.968
REMARK UNBOUND:                 1.682
REMARK SMILES CC1=CCC[C@H](C)C(=O)C[C@@H](C(C)C)C(=O)C1
REMARK SMILES IDX 8 1 9 2 6 3 7 4 5 5 4 6 3 7 2 8 1 9 10 11 11 12 15 13 16 14
REMARK SMILES IDX 17 15 12 17 13 18 14 19
REMARK H PARENT
REMARK Flexibility Score: 70.00
ROOT
ATOM      1  C   UNL     1       1.231  75.249  18.869  1.00  0.00     0.136 C 
ATOM      2  O   UNL     1       0.111  75.713  18.703  1.00  0.00    -0.299 OA
ENDROOT
BRANCH   1   3
ATOM      3  C   UNL     1       1.555  73.868  18.344  1.00  0.00     0.053 C 
ATOM      4  C   UNL     1       0.267  73.060  18.146  1.00  0.00     0.016 C 
BRANCH   3   5
ATOM      5  C   UNL     1       2.360  73.945  17.033  1.00  0.00     0.015 C 
BRANCH   5   6
ATOM      6  C   UNL     1       3.871  73.709  17.242  1.00  0.00     0.028 C 
BRANCH   6   7
ATOM      7  C   UNL     1       4.206  73.500  18.701  1.00  0.00    -0.028 C 
ATOM      8  C   UNL     1       4.794  74.384  19.543  1.00  0.00    -0.070 CG0
ATOM      9  C   UNL     1       4.982  73.955  20.977  1.00  0.00     0.039 C 
ATOM     10  G   UNL     1       5.294  75.762  19.142  1.00  0.00     0.000 G0
ENDBRANCH   6   7
ENDBRANCH   5   6
ENDBRANCH   3   5
ENDBRANCH   1   3
BRANCH   1  11
ATOM     11  C   UNL     1       2.267  76.017  19.656  1.00  0.00     0.087 C 
BRANCH  11  12
ATOM     12  C   UNL     1       3.035  77.064  18.812  1.00  0.00     0.066 C 
BRANCH  12  13
ATOM     13  C   UNL     1       4.404  76.584  18.346  1.00  0.00     0.140 C 
ATOM     14  O   UNL     1       4.793  76.940  17.243  1.00  0.00    -0.299 OA
BRANCH  13  15
ATOM     15  C   UNL     1       5.330  75.752  19.204  1.00  0.00     0.106 CG0
ATOM     16  G   UNL     1       4.714  74.401  19.525  1.00  0.00     0.000 G0
ENDBRANCH  13  15
ENDBRANCH  12  13
BRANCH  12  17
ATOM     17  C   UNL     1       3.083  78.460  19.506  1.00  0.00    -0.006 C 
ATOM     18  C   UNL     1       2.495  79.602  18.662  1.00  0.00     0.008 C 
ATOM     19  C   UNL     1       2.400  78.424  20.882  1.00  0.00     0.008 C 
ENDBRANCH  12  17
ENDBRANCH  11  12
ENDBRANCH   1  11
TORSDOF 1
ENDMDL
MODEL 9
REMARK VINA RESULT:    25.303      2.204      4.561
REMARK INTER + INTRA:          40.297
REMARK INTER:                  38.932
REMARK INTRA:                   1.365
REMARK UNBOUND:                 1.682
REMARK SMILES CC1=CCC[C@H](C)C(=O)C[C@@H](C(C)C)C(=O)C1
REMARK SMILES IDX 8 1 9 2 6 3 7 4 5 5 4 6 3 7 2 8 1 9 10 11 11 12 15 13 16 14
REMARK SMILES IDX 17 15 12 17 13 18 14 19
REMARK H PARENT
REMARK Flexibility Score: 70.00
ROOT
ATOM      1  C   UNL     1       2.520  73.767  17.334  1.00  0.00     0.136 C 
ATOM      2  O   UNL     1       2.828  73.891  16.156  1.00  0.00    -0.299 OA
ENDROOT
BRANCH   1   3
ATOM      3  C   UNL     1       3.563  73.331  18.338  1.00  0.00     0.053 C 
ATOM      4  C   UNL     1       4.616  72.447  17.660  1.00  0.00     0.016 C 
BRANCH   3   5
ATOM      5  C   UNL     1       4.223  74.545  19.019  1.00  0.00     0.015 C 
BRANCH   5   6
ATOM      6  C   UNL     1       4.557  75.681  18.029  1.00  0.00     0.028 C 
BRANCH   6   7
ATOM      7  C   UNL     1       3.916  76.986  18.442  1.00  0.00    -0.028 C 
ATOM      8  C   UNL     1       3.020  77.181  19.439  1.00  0.00    -0.070 CG0
ATOM      9  C   UNL     1       2.558  78.596  19.689  1.00  0.00     0.039 C 
ATOM     10  G   UNL     1       2.434  76.078  20.305  1.00  0.00     0.000 G0
ENDBRANCH   6   7
ENDBRANCH   5   6
ENDBRANCH   3   5
ENDBRANCH   1   3
BRANCH   1  11
ATOM     11  C   UNL     1       1.090  73.977  17.776  1.00  0.00     0.087 C 
BRANCH  11  12
ATOM     12  C   UNL     1       0.810  75.404  18.309  1.00  0.00     0.066 C 
BRANCH  12  13
ATOM     13  C   UNL     1       1.112  75.570  19.793  1.00  0.00     0.140 C 
ATOM     14  O   UNL     1       0.263  75.212  20.596  1.00  0.00    -0.299 OA
BRANCH  13  15
ATOM     15  C   UNL     1       2.433  76.085  20.320  1.00  0.00     0.106 CG0
ATOM     16  G   UNL     1       2.990  77.180  19.425  1.00  0.00     0.000 G0
ENDBRANCH  13  15
ENDBRANCH  12  13
BRANCH  12  17
ATOM     17  C   UNL     1      -0.611  75.912  17.915  1.00  0.00    -0.006 C 
ATOM     18  C   UNL     1      -0.810  77.425  18.092  1.00  0.00     0.008 C 
ATOM     19  C   UNL     1      -0.972  75.503  16.478  1.00  0.00     0.008 C 
ENDBRANCH  12  17
ENDBRANCH  11  12
ENDBRANCH   1  11
TORSDOF 1
ENDMDL
