MODEL 1
REMARK VINA RESULT:    -5.214      0.000      0.000
REMARK INTER + INTRA:          -7.631
REMARK INTER:                  -7.043
REMARK INTRA:                  -0.588
REMARK UNBOUND:                -0.588
REMARK SMILES CC(=O)CCC=C(C)CCC=C(C)C
REMARK SMILES IDX 7 1 6 2 8 3 9 4 10 5 11 6 13 7 12 8 14 9 5 10 4 11 2 12 3 13
REMARK SMILES IDX 1 14
REMARK H PARENT
REMARK Flexibility Score: inf
ROOT
ATOM      1  C   UNL     1     -13.583 -22.175  20.189  1.00  0.00    -0.077 C 
ATOM      2  C   UNL     1     -12.381 -22.136  20.810  1.00  0.00    -0.028 C 
ATOM      3  C   UNL     1     -13.781 -22.900  18.879  1.00  0.00     0.039 C 
ENDROOT
BRANCH   1   4
ATOM      4  C   UNL     1     -14.754 -21.449  20.815  1.00  0.00     0.034 C 
BRANCH   4   5
ATOM      5  C   UNL     1     -15.318 -22.246  21.997  1.00  0.00     0.032 C 
BRANCH   5   6
ATOM      6  C   UNL     1     -15.139 -21.486  23.288  1.00  0.00    -0.028 C 
ATOM      7  C   UNL     1     -17.507 -20.671  23.322  1.00  0.00     0.039 C 
ATOM      8  C   UNL     1     -16.120 -20.793  23.908  1.00  0.00    -0.080 C 
ATOM      9  C   UNL     1     -15.803 -20.112  25.215  1.00  0.00     0.039 C 
ENDBRANCH   5   6
ENDBRANCH   4   5
ENDBRANCH   1   4
BRANCH   2  10
ATOM     10  C   UNL     1     -11.145 -22.852  20.324  1.00  0.00     0.035 C 
BRANCH  10  11
ATOM     11  C   UNL     1      -9.991 -21.857  20.124  1.00  0.00     0.079 C 
BRANCH  11  12
ATOM     12  C   UNL     1      -9.341 -21.921  18.760  1.00  0.00     0.130 C 
ATOM     13  O   UNL     1      -8.278 -22.512  18.653  1.00  0.00    -0.300 OA
ATOM     14  C   UNL     1      -9.946 -21.296  17.533  1.00  0.00     0.087 C 
ENDBRANCH  11  12
ENDBRANCH  10  11
ENDBRANCH   2  10
TORSDOF 6
ENDMDL
MODEL 2
REMARK VINA RESULT:    -5.186      1.400      1.907
REMARK INTER + INTRA:          -7.593
REMARK INTER:                  -6.646
REMARK INTRA:                  -0.948
REMARK UNBOUND:                -0.588
REMARK SMILES CC(=O)CCC=C(C)CCC=C(C)C
REMARK SMILES IDX 7 1 6 2 8 3 9 4 10 5 11 6 13 7 12 8 14 9 5 10 4 11 2 12 3 13
REMARK SMILES IDX 1 14
REMARK H PARENT
REMARK Flexibility Score: inf
ROOT
ATOM      1  C   UNL     1     -12.995 -21.967  20.596  1.00  0.00    -0.077 C 
ATOM      2  C   UNL     1     -11.798 -21.814  21.207  1.00  0.00    -0.028 C 
ATOM      3  C   UNL     1     -13.140 -22.748  19.311  1.00  0.00     0.039 C 
ENDROOT
BRANCH   1   4
ATOM      4  C   UNL     1     -14.217 -21.317  21.207  1.00  0.00     0.034 C 
BRANCH   4   5
ATOM      5  C   UNL     1     -15.050 -22.344  21.983  1.00  0.00     0.032 C 
BRANCH   5   6
ATOM      6  C   UNL     1     -14.931 -22.116  23.469  1.00  0.00    -0.028 C 
ATOM      7  C   UNL     1     -13.481 -24.128  23.822  1.00  0.00     0.039 C 
ATOM      8  C   UNL     1     -14.209 -22.895  24.306  1.00  0.00    -0.080 C 
ATOM      9  C   UNL     1     -14.153 -22.522  25.765  1.00  0.00     0.039 C 
ENDBRANCH   5   6
ENDBRANCH   4   5
ENDBRANCH   1   4
BRANCH   2  10
ATOM     10  C   UNL     1     -10.511 -22.444  20.736  1.00  0.00     0.035 C 
BRANCH  10  11
ATOM     11  C   UNL     1      -9.733 -21.472  19.837  1.00  0.00     0.079 C 
BRANCH  11  12
ATOM     12  C   UNL     1      -9.598 -21.923  18.400  1.00  0.00     0.130 C 
ATOM     13  O   UNL     1      -9.165 -23.045  18.183  1.00  0.00    -0.300 OA
ATOM     14  C   UNL     1      -9.976 -21.057  17.229  1.00  0.00     0.087 C 
ENDBRANCH  11  12
ENDBRANCH  10  11
ENDBRANCH   2  10
TORSDOF 6
ENDMDL
MODEL 3
REMARK VINA RESULT:    -5.092      3.168      7.240
REMARK INTER + INTRA:          -7.466
REMARK INTER:                  -6.940
REMARK INTRA:                  -0.526
REMARK UNBOUND:                -0.588
REMARK SMILES CC(=O)CCC=C(C)CCC=C(C)C
REMARK SMILES IDX 7 1 6 2 8 3 9 4 10 5 11 6 13 7 12 8 14 9 5 10 4 11 2 12 3 13
REMARK SMILES IDX 1 14
REMARK H PARENT
REMARK Flexibility Score: inf
ROOT
ATOM      1  C   UNL     1     -12.923 -21.611  20.834  1.00  0.00    -0.077 C 
ATOM      2  C   UNL     1     -14.181 -22.019  20.550  1.00  0.00    -0.028 C 
ATOM      3  C   UNL     1     -12.526 -21.156  22.219  1.00  0.00     0.039 C 
ENDROOT
BRANCH   1   4
ATOM      4  C   UNL     1     -11.893 -21.586  19.725  1.00  0.00     0.034 C 
BRANCH   4   5
ATOM      5  C   UNL     1     -11.208 -22.950  19.590  1.00  0.00     0.032 C 
BRANCH   5   6
ATOM      6  C   UNL     1      -9.837 -22.801  18.977  1.00  0.00    -0.028 C 
ATOM      7  C   UNL     1      -8.679 -22.736  21.197  1.00  0.00     0.039 C 
ATOM      8  C   UNL     1      -8.688 -22.728  19.687  1.00  0.00    -0.080 C 
ATOM      9  C   UNL     1      -7.386 -22.617  18.935  1.00  0.00     0.039 C 
ENDBRANCH   5   6
ENDBRANCH   4   5
ENDBRANCH   1   4
BRANCH   2  10
ATOM     10  C   UNL     1     -15.291 -22.138  21.565  1.00  0.00     0.035 C 
BRANCH  10  11
ATOM     11  C   UNL     1     -16.285 -20.977  21.413  1.00  0.00     0.079 C 
BRANCH  11  12
ATOM     12  C   UNL     1     -17.513 -21.088  22.290  1.00  0.00     0.130 C 
ATOM     13  O   UNL     1     -18.438 -21.787  21.906  1.00  0.00    -0.300 OA
ATOM     14  C   UNL     1     -17.642 -20.383  23.612  1.00  0.00     0.087 C 
ENDBRANCH  11  12
ENDBRANCH  10  11
ENDBRANCH   2  10
TORSDOF 6
ENDMDL
MODEL 4
REMARK VINA RESULT:    -5.069      1.883      3.124
REMARK INTER + INTRA:          -7.435
REMARK INTER:                  -6.430
REMARK INTRA:                  -1.005
REMARK UNBOUND:                -0.588
REMARK SMILES CC(=O)CCC=C(C)CCC=C(C)C
REMARK SMILES IDX 7 1 6 2 8 3 9 4 10 5 11 6 13 7 12 8 14 9 5 10 4 11 2 12 3 13
REMARK SMILES IDX 1 14
REMARK H PARENT
REMARK Flexibility Score: inf
ROOT
ATOM      1  C   UNL     1     -13.567 -22.771  24.045  1.00  0.00    -0.077 C 
ATOM      2  C   UNL     1     -12.622 -22.197  23.266  1.00  0.00    -0.028 C 
ATOM      3  C   UNL     1     -13.821 -24.260  24.025  1.00  0.00     0.039 C 
ENDROOT
BRANCH   1   4
ATOM      4  C   UNL     1     -14.409 -21.890  24.944  1.00  0.00     0.034 C 
BRANCH   4   5
ATOM      5  C   UNL     1     -14.958 -20.688  24.168  1.00  0.00     0.032 C 
BRANCH   5   6
ATOM      6  C   UNL     1     -16.350 -20.970  23.660  1.00  0.00    -0.028 C 
ATOM      7  C   UNL     1     -15.594 -21.275  21.291  1.00  0.00     0.039 C 
ATOM      8  C   UNL     1     -16.649 -21.260  22.373  1.00  0.00    -0.080 C 
ATOM      9  C   UNL     1     -18.083 -21.557  22.019  1.00  0.00     0.039 C 
ENDBRANCH   5   6
ENDBRANCH   4   5
ENDBRANCH   1   4
BRANCH   2  10
ATOM     10  C   UNL     1     -11.684 -22.956  22.362  1.00  0.00     0.035 C 
BRANCH  10  11
ATOM     11  C   UNL     1     -12.069 -22.749  20.889  1.00  0.00     0.079 C 
BRANCH  11  12
ATOM     12  C   UNL     1     -11.000 -22.084  20.052  1.00  0.00     0.130 C 
ATOM     13  O   UNL     1     -10.989 -20.864  19.989  1.00  0.00    -0.300 OA
ATOM     14  C   UNL     1      -9.950 -22.855  19.299  1.00  0.00     0.087 C 
ENDBRANCH  11  12
ENDBRANCH  10  11
ENDBRANCH   2  10
TORSDOF 6
ENDMDL
MODEL 5
REMARK VINA RESULT:    -5.006      2.902      6.873
REMARK INTER + INTRA:          -7.350
REMARK INTER:                  -6.598
REMARK INTRA:                  -0.752
REMARK UNBOUND:                -0.588
REMARK SMILES CC(=O)CCC=C(C)CCC=C(C)C
REMARK SMILES IDX 7 1 6 2 8 3 9 4 10 5 11 6 13 7 12 8 14 9 5 10 4 11 2 12 3 13
REMARK SMILES IDX 1 14
REMARK H PARENT
REMARK Flexibility Score: inf
ROOT
ATOM      1  C   UNL     1     -12.169 -21.475  21.411  1.00  0.00    -0.077 C 
ATOM      2  C   UNL     1     -13.446 -21.112  21.153  1.00  0.00    -0.028 C 
ATOM      3  C   UNL     1     -11.782 -22.915  21.649  1.00  0.00     0.039 C 
ENDROOT
BRANCH   1   4
ATOM      4  C   UNL     1     -11.104 -20.402  21.488  1.00  0.00     0.034 C 
BRANCH   4   5
ATOM      5  C   UNL     1      -9.891 -20.777  20.629  1.00  0.00     0.032 C 
BRANCH   5   6
ATOM      6  C   UNL     1     -10.170 -20.519  19.169  1.00  0.00    -0.028 C 
ATOM      7  C   UNL     1      -9.253 -22.733  18.441  1.00  0.00     0.039 C 
ATOM      8  C   UNL     1      -9.911 -21.399  18.176  1.00  0.00    -0.080 C 
ATOM      9  C   UNL     1     -10.278 -21.018  16.765  1.00  0.00     0.039 C 
ENDBRANCH   5   6
ENDBRANCH   4   5
ENDBRANCH   1   4
BRANCH   2  10
ATOM     10  C   UNL     1     -14.595 -22.078  21.001  1.00  0.00     0.035 C 
BRANCH  10  11
ATOM     11  C   UNL     1     -15.249 -22.353  22.364  1.00  0.00     0.079 C 
BRANCH  11  12
ATOM     12  C   UNL     1     -16.353 -21.388  22.733  1.00  0.00     0.130 C 
ATOM     13  O   UNL     1     -16.147 -20.588  23.632  1.00  0.00    -0.300 OA
ATOM     14  C   UNL     1     -17.688 -21.367  22.040  1.00  0.00     0.087 C 
ENDBRANCH  11  12
ENDBRANCH  10  11
ENDBRANCH   2  10
TORSDOF 6
ENDMDL
MODEL 6
REMARK VINA RESULT:    -4.984      2.548      6.657
REMARK INTER + INTRA:          -7.320
REMARK INTER:                  -6.681
REMARK INTRA:                  -0.639
REMARK UNBOUND:                -0.588
REMARK SMILES CC(=O)CCC=C(C)CCC=C(C)C
REMARK SMILES IDX 7 1 6 2 8 3 9 4 10 5 11 6 13 7 12 8 14 9 5 10 4 11 2 12 3 13
REMARK SMILES IDX 1 14
REMARK H PARENT
REMARK Flexibility Score: inf
ROOT
ATOM      1  C   UNL     1     -13.478 -22.028  21.370  1.00  0.00    -0.077 C 
ATOM      2  C   UNL     1     -13.199 -22.717  22.500  1.00  0.00    -0.028 C 
ATOM      3  C   UNL     1     -14.898 -21.762  20.928  1.00  0.00     0.039 C 
ENDROOT
BRANCH   1   4
ATOM      4  C   UNL     1     -12.334 -21.533  20.513  1.00  0.00     0.034 C 
BRANCH   4   5
ATOM      5  C   UNL     1     -11.965 -22.569  19.446  1.00  0.00     0.032 C 
BRANCH   5   6
ATOM      6  C   UNL     1     -10.493 -22.895  19.504  1.00  0.00    -0.028 C 
ATOM      7  C   UNL     1      -9.912 -21.341  17.627  1.00  0.00     0.039 C 
ATOM      8  C   UNL     1      -9.555 -22.333  18.709  1.00  0.00    -0.080 C 
ATOM      9  C   UNL     1      -8.114 -22.731  18.906  1.00  0.00     0.039 C 
ENDBRANCH   5   6
ENDBRANCH   4   5
ENDBRANCH   1   4
BRANCH   2  10
ATOM     10  C   UNL     1     -14.238 -23.225  23.469  1.00  0.00     0.035 C 
BRANCH  10  11
ATOM     11  C   UNL     1     -14.210 -22.405  24.767  1.00  0.00     0.079 C 
BRANCH  11  12
ATOM     12  C   UNL     1     -14.597 -20.953  24.597  1.00  0.00     0.130 C 
ATOM     13  O   UNL     1     -13.706 -20.123  24.504  1.00  0.00    -0.300 OA
ATOM     14  C   UNL     1     -16.026 -20.488  24.531  1.00  0.00     0.087 C 
ENDBRANCH  11  12
ENDBRANCH  10  11
ENDBRANCH   2  10
TORSDOF 6
ENDMDL
MODEL 7
REMARK VINA RESULT:    -4.965      3.176      6.756
REMARK INTER + INTRA:          -7.295
REMARK INTER:                  -6.401
REMARK INTRA:                  -0.894
REMARK UNBOUND:                -0.588
REMARK SMILES CC(=O)CCC=C(C)CCC=C(C)C
REMARK SMILES IDX 7 1 6 2 8 3 9 4 10 5 11 6 13 7 12 8 14 9 5 10 4 11 2 12 3 13
REMARK SMILES IDX 1 14
REMARK H PARENT
REMARK Flexibility Score: inf
ROOT
ATOM      1  C   UNL     1     -12.466 -21.646  22.781  1.00  0.00    -0.077 C 
ATOM      2  C   UNL     1     -13.721 -21.163  22.931  1.00  0.00    -0.028 C 
ATOM      3  C   UNL     1     -12.153 -23.116  22.932  1.00  0.00     0.039 C 
ENDROOT
BRANCH   1   4
ATOM      4  C   UNL     1     -11.342 -20.680  22.476  1.00  0.00     0.034 C 
BRANCH   4   5
ATOM      5  C   UNL     1     -11.382 -20.244  21.007  1.00  0.00     0.032 C 
BRANCH   5   6
ATOM      6  C   UNL     1     -10.383 -21.025  20.190  1.00  0.00    -0.028 C 
ATOM      7  C   UNL     1     -12.110 -22.604  19.297  1.00  0.00     0.039 C 
ATOM      8  C   UNL     1     -10.699 -22.074  19.397  1.00  0.00    -0.080 C 
ATOM      9  C   UNL     1      -9.598 -22.736  18.609  1.00  0.00     0.039 C 
ENDBRANCH   5   6
ENDBRANCH   4   5
ENDBRANCH   1   4
BRANCH   2  10
ATOM     10  C   UNL     1     -14.938 -22.015  23.189  1.00  0.00     0.035 C 
BRANCH  10  11
ATOM     11  C   UNL     1     -15.961 -21.848  22.055  1.00  0.00     0.079 C 
BRANCH  11  12
ATOM     12  C   UNL     1     -17.305 -21.314  22.501  1.00  0.00     0.130 C 
ATOM     13  O   UNL     1     -18.303 -21.688  21.904  1.00  0.00    -0.300 OA
ATOM     14  C   UNL     1     -17.465 -20.351  23.645  1.00  0.00     0.087 C 
ENDBRANCH  11  12
ENDBRANCH  10  11
ENDBRANCH   2  10
TORSDOF 6
ENDMDL
MODEL 8
REMARK VINA RESULT:    -4.896      1.854      2.697
REMARK INTER + INTRA:          -7.202
REMARK INTER:                  -6.126
REMARK INTRA:                  -1.076
REMARK UNBOUND:                -0.588
REMARK SMILES CC(=O)CCC=C(C)CCC=C(C)C
REMARK SMILES IDX 7 1 6 2 8 3 9 4 10 5 11 6 13 7 12 8 14 9 5 10 4 11 2 12 3 13
REMARK SMILES IDX 1 14
REMARK H PARENT
REMARK Flexibility Score: inf
ROOT
ATOM      1  C   UNL     1     -11.837 -22.860  22.991  1.00  0.00    -0.077 C 
ATOM      2  C   UNL     1     -12.208 -22.941  21.693  1.00  0.00    -0.028 C 
ATOM      3  C   UNL     1     -10.836 -21.836  23.472  1.00  0.00     0.039 C 
ENDROOT
BRANCH   1   4
ATOM      4  C   UNL     1     -12.425 -23.840  23.983  1.00  0.00     0.034 C 
BRANCH   4   5
ATOM      5  C   UNL     1     -13.956 -23.765  23.980  1.00  0.00     0.032 C 
BRANCH   5   6
ATOM      6  C   UNL     1     -14.432 -22.527  24.700  1.00  0.00    -0.028 C 
ATOM      7  C   UNL     1     -15.502 -21.557  22.653  1.00  0.00     0.039 C 
ATOM      8  C   UNL     1     -15.149 -21.537  24.122  1.00  0.00    -0.080 C 
ATOM      9  C   UNL     1     -15.588 -20.376  24.977  1.00  0.00     0.039 C 
ENDBRANCH   5   6
ENDBRANCH   4   5
ENDBRANCH   1   4
BRANCH   2  10
ATOM     10  C   UNL     1     -11.739 -22.001  20.610  1.00  0.00     0.035 C 
BRANCH  10  11
ATOM     11  C   UNL     1     -11.251 -22.791  19.386  1.00  0.00     0.079 C 
BRANCH  11  12
ATOM     12  C   UNL     1      -9.753 -22.756  19.177  1.00  0.00     0.130 C 
ATOM     13  O   UNL     1      -9.330 -22.610  18.041  1.00  0.00    -0.300 OA
ATOM     14  C   UNL     1      -8.766 -22.888  20.304  1.00  0.00     0.087 C 
ENDBRANCH  11  12
ENDBRANCH  10  11
ENDBRANCH   2  10
TORSDOF 6
ENDMDL
MODEL 9
REMARK VINA RESULT:    -4.825      2.880      6.715
REMARK INTER + INTRA:          -7.105
REMARK INTER:                  -6.049
REMARK INTRA:                  -1.056
REMARK UNBOUND:                -0.588
REMARK SMILES CC(=O)CCC=C(C)CCC=C(C)C
REMARK SMILES IDX 7 1 6 2 8 3 9 4 10 5 11 6 13 7 12 8 14 9 5 10 4 11 2 12 3 13
REMARK SMILES IDX 1 14
REMARK H PARENT
REMARK Flexibility Score: inf
ROOT
ATOM      1  C   UNL     1     -12.457 -22.065  21.746  1.00  0.00    -0.077 C 
ATOM      2  C   UNL     1     -13.719 -22.106  21.259  1.00  0.00    -0.028 C 
ATOM      3  C   UNL     1     -11.983 -20.941  22.637  1.00  0.00     0.039 C 
ENDROOT
BRANCH   1   4
ATOM      4  C   UNL     1     -11.489 -23.163  21.364  1.00  0.00     0.034 C 
BRANCH   4   5
ATOM      5  C   UNL     1     -10.127 -22.578  20.976  1.00  0.00     0.032 C 
BRANCH   5   6
ATOM      6  C   UNL     1     -10.020 -22.419  19.480  1.00  0.00    -0.028 C 
ATOM      7  C   UNL     1     -10.295 -19.931  19.566  1.00  0.00     0.039 C 
ATOM      8  C   UNL     1     -10.069 -21.232  18.833  1.00  0.00    -0.080 C 
ATOM      9  C   UNL     1      -9.911 -21.224  17.335  1.00  0.00     0.039 C 
ENDBRANCH   5   6
ENDBRANCH   4   5
ENDBRANCH   1   4
BRANCH   2  10
ATOM     10  C   UNL     1     -14.797 -21.106  21.595  1.00  0.00     0.035 C 
BRANCH  10  11
ATOM     11  C   UNL     1     -15.720 -21.658  22.692  1.00  0.00     0.079 C 
BRANCH  11  12
ATOM     12  C   UNL     1     -15.311 -21.280  24.099  1.00  0.00     0.130 C 
ATOM     13  O   UNL     1     -15.629 -20.178  24.518  1.00  0.00    -0.300 OA
ATOM     14  C   UNL     1     -14.538 -22.201  25.003  1.00  0.00     0.087 C 
ENDBRANCH  11  12
ENDBRANCH  10  11
ENDBRANCH   2  10
TORSDOF 6
ENDMDL
