MODEL 1
REMARK VINA RESULT:    -5.483      0.000      0.000
REMARK INTER + INTRA:          -9.660
REMARK INTER:                  -7.888
REMARK INTRA:                  -1.772
REMARK UNBOUND:                -1.772
REMARK SMILES CC(C)=CCCC(C)=CCCC(C)=CCO
REMARK SMILES IDX 10 1 9 2 7 3 8 4 6 5 5 6 4 7 1 8 2 9 3 10 11 11 12 12 14 13
REMARK SMILES IDX 13 14 15 15 16 16
REMARK H PARENT 16 17
REMARK Flexibility Score: inf
ROOT
ATOM      1  C   UNL     1      61.334 -18.080  20.937  1.00  0.00     0.032 C 
ENDROOT
BRANCH   1   2
ATOM      2  C   UNL     1      60.040 -17.383  21.269  1.00  0.00    -0.028 C 
ATOM      3  C   UNL     1      59.248 -16.765  20.363  1.00  0.00    -0.077 C 
ATOM      4  C   UNL     1      59.576 -16.763  18.888  1.00  0.00     0.039 C 
BRANCH   3   5
ATOM      5  C   UNL     1      57.991 -16.068  20.839  1.00  0.00     0.034 C 
BRANCH   5   6
ATOM      6  C   UNL     1      58.325 -14.982  21.867  1.00  0.00     0.032 C 
BRANCH   6   7
ATOM      7  C   UNL     1      59.109 -13.854  21.239  1.00  0.00    -0.028 C 
ATOM      8  C   UNL     1      61.020 -14.191  22.812  1.00  0.00     0.039 C 
ATOM      9  C   UNL     1      60.337 -13.489  21.665  1.00  0.00    -0.080 C 
ATOM     10  C   UNL     1      61.063 -12.353  20.991  1.00  0.00     0.039 C 
ENDBRANCH   6   7
ENDBRANCH   5   6
ENDBRANCH   3   5
ENDBRANCH   1   2
BRANCH   1  11
ATOM     11  C   UNL     1      62.534 -17.270  21.441  1.00  0.00     0.034 C 
BRANCH  11  12
ATOM     12  C   UNL     1      63.349 -16.739  20.282  1.00  0.00    -0.075 C 
ATOM     13  C   UNL     1      64.302 -17.526  19.733  1.00  0.00    -0.000 C 
ATOM     14  C   UNL     1      63.066 -15.353  19.752  1.00  0.00     0.039 C 
BRANCH  13  15
ATOM     15  C   UNL     1      65.168 -17.112  18.575  1.00  0.00     0.183 C 
BRANCH  15  16
ATOM     16  O   UNL     1      66.337 -17.881  18.558  1.00  0.00    -0.392 OA
ATOM     17  H   UNL     1      67.037 -17.309  18.149  1.00  0.00     0.210 HD
ENDBRANCH  15  16
ENDBRANCH  13  15
ENDBRANCH  11  12
ENDBRANCH   1  11
TORSDOF 8
ENDMDL
MODEL 2
REMARK VINA RESULT:    -5.452      1.350      2.140
REMARK INTER + INTRA:          -9.615
REMARK INTER:                  -8.020
REMARK INTRA:                  -1.595
REMARK UNBOUND:                -1.772
REMARK SMILES CC(C)=CCCC(C)=CCCC(C)=CCO
REMARK SMILES IDX 10 1 9 2 7 3 8 4 6 5 5 6 4 7 1 8 2 9 3 10 11 11 12 12 14 13
REMARK SMILES IDX 13 14 15 15 16 16
REMARK H PARENT 16 17
REMARK Flexibility Score: inf
ROOT
ATOM      1  C   UNL     1      61.748 -18.002  21.413  1.00  0.00     0.032 C 
ENDROOT
BRANCH   1   2
ATOM      2  C   UNL     1      60.747 -17.340  22.326  1.00  0.00    -0.028 C 
ATOM      3  C   UNL     1      61.037 -16.324  23.171  1.00  0.00    -0.077 C 
ATOM      4  C   UNL     1      62.417 -15.712  23.238  1.00  0.00     0.039 C 
BRANCH   3   5
ATOM      5  C   UNL     1      59.944 -15.776  24.064  1.00  0.00     0.034 C 
BRANCH   5   6
ATOM      6  C   UNL     1      58.971 -14.904  23.264  1.00  0.00     0.032 C 
BRANCH   6   7
ATOM      7  C   UNL     1      59.616 -13.604  22.845  1.00  0.00    -0.028 C 
ATOM      8  C   UNL     1      59.550 -14.248  20.432  1.00  0.00     0.039 C 
ATOM      9  C   UNL     1      59.882 -13.299  21.556  1.00  0.00    -0.080 C 
ATOM     10  C   UNL     1      60.527 -11.982  21.210  1.00  0.00     0.039 C 
ENDBRANCH   6   7
ENDBRANCH   5   6
ENDBRANCH   3   5
ENDBRANCH   1   2
BRANCH   1  11
ATOM     11  C   UNL     1      61.712 -17.368  20.017  1.00  0.00     0.034 C 
BRANCH  11  12
ATOM     12  C   UNL     1      63.041 -16.726  19.684  1.00  0.00    -0.075 C 
ATOM     13  C   UNL     1      64.103 -17.516  19.408  1.00  0.00    -0.000 C 
ATOM     14  C   UNL     1      63.146 -15.219  19.647  1.00  0.00     0.039 C 
BRANCH  13  15
ATOM     15  C   UNL     1      65.469 -16.993  19.056  1.00  0.00     0.183 C 
BRANCH  15  16
ATOM     16  O   UNL     1      66.226 -18.008  18.460  1.00  0.00    -0.392 OA
ATOM     17  H   UNL     1      65.852 -18.864  18.797  1.00  0.00     0.210 HD
ENDBRANCH  15  16
ENDBRANCH  13  15
ENDBRANCH  11  12
ENDBRANCH   1  11
TORSDOF 8
ENDMDL
MODEL 3
REMARK VINA RESULT:    -5.335      2.697      5.515
REMARK INTER + INTRA:          -9.447
REMARK INTER:                  -8.314
REMARK INTRA:                  -1.133
REMARK UNBOUND:                -1.772
REMARK SMILES CC(C)=CCCC(C)=CCCC(C)=CCO
REMARK SMILES IDX 10 1 9 2 7 3 8 4 6 5 5 6 4 7 1 8 2 9 3 10 11 11 12 12 14 13
REMARK SMILES IDX 13 14 15 15 16 16
REMARK H PARENT 16 17
REMARK Flexibility Score: inf
ROOT
ATOM      1  C   UNL     1      61.419 -15.042  23.321  1.00  0.00     0.032 C 
ENDROOT
BRANCH   1   2
ATOM      2  C   UNL     1      61.688 -16.174  22.362  1.00  0.00    -0.028 C 
ATOM      3  C   UNL     1      61.383 -17.470  22.604  1.00  0.00    -0.077 C 
ATOM      4  C   UNL     1      60.681 -17.901  23.871  1.00  0.00     0.039 C 
BRANCH   3   5
ATOM      5  C   UNL     1      61.744 -18.515  21.569  1.00  0.00     0.034 C 
BRANCH   5   6
ATOM      6  C   UNL     1      61.887 -17.883  20.181  1.00  0.00     0.032 C 
BRANCH   6   7
ATOM      7  C   UNL     1      63.311 -17.967  19.684  1.00  0.00    -0.028 C 
ATOM      8  C   UNL     1      63.493 -15.481  19.520  1.00  0.00     0.039 C 
ATOM      9  C   UNL     1      64.048 -16.876  19.381  1.00  0.00    -0.080 C 
ATOM     10  C   UNL     1      65.464 -17.035  18.891  1.00  0.00     0.039 C 
ENDBRANCH   6   7
ENDBRANCH   5   6
ENDBRANCH   3   5
ENDBRANCH   1   2
BRANCH   1  11
ATOM     11  C   UNL     1      61.014 -13.772  22.563  1.00  0.00     0.034 C 
BRANCH  11  12
ATOM     12  C   UNL     1      59.630 -13.918  21.971  1.00  0.00    -0.075 C 
ATOM     13  C   UNL     1      59.433 -13.597  20.672  1.00  0.00    -0.000 C 
ATOM     14  C   UNL     1      58.506 -14.439  22.836  1.00  0.00     0.039 C 
BRANCH  13  15
ATOM     15  C   UNL     1      58.106 -13.709  19.971  1.00  0.00     0.183 C 
BRANCH  15  16
ATOM     16  O   UNL     1      58.274 -14.341  18.734  1.00  0.00    -0.392 OA
ATOM     17  H   UNL     1      59.233 -14.592  18.682  1.00  0.00     0.210 HD
ENDBRANCH  15  16
ENDBRANCH  13  15
ENDBRANCH  11  12
ENDBRANCH   1  11
TORSDOF 8
ENDMDL
MODEL 4
REMARK VINA RESULT:    -5.099      2.603      5.683
REMARK INTER + INTRA:          -9.107
REMARK INTER:                  -7.418
REMARK INTRA:                  -1.690
REMARK UNBOUND:                -1.772
REMARK SMILES CC(C)=CCCC(C)=CCCC(C)=CCO
REMARK SMILES IDX 10 1 9 2 7 3 8 4 6 5 5 6 4 7 1 8 2 9 3 10 11 11 12 12 14 13
REMARK SMILES IDX 13 14 15 15 16 16
REMARK H PARENT 16 17
REMARK Flexibility Score: inf
ROOT
ATOM      1  C   UNL     1      61.019 -13.517  21.489  1.00  0.00     0.032 C 
ENDROOT
BRANCH   1   2
ATOM      2  C   UNL     1      61.735 -14.828  21.694  1.00  0.00    -0.028 C 
ATOM      3  C   UNL     1      62.578 -15.388  20.797  1.00  0.00    -0.077 C 
ATOM      4  C   UNL     1      62.925 -14.705  19.494  1.00  0.00     0.039 C 
BRANCH   3   5
ATOM      5  C   UNL     1      63.201 -16.731  21.113  1.00  0.00     0.034 C 
BRANCH   5   6
ATOM      6  C   UNL     1      62.521 -17.851  20.318  1.00  0.00     0.032 C 
BRANCH   6   7
ATOM      7  C   UNL     1      61.265 -18.328  21.008  1.00  0.00    -0.028 C 
ATOM      8  C   UNL     1      59.807 -17.137  19.366  1.00  0.00     0.039 C 
ATOM      9  C   UNL     1      60.025 -18.007  20.579  1.00  0.00    -0.080 C 
ATOM     10  C   UNL     1      58.815 -18.520  21.316  1.00  0.00     0.039 C 
ENDBRANCH   6   7
ENDBRANCH   5   6
ENDBRANCH   3   5
ENDBRANCH   1   2
BRANCH   1  11
ATOM     11  C   UNL     1      59.701 -13.489  22.271  1.00  0.00     0.034 C 
BRANCH  11  12
ATOM     12  C   UNL     1      58.573 -14.067  21.444  1.00  0.00    -0.075 C 
ATOM     13  C   UNL     1      58.455 -13.704  20.147  1.00  0.00    -0.000 C 
ATOM     14  C   UNL     1      57.619 -15.052  22.080  1.00  0.00     0.039 C 
BRANCH  13  15
ATOM     15  C   UNL     1      57.383 -14.218  19.225  1.00  0.00     0.183 C 
BRANCH  15  16
ATOM     16  O   UNL     1      57.947 -14.582  17.997  1.00  0.00    -0.392 OA
ATOM     17  H   UNL     1      57.711 -13.857  17.361  1.00  0.00     0.210 HD
ENDBRANCH  15  16
ENDBRANCH  13  15
ENDBRANCH  11  12
ENDBRANCH   1  11
TORSDOF 8
ENDMDL
MODEL 5
REMARK VINA RESULT:    -5.036      1.253      2.634
REMARK INTER + INTRA:          -9.016
REMARK INTER:                  -7.726
REMARK INTRA:                  -1.291
REMARK UNBOUND:                -1.772
REMARK SMILES CC(C)=CCCC(C)=CCCC(C)=CCO
REMARK SMILES IDX 10 1 9 2 7 3 8 4 6 5 5 6 4 7 1 8 2 9 3 10 11 11 12 12 14 13
REMARK SMILES IDX 13 14 15 15 16 16
REMARK H PARENT 16 17
REMARK Flexibility Score: inf
ROOT
ATOM      1  C   UNL     1      62.458 -16.021  22.398  1.00  0.00     0.032 C 
ENDROOT
BRANCH   1   2
ATOM      2  C   UNL     1      61.085 -15.756  22.961  1.00  0.00    -0.028 C 
ATOM      3  C   UNL     1      60.423 -14.582  22.845  1.00  0.00    -0.077 C 
ATOM      4  C   UNL     1      60.999 -13.416  22.074  1.00  0.00     0.039 C 
BRANCH   3   5
ATOM      5  C   UNL     1      59.063 -14.437  23.493  1.00  0.00     0.034 C 
BRANCH   5   6
ATOM      6  C   UNL     1      57.993 -15.184  22.692  1.00  0.00     0.032 C 
BRANCH   6   7
ATOM      7  C   UNL     1      57.399 -14.305  21.616  1.00  0.00    -0.028 C 
ATOM      8  C   UNL     1      58.692 -15.471  19.826  1.00  0.00     0.039 C 
ATOM      9  C   UNL     1      57.713 -14.431  20.309  1.00  0.00    -0.080 C 
ATOM     10  C   UNL     1      57.081 -13.519  19.289  1.00  0.00     0.039 C 
ENDBRANCH   6   7
ENDBRANCH   5   6
ENDBRANCH   3   5
ENDBRANCH   1   2
BRANCH   1  11
ATOM     11  C   UNL     1      62.379 -16.974  21.199  1.00  0.00     0.034 C 
BRANCH  11  12
ATOM     12  C   UNL     1      63.316 -16.530  20.097  1.00  0.00    -0.075 C 
ATOM     13  C   UNL     1      64.248 -17.395  19.638  1.00  0.00    -0.000 C 
ATOM     14  C   UNL     1      63.174 -15.140  19.521  1.00  0.00     0.039 C 
BRANCH  13  15
ATOM     15  C   UNL     1      65.227 -17.070  18.542  1.00  0.00     0.183 C 
BRANCH  15  16
ATOM     16  O   UNL     1      66.366 -17.873  18.671  1.00  0.00    -0.392 OA
ATOM     17  H   UNL     1      66.344 -18.506  17.907  1.00  0.00     0.210 HD
ENDBRANCH  15  16
ENDBRANCH  13  15
ENDBRANCH  11  12
ENDBRANCH   1  11
TORSDOF 8
ENDMDL
MODEL 6
REMARK VINA RESULT:    -4.943      2.156      5.208
REMARK INTER + INTRA:          -8.883
REMARK INTER:                  -7.569
REMARK INTRA:                  -1.314
REMARK UNBOUND:                -1.772
REMARK SMILES CC(C)=CCCC(C)=CCCC(C)=CCO
REMARK SMILES IDX 10 1 9 2 7 3 8 4 6 5 5 6 4 7 1 8 2 9 3 10 11 11 12 12 14 13
REMARK SMILES IDX 13 14 15 15 16 16
REMARK H PARENT 16 17
REMARK Flexibility Score: inf
ROOT
ATOM      1  C   UNL     1      58.397 -16.293  22.262  1.00  0.00     0.032 C 
ENDROOT
BRANCH   1   2
ATOM      2  C   UNL     1      59.516 -17.161  21.743  1.00  0.00    -0.028 C 
ATOM      3  C   UNL     1      60.699 -17.342  22.373  1.00  0.00    -0.077 C 
ATOM      4  C   UNL     1      60.993 -16.712  23.715  1.00  0.00     0.039 C 
BRANCH   3   5
ATOM      5  C   UNL     1      61.754 -18.211  21.721  1.00  0.00     0.034 C 
BRANCH   5   6
ATOM      6  C   UNL     1      61.753 -18.024  20.201  1.00  0.00     0.032 C 
BRANCH   6   7
ATOM      7  C   UNL     1      63.157 -18.039  19.645  1.00  0.00    -0.028 C 
ATOM      8  C   UNL     1      63.322 -15.549  19.758  1.00  0.00     0.039 C 
ATOM      9  C   UNL     1      63.878 -16.915  19.441  1.00  0.00    -0.080 C 
ATOM     10  C   UNL     1      65.275 -17.004  18.884  1.00  0.00     0.039 C 
ENDBRANCH   6   7
ENDBRANCH   5   6
ENDBRANCH   3   5
ENDBRANCH   1   2
BRANCH   1  11
ATOM     11  C   UNL     1      58.255 -15.025  21.412  1.00  0.00     0.034 C 
BRANCH  11  12
ATOM     12  C   UNL     1      59.213 -13.952  21.883  1.00  0.00    -0.075 C 
ATOM     13  C   UNL     1      60.066 -13.396  20.993  1.00  0.00    -0.000 C 
ATOM     14  C   UNL     1      59.180 -13.513  23.328  1.00  0.00     0.039 C 
BRANCH  13  15
ATOM     15  C   UNL     1      61.056 -12.318  21.341  1.00  0.00     0.183 C 
BRANCH  15  16
ATOM     16  O   UNL     1      62.091 -12.302  20.398  1.00  0.00    -0.392 OA
ATOM     17  H   UNL     1      62.908 -12.590  20.883  1.00  0.00     0.210 HD
ENDBRANCH  15  16
ENDBRANCH  13  15
ENDBRANCH  11  12
ENDBRANCH   1  11
TORSDOF 8
ENDMDL
MODEL 7
REMARK VINA RESULT:    -4.828      1.193      3.030
REMARK INTER + INTRA:          -8.717
REMARK INTER:                  -6.911
REMARK INTRA:                  -1.806
REMARK UNBOUND:                -1.772
REMARK SMILES CC(C)=CCCC(C)=CCCC(C)=CCO
REMARK SMILES IDX 10 1 9 2 7 3 8 4 6 5 5 6 4 7 1 8 2 9 3 10 11 11 12 12 14 13
REMARK SMILES IDX 13 14 15 15 16 16
REMARK H PARENT 16 17
REMARK Flexibility Score: inf
ROOT
ATOM      1  C   UNL     1      62.115 -15.739  22.736  1.00  0.00     0.032 C 
ENDROOT
BRANCH   1   2
ATOM      2  C   UNL     1      60.974 -14.810  22.405  1.00  0.00    -0.028 C 
ATOM      3  C   UNL     1      60.951 -13.975  21.341  1.00  0.00    -0.077 C 
ATOM      4  C   UNL     1      62.077 -13.936  20.334  1.00  0.00     0.039 C 
BRANCH   3   5
ATOM      5  C   UNL     1      59.757 -13.065  21.146  1.00  0.00     0.034 C 
BRANCH   5   6
ATOM      6  C   UNL     1      58.471 -13.880  20.972  1.00  0.00     0.032 C 
BRANCH   6   7
ATOM      7  C   UNL     1      58.464 -14.619  19.654  1.00  0.00    -0.028 C 
ATOM      8  C   UNL     1      58.162 -16.822  20.792  1.00  0.00     0.039 C 
ATOM      9  C   UNL     1      58.323 -15.959  19.566  1.00  0.00    -0.080 C 
ATOM     10  C   UNL     1      58.325 -16.631  18.217  1.00  0.00     0.039 C 
ENDBRANCH   6   7
ENDBRANCH   5   6
ENDBRANCH   3   5
ENDBRANCH   1   2
BRANCH   1  11
ATOM     11  C   UNL     1      61.813 -17.163  22.256  1.00  0.00     0.034 C 
BRANCH  11  12
ATOM     12  C   UNL     1      62.398 -17.403  20.882  1.00  0.00    -0.075 C 
ATOM     13  C   UNL     1      63.727 -17.239  20.695  1.00  0.00    -0.000 C 
ATOM     14  C   UNL     1      61.489 -17.839  19.757  1.00  0.00     0.039 C 
BRANCH  13  15
ATOM     15  C   UNL     1      64.423 -17.456  19.379  1.00  0.00     0.183 C 
BRANCH  15  16
ATOM     16  O   UNL     1      65.688 -18.013  19.597  1.00  0.00    -0.392 OA
ATOM     17  H   UNL     1      65.869 -18.599  18.816  1.00  0.00     0.210 HD
ENDBRANCH  15  16
ENDBRANCH  13  15
ENDBRANCH  11  12
ENDBRANCH   1  11
TORSDOF 8
ENDMDL
MODEL 8
REMARK VINA RESULT:    -4.757      1.243      3.321
REMARK INTER + INTRA:          -8.615
REMARK INTER:                  -7.009
REMARK INTRA:                  -1.605
REMARK UNBOUND:                -1.772
REMARK SMILES CC(C)=CCCC(C)=CCCC(C)=CCO
REMARK SMILES IDX 10 1 9 2 7 3 8 4 6 5 5 6 4 7 1 8 2 9 3 10 11 11 12 12 14 13
REMARK SMILES IDX 13 14 15 15 16 16
REMARK H PARENT 16 17
REMARK Flexibility Score: inf
ROOT
ATOM      1  C   UNL     1      62.391 -14.483  20.449  1.00  0.00     0.032 C 
ENDROOT
BRANCH   1   2
ATOM      2  C   UNL     1      61.187 -14.069  21.256  1.00  0.00    -0.028 C 
ATOM      3  C   UNL     1      60.924 -14.495  22.512  1.00  0.00    -0.077 C 
ATOM      4  C   UNL     1      61.867 -15.412  23.257  1.00  0.00     0.039 C 
BRANCH   3   5
ATOM      5  C   UNL     1      59.655 -14.031  23.196  1.00  0.00     0.034 C 
BRANCH   5   6
ATOM      6  C   UNL     1      58.416 -14.535  22.449  1.00  0.00     0.032 C 
BRANCH   6   7
ATOM      7  C   UNL     1      58.494 -16.022  22.197  1.00  0.00    -0.028 C 
ATOM      8  C   UNL     1      58.321 -15.701  19.726  1.00  0.00     0.039 C 
ATOM      9  C   UNL     1      58.451 -16.560  20.959  1.00  0.00    -0.080 C 
ATOM     10  C   UNL     1      58.535 -18.054  20.782  1.00  0.00     0.039 C 
ENDBRANCH   6   7
ENDBRANCH   5   6
ENDBRANCH   3   5
ENDBRANCH   1   2
BRANCH   1  11
ATOM     11  C   UNL     1      62.069 -15.705  19.580  1.00  0.00     0.034 C 
BRANCH  11  12
ATOM     12  C   UNL     1      62.993 -16.857  19.910  1.00  0.00    -0.075 C 
ATOM     13  C   UNL     1      64.303 -16.762  19.593  1.00  0.00    -0.000 C 
ATOM     14  C   UNL     1      62.434 -18.078  20.605  1.00  0.00     0.039 C 
BRANCH  13  15
ATOM     15  C   UNL     1      65.317 -17.836  19.878  1.00  0.00     0.183 C 
BRANCH  15  16
ATOM     16  O   UNL     1      66.571 -17.257  20.105  1.00  0.00    -0.392 OA
ATOM     17  H   UNL     1      66.889 -16.936  19.221  1.00  0.00     0.210 HD
ENDBRANCH  15  16
ENDBRANCH  13  15
ENDBRANCH  11  12
ENDBRANCH   1  11
TORSDOF 8
ENDMDL
MODEL 9
REMARK VINA RESULT:    -4.692      2.730      5.435
REMARK INTER + INTRA:          -8.522
REMARK INTER:                  -7.513
REMARK INTRA:                  -1.010
REMARK UNBOUND:                -1.772
REMARK SMILES CC(C)=CCCC(C)=CCCC(C)=CCO
REMARK SMILES IDX 10 1 9 2 7 3 8 4 6 5 5 6 4 7 1 8 2 9 3 10 11 11 12 12 14 13
REMARK SMILES IDX 13 14 15 15 16 16
REMARK H PARENT 16 17
REMARK Flexibility Score: inf
ROOT
ATOM      1  C   UNL     1      58.808 -14.871  19.745  1.00  0.00     0.032 C 
ENDROOT
BRANCH   1   2
ATOM      2  C   UNL     1      59.749 -15.984  20.129  1.00  0.00    -0.028 C 
ATOM      3  C   UNL     1      59.778 -17.200  19.538  1.00  0.00    -0.077 C 
ATOM      4  C   UNL     1      58.876 -17.543  18.374  1.00  0.00     0.039 C 
BRANCH   3   5
ATOM      5  C   UNL     1      60.749 -18.243  20.049  1.00  0.00     0.034 C 
BRANCH   5   6
ATOM      6  C   UNL     1      61.893 -17.589  20.830  1.00  0.00     0.032 C 
BRANCH   6   7
ATOM      7  C   UNL     1      63.214 -17.765  20.121  1.00  0.00    -0.028 C 
ATOM      8  C   UNL     1      63.346 -15.332  19.574  1.00  0.00     0.039 C 
ATOM      9  C   UNL     1      63.881 -16.741  19.546  1.00  0.00    -0.080 C 
ATOM     10  C   UNL     1      65.197 -16.991  18.855  1.00  0.00     0.039 C 
ENDBRANCH   6   7
ENDBRANCH   5   6
ENDBRANCH   3   5
ENDBRANCH   1   2
BRANCH   1  11
ATOM     11  C   UNL     1      58.035 -14.366  20.969  1.00  0.00     0.034 C 
BRANCH  11  12
ATOM     12  C   UNL     1      58.985 -13.896  22.048  1.00  0.00    -0.075 C 
ATOM     13  C   UNL     1      59.916 -12.963  21.746  1.00  0.00    -0.000 C 
ATOM     14  C   UNL     1      58.858 -14.463  23.443  1.00  0.00     0.039 C 
BRANCH  13  15
ATOM     15  C   UNL     1      60.907 -12.414  22.735  1.00  0.00     0.183 C 
BRANCH  15  16
ATOM     16  O   UNL     1      60.485 -11.157  23.182  1.00  0.00    -0.392 OA
ATOM     17  H   UNL     1      59.509 -11.114  23.001  1.00  0.00     0.210 HD
ENDBRANCH  15  16
ENDBRANCH  13  15
ENDBRANCH  11  12
ENDBRANCH   1  11
TORSDOF 8
ENDMDL
