MODEL 1
REMARK VINA RESULT:    -4.715      0.000      0.000
REMARK INTER + INTRA:          -6.605
REMARK INTER:                  -6.230
REMARK INTRA:                  -0.374
REMARK UNBOUND:                -0.374
REMARK SMILES C=C[C@@H](O)CCCCC
REMARK SMILES IDX 6 1 7 2 8 3 9 4 5 5 3 6 2 7 1 8 4 9
REMARK H PARENT 4 10
REMARK Flexibility Score: inf
ROOT
ATOM      1  C   UNL     1     137.799 118.856 138.581  1.00  0.00     0.003 C 
ENDROOT
BRANCH   1   2
ATOM      2  C   UNL     1     136.614 119.249 137.691  1.00  0.00    -0.000 C 
BRANCH   2   3
ATOM      3  C   UNL     1     135.622 118.089 137.552  1.00  0.00    -0.003 C 
ATOM      4  C   UNL     1     135.733 117.430 136.180  1.00  0.00     0.004 C 
ENDBRANCH   2   3
ENDBRANCH   1   2
BRANCH   1   5
ATOM      5  C   UNL     1     137.548 119.259 140.042  1.00  0.00     0.036 C 
BRANCH   5   6
ATOM      6  C   UNL     1     137.131 120.737 140.175  1.00  0.00     0.136 C 
BRANCH   6   7
ATOM      7  C   UNL     1     135.848 120.877 140.962  1.00  0.00    -0.004 C 
ATOM      8  C   UNL     1     134.647 120.724 140.394  1.00  0.00     0.007 C 
ENDBRANCH   6   7
BRANCH   6   9
ATOM      9  O   UNL     1     138.151 121.477 140.796  1.00  0.00    -0.389 OA
ATOM     10  H   UNL     1     138.128 121.270 141.768  1.00  0.00     0.211 HD
ENDBRANCH   6   9
ENDBRANCH   5   6
ENDBRANCH   1   5
TORSDOF 6
ENDMDL
MODEL 2
REMARK VINA RESULT:    -4.586      1.012      2.257
REMARK INTER + INTRA:          -6.435
REMARK INTER:                  -6.014
REMARK INTRA:                  -0.421
REMARK UNBOUND:                -0.374
REMARK SMILES C=C[C@@H](O)CCCCC
REMARK SMILES IDX 6 1 7 2 8 3 9 4 5 5 3 6 2 7 1 8 4 9
REMARK H PARENT 4 10
REMARK Flexibility Score: inf
ROOT
ATOM      1  C   UNL     1     135.160 119.830 139.605  1.00  0.00     0.003 C 
ENDROOT
BRANCH   1   2
ATOM      2  C   UNL     1     135.224 118.499 138.845  1.00  0.00    -0.000 C 
BRANCH   2   3
ATOM      3  C   UNL     1     135.946 118.666 137.504  1.00  0.00    -0.003 C 
ATOM      4  C   UNL     1     135.529 117.581 136.514  1.00  0.00     0.004 C 
ENDBRANCH   2   3
ENDBRANCH   1   2
BRANCH   1   5
ATOM      5  C   UNL     1     136.426 120.665 139.360  1.00  0.00     0.036 C 
BRANCH   5   6
ATOM      6  C   UNL     1     137.313 120.760 140.617  1.00  0.00     0.136 C 
BRANCH   6   7
ATOM      7  C   UNL     1     138.206 119.548 140.752  1.00  0.00    -0.004 C 
ATOM      8  C   UNL     1     138.822 119.000 139.700  1.00  0.00     0.007 C 
ENDBRANCH   6   7
BRANCH   6   9
ATOM      9  O   UNL     1     138.097 121.924 140.574  1.00  0.00    -0.389 OA
ATOM     10  H   UNL     1     138.878 121.787 141.174  1.00  0.00     0.211 HD
ENDBRANCH   6   9
ENDBRANCH   5   6
ENDBRANCH   1   5
TORSDOF 6
ENDMDL
MODEL 3
REMARK VINA RESULT:    -4.565      1.325      1.555
REMARK INTER + INTRA:          -6.407
REMARK INTER:                  -6.065
REMARK INTRA:                  -0.342
REMARK UNBOUND:                -0.374
REMARK SMILES C=C[C@@H](O)CCCCC
REMARK SMILES IDX 6 1 7 2 8 3 9 4 5 5 3 6 2 7 1 8 4 9
REMARK H PARENT 4 10
REMARK Flexibility Score: inf
ROOT
ATOM      1  C   UNL     1     135.927 118.414 138.727  1.00  0.00     0.003 C 
ENDROOT
BRANCH   1   2
ATOM      2  C   UNL     1     136.317 119.325 137.558  1.00  0.00    -0.000 C 
BRANCH   2   3
ATOM      3  C   UNL     1     136.480 118.521 136.263  1.00  0.00    -0.003 C 
ATOM      4  C   UNL     1     135.453 117.395 136.180  1.00  0.00     0.004 C 
ENDBRANCH   2   3
ENDBRANCH   1   2
BRANCH   1   5
ATOM      5  C   UNL     1     136.555 118.903 140.041  1.00  0.00     0.036 C 
BRANCH   5   6
ATOM      6  C   UNL     1     137.726 119.876 139.799  1.00  0.00     0.136 C 
BRANCH   6   7
ATOM      7  C   UNL     1     137.540 121.161 140.572  1.00  0.00    -0.004 C 
ATOM      8  C   UNL     1     136.343 121.551 141.023  1.00  0.00     0.007 C 
ENDBRANCH   6   7
BRANCH   6   9
ATOM      9  O   UNL     1     138.942 119.276 140.162  1.00  0.00    -0.389 OA
ATOM     10  H   UNL     1     139.486 119.957 140.640  1.00  0.00     0.211 HD
ENDBRANCH   6   9
ENDBRANCH   5   6
ENDBRANCH   1   5
TORSDOF 6
ENDMDL
MODEL 4
REMARK VINA RESULT:    -4.427      1.631      2.646
REMARK INTER + INTRA:          -6.224
REMARK INTER:                  -5.774
REMARK INTRA:                  -0.450
REMARK UNBOUND:                -0.374
REMARK SMILES C=C[C@@H](O)CCCCC
REMARK SMILES IDX 6 1 7 2 8 3 9 4 5 5 3 6 2 7 1 8 4 9
REMARK H PARENT 4 10
REMARK Flexibility Score: inf
ROOT
ATOM      1  C   UNL     1     135.752 118.152 137.433  1.00  0.00     0.003 C 
ENDROOT
BRANCH   1   2
ATOM      2  C   UNL     1     136.396 117.684 136.123  1.00  0.00    -0.000 C 
BRANCH   2   3
ATOM      3  C   UNL     1     137.887 117.387 136.318  1.00  0.00    -0.003 C 
ATOM      4  C   UNL     1     138.105 116.358 137.423  1.00  0.00     0.004 C 
ENDBRANCH   2   3
ENDBRANCH   1   2
BRANCH   1   5
ATOM      5  C   UNL     1     136.270 119.541 137.836  1.00  0.00     0.036 C 
BRANCH   5   6
ATOM      6  C   UNL     1     135.968 119.870 139.311  1.00  0.00     0.136 C 
BRANCH   6   7
ATOM      7  C   UNL     1     137.042 119.325 140.226  1.00  0.00    -0.004 C 
ATOM      8  C   UNL     1     138.336 119.347 139.892  1.00  0.00     0.007 C 
ENDBRANCH   6   7
BRANCH   6   9
ATOM      9  O   UNL     1     135.854 121.258 139.488  1.00  0.00    -0.389 OA
ATOM     10  H   UNL     1     136.020 121.691 138.609  1.00  0.00     0.211 HD
ENDBRANCH   6   9
ENDBRANCH   5   6
ENDBRANCH   1   5
TORSDOF 6
ENDMDL
MODEL 5
REMARK VINA RESULT:    -4.420      1.550      3.551
REMARK INTER + INTRA:          -6.215
REMARK INTER:                  -5.595
REMARK INTRA:                  -0.620
REMARK UNBOUND:                -0.374
REMARK SMILES C=C[C@@H](O)CCCCC
REMARK SMILES IDX 6 1 7 2 8 3 9 4 5 5 3 6 2 7 1 8 4 9
REMARK H PARENT 4 10
REMARK Flexibility Score: inf
ROOT
ATOM      1  C   UNL     1     137.574 121.001 140.376  1.00  0.00     0.003 C 
ENDROOT
BRANCH   1   2
ATOM      2  C   UNL     1     136.228 121.343 141.026  1.00  0.00    -0.000 C 
BRANCH   2   3
ATOM      3  C   UNL     1     135.121 121.455 139.972  1.00  0.00    -0.003 C 
ATOM      4  C   UNL     1     133.853 120.737 140.424  1.00  0.00     0.004 C 
ENDBRANCH   2   3
ENDBRANCH   1   2
BRANCH   1   5
ATOM      5  C   UNL     1     137.885 119.503 140.509  1.00  0.00     0.036 C 
BRANCH   5   6
ATOM      6  C   UNL     1     137.630 118.737 139.197  1.00  0.00     0.136 C 
BRANCH   6   7
ATOM      7  C   UNL     1     136.313 117.994 139.242  1.00  0.00    -0.004 C 
ATOM      8  C   UNL     1     135.407 118.096 138.265  1.00  0.00     0.007 C 
ENDBRANCH   6   7
BRANCH   6   9
ATOM      9  O   UNL     1     137.638 119.621 138.106  1.00  0.00    -0.389 OA
ATOM     10  H   UNL     1     137.606 119.078 137.274  1.00  0.00     0.211 HD
ENDBRANCH   6   9
ENDBRANCH   5   6
ENDBRANCH   1   5
TORSDOF 6
ENDMDL
MODEL 6
REMARK VINA RESULT:    -4.398      2.483      4.690
REMARK INTER + INTRA:          -6.186
REMARK INTER:                  -5.729
REMARK INTRA:                  -0.457
REMARK UNBOUND:                -0.374
REMARK SMILES C=C[C@@H](O)CCCCC
REMARK SMILES IDX 6 1 7 2 8 3 9 4 5 5 3 6 2 7 1 8 4 9
REMARK H PARENT 4 10
REMARK Flexibility Score: inf
ROOT
ATOM      1  C   UNL     1     135.694 119.251 138.793  1.00  0.00     0.003 C 
ENDROOT
BRANCH   1   2
ATOM      2  C   UNL     1     136.569 118.827 139.979  1.00  0.00    -0.000 C 
BRANCH   2   3
ATOM      3  C   UNL     1     137.896 119.595 139.986  1.00  0.00    -0.003 C 
ATOM      4  C   UNL     1     137.737 120.966 140.635  1.00  0.00     0.004 C 
ENDBRANCH   2   3
ENDBRANCH   1   2
BRANCH   1   5
ATOM      5  C   UNL     1     136.546 119.489 137.537  1.00  0.00     0.036 C 
BRANCH   5   6
ATOM      6  C   UNL     1     136.418 118.338 136.521  1.00  0.00     0.136 C 
BRANCH   6   7
ATOM      7  C   UNL     1     137.671 117.493 136.486  1.00  0.00    -0.004 C 
ATOM      8  C   UNL     1     137.915 116.548 137.399  1.00  0.00     0.007 C 
ENDBRANCH   6   7
BRANCH   6   9
ATOM      9  O   UNL     1     135.311 117.531 136.834  1.00  0.00    -0.389 OA
ATOM     10  H   UNL     1     135.428 117.204 137.766  1.00  0.00     0.211 HD
ENDBRANCH   6   9
ENDBRANCH   5   6
ENDBRANCH   1   5
TORSDOF 6
ENDMDL
MODEL 7
REMARK VINA RESULT:    -4.392      2.086      2.432
REMARK INTER + INTRA:          -6.178
REMARK INTER:                  -5.905
REMARK INTRA:                  -0.274
REMARK UNBOUND:                -0.374
REMARK SMILES C=C[C@@H](O)CCCCC
REMARK SMILES IDX 6 1 7 2 8 3 9 4 5 5 3 6 2 7 1 8 4 9
REMARK H PARENT 4 10
REMARK Flexibility Score: inf
ROOT
ATOM      1  C   UNL     1     136.304 120.209 138.721  1.00  0.00     0.003 C 
ENDROOT
BRANCH   1   2
ATOM      2  C   UNL     1     136.436 119.351 137.457  1.00  0.00    -0.000 C 
BRANCH   2   3
ATOM      3  C   UNL     1     135.666 118.033 137.604  1.00  0.00    -0.003 C 
ATOM      4  C   UNL     1     135.395 117.398 136.243  1.00  0.00     0.004 C 
ENDBRANCH   2   3
ENDBRANCH   1   2
BRANCH   1   5
ATOM      5  C   UNL     1     135.171 119.693 139.621  1.00  0.00     0.036 C 
BRANCH   5   6
ATOM      6  C   UNL     1     134.541 120.817 140.466  1.00  0.00     0.136 C 
BRANCH   6   7
ATOM      7  C   UNL     1     134.923 122.181 139.936  1.00  0.00    -0.004 C 
ATOM      8  C   UNL     1     134.027 123.162 139.792  1.00  0.00     0.007 C 
ENDBRANCH   6   7
BRANCH   6   9
ATOM      9  O   UNL     1     133.142 120.690 140.482  1.00  0.00    -0.389 OA
ATOM     10  H   UNL     1     132.854 120.388 139.580  1.00  0.00     0.211 HD
ENDBRANCH   6   9
ENDBRANCH   5   6
ENDBRANCH   1   5
TORSDOF 6
ENDMDL
MODEL 8
REMARK VINA RESULT:    -4.332      9.987     12.053
REMARK INTER + INTRA:          -6.099
REMARK INTER:                  -5.582
REMARK INTRA:                  -0.517
REMARK UNBOUND:                -0.374
REMARK SMILES C=C[C@@H](O)CCCCC
REMARK SMILES IDX 6 1 7 2 8 3 9 4 5 5 3 6 2 7 1 8 4 9
REMARK H PARENT 4 10
REMARK Flexibility Score: inf
ROOT
ATOM      1  C   UNL     1     133.664 128.519 147.387  1.00  0.00     0.003 C 
ENDROOT
BRANCH   1   2
ATOM      2  C   UNL     1     133.630 127.003 147.613  1.00  0.00    -0.000 C 
BRANCH   2   3
ATOM      3  C   UNL     1     133.199 126.266 146.340  1.00  0.00    -0.003 C 
ATOM      4  C   UNL     1     134.369 126.103 145.374  1.00  0.00     0.004 C 
ENDBRANCH   2   3
ENDBRANCH   1   2
BRANCH   1   5
ATOM      5  C   UNL     1     134.798 129.170 148.193  1.00  0.00     0.036 C 
BRANCH   5   6
ATOM      6  C   UNL     1     135.842 128.140 148.666  1.00  0.00     0.136 C 
BRANCH   6   7
ATOM      7  C   UNL     1     137.145 128.295 147.916  1.00  0.00    -0.004 C 
ATOM      8  C   UNL     1     137.254 128.006 146.615  1.00  0.00     0.007 C 
ENDBRANCH   6   7
BRANCH   6   9
ATOM      9  O   UNL     1     136.070 128.275 150.045  1.00  0.00    -0.389 OA
ATOM     10  H   UNL     1     136.451 127.417 150.375  1.00  0.00     0.211 HD
ENDBRANCH   6   9
ENDBRANCH   5   6
ENDBRANCH   1   5
TORSDOF 6
ENDMDL
MODEL 9
REMARK VINA RESULT:    -4.249      1.621      3.948
REMARK INTER + INTRA:          -5.990
REMARK INTER:                  -5.770
REMARK INTRA:                  -0.220
REMARK UNBOUND:                -0.374
REMARK SMILES C=C[C@@H](O)CCCCC
REMARK SMILES IDX 6 1 7 2 8 3 9 4 5 5 3 6 2 7 1 8 4 9
REMARK H PARENT 4 10
REMARK Flexibility Score: inf
ROOT
ATOM      1  C   UNL     1     135.480 121.076 140.708  1.00  0.00     0.003 C 
ENDROOT
BRANCH   1   2
ATOM      2  C   UNL     1     134.002 120.830 140.380  1.00  0.00    -0.000 C 
BRANCH   2   3
ATOM      3  C   UNL     1     133.270 122.151 140.118  1.00  0.00    -0.003 C 
ATOM      4  C   UNL     1     134.248 123.261 139.746  1.00  0.00     0.004 C 
ENDBRANCH   2   3
ENDBRANCH   1   2
BRANCH   1   5
ATOM      5  C   UNL     1     136.280 119.766 140.663  1.00  0.00     0.036 C 
BRANCH   5   6
ATOM      6  C   UNL     1     137.800 120.013 140.626  1.00  0.00     0.136 C 
BRANCH   6   7
ATOM      7  C   UNL     1     138.430 119.377 139.408  1.00  0.00    -0.004 C 
ATOM      8  C   UNL     1     137.799 119.319 138.231  1.00  0.00     0.007 C 
ENDBRANCH   6   7
BRANCH   6   9
ATOM      9  O   UNL     1     138.070 121.391 140.634  1.00  0.00    -0.389 OA
ATOM     10  H   UNL     1     138.429 121.626 141.532  1.00  0.00     0.211 HD
ENDBRANCH   6   9
ENDBRANCH   5   6
ENDBRANCH   1   5
TORSDOF 6
ENDMDL
