MODEL 1
REMARK VINA RESULT:    -7.374      0.000      0.000
REMARK INTER + INTRA:          -8.021
REMARK INTER:                  -8.021
REMARK INTRA:                   0.000
REMARK UNBOUND:                 0.000
REMARK SMILES Cc1cc(O)c2c(c1)C(=O)c1cc(O)cc(O)c1C2=O
REMARK SMILES IDX 1 1 2 2 8 3 7 4 6 5 4 6 3 7 19 8 20 9 18 10 11 11 9 12 10 13
REMARK SMILES IDX 12 14 13 15 15 16 16 17 5 18 17 20 14 22
REMARK H PARENT 5 19 17 21 14 23
REMARK Flexibility Score: inf
ROOT
ATOM      1  C   UNL     1     -16.269 -42.318 -14.599  1.00  0.00     0.044 C 
ATOM      2  C   UNL     1     -15.429 -41.422 -15.463  1.00  0.00    -0.047 A 
ATOM      3  C   UNL     1     -14.357 -41.948 -16.190  1.00  0.00     0.016 A 
ATOM      4  C   UNL     1     -13.593 -41.125 -17.036  1.00  0.00     0.038 A 
ATOM      5  C   UNL     1     -13.925 -39.760 -17.178  1.00  0.00     0.076 A 
ATOM      6  C   UNL     1     -14.987 -39.223 -16.405  1.00  0.00     0.127 A 
ATOM      7  C   UNL     1     -15.745 -40.065 -15.584  1.00  0.00     0.050 A 
ATOM      8  C   UNL     1     -13.189 -38.959 -18.192  1.00  0.00     0.201 C 
ATOM      9  O   UNL     1     -13.761 -37.994 -18.763  1.00  0.00    -0.288 OA
ATOM     10  C   UNL     1     -11.856 -39.413 -18.663  1.00  0.00     0.076 A 
ATOM     11  C   UNL     1     -11.527 -40.781 -18.519  1.00  0.00     0.041 A 
ATOM     12  C   UNL     1     -12.438 -41.685 -17.777  1.00  0.00     0.194 C 
ATOM     13  O   UNL     1     -12.214 -42.927 -17.756  1.00  0.00    -0.289 OA
ATOM     14  C   UNL     1     -10.335 -41.275 -19.076  1.00  0.00     0.059 A 
ATOM     15  C   UNL     1      -9.464 -40.422 -19.759  1.00  0.00     0.120 A 
ATOM     16  C   UNL     1      -9.766 -39.065 -19.868  1.00  0.00     0.093 A 
ATOM     17  C   UNL     1     -10.935 -38.544 -19.305  1.00  0.00     0.131 A 
ENDROOT
BRANCH   6  18
ATOM     18  O   UNL     1     -15.300 -37.861 -16.395  1.00  0.00    -0.507 OA
ATOM     19  H   UNL     1     -16.020 -37.449 -16.972  1.00  0.00     0.293 HD
ENDBRANCH   6  18
BRANCH  17  20
ATOM     20  O   UNL     1     -11.125 -37.162 -19.376  1.00  0.00    -0.507 OA
ATOM     21  H   UNL     1     -10.520 -36.541 -19.893  1.00  0.00     0.293 HD
ENDBRANCH  17  20
BRANCH  15  22
ATOM     22  O   UNL     1      -8.287 -40.910 -20.322  1.00  0.00    -0.508 OA
ATOM     23  H   UNL     1      -7.429 -40.974 -19.787  1.00  0.00     0.293 HD
ENDBRANCH  15  22
TORSDOF 3
ENDMDL
MODEL 2
REMARK VINA RESULT:    -7.350      2.670      3.976
REMARK INTER + INTRA:          -7.995
REMARK INTER:                  -7.995
REMARK INTRA:                   0.000
REMARK UNBOUND:                 0.000
REMARK SMILES Cc1cc(O)c2c(c1)C(=O)c1cc(O)cc(O)c1C2=O
REMARK SMILES IDX 1 1 2 2 8 3 7 4 6 5 4 6 3 7 19 8 20 9 18 10 11 11 9 12 10 13
REMARK SMILES IDX 12 14 13 15 15 16 16 17 5 18 17 20 14 22
REMARK H PARENT 5 19 17 21 14 23
REMARK Flexibility Score: inf
ROOT
ATOM      1  C   UNL     1     -18.125 -39.543 -19.071  1.00  0.00     0.044 C 
ATOM      2  C   UNL     1     -16.687 -39.577 -18.639  1.00  0.00    -0.047 A 
ATOM      3  C   UNL     1     -16.231 -40.592 -17.792  1.00  0.00     0.016 A 
ATOM      4  C   UNL     1     -14.878 -40.658 -17.417  1.00  0.00     0.038 A 
ATOM      5  C   UNL     1     -13.961 -39.709 -17.921  1.00  0.00     0.076 A 
ATOM      6  C   UNL     1     -14.438 -38.657 -18.744  1.00  0.00     0.127 A 
ATOM      7  C   UNL     1     -15.785 -38.622 -19.119  1.00  0.00     0.050 A 
ATOM      8  C   UNL     1     -12.517 -39.899 -17.622  1.00  0.00     0.201 C 
ATOM      9  O   UNL     1     -11.650 -39.498 -18.442  1.00  0.00    -0.288 OA
ATOM     10  C   UNL     1     -12.108 -40.726 -16.458  1.00  0.00     0.076 A 
ATOM     11  C   UNL     1     -13.029 -41.675 -15.957  1.00  0.00     0.041 A 
ATOM     12  C   UNL     1     -14.410 -41.718 -16.493  1.00  0.00     0.194 C 
ATOM     13  O   UNL     1     -15.194 -42.643 -16.142  1.00  0.00    -0.289 OA
ATOM     14  C   UNL     1     -12.631 -42.569 -14.948  1.00  0.00     0.059 A 
ATOM     15  C   UNL     1     -11.336 -42.518 -14.426  1.00  0.00     0.120 A 
ATOM     16  C   UNL     1     -10.438 -41.557 -14.889  1.00  0.00     0.093 A 
ATOM     17  C   UNL     1     -10.816 -40.643 -15.878  1.00  0.00     0.131 A 
ENDROOT
BRANCH   6  18
ATOM     18  O   UNL     1     -13.621 -37.611 -19.183  1.00  0.00    -0.507 OA
ATOM     19  H   UNL     1     -13.759 -37.123 -20.058  1.00  0.00     0.293 HD
ENDBRANCH   6  18
BRANCH  17  20
ATOM     20  O   UNL     1      -9.894 -39.653 -16.227  1.00  0.00    -0.507 OA
ATOM     21  H   UNL     1      -9.604 -39.470 -17.177  1.00  0.00     0.293 HD
ENDBRANCH  17  20
BRANCH  15  22
ATOM     22  O   UNL     1     -10.934 -43.411 -13.434  1.00  0.00    -0.508 OA
ATOM     23  H   UNL     1     -10.920 -44.411 -13.596  1.00  0.00     0.293 HD
ENDBRANCH  15  22
TORSDOF 3
ENDMDL
MODEL 3
REMARK VINA RESULT:    -7.018      1.357      3.326
REMARK INTER + INTRA:          -7.634
REMARK INTER:                  -7.634
REMARK INTRA:                   0.000
REMARK UNBOUND:                 0.000
REMARK SMILES Cc1cc(O)c2c(c1)C(=O)c1cc(O)cc(O)c1C2=O
REMARK SMILES IDX 1 1 2 2 8 3 7 4 6 5 4 6 3 7 19 8 20 9 18 10 11 11 9 12 10 13
REMARK SMILES IDX 12 14 13 15 15 16 16 17 5 18 17 20 14 22
REMARK H PARENT 5 19 17 21 14 23
REMARK Flexibility Score: inf
ROOT
ATOM      1  C   UNL     1     -16.625 -42.149 -14.633  1.00  0.00     0.044 C 
ATOM      2  C   UNL     1     -15.364 -41.805 -15.372  1.00  0.00    -0.047 A 
ATOM      3  C   UNL     1     -15.304 -40.656 -16.165  1.00  0.00     0.016 A 
ATOM      4  C   UNL     1     -14.114 -40.302 -16.825  1.00  0.00     0.038 A 
ATOM      5  C   UNL     1     -12.958 -41.098 -16.666  1.00  0.00     0.076 A 
ATOM      6  C   UNL     1     -13.037 -42.286 -15.895  1.00  0.00     0.127 A 
ATOM      7  C   UNL     1     -14.226 -42.607 -15.232  1.00  0.00     0.050 A 
ATOM      8  C   UNL     1     -11.683 -40.612 -17.257  1.00  0.00     0.201 C 
ATOM      9  O   UNL     1     -10.587 -40.907 -16.712  1.00  0.00    -0.288 OA
ATOM     10  C   UNL     1     -11.715 -39.629 -18.370  1.00  0.00     0.076 A 
ATOM     11  C   UNL     1     -12.874 -38.835 -18.526  1.00  0.00     0.041 A 
ATOM     12  C   UNL     1     -14.069 -39.099 -17.690  1.00  0.00     0.194 C 
ATOM     13  O   UNL     1     -15.057 -38.315 -17.735  1.00  0.00    -0.289 OA
ATOM     14  C   UNL     1     -12.890 -37.800 -19.478  1.00  0.00     0.059 A 
ATOM     15  C   UNL     1     -11.772 -37.560 -20.282  1.00  0.00     0.120 A 
ATOM     16  C   UNL     1     -10.642 -38.368 -20.159  1.00  0.00     0.093 A 
ATOM     17  C   UNL     1     -10.609 -39.416 -19.234  1.00  0.00     0.131 A 
ENDROOT
BRANCH   6  18
ATOM     18  O   UNL     1     -11.977 -43.190 -15.787  1.00  0.00    -0.507 OA
ATOM     19  H   UNL     1     -11.739 -43.861 -16.505  1.00  0.00     0.293 HD
ENDBRANCH   6  18
BRANCH  17  20
ATOM     20  O   UNL     1      -9.479 -40.237 -19.230  1.00  0.00    -0.507 OA
ATOM     21  H   UNL     1      -8.789 -40.242 -19.968  1.00  0.00     0.293 HD
ENDBRANCH  17  20
BRANCH  15  22
ATOM     22  O   UNL     1     -11.779 -36.528 -21.218  1.00  0.00    -0.508 OA
ATOM     23  H   UNL     1     -11.947 -36.706 -22.202  1.00  0.00     0.293 HD
ENDBRANCH  15  22
TORSDOF 3
ENDMDL
MODEL 4
REMARK VINA RESULT:    -6.941      1.979      5.390
REMARK INTER + INTRA:          -7.550
REMARK INTER:                  -7.550
REMARK INTRA:                   0.000
REMARK UNBOUND:                 0.000
REMARK SMILES Cc1cc(O)c2c(c1)C(=O)c1cc(O)cc(O)c1C2=O
REMARK SMILES IDX 1 1 2 2 8 3 7 4 6 5 4 6 3 7 19 8 20 9 18 10 11 11 9 12 10 13
REMARK SMILES IDX 12 14 13 15 15 16 16 17 5 18 17 20 14 22
REMARK H PARENT 5 19 17 21 14 23
REMARK Flexibility Score: inf
ROOT
ATOM      1  C   UNL     1      -9.122 -42.925 -21.084  1.00  0.00     0.044 C 
ATOM      2  C   UNL     1     -10.160 -41.963 -20.584  1.00  0.00    -0.047 A 
ATOM      3  C   UNL     1     -10.479 -41.916 -19.224  1.00  0.00     0.016 A 
ATOM      4  C   UNL     1     -11.417 -40.988 -18.739  1.00  0.00     0.038 A 
ATOM      5  C   UNL     1     -12.026 -40.074 -19.627  1.00  0.00     0.076 A 
ATOM      6  C   UNL     1     -11.731 -40.155 -21.013  1.00  0.00     0.127 A 
ATOM      7  C   UNL     1     -10.780 -41.074 -21.469  1.00  0.00     0.050 A 
ATOM      8  C   UNL     1     -12.898 -39.014 -19.056  1.00  0.00     0.201 C 
ATOM      9  O   UNL     1     -12.990 -37.899 -19.635  1.00  0.00    -0.288 OA
ATOM     10  C   UNL     1     -13.504 -39.202 -17.714  1.00  0.00     0.076 A 
ATOM     11  C   UNL     1     -12.892 -40.119 -16.828  1.00  0.00     0.041 A 
ATOM     12  C   UNL     1     -11.773 -40.968 -17.300  1.00  0.00     0.194 C 
ATOM     13  O   UNL     1     -11.141 -41.692 -16.483  1.00  0.00    -0.289 OA
ATOM     14  C   UNL     1     -13.351 -40.224 -15.503  1.00  0.00     0.059 A 
ATOM     15  C   UNL     1     -14.419 -39.440 -15.059  1.00  0.00     0.120 A 
ATOM     16  C   UNL     1     -15.051 -38.564 -15.942  1.00  0.00     0.093 A 
ATOM     17  C   UNL     1     -14.626 -38.456 -17.270  1.00  0.00     0.131 A 
ENDROOT
BRANCH   6  18
ATOM     18  O   UNL     1     -12.379 -39.371 -21.971  1.00  0.00    -0.507 OA
ATOM     19  H   UNL     1     -13.303 -39.573 -22.326  1.00  0.00     0.293 HD
ENDBRANCH   6  18
BRANCH  17  20
ATOM     20  O   UNL     1     -15.364 -37.626 -18.117  1.00  0.00    -0.507 OA
ATOM     21  H   UNL     1     -15.688 -37.908 -19.031  1.00  0.00     0.293 HD
ENDBRANCH  17  20
BRANCH  15  22
ATOM     22  O   UNL     1     -14.870 -39.532 -13.744  1.00  0.00    -0.508 OA
ATOM     23  H   UNL     1     -14.378 -39.080 -12.982  1.00  0.00     0.293 HD
ENDBRANCH  15  22
TORSDOF 3
ENDMDL
MODEL 5
REMARK VINA RESULT:    -6.934      1.352      6.237
REMARK INTER + INTRA:          -7.542
REMARK INTER:                  -7.542
REMARK INTRA:                   0.000
REMARK UNBOUND:                 0.000
REMARK SMILES Cc1cc(O)c2c(c1)C(=O)c1cc(O)cc(O)c1C2=O
REMARK SMILES IDX 1 1 2 2 8 3 7 4 6 5 4 6 3 7 19 8 20 9 18 10 11 11 9 12 10 13
REMARK SMILES IDX 12 14 13 15 15 16 16 17 5 18 17 20 14 22
REMARK H PARENT 5 19 17 21 14 23
REMARK Flexibility Score: inf
ROOT
ATOM      1  C   UNL     1     -10.263 -36.781 -21.071  1.00  0.00     0.044 C 
ATOM      2  C   UNL     1     -10.729 -37.886 -20.167  1.00  0.00    -0.047 A 
ATOM      3  C   UNL     1     -11.969 -37.796 -19.527  1.00  0.00     0.016 A 
ATOM      4  C   UNL     1     -12.433 -38.846 -18.715  1.00  0.00     0.038 A 
ATOM      5  C   UNL     1     -11.655 -40.015 -18.563  1.00  0.00     0.076 A 
ATOM      6  C   UNL     1     -10.379 -40.082 -19.179  1.00  0.00     0.127 A 
ATOM      7  C   UNL     1      -9.947 -39.034 -19.998  1.00  0.00     0.050 A 
ATOM      8  C   UNL     1     -12.245 -41.159 -17.818  1.00  0.00     0.201 C 
ATOM      9  O   UNL     1     -11.915 -42.337 -18.116  1.00  0.00    -0.288 OA
ATOM     10  C   UNL     1     -13.357 -40.922 -16.863  1.00  0.00     0.076 A 
ATOM     11  C   UNL     1     -14.132 -39.750 -17.018  1.00  0.00     0.041 A 
ATOM     12  C   UNL     1     -13.734 -38.728 -18.015  1.00  0.00     0.194 C 
ATOM     13  O   UNL     1     -14.491 -37.745 -18.247  1.00  0.00    -0.289 OA
ATOM     14  C   UNL     1     -15.275 -39.557 -16.223  1.00  0.00     0.059 A 
ATOM     15  C   UNL     1     -15.643 -40.509 -15.268  1.00  0.00     0.120 A 
ATOM     16  C   UNL     1     -14.858 -41.647 -15.084  1.00  0.00     0.093 A 
ATOM     17  C   UNL     1     -13.704 -41.852 -15.848  1.00  0.00     0.131 A 
ENDROOT
BRANCH   6  18
ATOM     18  O   UNL     1      -9.499 -41.148 -18.979  1.00  0.00    -0.507 OA
ATOM     19  H   UNL     1      -8.897 -41.519 -19.702  1.00  0.00     0.293 HD
ENDBRANCH   6  18
BRANCH  17  20
ATOM     20  O   UNL     1     -12.920 -42.967 -15.545  1.00  0.00    -0.507 OA
ATOM     21  H   UNL     1     -11.920 -43.001 -15.686  1.00  0.00     0.293 HD
ENDBRANCH  17  20
BRANCH  15  22
ATOM     22  O   UNL     1     -16.782 -40.328 -14.486  1.00  0.00    -0.508 OA
ATOM     23  H   UNL     1     -16.929 -40.856 -13.633  1.00  0.00     0.293 HD
ENDBRANCH  15  22
TORSDOF 3
ENDMDL
MODEL 6
REMARK VINA RESULT:    -6.616      2.184      5.807
REMARK INTER + INTRA:          -7.196
REMARK INTER:                  -7.196
REMARK INTRA:                   0.000
REMARK UNBOUND:                 0.000
REMARK SMILES Cc1cc(O)c2c(c1)C(=O)c1cc(O)cc(O)c1C2=O
REMARK SMILES IDX 1 1 2 2 8 3 7 4 6 5 4 6 3 7 19 8 20 9 18 10 11 11 9 12 10 13
REMARK SMILES IDX 12 14 13 15 15 16 16 17 5 18 17 20 14 22
REMARK H PARENT 5 19 17 21 14 23
REMARK Flexibility Score: inf
ROOT
ATOM      1  C   UNL     1      -8.995 -39.109 -19.811  1.00  0.00     0.044 C 
ATOM      2  C   UNL     1     -10.459 -39.287 -19.532  1.00  0.00    -0.047 A 
ATOM      3  C   UNL     1     -10.893 -39.641 -18.250  1.00  0.00     0.016 A 
ATOM      4  C   UNL     1     -12.264 -39.768 -17.968  1.00  0.00     0.038 A 
ATOM      5  C   UNL     1     -13.218 -39.509 -18.978  1.00  0.00     0.076 A 
ATOM      6  C   UNL     1     -12.770 -39.193 -20.287  1.00  0.00     0.127 A 
ATOM      7  C   UNL     1     -11.401 -39.054 -20.539  1.00  0.00     0.050 A 
ATOM      8  C   UNL     1     -14.656 -39.508 -18.603  1.00  0.00     0.201 C 
ATOM      9  O   UNL     1     -15.465 -38.769 -19.224  1.00  0.00    -0.288 OA
ATOM     10  C   UNL     1     -15.100 -40.228 -17.382  1.00  0.00     0.076 A 
ATOM     11  C   UNL     1     -14.142 -40.486 -16.374  1.00  0.00     0.041 A 
ATOM     12  C   UNL     1     -12.714 -40.175 -16.616  1.00  0.00     0.194 C 
ATOM     13  O   UNL     1     -11.877 -40.282 -15.677  1.00  0.00    -0.289 OA
ATOM     14  C   UNL     1     -14.550 -41.040 -15.148  1.00  0.00     0.059 A 
ATOM     15  C   UNL     1     -15.893 -41.353 -14.924  1.00  0.00     0.120 A 
ATOM     16  C   UNL     1     -16.834 -41.138 -15.931  1.00  0.00     0.093 A 
ATOM     17  C   UNL     1     -16.451 -40.607 -17.166  1.00  0.00     0.131 A 
ENDROOT
BRANCH   6  18
ATOM     18  O   UNL     1     -13.642 -39.043 -21.368  1.00  0.00    -0.507 OA
ATOM     19  H   UNL     1     -14.502 -38.514 -21.323  1.00  0.00     0.293 HD
ENDBRANCH   6  18
BRANCH  17  20
ATOM     20  O   UNL     1     -17.431 -40.505 -18.156  1.00  0.00    -0.507 OA
ATOM     21  H   UNL     1     -18.367 -40.170 -17.982  1.00  0.00     0.293 HD
ENDBRANCH  17  20
BRANCH  15  22
ATOM     22  O   UNL     1     -16.304 -41.892 -13.706  1.00  0.00    -0.508 OA
ATOM     23  H   UNL     1     -16.744 -41.320 -12.995  1.00  0.00     0.293 HD
ENDBRANCH  15  22
TORSDOF 3
ENDMDL
MODEL 7
REMARK VINA RESULT:    -6.426      1.736      2.621
REMARK INTER + INTRA:          -6.990
REMARK INTER:                  -6.990
REMARK INTRA:                   0.000
REMARK UNBOUND:                 0.000
REMARK SMILES Cc1cc(O)c2c(c1)C(=O)c1cc(O)cc(O)c1C2=O
REMARK SMILES IDX 1 1 2 2 8 3 7 4 6 5 4 6 3 7 19 8 20 9 18 10 11 11 9 12 10 13
REMARK SMILES IDX 12 14 13 15 15 16 16 17 5 18 17 20 14 22
REMARK H PARENT 5 19 17 21 14 23
REMARK Flexibility Score: inf
ROOT
ATOM      1  C   UNL     1     -12.131 -43.004 -14.952  1.00  0.00     0.044 C 
ATOM      2  C   UNL     1     -12.267 -41.800 -15.840  1.00  0.00    -0.047 A 
ATOM      3  C   UNL     1     -11.345 -41.576 -16.868  1.00  0.00     0.016 A 
ATOM      4  C   UNL     1     -11.489 -40.477 -17.731  1.00  0.00     0.038 A 
ATOM      5  C   UNL     1     -12.588 -39.602 -17.581  1.00  0.00     0.076 A 
ATOM      6  C   UNL     1     -13.495 -39.810 -16.509  1.00  0.00     0.127 A 
ATOM      7  C   UNL     1     -13.342 -40.921 -15.674  1.00  0.00     0.050 A 
ATOM      8  C   UNL     1     -12.787 -38.541 -18.603  1.00  0.00     0.201 C 
ATOM      9  O   UNL     1     -13.950 -38.139 -18.871  1.00  0.00    -0.288 OA
ATOM     10  C   UNL     1     -11.641 -38.096 -19.435  1.00  0.00     0.076 A 
ATOM     11  C   UNL     1     -10.542 -38.974 -19.583  1.00  0.00     0.041 A 
ATOM     12  C   UNL     1     -10.490 -40.230 -18.798  1.00  0.00     0.194 C 
ATOM     13  O   UNL     1      -9.580 -41.075 -19.020  1.00  0.00    -0.289 OA
ATOM     14  C   UNL     1      -9.502 -38.649 -20.471  1.00  0.00     0.059 A 
ATOM     15  C   UNL     1      -9.538 -37.456 -21.198  1.00  0.00     0.120 A 
ATOM     16  C   UNL     1     -10.600 -36.569 -21.025  1.00  0.00     0.093 A 
ATOM     17  C   UNL     1     -11.637 -36.859 -20.132  1.00  0.00     0.131 A 
ENDROOT
BRANCH   6  18
ATOM     18  O   UNL     1     -14.535 -38.924 -16.218  1.00  0.00    -0.507 OA
ATOM     19  H   UNL     1     -15.459 -38.994 -16.622  1.00  0.00     0.293 HD
ENDBRANCH   6  18
BRANCH  17  20
ATOM     20  O   UNL     1     -12.618 -35.884 -19.944  1.00  0.00    -0.507 OA
ATOM     21  H   UNL     1     -13.519 -36.071 -19.528  1.00  0.00     0.293 HD
ENDBRANCH  17  20
BRANCH  15  22
ATOM     22  O   UNL     1      -8.515 -37.135 -22.088  1.00  0.00    -0.508 OA
ATOM     23  H   UNL     1      -8.295 -37.729 -22.879  1.00  0.00     0.293 HD
ENDBRANCH  15  22
TORSDOF 3
ENDMDL
MODEL 8
REMARK VINA RESULT:    -6.338      2.531      4.797
REMARK INTER + INTRA:          -6.893
REMARK INTER:                  -6.893
REMARK INTRA:                   0.000
REMARK UNBOUND:                 0.000
REMARK SMILES Cc1cc(O)c2c(c1)C(=O)c1cc(O)cc(O)c1C2=O
REMARK SMILES IDX 1 1 2 2 8 3 7 4 6 5 4 6 3 7 19 8 20 9 18 10 11 11 9 12 10 13
REMARK SMILES IDX 12 14 13 15 15 16 16 17 5 18 17 20 14 22
REMARK H PARENT 5 19 17 21 14 23
REMARK Flexibility Score: inf
ROOT
ATOM      1  C   UNL     1     -10.913 -43.297 -13.589  1.00  0.00     0.044 C 
ATOM      2  C   UNL     1     -11.344 -42.446 -14.749  1.00  0.00    -0.047 A 
ATOM      3  C   UNL     1     -12.688 -42.092 -14.900  1.00  0.00     0.016 A 
ATOM      4  C   UNL     1     -13.094 -41.259 -15.958  1.00  0.00     0.038 A 
ATOM      5  C   UNL     1     -12.135 -40.751 -16.862  1.00  0.00     0.076 A 
ATOM      6  C   UNL     1     -10.780 -41.150 -16.728  1.00  0.00     0.127 A 
ATOM      7  C   UNL     1     -10.396 -41.964 -15.657  1.00  0.00     0.050 A 
ATOM      8  C   UNL     1     -12.580 -39.758 -17.874  1.00  0.00     0.201 C 
ATOM      9  O   UNL     1     -11.777 -38.880 -18.287  1.00  0.00    -0.288 OA
ATOM     10  C   UNL     1     -14.014 -39.684 -18.252  1.00  0.00     0.076 A 
ATOM     11  C   UNL     1     -14.971 -40.194 -17.345  1.00  0.00     0.041 A 
ATOM     12  C   UNL     1     -14.525 -40.915 -16.129  1.00  0.00     0.194 C 
ATOM     13  O   UNL     1     -15.368 -41.258 -15.254  1.00  0.00    -0.289 OA
ATOM     14  C   UNL     1     -16.342 -40.018 -17.602  1.00  0.00     0.059 A 
ATOM     15  C   UNL     1     -16.767 -39.356 -18.757  1.00  0.00     0.120 A 
ATOM     16  C   UNL     1     -15.827 -38.887 -19.675  1.00  0.00     0.093 A 
ATOM     17  C   UNL     1     -14.458 -39.067 -19.452  1.00  0.00     0.131 A 
ENDROOT
BRANCH   6  18
ATOM     18  O   UNL     1      -9.792 -40.791 -17.650  1.00  0.00    -0.507 OA
ATOM     19  H   UNL     1      -9.614 -39.838 -17.936  1.00  0.00     0.293 HD
ENDBRANCH   6  18
BRANCH  17  20
ATOM     20  O   UNL     1     -13.581 -38.653 -20.456  1.00  0.00    -0.507 OA
ATOM     21  H   UNL     1     -12.685 -39.085 -20.628  1.00  0.00     0.293 HD
ENDBRANCH  17  20
BRANCH  15  22
ATOM     22  O   UNL     1     -18.125 -39.170 -19.010  1.00  0.00    -0.508 OA
ATOM     23  H   UNL     1     -18.555 -38.255 -18.944  1.00  0.00     0.293 HD
ENDBRANCH  15  22
TORSDOF 3
ENDMDL
MODEL 9
REMARK VINA RESULT:    -6.255      1.574      6.611
REMARK INTER + INTRA:          -6.804
REMARK INTER:                  -6.804
REMARK INTRA:                   0.000
REMARK UNBOUND:                 0.000
REMARK SMILES Cc1cc(O)c2c(c1)C(=O)c1cc(O)cc(O)c1C2=O
REMARK SMILES IDX 1 1 2 2 8 3 7 4 6 5 4 6 3 7 19 8 20 9 18 10 11 11 9 12 10 13
REMARK SMILES IDX 12 14 13 15 15 16 16 17 5 18 17 20 14 22
REMARK H PARENT 5 19 17 21 14 23
REMARK Flexibility Score: inf
ROOT
ATOM      1  C   UNL     1      -7.860 -36.258 -21.441  1.00  0.00     0.044 C 
ATOM      2  C   UNL     1      -8.611 -37.447 -20.915  1.00  0.00    -0.047 A 
ATOM      3  C   UNL     1      -9.916 -37.300 -20.435  1.00  0.00     0.016 A 
ATOM      4  C   UNL     1     -10.642 -38.415 -19.982  1.00  0.00     0.038 A 
ATOM      5  C   UNL     1     -10.063 -39.702 -20.036  1.00  0.00     0.076 A 
ATOM      6  C   UNL     1      -8.724 -39.839 -20.483  1.00  0.00     0.127 A 
ATOM      7  C   UNL     1      -8.027 -38.718 -20.946  1.00  0.00     0.050 A 
ATOM      8  C   UNL     1     -10.914 -40.870 -19.689  1.00  0.00     0.201 C 
ATOM      9  O   UNL     1     -10.699 -41.986 -20.233  1.00  0.00    -0.288 OA
ATOM     10  C   UNL     1     -12.126 -40.677 -18.852  1.00  0.00     0.076 A 
ATOM     11  C   UNL     1     -12.702 -39.387 -18.800  1.00  0.00     0.041 A 
ATOM     12  C   UNL     1     -12.013 -38.244 -19.445  1.00  0.00     0.194 C 
ATOM     13  O   UNL     1     -12.584 -37.120 -19.513  1.00  0.00    -0.289 OA
ATOM     14  C   UNL     1     -13.924 -39.193 -18.133  1.00  0.00     0.059 A 
ATOM     15  C   UNL     1     -14.567 -40.265 -17.507  1.00  0.00     0.120 A 
ATOM     16  C   UNL     1     -13.981 -41.530 -17.521  1.00  0.00     0.093 A 
ATOM     17  C   UNL     1     -12.756 -41.744 -18.160  1.00  0.00     0.131 A 
ENDROOT
BRANCH   6  18
ATOM     18  O   UNL     1      -8.038 -41.055 -20.452  1.00  0.00    -0.507 OA
ATOM     19  H   UNL     1      -7.444 -41.343 -19.687  1.00  0.00     0.293 HD
ENDBRANCH   6  18
BRANCH  17  20
ATOM     20  O   UNL     1     -12.187 -43.016 -18.056  1.00  0.00    -0.507 OA
ATOM     21  H   UNL     1     -11.909 -43.433 -17.179  1.00  0.00     0.293 HD
ENDBRANCH  17  20
BRANCH  15  22
ATOM     22  O   UNL     1     -15.785 -40.080 -16.854  1.00  0.00    -0.508 OA
ATOM     23  H   UNL     1     -16.545 -40.742 -16.955  1.00  0.00     0.293 HD
ENDBRANCH  15  22
TORSDOF 3
ENDMDL
