MODEL 1
REMARK VINA RESULT:    -4.814      0.000      0.000
REMARK INTER + INTRA:         -10.358
REMARK INTER:                  -8.472
REMARK INTRA:                  -1.886
REMARK UNBOUND:                -1.886
REMARK SMILES CCCCCCCCCCCCCCC(=O)[O-]
REMARK SMILES IDX 9 1 10 2 11 3 12 4 13 5 14 6 15 7 16 8 17 9 8 10 7 11 6 12
REMARK SMILES IDX 5 13 4 14 3 15 2 16 1 17
REMARK H PARENT
REMARK Flexibility Score: inf
ROOT
ATOM      1  C   UNL     1    -105.022 -87.240  37.874  1.00  0.00     0.000 C 
ENDROOT
BRANCH   1   2
ATOM      2  C   UNL     1    -103.728 -86.843  38.611  1.00  0.00     0.000 C 
BRANCH   2   3
ATOM      3  C   UNL     1    -103.850 -85.618  39.538  1.00  0.00     0.000 C 
BRANCH   3   4
ATOM      4  C   UNL     1    -105.182 -84.855  39.434  1.00  0.00     0.000 C 
BRANCH   4   5
ATOM      5  C   UNL     1    -105.026 -83.346  39.674  1.00  0.00     0.006 C 
BRANCH   5   6
ATOM      6  C   UNL     1    -103.549 -82.942  39.675  1.00  0.00     0.053 C 
BRANCH   6   7
ATOM      7  C   UNL     1    -103.412 -81.458  39.805  1.00  0.00     0.041 C 
ATOM      8  O   UNL     1    -103.880 -80.863  40.811  1.00  0.00    -0.550 OA
ATOM      9  O   UNL     1    -102.811 -80.724  38.790  1.00  0.00    -0.550 OA
ENDBRANCH   6   7
ENDBRANCH   5   6
ENDBRANCH   4   5
ENDBRANCH   3   4
ENDBRANCH   2   3
ENDBRANCH   1   2
BRANCH   1  10
ATOM     10  C   UNL     1    -104.813 -87.810  36.460  1.00  0.00     0.000 C 
BRANCH  10  11
ATOM     11  C   UNL     1    -105.842 -87.288  35.446  1.00  0.00    -0.000 C 
BRANCH  11  12
ATOM     12  C   UNL     1    -105.171 -86.400  34.390  1.00  0.00    -0.000 C 
BRANCH  12  13
ATOM     13  C   UNL     1    -105.670 -84.944  34.425  1.00  0.00    -0.000 C 
BRANCH  13  14
ATOM     14  C   UNL     1    -104.581 -83.889  34.695  1.00  0.00    -0.000 C 
BRANCH  14  15
ATOM     15  C   UNL     1    -103.962 -84.010  36.095  1.00  0.00    -0.000 C 
BRANCH  15  16
ATOM     16  C   UNL     1    -102.475 -84.370  36.009  1.00  0.00    -0.003 C 
ATOM     17  C   UNL     1    -102.016 -84.471  34.557  1.00  0.00     0.004 C 
ENDBRANCH  15  16
ENDBRANCH  14  15
ENDBRANCH  13  14
ENDBRANCH  12  13
ENDBRANCH  11  12
ENDBRANCH  10  11
ENDBRANCH   1  10
TORSDOF 13
ENDMDL
MODEL 2
REMARK VINA RESULT:    -4.769      0.968      1.594
REMARK INTER + INTRA:         -10.279
REMARK INTER:                  -8.250
REMARK INTRA:                  -2.030
REMARK UNBOUND:                -1.886
REMARK SMILES CCCCCCCCCCCCCCC(=O)[O-]
REMARK SMILES IDX 9 1 10 2 11 3 12 4 13 5 14 6 15 7 16 8 17 9 8 10 7 11 6 12
REMARK SMILES IDX 5 13 4 14 3 15 2 16 1 17
REMARK H PARENT
REMARK Flexibility Score: inf
ROOT
ATOM      1  C   UNL     1    -103.624 -86.855  38.790  1.00  0.00     0.000 C 
ENDROOT
BRANCH   1   2
ATOM      2  C   UNL     1    -103.851 -85.576  39.620  1.00  0.00     0.000 C 
BRANCH   2   3
ATOM      3  C   UNL     1    -105.219 -84.896  39.414  1.00  0.00     0.000 C 
BRANCH   3   4
ATOM      4  C   UNL     1    -105.211 -83.363  39.552  1.00  0.00     0.000 C 
BRANCH   4   5
ATOM      5  C   UNL     1    -103.806 -82.794  39.800  1.00  0.00     0.006 C 
BRANCH   5   6
ATOM      6  C   UNL     1    -103.872 -81.303  40.143  1.00  0.00     0.053 C 
BRANCH   6   7
ATOM      7  C   UNL     1    -104.317 -80.512  38.954  1.00  0.00     0.041 C 
ATOM      8  O   UNL     1    -105.500 -80.089  38.880  1.00  0.00    -0.550 OA
ATOM      9  O   UNL     1    -103.438 -80.283  37.902  1.00  0.00    -0.550 OA
ENDBRANCH   6   7
ENDBRANCH   5   6
ENDBRANCH   4   5
ENDBRANCH   3   4
ENDBRANCH   2   3
ENDBRANCH   1   2
BRANCH   1  10
ATOM     10  C   UNL     1    -104.846 -87.329  37.982  1.00  0.00     0.000 C 
BRANCH  10  11
ATOM     11  C   UNL     1    -104.524 -87.575  36.501  1.00  0.00    -0.000 C 
BRANCH  11  12
ATOM     12  C   UNL     1    -105.692 -87.139  35.606  1.00  0.00    -0.000 C 
BRANCH  12  13
ATOM     13  C   UNL     1    -105.249 -86.247  34.432  1.00  0.00    -0.000 C 
BRANCH  13  14
ATOM     14  C   UNL     1    -104.076 -85.299  34.741  1.00  0.00    -0.000 C 
BRANCH  14  15
ATOM     15  C   UNL     1    -104.498 -84.068  35.555  1.00  0.00    -0.000 C 
BRANCH  15  16
ATOM     16  C   UNL     1    -103.296 -83.449  36.278  1.00  0.00    -0.003 C 
ATOM     17  C   UNL     1    -102.137 -84.437  36.365  1.00  0.00     0.004 C 
ENDBRANCH  15  16
ENDBRANCH  14  15
ENDBRANCH  13  14
ENDBRANCH  12  13
ENDBRANCH  11  12
ENDBRANCH  10  11
ENDBRANCH   1  10
TORSDOF 13
ENDMDL
MODEL 3
REMARK VINA RESULT:    -4.719      1.947      4.975
REMARK INTER + INTRA:         -10.191
REMARK INTER:                  -8.678
REMARK INTRA:                  -1.513
REMARK UNBOUND:                -1.886
REMARK SMILES CCCCCCCCCCCCCCC(=O)[O-]
REMARK SMILES IDX 9 1 10 2 11 3 12 4 13 5 14 6 15 7 16 8 17 9 8 10 7 11 6 12
REMARK SMILES IDX 5 13 4 14 3 15 2 16 1 17
REMARK H PARENT
REMARK Flexibility Score: inf
ROOT
ATOM      1  C   UNL     1    -105.137 -86.953  37.636  1.00  0.00     0.000 C 
ENDROOT
BRANCH   1   2
ATOM      2  C   UNL     1    -104.867 -87.560  36.245  1.00  0.00     0.000 C 
BRANCH   2   3
ATOM      3  C   UNL     1    -104.700 -86.536  35.105  1.00  0.00     0.000 C 
BRANCH   3   4
ATOM      4  C   UNL     1    -105.383 -85.178  35.344  1.00  0.00     0.000 C 
BRANCH   4   5
ATOM      5  C   UNL     1    -104.578 -83.998  34.781  1.00  0.00     0.006 C 
BRANCH   5   6
ATOM      6  C   UNL     1    -103.585 -83.467  35.819  1.00  0.00     0.053 C 
BRANCH   6   7
ATOM      7  C   UNL     1    -102.325 -84.274  35.798  1.00  0.00     0.041 C 
ATOM      8  O   UNL     1    -101.832 -84.709  36.871  1.00  0.00    -0.550 OA
ATOM      9  O   UNL     1    -101.667 -84.505  34.596  1.00  0.00    -0.550 OA
ENDBRANCH   6   7
ENDBRANCH   5   6
ENDBRANCH   4   5
ENDBRANCH   3   4
ENDBRANCH   2   3
ENDBRANCH   1   2
BRANCH   1  10
ATOM     10  C   UNL     1    -103.919 -86.923  38.577  1.00  0.00     0.000 C 
BRANCH  10  11
ATOM     11  C   UNL     1    -103.992 -85.791  39.612  1.00  0.00    -0.000 C 
BRANCH  11  12
ATOM     12  C   UNL     1    -105.192 -84.874  39.339  1.00  0.00    -0.000 C 
BRANCH  12  13
ATOM     13  C   UNL     1    -104.872 -83.384  39.560  1.00  0.00    -0.000 C 
BRANCH  13  14
ATOM     14  C   UNL     1    -103.380 -83.017  39.462  1.00  0.00    -0.000 C 
BRANCH  14  15
ATOM     15  C   UNL     1    -103.012 -81.776  40.288  1.00  0.00    -0.000 C 
BRANCH  15  16
ATOM     16  C   UNL     1    -104.217 -80.842  40.442  1.00  0.00    -0.003 C 
ATOM     17  C   UNL     1    -103.930 -79.735  41.452  1.00  0.00     0.004 C 
ENDBRANCH  15  16
ENDBRANCH  14  15
ENDBRANCH  13  14
ENDBRANCH  12  13
ENDBRANCH  11  12
ENDBRANCH  10  11
ENDBRANCH   1  10
TORSDOF 13
ENDMDL
MODEL 4
REMARK VINA RESULT:    -4.671      2.146      5.023
REMARK INTER + INTRA:         -10.107
REMARK INTER:                  -8.380
REMARK INTRA:                  -1.727
REMARK UNBOUND:                -1.886
REMARK SMILES CCCCCCCCCCCCCCC(=O)[O-]
REMARK SMILES IDX 9 1 10 2 11 3 12 4 13 5 14 6 15 7 16 8 17 9 8 10 7 11 6 12
REMARK SMILES IDX 5 13 4 14 3 15 2 16 1 17
REMARK H PARENT
REMARK Flexibility Score: inf
ROOT
ATOM      1  C   UNL     1    -103.982 -86.491  38.704  1.00  0.00     0.000 C 
ENDROOT
BRANCH   1   2
ATOM      2  C   UNL     1    -104.472 -87.498  37.644  1.00  0.00     0.000 C 
BRANCH   2   3
ATOM      3  C   UNL     1    -105.438 -86.923  36.590  1.00  0.00     0.000 C 
BRANCH   3   4
ATOM      4  C   UNL     1    -104.790 -86.561  35.242  1.00  0.00     0.000 C 
BRANCH   4   5
ATOM      5  C   UNL     1    -104.942 -85.074  34.887  1.00  0.00     0.006 C 
BRANCH   5   6
ATOM      6  C   UNL     1    -104.065 -84.203  35.790  1.00  0.00     0.053 C 
BRANCH   6   7
ATOM      7  C   UNL     1    -102.616 -84.486  35.543  1.00  0.00     0.041 C 
ATOM      8  O   UNL     1    -101.819 -84.602  36.510  1.00  0.00    -0.550 OA
ATOM      9  O   UNL     1    -102.136 -84.572  34.242  1.00  0.00    -0.550 OA
ENDBRANCH   6   7
ENDBRANCH   5   6
ENDBRANCH   4   5
ENDBRANCH   3   4
ENDBRANCH   2   3
ENDBRANCH   1   2
BRANCH   1  10
ATOM     10  C   UNL     1    -105.053 -85.504  39.203  1.00  0.00     0.000 C 
BRANCH  10  11
ATOM     11  C   UNL     1    -104.484 -84.111  39.513  1.00  0.00    -0.000 C 
BRANCH  11  12
ATOM     12  C   UNL     1    -102.956 -84.160  39.644  1.00  0.00    -0.000 C 
BRANCH  12  13
ATOM     13  C   UNL     1    -102.360 -82.857  40.206  1.00  0.00    -0.000 C 
BRANCH  13  14
ATOM     14  C   UNL     1    -103.330 -81.662  40.248  1.00  0.00    -0.000 C 
BRANCH  14  15
ATOM     15  C   UNL     1    -103.083 -80.649  39.121  1.00  0.00    -0.000 C 
BRANCH  15  16
ATOM     16  C   UNL     1    -104.106 -80.823  37.992  1.00  0.00    -0.003 C 
ATOM     17  C   UNL     1    -105.533 -80.712  38.519  1.00  0.00     0.004 C 
ENDBRANCH  15  16
ENDBRANCH  14  15
ENDBRANCH  13  14
ENDBRANCH  12  13
ENDBRANCH  11  12
ENDBRANCH  10  11
ENDBRANCH   1  10
TORSDOF 13
ENDMDL
MODEL 5
REMARK VINA RESULT:    -4.635      1.445      2.961
REMARK INTER + INTRA:         -10.044
REMARK INTER:                  -8.239
REMARK INTRA:                  -1.805
REMARK UNBOUND:                -1.886
REMARK SMILES CCCCCCCCCCCCCCC(=O)[O-]
REMARK SMILES IDX 9 1 10 2 11 3 12 4 13 5 14 6 15 7 16 8 17 9 8 10 7 11 6 12
REMARK SMILES IDX 5 13 4 14 3 15 2 16 1 17
REMARK H PARENT
REMARK Flexibility Score: inf
ROOT
ATOM      1  C   UNL     1    -105.002 -85.054  39.530  1.00  0.00     0.000 C 
ENDROOT
BRANCH   1   2
ATOM      2  C   UNL     1    -104.723 -83.542  39.409  1.00  0.00     0.000 C 
BRANCH   2   3
ATOM      3  C   UNL     1    -103.235 -83.145  39.458  1.00  0.00     0.000 C 
BRANCH   3   4
ATOM      4  C   UNL     1    -102.960 -81.711  39.943  1.00  0.00     0.000 C 
BRANCH   4   5
ATOM      5  C   UNL     1    -104.214 -81.018  40.497  1.00  0.00     0.006 C 
BRANCH   5   6
ATOM      6  C   UNL     1    -104.489 -79.708  39.753  1.00  0.00     0.053 C 
BRANCH   6   7
ATOM      7  C   UNL     1    -105.052 -79.985  38.394  1.00  0.00     0.041 C 
ATOM      8  O   UNL     1    -106.197 -80.493  38.273  1.00  0.00    -0.550 OA
ATOM      9  O   UNL     1    -104.290 -79.727  37.261  1.00  0.00    -0.550 OA
ENDBRANCH   6   7
ENDBRANCH   5   6
ENDBRANCH   4   5
ENDBRANCH   3   4
ENDBRANCH   2   3
ENDBRANCH   1   2
BRANCH   1  10
ATOM     10  C   UNL     1    -103.747 -85.945  39.541  1.00  0.00     0.000 C 
BRANCH  10  11
ATOM     11  C   UNL     1    -103.828 -87.103  38.535  1.00  0.00    -0.000 C 
BRANCH  11  12
ATOM     12  C   UNL     1    -105.121 -87.025  37.712  1.00  0.00    -0.000 C 
BRANCH  12  13
ATOM     13  C   UNL     1    -104.954 -87.560  36.278  1.00  0.00    -0.000 C 
BRANCH  13  14
ATOM     14  C   UNL     1    -105.301 -86.555  35.164  1.00  0.00    -0.000 C 
BRANCH  14  15
ATOM     15  C   UNL     1    -104.805 -85.132  35.463  1.00  0.00    -0.000 C 
BRANCH  15  16
ATOM     16  C   UNL     1    -103.356 -84.947  34.999  1.00  0.00    -0.003 C 
ATOM     17  C   UNL     1    -102.464 -84.491  36.149  1.00  0.00     0.004 C 
ENDBRANCH  15  16
ENDBRANCH  14  15
ENDBRANCH  13  14
ENDBRANCH  12  13
ENDBRANCH  11  12
ENDBRANCH  10  11
ENDBRANCH   1  10
TORSDOF 13
ENDMDL
MODEL 6
REMARK VINA RESULT:    -4.531      2.060      2.899
REMARK INTER + INTRA:          -9.861
REMARK INTER:                  -8.225
REMARK INTRA:                  -1.636
REMARK UNBOUND:                -1.886
REMARK SMILES CCCCCCCCCCCCCCC(=O)[O-]
REMARK SMILES IDX 9 1 10 2 11 3 12 4 13 5 14 6 15 7 16 8 17 9 8 10 7 11 6 12
REMARK SMILES IDX 5 13 4 14 3 15 2 16 1 17
REMARK H PARENT
REMARK Flexibility Score: inf
ROOT
ATOM      1  C   UNL     1    -103.675 -87.094  38.888  1.00  0.00     0.000 C 
ENDROOT
BRANCH   1   2
ATOM      2  C   UNL     1    -104.011 -85.943  39.856  1.00  0.00     0.000 C 
BRANCH   2   3
ATOM      3  C   UNL     1    -105.143 -85.005  39.391  1.00  0.00     0.000 C 
BRANCH   3   4
ATOM      4  C   UNL     1    -104.778 -83.511  39.359  1.00  0.00     0.000 C 
BRANCH   4   5
ATOM      5  C   UNL     1    -103.430 -83.240  38.673  1.00  0.00     0.006 C 
BRANCH   5   6
ATOM      6  C   UNL     1    -103.480 -83.637  37.195  1.00  0.00     0.053 C 
BRANCH   6   7
ATOM      7  C   UNL     1    -102.226 -84.353  36.803  1.00  0.00     0.041 C 
ATOM      8  O   UNL     1    -101.438 -84.784  37.686  1.00  0.00    -0.550 OA
ATOM      9  O   UNL     1    -101.901 -84.502  35.460  1.00  0.00    -0.550 OA
ENDBRANCH   6   7
ENDBRANCH   5   6
ENDBRANCH   4   5
ENDBRANCH   3   4
ENDBRANCH   2   3
ENDBRANCH   1   2
BRANCH   1  10
ATOM     10  C   UNL     1    -104.822 -87.506  37.948  1.00  0.00     0.000 C 
BRANCH  10  11
ATOM     11  C   UNL     1    -104.440 -87.411  36.463  1.00  0.00    -0.000 C 
BRANCH  11  12
ATOM     12  C   UNL     1    -105.474 -86.588  35.682  1.00  0.00    -0.000 C 
BRANCH  12  13
ATOM     13  C   UNL     1    -104.920 -86.025  34.361  1.00  0.00    -0.000 C 
BRANCH  13  14
ATOM     14  C   UNL     1    -105.206 -84.532  34.118  1.00  0.00    -0.000 C 
BRANCH  14  15
ATOM     15  C   UNL     1    -104.956 -84.101  32.666  1.00  0.00    -0.000 C 
BRANCH  15  16
ATOM     16  C   UNL     1    -103.551 -83.509  32.503  1.00  0.00    -0.003 C 
ATOM     17  C   UNL     1    -102.753 -84.266  31.446  1.00  0.00     0.004 C 
ENDBRANCH  15  16
ENDBRANCH  14  15
ENDBRANCH  13  14
ENDBRANCH  12  13
ENDBRANCH  11  12
ENDBRANCH  10  11
ENDBRANCH   1  10
TORSDOF 13
ENDMDL
MODEL 7
REMARK VINA RESULT:    -4.495      3.220      5.722
REMARK INTER + INTRA:          -9.797
REMARK INTER:                  -8.574
REMARK INTRA:                  -1.222
REMARK UNBOUND:                -1.886
REMARK SMILES CCCCCCCCCCCCCCC(=O)[O-]
REMARK SMILES IDX 9 1 10 2 11 3 12 4 13 5 14 6 15 7 16 8 17 9 8 10 7 11 6 12
REMARK SMILES IDX 5 13 4 14 3 15 2 16 1 17
REMARK H PARENT
REMARK Flexibility Score: inf
ROOT
ATOM      1  C   UNL     1    -105.004 -87.225  37.677  1.00  0.00     0.000 C 
ENDROOT
BRANCH   1   2
ATOM      2  C   UNL     1    -104.871 -86.980  36.161  1.00  0.00     0.000 C 
BRANCH   2   3
ATOM      3  C   UNL     1    -104.870 -85.499  35.734  1.00  0.00     0.000 C 
BRANCH   3   4
ATOM      4  C   UNL     1    -105.521 -85.216  34.368  1.00  0.00     0.000 C 
BRANCH   4   5
ATOM      5  C   UNL     1    -105.652 -83.715  34.070  1.00  0.00     0.006 C 
BRANCH   5   6
ATOM      6  C   UNL     1    -106.308 -83.483  32.706  1.00  0.00     0.053 C 
BRANCH   6   7
ATOM      7  C   UNL     1    -107.778 -83.257  32.864  1.00  0.00     0.041 C 
ATOM      8  O   UNL     1    -108.574 -84.233  32.866  1.00  0.00    -0.550 OA
ATOM      9  O   UNL     1    -108.277 -81.964  32.959  1.00  0.00    -0.550 OA
ENDBRANCH   6   7
ENDBRANCH   5   6
ENDBRANCH   4   5
ENDBRANCH   3   4
ENDBRANCH   2   3
ENDBRANCH   1   2
BRANCH   1  10
ATOM     10  C   UNL     1    -103.704 -87.038  38.480  1.00  0.00     0.000 C 
BRANCH  10  11
ATOM     11  C   UNL     1    -103.749 -85.819  39.414  1.00  0.00    -0.000 C 
BRANCH  11  12
ATOM     12  C   UNL     1    -105.167 -85.236  39.487  1.00  0.00    -0.000 C 
BRANCH  12  13
ATOM     13  C   UNL     1    -105.181 -83.700  39.590  1.00  0.00    -0.000 C 
BRANCH  13  14
ATOM     14  C   UNL     1    -104.608 -82.962  38.366  1.00  0.00    -0.000 C 
BRANCH  14  15
ATOM     15  C   UNL     1    -103.361 -82.129  38.697  1.00  0.00    -0.000 C 
BRANCH  15  16
ATOM     16  C   UNL     1    -103.134 -82.059  40.212  1.00  0.00    -0.003 C 
ATOM     17  C   UNL     1    -103.341 -80.641  40.735  1.00  0.00     0.004 C 
ENDBRANCH  15  16
ENDBRANCH  14  15
ENDBRANCH  13  14
ENDBRANCH  12  13
ENDBRANCH  11  12
ENDBRANCH  10  11
ENDBRANCH   1  10
TORSDOF 13
ENDMDL
MODEL 8
REMARK VINA RESULT:    -4.479      3.977      6.355
REMARK INTER + INTRA:          -9.769
REMARK INTER:                  -8.495
REMARK INTRA:                  -1.274
REMARK UNBOUND:                -1.886
REMARK SMILES CCCCCCCCCCCCCCC(=O)[O-]
REMARK SMILES IDX 9 1 10 2 11 3 12 4 13 5 14 6 15 7 16 8 17 9 8 10 7 11 6 12
REMARK SMILES IDX 5 13 4 14 3 15 2 16 1 17
REMARK H PARENT
REMARK Flexibility Score: inf
ROOT
ATOM      1  C   UNL     1    -104.570 -86.138  35.855  1.00  0.00     0.000 C 
ENDROOT
BRANCH   1   2
ATOM      2  C   UNL     1    -105.549 -85.462  34.875  1.00  0.00     0.000 C 
BRANCH   2   3
ATOM      3  C   UNL     1    -105.080 -84.107  34.310  1.00  0.00     0.000 C 
BRANCH   3   4
ATOM      4  C   UNL     1    -105.769 -83.672  33.005  1.00  0.00     0.000 C 
BRANCH   4   5
ATOM      5  C   UNL     1    -107.148 -83.038  33.241  1.00  0.00     0.006 C 
BRANCH   5   6
ATOM      6  C   UNL     1    -108.238 -83.799  32.480  1.00  0.00     0.053 C 
BRANCH   6   7
ATOM      7  C   UNL     1    -108.322 -83.318  31.066  1.00  0.00     0.041 C 
ATOM      8  O   UNL     1    -108.731 -84.086  30.157  1.00  0.00    -0.550 OA
ATOM      9  O   UNL     1    -107.902 -82.033  30.742  1.00  0.00    -0.550 OA
ENDBRANCH   6   7
ENDBRANCH   5   6
ENDBRANCH   4   5
ENDBRANCH   3   4
ENDBRANCH   2   3
ENDBRANCH   1   2
BRANCH   1  10
ATOM     10  C   UNL     1    -105.198 -87.214  36.759  1.00  0.00     0.000 C 
BRANCH  10  11
ATOM     11  C   UNL     1    -104.333 -87.544  37.985  1.00  0.00    -0.000 C 
BRANCH  11  12
ATOM     12  C   UNL     1    -103.747 -86.268  38.603  1.00  0.00    -0.000 C 
BRANCH  12  13
ATOM     13  C   UNL     1    -104.559 -85.755  39.806  1.00  0.00    -0.000 C 
BRANCH  13  14
ATOM     14  C   UNL     1    -105.464 -84.545  39.512  1.00  0.00    -0.000 C 
BRANCH  14  15
ATOM     15  C   UNL     1    -104.707 -83.209  39.541  1.00  0.00    -0.000 C 
BRANCH  15  16
ATOM     16  C   UNL     1    -104.744 -82.527  38.169  1.00  0.00    -0.003 C 
ATOM     17  C   UNL     1    -103.489 -82.845  37.362  1.00  0.00     0.004 C 
ENDBRANCH  15  16
ENDBRANCH  14  15
ENDBRANCH  13  14
ENDBRANCH  12  13
ENDBRANCH  11  12
ENDBRANCH  10  11
ENDBRANCH   1  10
TORSDOF 13
ENDMDL
MODEL 9
REMARK VINA RESULT:    -4.448      2.776      5.599
REMARK INTER + INTRA:          -9.715
REMARK INTER:                  -7.673
REMARK INTRA:                  -2.042
REMARK UNBOUND:                -1.886
REMARK SMILES CCCCCCCCCCCCCCC(=O)[O-]
REMARK SMILES IDX 9 1 10 2 11 3 12 4 13 5 14 6 15 7 16 8 17 9 8 10 7 11 6 12
REMARK SMILES IDX 5 13 4 14 3 15 2 16 1 17
REMARK H PARENT
REMARK Flexibility Score: inf
ROOT
ATOM      1  C   UNL     1    -104.539 -82.375  39.494  1.00  0.00     0.000 C 
ENDROOT
BRANCH   1   2
ATOM      2  C   UNL     1    -104.992 -81.648  38.212  1.00  0.00     0.000 C 
BRANCH   2   3
ATOM      3  C   UNL     1    -104.089 -81.865  36.982  1.00  0.00     0.000 C 
BRANCH   3   4
ATOM      4  C   UNL     1    -104.093 -83.295  36.416  1.00  0.00     0.000 C 
BRANCH   4   5
ATOM      5  C   UNL     1    -102.684 -83.817  36.101  1.00  0.00     0.006 C 
BRANCH   5   6
ATOM      6  C   UNL     1    -102.725 -84.868  34.989  1.00  0.00     0.053 C 
BRANCH   6   7
ATOM      7  C   UNL     1    -102.904 -84.214  33.655  1.00  0.00     0.041 C 
ATOM      8  O   UNL     1    -101.973 -83.534  33.152  1.00  0.00    -0.550 OA
ATOM      9  O   UNL     1    -104.120 -84.313  32.990  1.00  0.00    -0.550 OA
ENDBRANCH   6   7
ENDBRANCH   5   6
ENDBRANCH   4   5
ENDBRANCH   3   4
ENDBRANCH   2   3
ENDBRANCH   1   2
BRANCH   1  10
ATOM     10  C   UNL     1    -103.045 -82.219  39.833  1.00  0.00     0.000 C 
BRANCH  10  11
ATOM     11  C   UNL     1    -102.305 -83.563  39.902  1.00  0.00    -0.000 C 
BRANCH  11  12
ATOM     12  C   UNL     1    -103.275 -84.735  39.698  1.00  0.00    -0.000 C 
BRANCH  12  13
ATOM     13  C   UNL     1    -102.596 -85.980  39.098  1.00  0.00    -0.000 C 
BRANCH  13  14
ATOM     14  C   UNL     1    -103.552 -87.129  38.731  1.00  0.00    -0.000 C 
BRANCH  14  15
ATOM     15  C   UNL     1    -104.759 -86.664  37.903  1.00  0.00    -0.000 C 
BRANCH  15  16
ATOM     16  C   UNL     1    -105.104 -87.686  36.814  1.00  0.00    -0.003 C 
ATOM     17  C   UNL     1    -105.554 -86.994  35.532  1.00  0.00     0.004 C 
ENDBRANCH  15  16
ENDBRANCH  14  15
ENDBRANCH  13  14
ENDBRANCH  12  13
ENDBRANCH  11  12
ENDBRANCH  10  11
ENDBRANCH   1  10
TORSDOF 13
ENDMDL
