MODEL 1
REMARK VINA RESULT:    -3.150      0.000      0.000
REMARK INTER + INTRA:         -13.596
REMARK INTER:                  -7.938
REMARK INTRA:                  -5.658
REMARK UNBOUND:                -5.658
REMARK SMILES CCCCCCCCCCCCCCCCCCCCCCCCCCCC(=O)[O-]
REMARK SMILES IDX 15 1 16 2 17 3 18 4 19 5 20 6 21 7 22 8 23 9 24 10 25 11
REMARK SMILES IDX 26 12 27 13 28 14 29 15 30 16 14 17 13 18 12 19 11 20 10 21
REMARK SMILES IDX 9 22 8 23 7 24 6 25 5 26 4 27 3 28 2 29 1 30
REMARK H PARENT
REMARK Flexibility Score: inf
ROOT
ATOM      1  C   UNL     1      43.835  34.337  49.981  1.00  0.00     0.000 C 
ENDROOT
BRANCH   1   2
ATOM      2  C   UNL     1      42.552  35.164  49.757  1.00  0.00     0.000 C 
BRANCH   2   3
ATOM      3  C   UNL     1      41.601  34.619  48.674  1.00  0.00     0.000 C 
BRANCH   3   4
ATOM      4  C   UNL     1      40.819  35.693  47.894  1.00  0.00     0.000 C 
BRANCH   4   5
ATOM      5  C   UNL     1      40.734  35.424  46.376  1.00  0.00     0.000 C 
BRANCH   5   6
ATOM      6  C   UNL     1      41.210  34.009  46.001  1.00  0.00     0.000 C 
BRANCH   6   7
ATOM      7  C   UNL     1      42.418  34.023  45.050  1.00  0.00     0.000 C 
BRANCH   7   8
ATOM      8  C   UNL     1      43.728  33.636  45.759  1.00  0.00     0.000 C 
BRANCH   8   9
ATOM      9  C   UNL     1      44.835  34.683  45.565  1.00  0.00     0.000 C 
BRANCH   9  10
ATOM     10  C   UNL     1      44.952  35.651  46.757  1.00  0.00     0.000 C 
BRANCH  10  11
ATOM     11  C   UNL     1      44.110  36.927  46.576  1.00  0.00     0.000 C 
BRANCH  11  12
ATOM     12  C   UNL     1      44.150  37.902  47.767  1.00  0.00     0.006 C 
BRANCH  12  13
ATOM     13  C   UNL     1      45.232  37.548  48.796  1.00  0.00     0.053 C 
BRANCH  13  14
ATOM     14  C   UNL     1      46.294  38.604  48.835  1.00  0.00     0.041 C 
ATOM     15  O   UNL     1      46.079  39.696  49.424  1.00  0.00    -0.550 OA
ATOM     16  O   UNL     1      47.520  38.385  48.216  1.00  0.00    -0.550 OA
ENDBRANCH  13  14
ENDBRANCH  12  13
ENDBRANCH  11  12
ENDBRANCH  10  11
ENDBRANCH   9  10
ENDBRANCH   8   9
ENDBRANCH   7   8
ENDBRANCH   6   7
ENDBRANCH   5   6
ENDBRANCH   4   5
ENDBRANCH   3   4
ENDBRANCH   2   3
ENDBRANCH   1   2
BRANCH   1  17
ATOM     17  C   UNL     1      43.841  32.949  49.315  1.00  0.00     0.000 C 
BRANCH  17  18
ATOM     18  C   UNL     1      45.184  32.218  49.463  1.00  0.00     0.000 C 
BRANCH  18  19
ATOM     19  C   UNL     1      46.347  33.111  49.001  1.00  0.00     0.000 C 
BRANCH  19  20
ATOM     20  C   UNL     1      47.092  32.541  47.784  1.00  0.00     0.000 C 
BRANCH  20  21
ATOM     21  C   UNL     1      46.305  31.426  47.076  1.00  0.00     0.000 C 
BRANCH  21  22
ATOM     22  C   UNL     1      47.076  30.097  47.028  1.00  0.00    -0.000 C 
BRANCH  22  23
ATOM     23  C   UNL     1      46.149  28.874  46.956  1.00  0.00    -0.000 C 
BRANCH  23  24
ATOM     24  C   UNL     1      44.949  29.038  47.897  1.00  0.00    -0.000 C 
BRANCH  24  25
ATOM     25  C   UNL     1      44.740  27.774  48.746  1.00  0.00    -0.000 C 
BRANCH  25  26
ATOM     26  C   UNL     1      45.863  27.579  49.787  1.00  0.00    -0.000 C 
BRANCH  26  27
ATOM     27  C   UNL     1      46.194  28.859  50.574  1.00  0.00    -0.000 C 
BRANCH  27  28
ATOM     28  C   UNL     1      47.679  29.244  50.484  1.00  0.00    -0.000 C 
BRANCH  28  29
ATOM     29  C   UNL     1      47.980  30.590  51.161  1.00  0.00    -0.003 C 
ATOM     30  C   UNL     1      49.223  31.273  50.592  1.00  0.00     0.004 C 
ENDBRANCH  28  29
ENDBRANCH  27  28
ENDBRANCH  26  27
ENDBRANCH  25  26
ENDBRANCH  24  25
ENDBRANCH  23  24
ENDBRANCH  22  23
ENDBRANCH  21  22
ENDBRANCH  20  21
ENDBRANCH  19  20
ENDBRANCH  18  19
ENDBRANCH  17  18
ENDBRANCH   1  17
TORSDOF 26
ENDMDL
MODEL 2
REMARK VINA RESULT:    -3.028      1.955      3.907
REMARK INTER + INTRA:         -13.287
REMARK INTER:                  -8.940
REMARK INTRA:                  -4.347
REMARK UNBOUND:                -5.658
REMARK SMILES CCCCCCCCCCCCCCCCCCCCCCCCCCCC(=O)[O-]
REMARK SMILES IDX 15 1 16 2 17 3 18 4 19 5 20 6 21 7 22 8 23 9 24 10 25 11
REMARK SMILES IDX 26 12 27 13 28 14 29 15 30 16 14 17 13 18 12 19 11 20 10 21
REMARK SMILES IDX 9 22 8 23 7 24 6 25 5 26 4 27 3 28 2 29 1 30
REMARK H PARENT
REMARK Flexibility Score: inf
ROOT
ATOM      1  C   UNL     1      41.192  35.970  47.867  1.00  0.00     0.000 C 
ENDROOT
BRANCH   1   2
ATOM      2  C   UNL     1      40.626  35.439  46.533  1.00  0.00     0.000 C 
BRANCH   2   3
ATOM      3  C   UNL     1      41.215  34.096  46.059  1.00  0.00     0.000 C 
BRANCH   3   4
ATOM      4  C   UNL     1      42.438  34.214  45.129  1.00  0.00     0.000 C 
BRANCH   4   5
ATOM      5  C   UNL     1      43.651  33.374  45.584  1.00  0.00     0.000 C 
BRANCH   5   6
ATOM      6  C   UNL     1      44.874  34.242  45.926  1.00  0.00     0.000 C 
BRANCH   6   7
ATOM      7  C   UNL     1      44.492  35.681  46.309  1.00  0.00     0.000 C 
BRANCH   7   8
ATOM      8  C   UNL     1      45.143  36.131  47.628  1.00  0.00     0.000 C 
BRANCH   8   9
ATOM      9  C   UNL     1      44.878  37.612  47.941  1.00  0.00     0.000 C 
BRANCH   9  10
ATOM     10  C   UNL     1      45.603  38.088  49.213  1.00  0.00     0.000 C 
BRANCH  10  11
ATOM     11  C   UNL     1      44.678  38.152  50.442  1.00  0.00     0.000 C 
BRANCH  11  12
ATOM     12  C   UNL     1      45.044  39.236  51.471  1.00  0.00     0.006 C 
BRANCH  12  13
ATOM     13  C   UNL     1      43.917  39.515  52.476  1.00  0.00     0.053 C 
BRANCH  13  14
ATOM     14  C   UNL     1      43.403  40.914  52.321  1.00  0.00     0.041 C 
ATOM     15  O   UNL     1      43.462  41.719  53.289  1.00  0.00    -0.550 OA
ATOM     16  O   UNL     1      42.855  41.329  51.113  1.00  0.00    -0.550 OA
ENDBRANCH  13  14
ENDBRANCH  12  13
ENDBRANCH  11  12
ENDBRANCH  10  11
ENDBRANCH   9  10
ENDBRANCH   8   9
ENDBRANCH   7   8
ENDBRANCH   6   7
ENDBRANCH   5   6
ENDBRANCH   4   5
ENDBRANCH   3   4
ENDBRANCH   2   3
ENDBRANCH   1   2
BRANCH   1  17
ATOM     17  C   UNL     1      41.508  34.890  48.917  1.00  0.00     0.000 C 
BRANCH  17  18
ATOM     18  C   UNL     1      42.507  35.363  49.984  1.00  0.00     0.000 C 
BRANCH  18  19
ATOM     19  C   UNL     1      43.439  34.217  50.407  1.00  0.00     0.000 C 
BRANCH  19  20
ATOM     20  C   UNL     1      43.695  33.206  49.277  1.00  0.00     0.000 C 
BRANCH  20  21
ATOM     21  C   UNL     1      44.867  32.259  49.582  1.00  0.00     0.000 C 
BRANCH  21  22
ATOM     22  C   UNL     1      46.150  32.642  48.827  1.00  0.00    -0.000 C 
BRANCH  22  23
ATOM     23  C   UNL     1      47.427  32.236  49.578  1.00  0.00    -0.000 C 
BRANCH  23  24
ATOM     24  C   UNL     1      48.157  31.103  48.847  1.00  0.00    -0.000 C 
BRANCH  24  25
ATOM     25  C   UNL     1      48.488  29.952  49.810  1.00  0.00    -0.000 C 
BRANCH  25  26
ATOM     26  C   UNL     1      47.483  29.862  50.978  1.00  0.00    -0.000 C 
BRANCH  26  27
ATOM     27  C   UNL     1      46.506  28.680  50.852  1.00  0.00    -0.000 C 
BRANCH  27  28
ATOM     28  C   UNL     1      45.295  29.001  49.961  1.00  0.00    -0.000 C 
BRANCH  28  29
ATOM     29  C   UNL     1      45.337  28.255  48.619  1.00  0.00    -0.003 C 
ATOM     30  C   UNL     1      45.086  29.174  47.424  1.00  0.00     0.004 C 
ENDBRANCH  28  29
ENDBRANCH  27  28
ENDBRANCH  26  27
ENDBRANCH  25  26
ENDBRANCH  24  25
ENDBRANCH  23  24
ENDBRANCH  22  23
ENDBRANCH  21  22
ENDBRANCH  20  21
ENDBRANCH  19  20
ENDBRANCH  18  19
ENDBRANCH  17  18
ENDBRANCH   1  17
TORSDOF 26
ENDMDL
MODEL 3
REMARK VINA RESULT:    -3.024      2.338      3.669
REMARK INTER + INTRA:         -13.278
REMARK INTER:                  -9.000
REMARK INTRA:                  -4.278
REMARK UNBOUND:                -5.658
REMARK SMILES CCCCCCCCCCCCCCCCCCCCCCCCCCCC(=O)[O-]
REMARK SMILES IDX 15 1 16 2 17 3 18 4 19 5 20 6 21 7 22 8 23 9 24 10 25 11
REMARK SMILES IDX 26 12 27 13 28 14 29 15 30 16 14 17 13 18 12 19 11 20 10 21
REMARK SMILES IDX 9 22 8 23 7 24 6 25 5 26 4 27 3 28 2 29 1 30
REMARK H PARENT
REMARK Flexibility Score: inf
ROOT
ATOM      1  C   UNL     1      40.869  35.627  48.223  1.00  0.00     0.000 C 
ENDROOT
BRANCH   1   2
ATOM      2  C   UNL     1      40.556  35.378  46.732  1.00  0.00     0.000 C 
BRANCH   2   3
ATOM      3  C   UNL     1      41.226  34.132  46.121  1.00  0.00     0.000 C 
BRANCH   3   4
ATOM      4  C   UNL     1      42.478  34.419  45.269  1.00  0.00     0.000 C 
BRANCH   4   5
ATOM      5  C   UNL     1      43.778  33.823  45.850  1.00  0.00     0.000 C 
BRANCH   5   6
ATOM      6  C   UNL     1      44.818  34.903  46.196  1.00  0.00     0.000 C 
BRANCH   6   7
ATOM      7  C   UNL     1      44.216  36.317  46.230  1.00  0.00     0.000 C 
BRANCH   7   8
ATOM      8  C   UNL     1      44.874  37.210  47.296  1.00  0.00     0.000 C 
BRANCH   8   9
ATOM      9  C   UNL     1      43.845  37.912  48.195  1.00  0.00     0.000 C 
BRANCH   9  10
ATOM     10  C   UNL     1      44.495  38.625  49.396  1.00  0.00     0.000 C 
BRANCH  10  11
ATOM     11  C   UNL     1      43.877  40.006  49.678  1.00  0.00     0.000 C 
BRANCH  11  12
ATOM     12  C   UNL     1      43.814  40.395  51.166  1.00  0.00     0.006 C 
BRANCH  12  13
ATOM     13  C   UNL     1      43.108  41.737  51.406  1.00  0.00     0.053 C 
BRANCH  13  14
ATOM     14  C   UNL     1      43.164  42.114  52.855  1.00  0.00     0.041 C 
ATOM     15  O   UNL     1      42.121  42.501  53.448  1.00  0.00    -0.550 OA
ATOM     16  O   UNL     1      44.365  42.044  53.550  1.00  0.00    -0.550 OA
ENDBRANCH  13  14
ENDBRANCH  12  13
ENDBRANCH  11  12
ENDBRANCH  10  11
ENDBRANCH   9  10
ENDBRANCH   8   9
ENDBRANCH   7   8
ENDBRANCH   6   7
ENDBRANCH   5   6
ENDBRANCH   4   5
ENDBRANCH   3   4
ENDBRANCH   2   3
ENDBRANCH   1   2
BRANCH   1  17
ATOM     17  C   UNL     1      41.754  34.559  48.891  1.00  0.00     0.000 C 
BRANCH  17  18
ATOM     18  C   UNL     1      42.755  35.151  49.895  1.00  0.00     0.000 C 
BRANCH  18  19
ATOM     19  C   UNL     1      44.046  34.318  49.936  1.00  0.00     0.000 C 
BRANCH  19  20
ATOM     20  C   UNL     1      43.880  32.927  49.303  1.00  0.00     0.000 C 
BRANCH  20  21
ATOM     21  C   UNL     1      45.135  32.052  49.456  1.00  0.00     0.000 C 
BRANCH  21  22
ATOM     22  C   UNL     1      46.125  32.227  48.293  1.00  0.00    -0.000 C 
BRANCH  22  23
ATOM     23  C   UNL     1      46.469  30.900  47.600  1.00  0.00    -0.000 C 
BRANCH  23  24
ATOM     24  C   UNL     1      45.214  30.250  47.004  1.00  0.00    -0.000 C 
BRANCH  24  25
ATOM     25  C   UNL     1      45.150  28.755  47.356  1.00  0.00    -0.000 C 
BRANCH  25  26
ATOM     26  C   UNL     1      44.846  28.522  48.850  1.00  0.00    -0.000 C 
BRANCH  26  27
ATOM     27  C   UNL     1      46.026  27.911  49.625  1.00  0.00    -0.000 C 
BRANCH  27  28
ATOM     28  C   UNL     1      46.503  28.803  50.783  1.00  0.00    -0.000 C 
BRANCH  28  29
ATOM     29  C   UNL     1      47.938  29.313  50.580  1.00  0.00    -0.003 C 
ATOM     30  C   UNL     1      48.118  30.762  51.030  1.00  0.00     0.004 C 
ENDBRANCH  28  29
ENDBRANCH  27  28
ENDBRANCH  26  27
ENDBRANCH  25  26
ENDBRANCH  24  25
ENDBRANCH  23  24
ENDBRANCH  22  23
ENDBRANCH  21  22
ENDBRANCH  20  21
ENDBRANCH  19  20
ENDBRANCH  18  19
ENDBRANCH  17  18
ENDBRANCH   1  17
TORSDOF 26
ENDMDL
MODEL 4
REMARK VINA RESULT:    -2.993      3.673      7.927
REMARK INTER + INTRA:         -13.199
REMARK INTER:                  -8.568
REMARK INTRA:                  -4.631
REMARK UNBOUND:                -5.658
REMARK SMILES CCCCCCCCCCCCCCCCCCCCCCCCCCCC(=O)[O-]
REMARK SMILES IDX 15 1 16 2 17 3 18 4 19 5 20 6 21 7 22 8 23 9 24 10 25 11
REMARK SMILES IDX 26 12 27 13 28 14 29 15 30 16 14 17 13 18 12 19 11 20 10 21
REMARK SMILES IDX 9 22 8 23 7 24 6 25 5 26 4 27 3 28 2 29 1 30
REMARK H PARENT
REMARK Flexibility Score: inf
ROOT
ATOM      1  C   UNL     1      42.558  34.478  49.347  1.00  0.00     0.000 C 
ENDROOT
BRANCH   1   2
ATOM      2  C   UNL     1      41.343  35.301  48.870  1.00  0.00     0.000 C 
BRANCH   2   3
ATOM      3  C   UNL     1      40.839  34.967  47.453  1.00  0.00     0.000 C 
BRANCH   3   4
ATOM      4  C   UNL     1      41.153  36.032  46.384  1.00  0.00     0.000 C 
BRANCH   4   5
ATOM      5  C   UNL     1      42.218  35.589  45.357  1.00  0.00     0.000 C 
BRANCH   5   6
ATOM      6  C   UNL     1      42.643  34.122  45.543  1.00  0.00     0.000 C 
BRANCH   6   7
ATOM      7  C   UNL     1      44.145  33.973  45.837  1.00  0.00     0.000 C 
BRANCH   7   8
ATOM      8  C   UNL     1      44.425  32.961  46.962  1.00  0.00     0.000 C 
BRANCH   8   9
ATOM      9  C   UNL     1      45.870  33.040  47.479  1.00  0.00     0.000 C 
BRANCH   9  10
ATOM     10  C   UNL     1      45.974  32.776  48.992  1.00  0.00     0.000 C 
BRANCH  10  11
ATOM     11  C   UNL     1      45.007  31.681  49.477  1.00  0.00     0.000 C 
BRANCH  11  12
ATOM     12  C   UNL     1      45.686  30.402  49.998  1.00  0.00     0.006 C 
BRANCH  12  13
ATOM     13  C   UNL     1      46.255  29.524  48.874  1.00  0.00     0.053 C 
BRANCH  13  14
ATOM     14  C   UNL     1      45.158  29.022  47.985  1.00  0.00     0.041 C 
ATOM     15  O   UNL     1      44.325  28.185  48.421  1.00  0.00    -0.550 OA
ATOM     16  O   UNL     1      45.058  29.475  46.675  1.00  0.00    -0.550 OA
ENDBRANCH  13  14
ENDBRANCH  12  13
ENDBRANCH  11  12
ENDBRANCH  10  11
ENDBRANCH   9  10
ENDBRANCH   8   9
ENDBRANCH   7   8
ENDBRANCH   6   7
ENDBRANCH   5   6
ENDBRANCH   4   5
ENDBRANCH   3   4
ENDBRANCH   2   3
ENDBRANCH   1   2
BRANCH   1  17
ATOM     17  C   UNL     1      43.389  35.130  50.466  1.00  0.00     0.000 C 
BRANCH  17  18
ATOM     18  C   UNL     1      44.027  36.461  50.042  1.00  0.00     0.000 C 
BRANCH  18  19
ATOM     19  C   UNL     1      45.039  36.245  48.905  1.00  0.00     0.000 C 
BRANCH  19  20
ATOM     20  C   UNL     1      44.781  37.156  47.694  1.00  0.00     0.000 C 
BRANCH  20  21
ATOM     21  C   UNL     1      43.590  38.106  47.908  1.00  0.00     0.000 C 
BRANCH  21  22
ATOM     22  C   UNL     1      44.011  39.583  47.946  1.00  0.00    -0.000 C 
BRANCH  22  23
ATOM     23  C   UNL     1      43.495  40.318  49.193  1.00  0.00    -0.000 C 
BRANCH  23  24
ATOM     24  C   UNL     1      44.456  40.137  50.374  1.00  0.00    -0.000 C 
BRANCH  24  25
ATOM     25  C   UNL     1      43.706  40.234  51.712  1.00  0.00    -0.000 C 
BRANCH  25  26
ATOM     26  C   UNL     1      44.117  39.114  52.692  1.00  0.00    -0.000 C 
BRANCH  26  27
ATOM     27  C   UNL     1      45.020  39.605  53.836  1.00  0.00    -0.000 C 
BRANCH  27  28
ATOM     28  C   UNL     1      45.130  41.137  53.892  1.00  0.00    -0.000 C 
BRANCH  28  29
ATOM     29  C   UNL     1      46.530  41.641  53.510  1.00  0.00    -0.003 C 
ATOM     30  C   UNL     1      46.492  42.742  52.451  1.00  0.00     0.004 C 
ENDBRANCH  28  29
ENDBRANCH  27  28
ENDBRANCH  26  27
ENDBRANCH  25  26
ENDBRANCH  24  25
ENDBRANCH  23  24
ENDBRANCH  22  23
ENDBRANCH  21  22
ENDBRANCH  20  21
ENDBRANCH  19  20
ENDBRANCH  18  19
ENDBRANCH  17  18
ENDBRANCH   1  17
TORSDOF 26
ENDMDL
MODEL 5
REMARK VINA RESULT:    -2.963      0.980      1.913
REMARK INTER + INTRA:         -13.123
REMARK INTER:                  -8.098
REMARK INTRA:                  -5.025
REMARK UNBOUND:                -5.658
REMARK SMILES CCCCCCCCCCCCCCCCCCCCCCCCCCCC(=O)[O-]
REMARK SMILES IDX 15 1 16 2 17 3 18 4 19 5 20 6 21 7 22 8 23 9 24 10 25 11
REMARK SMILES IDX 26 12 27 13 28 14 29 15 30 16 14 17 13 18 12 19 11 20 10 21
REMARK SMILES IDX 9 22 8 23 7 24 6 25 5 26 4 27 3 28 2 29 1 30
REMARK H PARENT
REMARK Flexibility Score: inf
ROOT
ATOM      1  C   UNL     1      43.973  34.066  50.115  1.00  0.00     0.000 C 
ENDROOT
BRANCH   1   2
ATOM      2  C   UNL     1      42.783  35.014  49.860  1.00  0.00     0.000 C 
BRANCH   2   3
ATOM      3  C   UNL     1      41.829  34.581  48.730  1.00  0.00     0.000 C 
BRANCH   3   4
ATOM      4  C   UNL     1      41.062  35.731  48.049  1.00  0.00     0.000 C 
BRANCH   4   5
ATOM      5  C   UNL     1      40.700  35.452  46.575  1.00  0.00     0.000 C 
BRANCH   5   6
ATOM      6  C   UNL     1      41.191  34.074  46.098  1.00  0.00     0.000 C 
BRANCH   6   7
ATOM      7  C   UNL     1      42.254  34.174  44.991  1.00  0.00     0.000 C 
BRANCH   7   8
ATOM      8  C   UNL     1      43.637  33.691  45.459  1.00  0.00     0.000 C 
BRANCH   8   9
ATOM      9  C   UNL     1      44.701  34.798  45.399  1.00  0.00     0.000 C 
BRANCH   9  10
ATOM     10  C   UNL     1      44.618  35.766  46.593  1.00  0.00     0.000 C 
BRANCH  10  11
ATOM     11  C   UNL     1      45.874  35.727  47.483  1.00  0.00     0.000 C 
BRANCH  11  12
ATOM     12  C   UNL     1      45.949  36.840  48.544  1.00  0.00     0.006 C 
BRANCH  12  13
ATOM     13  C   UNL     1      44.797  37.849  48.438  1.00  0.00     0.053 C 
BRANCH  13  14
ATOM     14  C   UNL     1      44.907  38.894  49.506  1.00  0.00     0.041 C 
ATOM     15  O   UNL     1      45.957  38.985  50.196  1.00  0.00    -0.550 OA
ATOM     16  O   UNL     1      43.849  39.764  49.745  1.00  0.00    -0.550 OA
ENDBRANCH  13  14
ENDBRANCH  12  13
ENDBRANCH  11  12
ENDBRANCH  10  11
ENDBRANCH   9  10
ENDBRANCH   8   9
ENDBRANCH   7   8
ENDBRANCH   6   7
ENDBRANCH   5   6
ENDBRANCH   4   5
ENDBRANCH   3   4
ENDBRANCH   2   3
ENDBRANCH   1   2
BRANCH   1  17
ATOM     17  C   UNL     1      43.945  32.754  49.310  1.00  0.00     0.000 C 
BRANCH  17  18
ATOM     18  C   UNL     1      45.293  32.425  48.651  1.00  0.00     0.000 C 
BRANCH  18  19
ATOM     19  C   UNL     1      45.117  31.384  47.535  1.00  0.00     0.000 C 
BRANCH  19  20
ATOM     20  C   UNL     1      46.438  30.710  47.131  1.00  0.00     0.000 C 
BRANCH  20  21
ATOM     21  C   UNL     1      46.382  29.178  47.245  1.00  0.00     0.000 C 
BRANCH  21  22
ATOM     22  C   UNL     1      44.979  28.662  47.604  1.00  0.00    -0.000 C 
BRANCH  22  23
ATOM     23  C   UNL     1      44.937  27.950  48.964  1.00  0.00    -0.000 C 
BRANCH  23  24
ATOM     24  C   UNL     1      46.342  27.841  49.571  1.00  0.00    -0.000 C 
BRANCH  24  25
ATOM     25  C   UNL     1      46.415  28.572  50.921  1.00  0.00    -0.000 C 
BRANCH  25  26
ATOM     26  C   UNL     1      46.994  29.996  50.782  1.00  0.00    -0.000 C 
BRANCH  26  27
ATOM     27  C   UNL     1      48.512  30.016  50.532  1.00  0.00    -0.000 C 
BRANCH  27  28
ATOM     28  C   UNL     1      48.961  31.223  49.694  1.00  0.00    -0.000 C 
BRANCH  28  29
ATOM     29  C   UNL     1      48.352  32.544  50.192  1.00  0.00    -0.003 C 
ATOM     30  C   UNL     1      49.151  33.767  49.743  1.00  0.00     0.004 C 
ENDBRANCH  28  29
ENDBRANCH  27  28
ENDBRANCH  26  27
ENDBRANCH  25  26
ENDBRANCH  24  25
ENDBRANCH  23  24
ENDBRANCH  22  23
ENDBRANCH  21  22
ENDBRANCH  20  21
ENDBRANCH  19  20
ENDBRANCH  18  19
ENDBRANCH  17  18
ENDBRANCH   1  17
TORSDOF 26
ENDMDL
MODEL 6
REMARK VINA RESULT:    -2.906      1.986      2.825
REMARK INTER + INTRA:         -12.979
REMARK INTER:                  -7.270
REMARK INTRA:                  -5.709
REMARK UNBOUND:                -5.658
REMARK SMILES CCCCCCCCCCCCCCCCCCCCCCCCCCCC(=O)[O-]
REMARK SMILES IDX 15 1 16 2 17 3 18 4 19 5 20 6 21 7 22 8 23 9 24 10 25 11
REMARK SMILES IDX 26 12 27 13 28 14 29 15 30 16 14 17 13 18 12 19 11 20 10 21
REMARK SMILES IDX 9 22 8 23 7 24 6 25 5 26 4 27 3 28 2 29 1 30
REMARK H PARENT
REMARK Flexibility Score: inf
ROOT
ATOM      1  C   UNL     1      43.039  34.824  50.206  1.00  0.00     0.000 C 
ENDROOT
BRANCH   1   2
ATOM      2  C   UNL     1      41.891  35.390  49.344  1.00  0.00     0.000 C 
BRANCH   2   3
ATOM      3  C   UNL     1      41.462  34.505  48.158  1.00  0.00     0.000 C 
BRANCH   3   4
ATOM      4  C   UNL     1      40.593  35.211  47.100  1.00  0.00     0.000 C 
BRANCH   4   5
ATOM      5  C   UNL     1      41.406  35.925  46.000  1.00  0.00     0.000 C 
BRANCH   5   6
ATOM      6  C   UNL     1      42.424  34.992  45.320  1.00  0.00     0.000 C 
BRANCH   6   7
ATOM      7  C   UNL     1      43.841  35.587  45.285  1.00  0.00     0.000 C 
BRANCH   7   8
ATOM      8  C   UNL     1      44.116  36.521  46.476  1.00  0.00     0.000 C 
BRANCH   8   9
ATOM      9  C   UNL     1      45.492  36.274  47.115  1.00  0.00     0.000 C 
BRANCH   9  10
ATOM     10  C   UNL     1      46.446  35.500  46.187  1.00  0.00     0.000 C 
BRANCH  10  11
ATOM     11  C   UNL     1      47.422  34.591  46.955  1.00  0.00     0.000 C 
BRANCH  11  12
ATOM     12  C   UNL     1      47.666  34.996  48.420  1.00  0.00     0.006 C 
BRANCH  12  13
ATOM     13  C   UNL     1      47.827  33.790  49.357  1.00  0.00     0.053 C 
BRANCH  13  14
ATOM     14  C   UNL     1      49.215  33.737  49.920  1.00  0.00     0.041 C 
ATOM     15  O   UNL     1      49.469  32.995  50.906  1.00  0.00    -0.550 OA
ATOM     16  O   UNL     1      50.226  34.509  49.360  1.00  0.00    -0.550 OA
ENDBRANCH  13  14
ENDBRANCH  12  13
ENDBRANCH  11  12
ENDBRANCH  10  11
ENDBRANCH   9  10
ENDBRANCH   8   9
ENDBRANCH   7   8
ENDBRANCH   6   7
ENDBRANCH   5   6
ENDBRANCH   4   5
ENDBRANCH   3   4
ENDBRANCH   2   3
ENDBRANCH   1   2
BRANCH   1  17
ATOM     17  C   UNL     1      44.160  34.122  49.419  1.00  0.00     0.000 C 
BRANCH  17  18
ATOM     18  C   UNL     1      44.299  32.633  49.770  1.00  0.00     0.000 C 
BRANCH  18  19
ATOM     19  C   UNL     1      44.744  31.821  48.544  1.00  0.00     0.000 C 
BRANCH  19  20
ATOM     20  C   UNL     1      44.399  32.510  47.213  1.00  0.00     0.000 C 
BRANCH  20  21
ATOM     21  C   UNL     1      45.121  31.877  46.012  1.00  0.00     0.000 C 
BRANCH  21  22
ATOM     22  C   UNL     1      46.224  30.894  46.436  1.00  0.00    -0.000 C 
BRANCH  22  23
ATOM     23  C   UNL     1      46.051  29.501  45.813  1.00  0.00    -0.000 C 
BRANCH  23  24
ATOM     24  C   UNL     1      46.204  28.403  46.873  1.00  0.00    -0.000 C 
BRANCH  24  25
ATOM     25  C   UNL     1      44.849  28.071  47.519  1.00  0.00    -0.000 C 
BRANCH  25  26
ATOM     26  C   UNL     1      44.848  28.339  49.039  1.00  0.00    -0.000 C 
BRANCH  26  27
ATOM     27  C   UNL     1      46.097  27.799  49.755  1.00  0.00    -0.000 C 
BRANCH  27  28
ATOM     28  C   UNL     1      46.496  28.644  50.976  1.00  0.00    -0.000 C 
BRANCH  28  29
ATOM     29  C   UNL     1      47.004  30.040  50.584  1.00  0.00    -0.003 C 
ATOM     30  C   UNL     1      48.137  29.989  49.560  1.00  0.00     0.004 C 
ENDBRANCH  28  29
ENDBRANCH  27  28
ENDBRANCH  26  27
ENDBRANCH  25  26
ENDBRANCH  24  25
ENDBRANCH  23  24
ENDBRANCH  22  23
ENDBRANCH  21  22
ENDBRANCH  20  21
ENDBRANCH  19  20
ENDBRANCH  18  19
ENDBRANCH  17  18
ENDBRANCH   1  17
TORSDOF 26
ENDMDL
MODEL 7
REMARK VINA RESULT:    -2.874      1.281      2.114
REMARK INTER + INTRA:         -12.901
REMARK INTER:                  -7.222
REMARK INTRA:                  -5.679
REMARK UNBOUND:                -5.658
REMARK SMILES CCCCCCCCCCCCCCCCCCCCCCCCCCCC(=O)[O-]
REMARK SMILES IDX 15 1 16 2 17 3 18 4 19 5 20 6 21 7 22 8 23 9 24 10 25 11
REMARK SMILES IDX 26 12 27 13 28 14 29 15 30 16 14 17 13 18 12 19 11 20 10 21
REMARK SMILES IDX 9 22 8 23 7 24 6 25 5 26 4 27 3 28 2 29 1 30
REMARK H PARENT
REMARK Flexibility Score: inf
ROOT
ATOM      1  C   UNL     1      43.154  34.314  49.635  1.00  0.00     0.000 C 
ENDROOT
BRANCH   1   2
ATOM      2  C   UNL     1      41.995  34.151  48.630  1.00  0.00     0.000 C 
BRANCH   2   3
ATOM      3  C   UNL     1      41.377  35.469  48.123  1.00  0.00     0.000 C 
BRANCH   3   4
ATOM      4  C   UNL     1      40.829  35.418  46.683  1.00  0.00     0.000 C 
BRANCH   4   5
ATOM      5  C   UNL     1      41.189  34.124  45.924  1.00  0.00     0.000 C 
BRANCH   5   6
ATOM      6  C   UNL     1      42.372  34.315  44.959  1.00  0.00     0.000 C 
BRANCH   6   7
ATOM      7  C   UNL     1      43.567  33.409  45.299  1.00  0.00     0.000 C 
BRANCH   7   8
ATOM      8  C   UNL     1      44.851  34.209  45.576  1.00  0.00     0.000 C 
BRANCH   8   9
ATOM      9  C   UNL     1      44.564  35.630  46.084  1.00  0.00     0.000 C 
BRANCH   9  10
ATOM     10  C   UNL     1      45.839  36.482  46.218  1.00  0.00     0.000 C 
BRANCH  10  11
ATOM     11  C   UNL     1      45.807  37.421  47.437  1.00  0.00     0.000 C 
BRANCH  11  12
ATOM     12  C   UNL     1      44.494  37.393  48.241  1.00  0.00     0.006 C 
BRANCH  12  13
ATOM     13  C   UNL     1      44.712  37.556  49.751  1.00  0.00     0.053 C 
BRANCH  13  14
ATOM     14  C   UNL     1      44.709  39.004  50.135  1.00  0.00     0.041 C 
ATOM     15  O   UNL     1      45.365  39.394  51.138  1.00  0.00    -0.550 OA
ATOM     16  O   UNL     1      43.980  39.924  49.389  1.00  0.00    -0.550 OA
ENDBRANCH  13  14
ENDBRANCH  12  13
ENDBRANCH  11  12
ENDBRANCH  10  11
ENDBRANCH   9  10
ENDBRANCH   8   9
ENDBRANCH   7   8
ENDBRANCH   6   7
ENDBRANCH   5   6
ENDBRANCH   4   5
ENDBRANCH   3   4
ENDBRANCH   2   3
ENDBRANCH   1   2
BRANCH   1  17
ATOM     17  C   UNL     1      43.937  33.025  49.942  1.00  0.00     0.000 C 
BRANCH  17  18
ATOM     18  C   UNL     1      45.123  32.802  48.992  1.00  0.00     0.000 C 
BRANCH  18  19
ATOM     19  C   UNL     1      46.082  34.002  49.024  1.00  0.00     0.000 C 
BRANCH  19  20
ATOM     20  C   UNL     1      47.434  33.705  48.356  1.00  0.00     0.000 C 
BRANCH  20  21
ATOM     21  C   UNL     1      48.132  32.472  48.952  1.00  0.00     0.000 C 
BRANCH  21  22
ATOM     22  C   UNL     1      48.356  31.359  47.915  1.00  0.00    -0.000 C 
BRANCH  22  23
ATOM     23  C   UNL     1      47.641  31.634  46.584  1.00  0.00    -0.000 C 
BRANCH  23  24
ATOM     24  C   UNL     1      46.948  30.370  46.062  1.00  0.00    -0.000 C 
BRANCH  24  25
ATOM     25  C   UNL     1      45.443  30.400  46.375  1.00  0.00    -0.000 C 
BRANCH  25  26
ATOM     26  C   UNL     1      45.061  29.401  47.488  1.00  0.00    -0.000 C 
BRANCH  26  27
ATOM     27  C   UNL     1      46.049  28.231  47.624  1.00  0.00    -0.000 C 
BRANCH  27  28
ATOM     28  C   UNL     1      46.436  27.945  49.084  1.00  0.00    -0.000 C 
BRANCH  28  29
ATOM     29  C   UNL     1      45.872  28.991  50.058  1.00  0.00    -0.003 C 
ATOM     30  C   UNL     1      46.956  29.646  50.913  1.00  0.00     0.004 C 
ENDBRANCH  28  29
ENDBRANCH  27  28
ENDBRANCH  26  27
ENDBRANCH  25  26
ENDBRANCH  24  25
ENDBRANCH  23  24
ENDBRANCH  22  23
ENDBRANCH  21  22
ENDBRANCH  20  21
ENDBRANCH  19  20
ENDBRANCH  18  19
ENDBRANCH  17  18
ENDBRANCH   1  17
TORSDOF 26
ENDMDL
MODEL 8
REMARK VINA RESULT:    -2.806      1.559      3.056
REMARK INTER + INTRA:         -12.728
REMARK INTER:                  -6.754
REMARK INTRA:                  -5.974
REMARK UNBOUND:                -5.658
REMARK SMILES CCCCCCCCCCCCCCCCCCCCCCCCCCCC(=O)[O-]
REMARK SMILES IDX 15 1 16 2 17 3 18 4 19 5 20 6 21 7 22 8 23 9 24 10 25 11
REMARK SMILES IDX 26 12 27 13 28 14 29 15 30 16 14 17 13 18 12 19 11 20 10 21
REMARK SMILES IDX 9 22 8 23 7 24 6 25 5 26 4 27 3 28 2 29 1 30
REMARK H PARENT
REMARK Flexibility Score: inf
ROOT
ATOM      1  C   UNL     1      44.902  33.563  48.636  1.00  0.00     0.000 C 
ENDROOT
BRANCH   1   2
ATOM      2  C   UNL     1      43.865  33.315  49.752  1.00  0.00     0.000 C 
BRANCH   2   3
ATOM      3  C   UNL     1      43.251  34.586  50.370  1.00  0.00     0.000 C 
BRANCH   3   4
ATOM      4  C   UNL     1      42.286  35.357  49.448  1.00  0.00     0.000 C 
BRANCH   4   5
ATOM      5  C   UNL     1      41.401  34.446  48.571  1.00  0.00     0.000 C 
BRANCH   5   6
ATOM      6  C   UNL     1      40.789  35.195  47.373  1.00  0.00     0.000 C 
BRANCH   6   7
ATOM      7  C   UNL     1      41.742  36.248  46.784  1.00  0.00     0.000 C 
BRANCH   7   8
ATOM      8  C   UNL     1      42.621  35.680  45.657  1.00  0.00     0.000 C 
BRANCH   8   9
ATOM      9  C   UNL     1      44.084  36.137  45.762  1.00  0.00     0.000 C 
BRANCH   9  10
ATOM     10  C   UNL     1      44.326  37.084  46.952  1.00  0.00     0.000 C 
BRANCH  10  11
ATOM     11  C   UNL     1      45.734  36.938  47.557  1.00  0.00     0.000 C 
BRANCH  11  12
ATOM     12  C   UNL     1      45.916  37.595  48.937  1.00  0.00     0.006 C 
BRANCH  12  13
ATOM     13  C   UNL     1      44.594  38.072  49.553  1.00  0.00     0.053 C 
BRANCH  13  14
ATOM     14  C   UNL     1      44.608  39.556  49.758  1.00  0.00     0.041 C 
ATOM     15  O   UNL     1      44.089  40.057  50.791  1.00  0.00    -0.550 OA
ATOM     16  O   UNL     1      45.189  40.387  48.807  1.00  0.00    -0.550 OA
ENDBRANCH  13  14
ENDBRANCH  12  13
ENDBRANCH  11  12
ENDBRANCH  10  11
ENDBRANCH   9  10
ENDBRANCH   8   9
ENDBRANCH   7   8
ENDBRANCH   6   7
ENDBRANCH   5   6
ENDBRANCH   4   5
ENDBRANCH   3   4
ENDBRANCH   2   3
ENDBRANCH   1   2
BRANCH   1  17
ATOM     17  C   UNL     1      44.623  32.829  47.312  1.00  0.00     0.000 C 
BRANCH  17  18
ATOM     18  C   UNL     1      45.838  32.803  46.373  1.00  0.00     0.000 C 
BRANCH  18  19
ATOM     19  C   UNL     1      46.345  31.366  46.174  1.00  0.00     0.000 C 
BRANCH  19  20
ATOM     20  C   UNL     1      45.311  30.305  46.587  1.00  0.00     0.000 C 
BRANCH  20  21
ATOM     21  C   UNL     1      45.961  29.033  47.155  1.00  0.00     0.000 C 
BRANCH  21  22
ATOM     22  C   UNL     1      45.353  28.607  48.501  1.00  0.00    -0.000 C 
BRANCH  22  23
ATOM     23  C   UNL     1      45.234  29.772  49.495  1.00  0.00    -0.000 C 
BRANCH  23  24
ATOM     24  C   UNL     1      46.503  29.898  50.347  1.00  0.00    -0.000 C 
BRANCH  24  25
ATOM     25  C   UNL     1      47.181  31.259  50.125  1.00  0.00    -0.000 C 
BRANCH  25  26
ATOM     26  C   UNL     1      48.464  31.138  49.276  1.00  0.00    -0.000 C 
BRANCH  26  27
ATOM     27  C   UNL     1      48.899  32.467  48.635  1.00  0.00    -0.000 C 
BRANCH  27  28
ATOM     28  C   UNL     1      48.367  33.695  49.392  1.00  0.00    -0.000 C 
BRANCH  28  29
ATOM     29  C   UNL     1      48.814  35.019  48.752  1.00  0.00    -0.003 C 
ATOM     30  C   UNL     1      48.782  34.977  47.225  1.00  0.00     0.004 C 
ENDBRANCH  28  29
ENDBRANCH  27  28
ENDBRANCH  26  27
ENDBRANCH  25  26
ENDBRANCH  24  25
ENDBRANCH  23  24
ENDBRANCH  22  23
ENDBRANCH  21  22
ENDBRANCH  20  21
ENDBRANCH  19  20
ENDBRANCH  18  19
ENDBRANCH  17  18
ENDBRANCH   1  17
TORSDOF 26
ENDMDL
MODEL 9
REMARK VINA RESULT:    -2.794      1.714      3.009
REMARK INTER + INTRA:         -12.698
REMARK INTER:                  -8.104
REMARK INTRA:                  -4.594
REMARK UNBOUND:                -5.658
REMARK SMILES CCCCCCCCCCCCCCCCCCCCCCCCCCCC(=O)[O-]
REMARK SMILES IDX 15 1 16 2 17 3 18 4 19 5 20 6 21 7 22 8 23 9 24 10 25 11
REMARK SMILES IDX 26 12 27 13 28 14 29 15 30 16 14 17 13 18 12 19 11 20 10 21
REMARK SMILES IDX 9 22 8 23 7 24 6 25 5 26 4 27 3 28 2 29 1 30
REMARK H PARENT
REMARK Flexibility Score: inf
ROOT
ATOM      1  C   UNL     1      43.060  34.279  49.844  1.00  0.00     0.000 C 
ENDROOT
BRANCH   1   2
ATOM      2  C   UNL     1      42.149  34.145  48.606  1.00  0.00     0.000 C 
BRANCH   2   3
ATOM      3  C   UNL     1      41.035  35.203  48.493  1.00  0.00     0.000 C 
BRANCH   3   4
ATOM      4  C   UNL     1      40.488  35.422  47.069  1.00  0.00     0.000 C 
BRANCH   4   5
ATOM      5  C   UNL     1      41.237  34.621  45.983  1.00  0.00     0.000 C 
BRANCH   5   6
ATOM      6  C   UNL     1      42.164  35.506  45.131  1.00  0.00     0.000 C 
BRANCH   6   7
ATOM      7  C   UNL     1      43.648  35.139  45.293  1.00  0.00     0.000 C 
BRANCH   7   8
ATOM      8  C   UNL     1      44.416  36.163  46.147  1.00  0.00     0.000 C 
BRANCH   8   9
ATOM      9  C   UNL     1      43.610  37.447  46.395  1.00  0.00     0.000 C 
BRANCH   9  10
ATOM     10  C   UNL     1      43.447  37.766  47.893  1.00  0.00     0.000 C 
BRANCH  10  11
ATOM     11  C   UNL     1      44.718  37.469  48.709  1.00  0.00     0.000 C 
BRANCH  11  12
ATOM     12  C   UNL     1      44.528  37.508  50.237  1.00  0.00     0.006 C 
BRANCH  12  13
ATOM     13  C   UNL     1      44.824  38.886  50.843  1.00  0.00     0.053 C 
BRANCH  13  14
ATOM     14  C   UNL     1      44.684  38.851  52.335  1.00  0.00     0.041 C 
ATOM     15  O   UNL     1      43.686  38.293  52.863  1.00  0.00    -0.550 OA
ATOM     16  O   UNL     1      45.652  39.438  53.142  1.00  0.00    -0.550 OA
ENDBRANCH  13  14
ENDBRANCH  12  13
ENDBRANCH  11  12
ENDBRANCH  10  11
ENDBRANCH   9  10
ENDBRANCH   8   9
ENDBRANCH   7   8
ENDBRANCH   6   7
ENDBRANCH   5   6
ENDBRANCH   4   5
ENDBRANCH   3   4
ENDBRANCH   2   3
ENDBRANCH   1   2
BRANCH   1  17
ATOM     17  C   UNL     1      44.365  33.465  49.786  1.00  0.00     0.000 C 
BRANCH  17  18
ATOM     18  C   UNL     1      45.002  33.451  48.388  1.00  0.00     0.000 C 
BRANCH  18  19
ATOM     19  C   UNL     1      46.386  34.120  48.412  1.00  0.00     0.000 C 
BRANCH  19  20
ATOM     20  C   UNL     1      47.530  33.138  48.116  1.00  0.00     0.000 C 
BRANCH  20  21
ATOM     21  C   UNL     1      48.447  32.911  49.330  1.00  0.00     0.000 C 
BRANCH  21  22
ATOM     22  C   UNL     1      47.893  31.857  50.302  1.00  0.00    -0.000 C 
BRANCH  22  23
ATOM     23  C   UNL     1      47.419  30.582  49.590  1.00  0.00    -0.000 C 
BRANCH  23  24
ATOM     24  C   UNL     1      45.983  30.228  49.996  1.00  0.00    -0.000 C 
BRANCH  24  25
ATOM     25  C   UNL     1      45.905  28.795  50.547  1.00  0.00    -0.000 C 
BRANCH  25  26
ATOM     26  C   UNL     1      45.746  27.747  49.425  1.00  0.00    -0.000 C 
BRANCH  26  27
ATOM     27  C   UNL     1      44.931  28.258  48.224  1.00  0.00    -0.000 C 
BRANCH  27  28
ATOM     28  C   UNL     1      45.707  28.176  46.900  1.00  0.00    -0.000 C 
BRANCH  28  29
ATOM     29  C   UNL     1      45.177  29.160  45.845  1.00  0.00    -0.003 C 
ATOM     30  C   UNL     1      45.534  30.612  46.161  1.00  0.00     0.004 C 
ENDBRANCH  28  29
ENDBRANCH  27  28
ENDBRANCH  26  27
ENDBRANCH  25  26
ENDBRANCH  24  25
ENDBRANCH  23  24
ENDBRANCH  22  23
ENDBRANCH  21  22
ENDBRANCH  20  21
ENDBRANCH  19  20
ENDBRANCH  18  19
ENDBRANCH  17  18
ENDBRANCH   1  17
TORSDOF 26
ENDMDL
