MODEL 1
REMARK VINA RESULT:    -6.153      0.000      0.000
REMARK INTER + INTRA:          -8.300
REMARK INTER:                  -7.772
REMARK INTRA:                  -0.529
REMARK UNBOUND:                -0.529
REMARK SMILES Oc1cc(O)cc(CCc2ccccc2O)c1
REMARK SMILES IDX 9 1 10 2 12 3 13 4 11 5 14 6 15 7 16 8 8 10 7 11 6 12 17 13
REMARK SMILES IDX 4 14 2 15 3 16 5 17 1 19
REMARK H PARENT 16 9 5 18 1 20
REMARK Flexibility Score: inf
ROOT
ATOM      1  C   UNL     1      28.320  12.916 -13.304  1.00  0.00     0.044 C 
ENDROOT
BRANCH   1   2
ATOM      2  C   UNL     1      29.008  12.102 -12.233  1.00  0.00    -0.006 A 
ATOM      3  C   UNL     1      31.056  11.186 -11.293  1.00  0.00     0.001 A 
ATOM      4  C   UNL     1      30.337  10.678 -10.209  1.00  0.00     0.004 A 
ATOM      5  C   UNL     1      30.398  11.896 -12.300  1.00  0.00     0.007 A 
ATOM      6  C   UNL     1      28.957  10.882 -10.128  1.00  0.00     0.046 A 
ATOM      7  C   UNL     1      28.287  11.596 -11.133  1.00  0.00     0.118 A 
BRANCH   7   8
ATOM      8  O   UNL     1      26.912  11.805 -11.039  1.00  0.00    -0.508 OA
ATOM      9  H   UNL     1      26.326  11.231 -10.443  1.00  0.00     0.293 HD
ENDBRANCH   7   8
ENDBRANCH   1   2
BRANCH   1  10
ATOM     10  C   UNL     1      28.727  12.464 -14.714  1.00  0.00     0.040 C 
BRANCH  10  11
ATOM     11  C   UNL     1      29.195  13.623 -15.558  1.00  0.00    -0.040 A 
ATOM     12  C   UNL     1      28.986  13.617 -16.947  1.00  0.00     0.050 A 
ATOM     13  C   UNL     1      29.785  14.744 -14.954  1.00  0.00     0.050 A 
ATOM     14  C   UNL     1      29.375  14.713 -17.725  1.00  0.00     0.119 A 
ATOM     15  C   UNL     1      30.177  15.843 -15.732  1.00  0.00     0.119 A 
ATOM     16  C   UNL     1      29.973  15.824 -17.115  1.00  0.00     0.092 A 
BRANCH  14  17
ATOM     17  O   UNL     1      29.159  14.689 -19.101  1.00  0.00    -0.508 OA
ATOM     18  H   UNL     1      29.751  14.147 -19.720  1.00  0.00     0.293 HD
ENDBRANCH  14  17
BRANCH  15  19
ATOM     19  O   UNL     1      30.766  16.957 -15.140  1.00  0.00    -0.508 OA
ATOM     20  H   UNL     1      30.209  17.730 -14.796  1.00  0.00     0.293 HD
ENDBRANCH  15  19
ENDBRANCH  10  11
ENDBRANCH   1  10
TORSDOF 6
ENDMDL
MODEL 2
REMARK VINA RESULT:    -6.112      1.287      1.396
REMARK INTER + INTRA:          -8.249
REMARK INTER:                  -7.710
REMARK INTRA:                  -0.539
REMARK UNBOUND:                -0.529
REMARK SMILES Oc1cc(O)cc(CCc2ccccc2O)c1
REMARK SMILES IDX 9 1 10 2 12 3 13 4 11 5 14 6 15 7 16 8 8 10 7 11 6 12 17 13
REMARK SMILES IDX 4 14 2 15 3 16 5 17 1 19
REMARK H PARENT 16 9 5 18 1 20
REMARK Flexibility Score: inf
ROOT
ATOM      1  C   UNL     1      30.020  11.316 -14.409  1.00  0.00     0.044 C 
ENDROOT
BRANCH   1   2
ATOM      2  C   UNL     1      29.968  11.174 -12.907  1.00  0.00    -0.006 A 
ATOM      3  C   UNL     1      30.431  12.090 -10.701  1.00  0.00     0.001 A 
ATOM      4  C   UNL     1      29.802  10.993 -10.109  1.00  0.00     0.004 A 
ATOM      5  C   UNL     1      30.513  12.183 -12.093  1.00  0.00     0.007 A 
ATOM      6  C   UNL     1      29.251   9.988 -10.906  1.00  0.00     0.046 A 
ATOM      7  C   UNL     1      29.325  10.073 -12.304  1.00  0.00     0.118 A 
BRANCH   7   8
ATOM      8  O   UNL     1      28.763   9.071 -13.094  1.00  0.00    -0.508 OA
ATOM      9  H   UNL     1      28.266   9.286 -13.951  1.00  0.00     0.293 HD
ENDBRANCH   7   8
ENDBRANCH   1   2
BRANCH   1  10
ATOM     10  C   UNL     1      28.802  12.075 -14.955  1.00  0.00     0.040 C 
BRANCH  10  11
ATOM     11  C   UNL     1      29.208  13.321 -15.701  1.00  0.00    -0.040 A 
ATOM     12  C   UNL     1      29.026  13.405 -17.091  1.00  0.00     0.050 A 
ATOM     13  C   UNL     1      29.713  14.429 -15.003  1.00  0.00     0.050 A 
ATOM     14  C   UNL     1      29.356  14.578 -17.777  1.00  0.00     0.119 A 
ATOM     15  C   UNL     1      30.046  15.605 -15.689  1.00  0.00     0.119 A 
ATOM     16  C   UNL     1      29.869  15.676 -17.074  1.00  0.00     0.092 A 
BRANCH  14  17
ATOM     17  O   UNL     1      29.167  14.643 -19.156  1.00  0.00    -0.508 OA
ATOM     18  H   UNL     1      28.644  15.398 -19.583  1.00  0.00     0.293 HD
ENDBRANCH  14  17
BRANCH  15  19
ATOM     19  O   UNL     1      30.551  16.707 -15.003  1.00  0.00    -0.508 OA
ATOM     20  H   UNL     1      29.938  17.378 -14.554  1.00  0.00     0.293 HD
ENDBRANCH  15  19
ENDBRANCH  10  11
ENDBRANCH   1  10
TORSDOF 6
ENDMDL
MODEL 3
REMARK VINA RESULT:    -6.078     17.492     19.556
REMARK INTER + INTRA:          -8.206
REMARK INTER:                  -7.723
REMARK INTRA:                  -0.483
REMARK UNBOUND:                -0.529
REMARK SMILES Oc1cc(O)cc(CCc2ccccc2O)c1
REMARK SMILES IDX 9 1 10 2 12 3 13 4 11 5 14 6 15 7 16 8 8 10 7 11 6 12 17 13
REMARK SMILES IDX 4 14 2 15 3 16 5 17 1 19
REMARK H PARENT 16 9 5 18 1 20
REMARK Flexibility Score: inf
ROOT
ATOM      1  C   UNL     1      17.364   0.941 -15.958  1.00  0.00     0.044 C 
ENDROOT
BRANCH   1   2
ATOM      2  C   UNL     1      18.290   0.167 -16.866  1.00  0.00    -0.006 A 
ATOM      3  C   UNL     1      20.422  -0.949 -17.222  1.00  0.00     0.001 A 
ATOM      4  C   UNL     1      20.002  -1.357 -18.489  1.00  0.00     0.004 A 
ATOM      5  C   UNL     1      19.571  -0.192 -16.412  1.00  0.00     0.007 A 
ATOM      6  C   UNL     1      18.729  -1.013 -18.949  1.00  0.00     0.046 A 
ATOM      7  C   UNL     1      17.866  -0.256 -18.142  1.00  0.00     0.118 A 
BRANCH   7   8
ATOM      8  O   UNL     1      16.593   0.075 -18.604  1.00  0.00    -0.508 OA
ATOM      9  H   UNL     1      15.761  -0.375 -18.239  1.00  0.00     0.293 HD
ENDBRANCH   7   8
ENDBRANCH   1   2
BRANCH   1  10
ATOM     10  C   UNL     1      17.521   0.523 -14.489  1.00  0.00     0.040 C 
BRANCH  10  11
ATOM     11  C   UNL     1      16.202   0.124 -13.878  1.00  0.00    -0.040 A 
ATOM     12  C   UNL     1      15.956   0.352 -12.514  1.00  0.00     0.050 A 
ATOM     13  C   UNL     1      15.188  -0.421 -14.680  1.00  0.00     0.050 A 
ATOM     14  C   UNL     1      14.715   0.028 -11.956  1.00  0.00     0.119 A 
ATOM     15  C   UNL     1      13.943  -0.748 -14.123  1.00  0.00     0.119 A 
ATOM     16  C   UNL     1      13.711  -0.525 -12.762  1.00  0.00     0.092 A 
BRANCH  14  17
ATOM     17  O   UNL     1      14.489   0.262 -10.601  1.00  0.00    -0.508 OA
ATOM     18  H   UNL     1      14.657  -0.455  -9.906  1.00  0.00     0.293 HD
ENDBRANCH  14  17
BRANCH  15  19
ATOM     19  O   UNL     1      12.933  -1.291 -14.912  1.00  0.00    -0.508 OA
ATOM     20  H   UNL     1      12.393  -0.718 -15.551  1.00  0.00     0.293 HD
ENDBRANCH  15  19
ENDBRANCH  10  11
ENDBRANCH   1  10
TORSDOF 6
ENDMDL
MODEL 4
REMARK VINA RESULT:    -6.058      1.548      2.541
REMARK INTER + INTRA:          -8.181
REMARK INTER:                  -7.656
REMARK INTRA:                  -0.525
REMARK UNBOUND:                -0.529
REMARK SMILES Oc1cc(O)cc(CCc2ccccc2O)c1
REMARK SMILES IDX 9 1 10 2 12 3 13 4 11 5 14 6 15 7 16 8 8 10 7 11 6 12 17 13
REMARK SMILES IDX 4 14 2 15 3 16 5 17 1 19
REMARK H PARENT 16 9 5 18 1 20
REMARK Flexibility Score: inf
ROOT
ATOM      1  C   UNL     1      29.117  13.057 -13.072  1.00  0.00     0.044 C 
ENDROOT
BRANCH   1   2
ATOM      2  C   UNL     1      27.877  13.365 -12.268  1.00  0.00    -0.006 A 
ATOM      3  C   UNL     1      25.937  14.778 -11.871  1.00  0.00     0.001 A 
ATOM      4  C   UNL     1      25.510  13.916 -10.859  1.00  0.00     0.004 A 
ATOM      5  C   UNL     1      27.113  14.505 -12.575  1.00  0.00     0.007 A 
ATOM      6  C   UNL     1      26.256  12.777 -10.550  1.00  0.00     0.046 A 
ATOM      7  C   UNL     1      27.437  12.492 -11.252  1.00  0.00     0.118 A 
BRANCH   7   8
ATOM      8  O   UNL     1      28.171  11.347 -10.945  1.00  0.00    -0.508 OA
ATOM      9  H   UNL     1      27.862  10.425 -11.232  1.00  0.00     0.293 HD
ENDBRANCH   7   8
ENDBRANCH   1   2
BRANCH   1  10
ATOM     10  C   UNL     1      28.784  12.731 -14.535  1.00  0.00     0.040 C 
BRANCH  10  11
ATOM     11  C   UNL     1      29.221  13.833 -15.467  1.00  0.00    -0.040 A 
ATOM     12  C   UNL     1      29.030  13.707 -16.852  1.00  0.00     0.050 A 
ATOM     13  C   UNL     1      29.765  15.019 -14.951  1.00  0.00     0.050 A 
ATOM     14  C   UNL     1      29.388  14.750 -17.713  1.00  0.00     0.119 A 
ATOM     15  C   UNL     1      30.127  16.065 -15.811  1.00  0.00     0.119 A 
ATOM     16  C   UNL     1      29.940  15.927 -17.191  1.00  0.00     0.092 A 
BRANCH  14  17
ATOM     17  O   UNL     1      29.190  14.607 -19.084  1.00  0.00    -0.508 OA
ATOM     18  H   UNL     1      29.360  13.725 -19.554  1.00  0.00     0.293 HD
ENDBRANCH  14  17
BRANCH  15  19
ATOM     19  O   UNL     1      30.671  17.243 -15.307  1.00  0.00    -0.508 OA
ATOM     20  H   UNL     1      31.379  17.233 -14.583  1.00  0.00     0.293 HD
ENDBRANCH  15  19
ENDBRANCH  10  11
ENDBRANCH   1  10
TORSDOF 6
ENDMDL
MODEL 5
REMARK VINA RESULT:    -6.038     17.588     19.490
REMARK INTER + INTRA:          -8.155
REMARK INTER:                  -7.684
REMARK INTRA:                  -0.471
REMARK UNBOUND:                -0.529
REMARK SMILES Oc1cc(O)cc(CCc2ccccc2O)c1
REMARK SMILES IDX 9 1 10 2 12 3 13 4 11 5 14 6 15 7 16 8 8 10 7 11 6 12 17 13
REMARK SMILES IDX 4 14 2 15 3 16 5 17 1 19
REMARK H PARENT 16 9 5 18 1 20
REMARK Flexibility Score: inf
ROOT
ATOM      1  C   UNL     1      17.372   0.888 -16.024  1.00  0.00     0.044 C 
ENDROOT
BRANCH   1   2
ATOM      2  C   UNL     1      18.288   0.085 -16.917  1.00  0.00    -0.006 A 
ATOM      3  C   UNL     1      20.385  -1.106 -17.236  1.00  0.00     0.001 A 
ATOM      4  C   UNL     1      19.978  -1.491 -18.514  1.00  0.00     0.004 A 
ATOM      5  C   UNL     1      19.546  -0.323 -16.439  1.00  0.00     0.007 A 
ATOM      6  C   UNL     1      18.728  -1.097 -18.999  1.00  0.00     0.046 A 
ATOM      7  C   UNL     1      17.876  -0.314 -18.205  1.00  0.00     0.118 A 
BRANCH   7   8
ATOM      8  O   UNL     1      16.626   0.066 -18.691  1.00  0.00    -0.508 OA
ATOM      9  H   UNL     1      15.875  -0.605 -18.809  1.00  0.00     0.293 HD
ENDBRANCH   7   8
ENDBRANCH   1   2
BRANCH   1  10
ATOM     10  C   UNL     1      17.509   0.480 -14.550  1.00  0.00     0.040 C 
BRANCH  10  11
ATOM     11  C   UNL     1      16.172   0.157 -13.933  1.00  0.00    -0.040 A 
ATOM     12  C   UNL     1      15.156  -0.423 -14.710  1.00  0.00     0.050 A 
ATOM     13  C   UNL     1      15.954   0.375 -12.564  1.00  0.00     0.050 A 
ATOM     14  C   UNL     1      13.932  -0.769 -14.127  1.00  0.00     0.119 A 
ATOM     15  C   UNL     1      14.728   0.031 -11.979  1.00  0.00     0.119 A 
ATOM     16  C   UNL     1      13.719  -0.539 -12.762  1.00  0.00     0.092 A 
BRANCH  14  17
ATOM     17  O   UNL     1      12.936  -1.344 -14.914  1.00  0.00    -0.508 OA
ATOM     18  H   UNL     1      12.306  -2.045 -14.541  1.00  0.00     0.293 HD
ENDBRANCH  14  17
BRANCH  15  19
ATOM     19  O   UNL     1      14.504   0.247 -10.622  1.00  0.00    -0.508 OA
ATOM     20  H   UNL     1      15.254   0.181  -9.943  1.00  0.00     0.293 HD
ENDBRANCH  15  19
ENDBRANCH  10  11
ENDBRANCH   1  10
TORSDOF 6
ENDMDL
MODEL 6
REMARK VINA RESULT:    -6.030      1.529      3.232
REMARK INTER + INTRA:          -8.145
REMARK INTER:                  -7.624
REMARK INTRA:                  -0.520
REMARK UNBOUND:                -0.529
REMARK SMILES Oc1cc(O)cc(CCc2ccccc2O)c1
REMARK SMILES IDX 9 1 10 2 12 3 13 4 11 5 14 6 15 7 16 8 8 10 7 11 6 12 17 13
REMARK SMILES IDX 4 14 2 15 3 16 5 17 1 19
REMARK H PARENT 16 9 5 18 1 20
REMARK Flexibility Score: inf
ROOT
ATOM      1  C   UNL     1      29.235  13.124 -13.031  1.00  0.00     0.044 C 
ENDROOT
BRANCH   1   2
ATOM      2  C   UNL     1      27.968  13.381 -12.251  1.00  0.00    -0.006 A 
ATOM      3  C   UNL     1      25.988  14.740 -11.864  1.00  0.00     0.001 A 
ATOM      4  C   UNL     1      25.555  13.841 -10.889  1.00  0.00     0.004 A 
ATOM      5  C   UNL     1      27.187  14.513 -12.544  1.00  0.00     0.007 A 
ATOM      6  C   UNL     1      26.318  12.709 -10.592  1.00  0.00     0.046 A 
ATOM      7  C   UNL     1      27.522  12.470 -11.272  1.00  0.00     0.118 A 
BRANCH   7   8
ATOM      8  O   UNL     1      28.273  11.332 -10.979  1.00  0.00    -0.508 OA
ATOM      9  H   UNL     1      28.572  10.691 -11.704  1.00  0.00     0.293 HD
ENDBRANCH   7   8
ENDBRANCH   1   2
BRANCH   1  10
ATOM     10  C   UNL     1      28.941  12.745 -14.490  1.00  0.00     0.040 C 
BRANCH  10  11
ATOM     11  C   UNL     1      29.252  13.879 -15.434  1.00  0.00    -0.040 A 
ATOM     12  C   UNL     1      29.807  15.073 -14.948  1.00  0.00     0.050 A 
ATOM     13  C   UNL     1      29.046  13.725 -16.814  1.00  0.00     0.050 A 
ATOM     14  C   UNL     1      30.143  16.107 -15.829  1.00  0.00     0.119 A 
ATOM     15  C   UNL     1      29.380  14.760 -17.699  1.00  0.00     0.119 A 
ATOM     16  C   UNL     1      29.925  15.949 -17.204  1.00  0.00     0.092 A 
BRANCH  14  17
ATOM     17  O   UNL     1      30.694  17.284 -15.328  1.00  0.00    -0.508 OA
ATOM     18  H   UNL     1      30.121  18.101 -15.147  1.00  0.00     0.293 HD
ENDBRANCH  14  17
BRANCH  15  19
ATOM     19  O   UNL     1      29.175  14.615 -19.069  1.00  0.00    -0.508 OA
ATOM     20  H   UNL     1      29.566  15.271 -19.735  1.00  0.00     0.293 HD
ENDBRANCH  15  19
ENDBRANCH  10  11
ENDBRANCH   1  10
TORSDOF 6
ENDMDL
MODEL 7
REMARK VINA RESULT:    -6.029      2.192      3.403
REMARK INTER + INTRA:          -8.144
REMARK INTER:                  -7.678
REMARK INTRA:                  -0.466
REMARK UNBOUND:                -0.529
REMARK SMILES Oc1cc(O)cc(CCc2ccccc2O)c1
REMARK SMILES IDX 9 1 10 2 12 3 13 4 11 5 14 6 15 7 16 8 8 10 7 11 6 12 17 13
REMARK SMILES IDX 4 14 2 15 3 16 5 17 1 19
REMARK H PARENT 16 9 5 18 1 20
REMARK Flexibility Score: inf
ROOT
ATOM      1  C   UNL     1      29.392  13.380 -13.387  1.00  0.00     0.044 C 
ENDROOT
BRANCH   1   2
ATOM      2  C   UNL     1      28.202  13.540 -12.471  1.00  0.00    -0.006 A 
ATOM      3  C   UNL     1      26.373  14.908 -11.635  1.00  0.00     0.001 A 
ATOM      4  C   UNL     1      25.927  13.843 -10.852  1.00  0.00     0.004 A 
ATOM      5  C   UNL     1      27.504  14.760 -12.443  1.00  0.00     0.007 A 
ATOM      6  C   UNL     1      26.609  12.624 -10.876  1.00  0.00     0.046 A 
ATOM      7  C   UNL     1      27.743  12.463 -11.686  1.00  0.00     0.118 A 
BRANCH   7   8
ATOM      8  O   UNL     1      28.412  11.240 -11.713  1.00  0.00    -0.508 OA
ATOM      9  H   UNL     1      29.291  11.125 -12.204  1.00  0.00     0.293 HD
ENDBRANCH   7   8
ENDBRANCH   1   2
BRANCH   1  10
ATOM     10  C   UNL     1      29.379  14.410 -14.526  1.00  0.00     0.040 C 
BRANCH  10  11
ATOM     11  C   UNL     1      29.617  13.763 -15.867  1.00  0.00    -0.040 A 
ATOM     12  C   UNL     1      30.118  12.453 -15.942  1.00  0.00     0.050 A 
ATOM     13  C   UNL     1      29.281  14.442 -17.049  1.00  0.00     0.050 A 
ATOM     14  C   UNL     1      30.292  11.833 -17.184  1.00  0.00     0.119 A 
ATOM     15  C   UNL     1      29.457  13.823 -18.295  1.00  0.00     0.119 A 
ATOM     16  C   UNL     1      29.964  12.522 -18.360  1.00  0.00     0.092 A 
BRANCH  14  17
ATOM     17  O   UNL     1      30.790  10.533 -17.239  1.00  0.00    -0.508 OA
ATOM     18  H   UNL     1      31.524  10.274 -17.887  1.00  0.00     0.293 HD
ENDBRANCH  14  17
BRANCH  15  19
ATOM     19  O   UNL     1      29.129  14.492 -19.471  1.00  0.00    -0.508 OA
ATOM     20  H   UNL     1      28.232  14.360 -19.924  1.00  0.00     0.293 HD
ENDBRANCH  15  19
ENDBRANCH  10  11
ENDBRANCH   1  10
TORSDOF 6
ENDMDL
MODEL 8
REMARK VINA RESULT:    -6.020      2.174      3.321
REMARK INTER + INTRA:          -8.133
REMARK INTER:                  -7.672
REMARK INTRA:                  -0.461
REMARK UNBOUND:                -0.529
REMARK SMILES Oc1cc(O)cc(CCc2ccccc2O)c1
REMARK SMILES IDX 9 1 10 2 12 3 13 4 11 5 14 6 15 7 16 8 8 10 7 11 6 12 17 13
REMARK SMILES IDX 4 14 2 15 3 16 5 17 1 19
REMARK H PARENT 16 9 5 18 1 20
REMARK Flexibility Score: inf
ROOT
ATOM      1  C   UNL     1      29.408  13.345 -13.385  1.00  0.00     0.044 C 
ENDROOT
BRANCH   1   2
ATOM      2  C   UNL     1      28.222  13.514 -12.466  1.00  0.00    -0.006 A 
ATOM      3  C   UNL     1      26.408  14.899 -11.623  1.00  0.00     0.001 A 
ATOM      4  C   UNL     1      25.953  13.835 -10.842  1.00  0.00     0.004 A 
ATOM      5  C   UNL     1      27.535  14.741 -12.433  1.00  0.00     0.007 A 
ATOM      6  C   UNL     1      26.621  12.609 -10.871  1.00  0.00     0.046 A 
ATOM      7  C   UNL     1      27.753  12.440 -11.683  1.00  0.00     0.118 A 
BRANCH   7   8
ATOM      8  O   UNL     1      28.409  11.210 -11.715  1.00  0.00    -0.508 OA
ATOM      9  H   UNL     1      27.929  10.358 -11.983  1.00  0.00     0.293 HD
ENDBRANCH   7   8
ENDBRANCH   1   2
BRANCH   1  10
ATOM     10  C   UNL     1      29.405  14.381 -14.519  1.00  0.00     0.040 C 
BRANCH  10  11
ATOM     11  C   UNL     1      29.582  13.732 -15.869  1.00  0.00    -0.040 A 
ATOM     12  C   UNL     1      29.262  14.437 -17.040  1.00  0.00     0.050 A 
ATOM     13  C   UNL     1      30.127  12.443 -15.967  1.00  0.00     0.050 A 
ATOM     14  C   UNL     1      29.473  13.856 -18.295  1.00  0.00     0.119 A 
ATOM     15  C   UNL     1      30.338  11.857 -17.223  1.00  0.00     0.119 A 
ATOM     16  C   UNL     1      30.008  12.564 -18.384  1.00  0.00     0.092 A 
BRANCH  14  17
ATOM     17  O   UNL     1      29.150  14.571 -19.446  1.00  0.00    -0.508 OA
ATOM     18  H   UNL     1      29.802  15.226 -19.862  1.00  0.00     0.293 HD
ENDBRANCH  14  17
BRANCH  15  19
ATOM     19  O   UNL     1      30.875  10.577 -17.328  1.00  0.00    -0.508 OA
ATOM     20  H   UNL     1      31.822  10.424 -17.654  1.00  0.00     0.293 HD
ENDBRANCH  15  19
ENDBRANCH  10  11
ENDBRANCH   1  10
TORSDOF 6
ENDMDL
MODEL 9
REMARK VINA RESULT:    -5.965      1.801      2.907
REMARK INTER + INTRA:          -8.063
REMARK INTER:                  -7.524
REMARK INTRA:                  -0.539
REMARK UNBOUND:                -0.529
REMARK SMILES Oc1cc(O)cc(CCc2ccccc2O)c1
REMARK SMILES IDX 9 1 10 2 12 3 13 4 11 5 14 6 15 7 16 8 8 10 7 11 6 12 17 13
REMARK SMILES IDX 4 14 2 15 3 16 5 17 1 19
REMARK H PARENT 16 9 5 18 1 20
REMARK Flexibility Score: inf
ROOT
ATOM      1  C   UNL     1      30.117  10.954 -14.575  1.00  0.00     0.044 C 
ENDROOT
BRANCH   1   2
ATOM      2  C   UNL     1      29.978  10.626 -13.108  1.00  0.00    -0.006 A 
ATOM      3  C   UNL     1      29.122  11.205 -10.906  1.00  0.00     0.001 A 
ATOM      4  C   UNL     1      29.615  10.004 -10.393  1.00  0.00     0.004 A 
ATOM      5  C   UNL     1      29.300  11.516 -12.256  1.00  0.00     0.007 A 
ATOM      6  C   UNL     1      30.284   9.108 -11.230  1.00  0.00     0.046 A 
ATOM      7  C   UNL     1      30.465   9.410 -12.588  1.00  0.00     0.118 A 
BRANCH   7   8
ATOM      8  O   UNL     1      31.125   8.506 -13.420  1.00  0.00    -0.508 OA
ATOM      9  H   UNL     1      31.973   8.034 -13.126  1.00  0.00     0.293 HD
ENDBRANCH   7   8
ENDBRANCH   1   2
BRANCH   1  10
ATOM     10  C   UNL     1      28.873  11.670 -15.122  1.00  0.00     0.040 C 
BRANCH  10  11
ATOM     11  C   UNL     1      29.220  13.002 -15.737  1.00  0.00    -0.040 A 
ATOM     12  C   UNL     1      29.799  14.014 -14.953  1.00  0.00     0.050 A 
ATOM     13  C   UNL     1      29.026  13.219 -17.110  1.00  0.00     0.050 A 
ATOM     14  C   UNL     1      30.168  15.233 -15.533  1.00  0.00     0.119 A 
ATOM     15  C   UNL     1      29.393  14.440 -17.693  1.00  0.00     0.119 A 
ATOM     16  C   UNL     1      29.961  15.445 -16.903  1.00  0.00     0.092 A 
BRANCH  14  17
ATOM     17  O   UNL     1      30.741  16.225 -14.740  1.00  0.00    -0.508 OA
ATOM     18  H   UNL     1      30.568  17.208 -14.915  1.00  0.00     0.293 HD
ENDBRANCH  14  17
BRANCH  15  19
ATOM     19  O   UNL     1      29.201  14.662 -19.054  1.00  0.00    -0.508 OA
ATOM     20  H   UNL     1      28.865  15.552 -19.403  1.00  0.00     0.293 HD
ENDBRANCH  15  19
ENDBRANCH  10  11
ENDBRANCH   1  10
TORSDOF 6
ENDMDL
