MODEL 1
REMARK VINA RESULT:    -7.986      0.000      0.000
REMARK INTER + INTRA:          -9.223
REMARK INTER:                  -9.153
REMARK INTRA:                  -0.069
REMARK UNBOUND:                -0.069
REMARK SMILES CC1(C)CC[C@@]23CO[C@]4(C=C[C@@H]5[C@]6(C)CC[C@H](O)[C@@](C)(CO)[C@H]6CC[C@@]5(C)[C@]4(C)C[C@@H]2O)[C@@H]3C1
REMARK SMILES IDX 1 1 2 2 4 3 5 4 6 5 7 6 8 7 9 8 33 9 34 10 10 11 11 12 12 13
REMARK SMILES IDX 13 14 15 15 16 16 17 17 19 18 23 19 24 20 25 21 26 22 28 23
REMARK SMILES IDX 30 24 31 25 29 26 27 27 20 28 14 29 3 30 32 31 21 33 22 34
REMARK SMILES IDX 18 36
REMARK H PARENT 32 32 22 35 18 37
REMARK Flexibility Score: inf
ROOT
ATOM      1  C   UNL     1     -21.477   1.903  73.937  1.00  0.00     0.011 C 
ATOM      2  C   UNL     1     -22.345   0.624  74.024  1.00  0.00    -0.035 C 
ATOM      3  C   UNL     1     -22.982   0.469  75.421  1.00  0.00     0.007 C 
ATOM      4  C   UNL     1     -24.017   1.559  75.721  1.00  0.00     0.013 C 
ATOM      5  C   UNL     1     -25.093   1.771  74.606  1.00  0.00     0.026 C 
ATOM      6  C   UNL     1     -26.070   0.580  74.523  1.00  0.00     0.171 C 
ATOM      7  O   UNL     1     -26.498   0.433  73.181  1.00  0.00    -0.369 OA
ATOM      8  C   UNL     1     -25.890   1.466  72.425  1.00  0.00     0.096 C 
ATOM      9  C   UNL     1     -24.546   1.745  73.186  1.00  0.00     0.037 C 
ATOM     10  C   UNL     1     -23.465   0.642  72.961  1.00  0.00     0.014 C 
ATOM     11  C   UNL     1     -25.633   0.898  71.010  1.00  0.00     0.005 C 
ATOM     12  C   UNL     1     -26.250   1.305  69.884  1.00  0.00    -0.024 C 
ATOM     13  C   UNL     1     -27.352   2.336  69.942  1.00  0.00     0.024 C 
ATOM     14  C   UNL     1     -28.052   2.839  68.583  1.00  0.00    -0.022 C 
ATOM     15  C   UNL     1     -27.737   1.949  67.332  1.00  0.00     0.010 C 
ATOM     16  C   UNL     1     -26.562   2.476  66.509  1.00  0.00     0.033 C 
ATOM     17  C   UNL     1     -26.871   3.860  65.881  1.00  0.00     0.123 C 
ATOM     18  C   UNL     1     -27.737   4.827  66.809  1.00  0.00     0.020 C 
ATOM     19  C   UNL     1     -27.622   4.324  68.306  1.00  0.00     0.006 C 
ATOM     20  C   UNL     1     -28.050   5.285  69.452  1.00  0.00     0.005 C 
ATOM     21  C   UNL     1     -27.899   4.666  70.874  1.00  0.00     0.008 C 
ATOM     22  C   UNL     1     -26.902   3.455  70.966  1.00  0.00    -0.017 C 
ATOM     23  C   UNL     1     -26.868   2.761  72.431  1.00  0.00     0.009 C 
ATOM     24  C   UNL     1     -26.408   3.784  73.528  1.00  0.00     0.043 C 
ATOM     25  C   UNL     1     -25.897   3.121  74.841  1.00  0.00     0.124 C 
ATOM     26  C   UNL     1     -28.315   2.328  72.900  1.00  0.00     0.015 C 
ATOM     27  C   UNL     1     -25.465   4.008  70.587  1.00  0.00     0.013 C 
ATOM     28  C   UNL     1     -27.175   6.277  66.713  1.00  0.00     0.017 C 
ATOM     29  C   UNL     1     -29.602   2.731  68.790  1.00  0.00     0.012 C 
ATOM     30  C   UNL     1     -21.431  -0.591  73.760  1.00  0.00     0.011 C 
ENDROOT
BRANCH  25  31
ATOM     31  O   UNL     1     -25.111   4.070  75.520  1.00  0.00    -0.392 OA
ATOM     32  H   UNL     1     -24.547   3.574  76.171  1.00  0.00     0.210 HD
ENDBRANCH  25  31
BRANCH  18  33
ATOM     33  C   UNL     1     -29.195   4.875  66.245  1.00  0.00     0.165 C 
BRANCH  33  34
ATOM     34  O   UNL     1     -29.255   5.238  64.892  1.00  0.00    -0.396 OA
ATOM     35  H   UNL     1     -30.213   5.226  64.630  1.00  0.00     0.210 HD
ENDBRANCH  33  34
ENDBRANCH  18  33
BRANCH  17  36
ATOM     36  O   UNL     1     -25.632   4.444  65.542  1.00  0.00    -0.392 OA
ATOM     37  H   UNL     1     -24.978   4.214  66.253  1.00  0.00     0.210 HD
ENDBRANCH  17  36
TORSDOF 4
ENDMDL
MODEL 2
REMARK VINA RESULT:    -7.955      3.440      4.292
REMARK INTER + INTRA:          -9.187
REMARK INTER:                  -9.073
REMARK INTRA:                  -0.115
REMARK UNBOUND:                -0.069
REMARK SMILES CC1(C)CC[C@@]23CO[C@]4(C=C[C@@H]5[C@]6(C)CC[C@H](O)[C@@](C)(CO)[C@H]6CC[C@@]5(C)[C@]4(C)C[C@@H]2O)[C@@H]3C1
REMARK SMILES IDX 1 1 2 2 4 3 5 4 6 5 7 6 8 7 9 8 33 9 34 10 10 11 11 12 12 13
REMARK SMILES IDX 13 14 15 15 16 16 17 17 19 18 23 19 24 20 25 21 26 22 28 23
REMARK SMILES IDX 30 24 31 25 29 26 27 27 20 28 14 29 3 30 32 31 21 33 22 34
REMARK SMILES IDX 18 36
REMARK H PARENT 32 32 22 35 18 37
REMARK Flexibility Score: inf
ROOT
ATOM      1  C   UNL     1     -18.285   3.548  68.027  1.00  0.00     0.011 C 
ATOM      2  C   UNL     1     -18.614   2.184  68.682  1.00  0.00    -0.035 C 
ATOM      3  C   UNL     1     -18.123   2.127  70.144  1.00  0.00     0.007 C 
ATOM      4  C   UNL     1     -18.884   3.095  71.058  1.00  0.00     0.013 C 
ATOM      5  C   UNL     1     -20.442   3.007  70.958  1.00  0.00     0.026 C 
ATOM      6  C   UNL     1     -20.979   1.692  71.561  1.00  0.00     0.171 C 
ATOM      7  O   UNL     1     -22.149   1.311  70.858  1.00  0.00    -0.369 OA
ATOM      8  C   UNL     1     -22.403   2.310  69.885  1.00  0.00     0.096 C 
ATOM      9  C   UNL     1     -20.979   2.870  69.540  1.00  0.00     0.037 C 
ATOM     10  C   UNL     1     -20.132   1.907  68.651  1.00  0.00     0.014 C 
ATOM     11  C   UNL     1     -23.044   1.601  68.669  1.00  0.00     0.005 C 
ATOM     12  C   UNL     1     -24.314   1.767  68.251  1.00  0.00    -0.024 C 
ATOM     13  C   UNL     1     -25.272   2.635  69.032  1.00  0.00     0.024 C 
ATOM     14  C   UNL     1     -26.774   2.853  68.497  1.00  0.00    -0.022 C 
ATOM     15  C   UNL     1     -27.203   1.857  67.364  1.00  0.00     0.010 C 
ATOM     16  C   UNL     1     -26.994   2.428  65.961  1.00  0.00     0.033 C 
ATOM     17  C   UNL     1     -27.897   3.661  65.699  1.00  0.00     0.123 C 
ATOM     18  C   UNL     1     -28.097   4.614  66.965  1.00  0.00     0.020 C 
ATOM     19  C   UNL     1     -26.929   4.333  67.995  1.00  0.00     0.006 C 
ATOM     20  C   UNL     1     -26.665   5.368  69.126  1.00  0.00     0.005 C 
ATOM     21  C   UNL     1     -25.498   4.969  70.078  1.00  0.00     0.008 C 
ATOM     22  C   UNL     1     -24.483   3.931  69.480  1.00  0.00    -0.017 C 
ATOM     23  C   UNL     1     -23.357   3.447  70.543  1.00  0.00     0.009 C 
ATOM     24  C   UNL     1     -22.493   4.659  71.039  1.00  0.00     0.043 C 
ATOM     25  C   UNL     1     -21.129   4.252  71.668  1.00  0.00     0.124 C 
ATOM     26  C   UNL     1     -24.015   2.884  71.866  1.00  0.00     0.015 C 
ATOM     27  C   UNL     1     -23.796   4.622  68.229  1.00  0.00     0.013 C 
ATOM     28  C   UNL     1     -28.029   6.102  66.508  1.00  0.00     0.017 C 
ATOM     29  C   UNL     1     -27.742   2.560  69.694  1.00  0.00     0.012 C 
ATOM     30  C   UNL     1     -17.892   1.082  67.877  1.00  0.00     0.011 C 
ENDROOT
BRANCH  25  31
ATOM     31  O   UNL     1     -20.290   5.381  71.635  1.00  0.00    -0.392 OA
ATOM     32  H   UNL     1     -20.690   6.026  70.993  1.00  0.00     0.210 HD
ENDBRANCH  25  31
BRANCH  18  33
ATOM     33  C   UNL     1     -29.537   4.385  67.531  1.00  0.00     0.165 C 
BRANCH  33  34
ATOM     34  O   UNL     1     -30.457   3.971  66.556  1.00  0.00    -0.396 OA
ATOM     35  H   UNL     1     -31.363   4.072  66.949  1.00  0.00     0.210 HD
ENDBRANCH  33  34
ENDBRANCH  18  33
BRANCH  17  36
ATOM     36  O   UNL     1     -27.334   4.361  64.612  1.00  0.00    -0.392 OA
ATOM     37  H   UNL     1     -28.016   4.994  64.266  1.00  0.00     0.210 HD
ENDBRANCH  17  36
TORSDOF 4
ENDMDL
MODEL 3
REMARK VINA RESULT:    -7.894      8.852     12.610
REMARK INTER + INTRA:          -9.117
REMARK INTER:                  -9.049
REMARK INTRA:                  -0.068
REMARK UNBOUND:                -0.069
REMARK SMILES CC1(C)CC[C@@]23CO[C@]4(C=C[C@@H]5[C@]6(C)CC[C@H](O)[C@@](C)(CO)[C@H]6CC[C@@]5(C)[C@]4(C)C[C@@H]2O)[C@@H]3C1
REMARK SMILES IDX 1 1 2 2 4 3 5 4 6 5 7 6 8 7 9 8 33 9 34 10 10 11 11 12 12 13
REMARK SMILES IDX 13 14 15 15 16 16 17 17 19 18 23 19 24 20 25 21 26 22 28 23
REMARK SMILES IDX 30 24 31 25 29 26 27 27 20 28 14 29 3 30 32 31 21 33 22 34
REMARK SMILES IDX 18 36
REMARK H PARENT 32 32 22 35 18 37
REMARK Flexibility Score: inf
ROOT
ATOM      1  C   UNL     1     -21.409  -6.943  71.432  1.00  0.00     0.011 C 
ATOM      2  C   UNL     1     -22.182  -5.652  71.067  1.00  0.00    -0.035 C 
ATOM      3  C   UNL     1     -22.413  -5.544  69.545  1.00  0.00     0.007 C 
ATOM      4  C   UNL     1     -23.361  -6.626  69.015  1.00  0.00     0.013 C 
ATOM      5  C   UNL     1     -24.704  -6.769  69.804  1.00  0.00     0.026 C 
ATOM      6  C   UNL     1     -25.631  -5.557  69.576  1.00  0.00     0.171 C 
ATOM      7  O   UNL     1     -26.401  -5.344  70.746  1.00  0.00    -0.369 OA
ATOM      8  C   UNL     1     -26.050  -6.356  71.674  1.00  0.00     0.096 C 
ATOM      9  C   UNL     1     -24.560  -6.693  71.317  1.00  0.00     0.037 C 
ATOM     10  C   UNL     1     -23.547  -5.603  71.786  1.00  0.00     0.014 C 
ATOM     11  C   UNL     1     -26.168  -5.733  73.085  1.00  0.00     0.005 C 
ATOM     12  C   UNL     1     -27.078  -6.080  74.016  1.00  0.00    -0.024 C 
ATOM     13  C   UNL     1     -28.154  -7.091  73.698  1.00  0.00     0.024 C 
ATOM     14  C   UNL     1     -29.209  -7.523  74.834  1.00  0.00    -0.022 C 
ATOM     15  C   UNL     1     -29.218  -6.586  76.091  1.00  0.00     0.010 C 
ATOM     16  C   UNL     1     -28.325  -7.100  77.220  1.00  0.00     0.033 C 
ATOM     17  C   UNL     1     -28.833  -8.450  77.790  1.00  0.00     0.123 C 
ATOM     18  C   UNL     1     -29.445  -9.439  76.696  1.00  0.00     0.020 C 
ATOM     19  C   UNL     1     -28.915  -9.002  75.270  1.00  0.00     0.006 C 
ATOM     20  C   UNL     1     -29.047 -10.002  74.086  1.00  0.00     0.005 C 
ATOM     21  C   UNL     1     -28.499  -9.448  72.737  1.00  0.00     0.008 C 
ATOM     22  C   UNL     1     -27.478  -8.262  72.875  1.00  0.00    -0.017 C 
ATOM     23  C   UNL     1     -27.029  -7.631  71.450  1.00  0.00     0.009 C 
ATOM     24  C   UNL     1     -26.321  -8.709  70.556  1.00  0.00     0.043 C 
ATOM     25  C   UNL     1     -25.455  -8.112  69.408  1.00  0.00     0.124 C 
ATOM     26  C   UNL     1     -28.282  -7.190  70.591  1.00  0.00     0.015 C 
ATOM     27  C   UNL     1     -26.214  -8.826  73.649  1.00  0.00     0.013 C 
ATOM     28  C   UNL     1     -28.974 -10.894  76.993  1.00  0.00     0.017 C 
ATOM     29  C   UNL     1     -30.642  -7.394  74.211  1.00  0.00     0.012 C 
ATOM     30  C   UNL     1     -21.336  -4.444  71.525  1.00  0.00     0.011 C 
ENDROOT
BRANCH  25  31
ATOM     31  O   UNL     1     -24.543  -9.104  69.002  1.00  0.00    -0.392 OA
ATOM     32  H   UNL     1     -24.627  -9.860  69.641  1.00  0.00     0.210 HD
ENDBRANCH  25  31
BRANCH  18  33
ATOM     33  C   UNL     1     -31.002  -9.434  76.845  1.00  0.00     0.165 C 
BRANCH  33  34
ATOM     34  O   UNL     1     -31.437  -9.764  78.138  1.00  0.00    -0.396 OA
ATOM     35  H   UNL     1     -31.411 -10.754  78.209  1.00  0.00     0.210 HD
ENDBRANCH  33  34
ENDBRANCH  18  33
BRANCH  17  36
ATOM     36  O   UNL     1     -27.750  -9.043  78.472  1.00  0.00    -0.392 OA
ATOM     37  H   UNL     1     -26.910  -8.644  78.123  1.00  0.00     0.210 HD
ENDBRANCH  17  36
TORSDOF 4
ENDMDL
MODEL 4
REMARK VINA RESULT:    -7.863      4.171      9.107
REMARK INTER + INTRA:          -9.082
REMARK INTER:                  -8.988
REMARK INTRA:                  -0.094
REMARK UNBOUND:                -0.069
REMARK SMILES CC1(C)CC[C@@]23CO[C@]4(C=C[C@@H]5[C@]6(C)CC[C@H](O)[C@@](C)(CO)[C@H]6CC[C@@]5(C)[C@]4(C)C[C@@H]2O)[C@@H]3C1
REMARK SMILES IDX 1 1 2 2 4 3 5 4 6 5 7 6 8 7 9 8 33 9 34 10 10 11 11 12 12 13
REMARK SMILES IDX 13 14 15 15 16 16 17 17 19 18 23 19 24 20 25 21 26 22 28 23
REMARK SMILES IDX 30 24 31 25 29 26 27 27 20 28 14 29 3 30 32 31 21 33 22 34
REMARK SMILES IDX 18 36
REMARK H PARENT 32 32 22 35 18 37
REMARK Flexibility Score: inf
ROOT
ATOM      1  C   UNL     1     -25.735   0.994  69.488  1.00  0.00     0.011 C 
ATOM      2  C   UNL     1     -24.934  -0.276  69.862  1.00  0.00    -0.035 C 
ATOM      3  C   UNL     1     -24.385  -0.988  68.607  1.00  0.00     0.007 C 
ATOM      4  C   UNL     1     -23.320  -0.159  67.879  1.00  0.00     0.013 C 
ATOM      5  C   UNL     1     -22.174   0.389  68.792  1.00  0.00     0.026 C 
ATOM      6  C   UNL     1     -21.249  -0.743  69.286  1.00  0.00     0.171 C 
ATOM      7  O   UNL     1     -20.752  -0.401  70.568  1.00  0.00    -0.369 OA
ATOM      8  C   UNL     1     -21.269   0.878  70.896  1.00  0.00     0.096 C 
ATOM      9  C   UNL     1     -22.639   0.935  70.134  1.00  0.00     0.037 C 
ATOM     10  C   UNL     1     -23.755   0.069  70.798  1.00  0.00     0.014 C 
ATOM     11  C   UNL     1     -21.470   0.903  72.429  1.00  0.00     0.005 C 
ATOM     12  C   UNL     1     -20.772   1.664  73.294  1.00  0.00    -0.024 C 
ATOM     13  C   UNL     1     -19.629   2.525  72.809  1.00  0.00     0.024 C 
ATOM     14  C   UNL     1     -18.832   3.457  73.850  1.00  0.00    -0.022 C 
ATOM     15  C   UNL     1     -19.115   3.127  75.356  1.00  0.00     0.010 C 
ATOM     16  C   UNL     1     -20.216   3.999  75.958  1.00  0.00     0.033 C 
ATOM     17  C   UNL     1     -19.809   5.495  76.002  1.00  0.00     0.123 C 
ATOM     18  C   UNL     1     -18.954   5.984  74.746  1.00  0.00     0.020 C 
ATOM     19  C   UNL     1     -19.177   4.961  73.558  1.00  0.00     0.006 C 
ATOM     20  C   UNL     1     -18.771   5.390  72.118  1.00  0.00     0.005 C 
ATOM     21  C   UNL     1     -19.031   4.291  71.044  1.00  0.00     0.008 C 
ATOM     22  C   UNL     1     -20.085   3.202  71.453  1.00  0.00    -0.017 C 
ATOM     23  C   UNL     1     -20.234   2.010  70.364  1.00  0.00     0.009 C 
ATOM     24  C   UNL     1     -20.709   2.571  68.978  1.00  0.00     0.043 C 
ATOM     25  C   UNL     1     -21.323   1.495  68.034  1.00  0.00     0.124 C 
ATOM     26  C   UNL     1     -18.838   1.341  70.044  1.00  0.00     0.015 C 
ATOM     27  C   UNL     1     -21.472   3.948  71.645  1.00  0.00     0.013 C 
ATOM     28  C   UNL     1     -19.443   7.395  74.304  1.00  0.00     0.017 C 
ATOM     29  C   UNL     1     -17.302   3.181  73.645  1.00  0.00     0.012 C 
ATOM     30  C   UNL     1     -25.886  -1.242  70.600  1.00  0.00     0.011 C 
ENDROOT
BRANCH  25  31
ATOM     31  O   UNL     1     -22.103   2.167  67.074  1.00  0.00    -0.392 OA
ATOM     32  H   UNL     1     -21.525   2.860  66.658  1.00  0.00     0.210 HD
ENDBRANCH  25  31
BRANCH  18  33
ATOM     33  C   UNL     1     -17.465   6.147  75.198  1.00  0.00     0.165 C 
BRANCH  33  34
ATOM     34  O   UNL     1     -17.333   6.674  76.490  1.00  0.00    -0.396 OA
ATOM     35  H   UNL     1     -18.153   6.425  76.991  1.00  0.00     0.210 HD
ENDBRANCH  33  34
ENDBRANCH  18  33
BRANCH  17  36
ATOM     36  O   UNL     1     -20.998   6.242  76.138  1.00  0.00    -0.392 OA
ATOM     37  H   UNL     1     -21.753   5.679  75.820  1.00  0.00     0.210 HD
ENDBRANCH  17  36
TORSDOF 4
ENDMDL
MODEL 5
REMARK VINA RESULT:    -7.820      3.436      8.300
REMARK INTER + INTRA:          -9.032
REMARK INTER:                  -8.884
REMARK INTRA:                  -0.148
REMARK UNBOUND:                -0.069
REMARK SMILES CC1(C)CC[C@@]23CO[C@]4(C=C[C@@H]5[C@]6(C)CC[C@H](O)[C@@](C)(CO)[C@H]6CC[C@@]5(C)[C@]4(C)C[C@@H]2O)[C@@H]3C1
REMARK SMILES IDX 1 1 2 2 4 3 5 4 6 5 7 6 8 7 9 8 33 9 34 10 10 11 11 12 12 13
REMARK SMILES IDX 13 14 15 15 16 16 17 17 19 18 23 19 24 20 25 21 26 22 28 23
REMARK SMILES IDX 30 24 31 25 29 26 27 27 20 28 14 29 3 30 32 31 21 33 22 34
REMARK SMILES IDX 18 36
REMARK H PARENT 32 32 22 35 18 37
REMARK Flexibility Score: inf
ROOT
ATOM      1  C   UNL     1     -28.559   5.030  73.886  1.00  0.00     0.011 C 
ATOM      2  C   UNL     1     -28.330   3.501  73.807  1.00  0.00    -0.035 C 
ATOM      3  C   UNL     1     -28.858   2.919  72.478  1.00  0.00     0.007 C 
ATOM      4  C   UNL     1     -28.062   3.409  71.263  1.00  0.00     0.013 C 
ATOM      5  C   UNL     1     -26.510   3.265  71.391  1.00  0.00     0.026 C 
ATOM      6  C   UNL     1     -26.069   1.787  71.341  1.00  0.00     0.171 C 
ATOM      7  O   UNL     1     -24.908   1.629  72.138  1.00  0.00    -0.369 OA
ATOM      8  C   UNL     1     -24.570   2.906  72.652  1.00  0.00     0.096 C 
ATOM      9  C   UNL     1     -25.949   3.647  72.753  1.00  0.00     0.037 C 
ATOM     10  C   UNL     1     -26.831   3.157  73.943  1.00  0.00     0.014 C 
ATOM     11  C   UNL     1     -23.944   2.679  74.048  1.00  0.00     0.005 C 
ATOM     12  C   UNL     1     -22.657   2.909  74.372  1.00  0.00    -0.024 C 
ATOM     13  C   UNL     1     -21.667   3.346  73.319  1.00  0.00     0.024 C 
ATOM     14  C   UNL     1     -20.142   3.654  73.730  1.00  0.00    -0.022 C 
ATOM     15  C   UNL     1     -19.748   3.144  75.159  1.00  0.00     0.010 C 
ATOM     16  C   UNL     1     -19.888   4.222  76.234  1.00  0.00     0.033 C 
ATOM     17  C   UNL     1     -18.905   5.399  76.002  1.00  0.00     0.123 C 
ATOM     18  C   UNL     1     -18.678   5.777  74.468  1.00  0.00     0.020 C 
ATOM     19  C   UNL     1     -19.886   5.199  73.624  1.00  0.00     0.006 C 
ATOM     20  C   UNL     1     -20.112   5.736  72.181  1.00  0.00     0.005 C 
ATOM     21  C   UNL     1     -21.325   5.079  71.454  1.00  0.00     0.008 C 
ATOM     22  C   UNL     1     -22.387   4.418  72.405  1.00  0.00    -0.017 C 
ATOM     23  C   UNL     1     -23.564   3.639  71.609  1.00  0.00     0.009 C 
ATOM     24  C   UNL     1     -24.365   4.621  70.683  1.00  0.00     0.043 C 
ATOM     25  C   UNL     1     -25.766   4.093  70.258  1.00  0.00     0.124 C 
ATOM     26  C   UNL     1     -22.975   2.569  70.605  1.00  0.00     0.015 C 
ATOM     27  C   UNL     1     -23.000   5.581  73.293  1.00  0.00     0.013 C 
ATOM     28  C   UNL     1     -18.644   7.328  74.317  1.00  0.00     0.017 C 
ATOM     29  C   UNL     1     -19.222   2.861  72.739  1.00  0.00     0.012 C 
ATOM     30  C   UNL     1     -29.098   2.842  74.973  1.00  0.00     0.011 C 
ENDROOT
BRANCH  25  31
ATOM     31  O   UNL     1     -26.533   5.201  69.852  1.00  0.00    -0.392 OA
ATOM     32  H   UNL     1     -26.680   5.768  70.655  1.00  0.00     0.210 HD
ENDBRANCH  25  31
BRANCH  18  33
ATOM     33  C   UNL     1     -17.268   5.255  74.036  1.00  0.00     0.165 C 
BRANCH  33  34
ATOM     34  O   UNL     1     -16.458   4.884  75.119  1.00  0.00    -0.396 OA
ATOM     35  H   UNL     1     -17.035   4.885  75.927  1.00  0.00     0.210 HD
ENDBRANCH  33  34
ENDBRANCH  18  33
BRANCH  17  36
ATOM     36  O   UNL     1     -19.399   6.498  76.736  1.00  0.00    -0.392 OA
ATOM     37  H   UNL     1     -18.953   7.319  76.398  1.00  0.00     0.210 HD
ENDBRANCH  17  36
TORSDOF 4
ENDMDL
MODEL 6
REMARK VINA RESULT:    -7.769     10.981     13.157
REMARK INTER + INTRA:          -8.974
REMARK INTER:                  -8.835
REMARK INTRA:                  -0.138
REMARK UNBOUND:                -0.069
REMARK SMILES CC1(C)CC[C@@]23CO[C@]4(C=C[C@@H]5[C@]6(C)CC[C@H](O)[C@@](C)(CO)[C@H]6CC[C@@]5(C)[C@]4(C)C[C@@H]2O)[C@@H]3C1
REMARK SMILES IDX 1 1 2 2 4 3 5 4 6 5 7 6 8 7 9 8 33 9 34 10 10 11 11 12 12 13
REMARK SMILES IDX 13 14 15 15 16 16 17 17 19 18 23 19 24 20 25 21 26 22 28 23
REMARK SMILES IDX 30 24 31 25 29 26 27 27 20 28 14 29 3 30 32 31 21 33 22 34
REMARK SMILES IDX 18 36
REMARK H PARENT 32 32 22 35 18 37
REMARK Flexibility Score: inf
ROOT
ATOM      1  C   UNL     1     -19.764  -8.747  77.642  1.00  0.00     0.011 C 
ATOM      2  C   UNL     1     -19.873  -7.369  76.946  1.00  0.00    -0.035 C 
ATOM      3  C   UNL     1     -19.038  -7.324  75.648  1.00  0.00     0.007 C 
ATOM      4  C   UNL     1     -19.588  -8.257  74.562  1.00  0.00     0.013 C 
ATOM      5  C   UNL     1     -21.119  -8.110  74.281  1.00  0.00     0.026 C 
ATOM      6  C   UNL     1     -21.444  -6.772  73.584  1.00  0.00     0.171 C 
ATOM      7  O   UNL     1     -22.736  -6.350  73.986  1.00  0.00    -0.369 OA
ATOM      8  C   UNL     1     -23.256  -7.342  74.853  1.00  0.00     0.096 C 
ATOM      9  C   UNL     1     -21.980  -7.958  75.527  1.00  0.00     0.037 C 
ATOM     10  C   UNL     1     -21.342  -7.033  76.609  1.00  0.00     0.014 C 
ATOM     11  C   UNL     1     -24.148  -6.615  75.886  1.00  0.00     0.005 C 
ATOM     12  C   UNL     1     -25.487  -6.734  75.980  1.00  0.00    -0.024 C 
ATOM     13  C   UNL     1     -26.256  -7.561  74.976  1.00  0.00     0.024 C 
ATOM     14  C   UNL     1     -27.850  -7.723  75.126  1.00  0.00    -0.022 C 
ATOM     15  C   UNL     1     -28.506  -6.718  76.134  1.00  0.00     0.010 C 
ATOM     16  C   UNL     1     -28.667  -7.303  77.537  1.00  0.00     0.033 C 
ATOM     17  C   UNL     1     -29.651  -8.502  77.553  1.00  0.00     0.123 C 
ATOM     18  C   UNL     1     -29.570  -9.440  76.263  1.00  0.00     0.020 C 
ATOM     19  C   UNL     1     -28.176  -9.199  75.553  1.00  0.00     0.006 C 
ATOM     20  C   UNL     1     -27.682 -10.238  74.506  1.00  0.00     0.005 C 
ATOM     21  C   UNL     1     -26.304  -9.879  73.873  1.00  0.00     0.008 C 
ATOM     22  C   UNL     1     -25.428  -8.884  74.715  1.00  0.00    -0.017 C 
ATOM     23  C   UNL     1     -24.061  -8.439  73.967  1.00  0.00     0.009 C 
ATOM     24  C   UNL     1     -23.147  -9.681  73.679  1.00  0.00     0.043 C 
ATOM     25  C   UNL     1     -21.656  -9.323  73.408  1.00  0.00     0.124 C 
ATOM     26  C   UNL     1     -24.354  -7.844  72.531  1.00  0.00     0.015 C 
ATOM     27  C   UNL     1     -25.093  -9.607  76.087  1.00  0.00     0.013 C 
ATOM     28  C   UNL     1     -29.670 -10.932  76.702  1.00  0.00     0.017 C 
ATOM     29  C   UNL     1     -28.486  -7.388  73.733  1.00  0.00     0.012 C 
ATOM     30  C   UNL     1     -19.331  -6.300  77.918  1.00  0.00     0.011 C 
ENDROOT
BRANCH  25  31
ATOM     31  O   UNL     1     -20.892 -10.485  73.628  1.00  0.00    -0.392 OA
ATOM     32  H   UNL     1     -21.457 -11.261  73.371  1.00  0.00     0.210 HD
ENDBRANCH  25  31
BRANCH  18  33
ATOM     33  C   UNL     1     -30.819  -9.153  75.367  1.00  0.00     0.165 C 
BRANCH  33  34
ATOM     34  O   UNL     1     -31.860  -8.511  76.055  1.00  0.00    -0.396 OA
ATOM     35  H   UNL     1     -32.660  -8.543  75.467  1.00  0.00     0.210 HD
ENDBRANCH  33  34
ENDBRANCH  18  33
BRANCH  17  36
ATOM     36  O   UNL     1     -29.396  -9.228  78.735  1.00  0.00    -0.392 OA
ATOM     37  H   UNL     1     -30.129  -9.037  79.378  1.00  0.00     0.210 HD
ENDBRANCH  17  36
TORSDOF 4
ENDMDL
MODEL 7
REMARK VINA RESULT:    -7.765     10.371     13.826
REMARK INTER + INTRA:          -8.969
REMARK INTER:                  -8.883
REMARK INTRA:                  -0.086
REMARK UNBOUND:                -0.069
REMARK SMILES CC1(C)CC[C@@]23CO[C@]4(C=C[C@@H]5[C@]6(C)CC[C@H](O)[C@@](C)(CO)[C@H]6CC[C@@]5(C)[C@]4(C)C[C@@H]2O)[C@@H]3C1
REMARK SMILES IDX 1 1 2 2 4 3 5 4 6 5 7 6 8 7 9 8 33 9 34 10 10 11 11 12 12 13
REMARK SMILES IDX 13 14 15 15 16 16 17 17 19 18 23 19 24 20 25 21 26 22 28 23
REMARK SMILES IDX 30 24 31 25 29 26 27 27 20 28 14 29 3 30 32 31 21 33 22 34
REMARK SMILES IDX 18 36
REMARK H PARENT 32 32 22 35 18 37
REMARK Flexibility Score: inf
ROOT
ATOM      1  C   UNL     1     -28.864  -9.878  69.720  1.00  0.00     0.011 C 
ATOM      2  C   UNL     1     -28.675  -8.354  69.913  1.00  0.00    -0.035 C 
ATOM      3  C   UNL     1     -29.464  -7.837  71.136  1.00  0.00     0.007 C 
ATOM      4  C   UNL     1     -28.918  -8.382  72.461  1.00  0.00     0.013 C 
ATOM      5  C   UNL     1     -27.373  -8.228  72.651  1.00  0.00     0.026 C 
ATOM      6  C   UNL     1     -26.969  -6.753  72.856  1.00  0.00     0.171 C 
ATOM      7  O   UNL     1     -25.675  -6.554  72.314  1.00  0.00    -0.369 OA
ATOM      8  C   UNL     1     -25.226  -7.804  71.819  1.00  0.00     0.096 C 
ATOM      9  C   UNL     1     -26.548  -8.544  71.412  1.00  0.00     0.037 C 
ATOM     10  C   UNL     1     -27.183  -8.000  70.094  1.00  0.00     0.014 C 
ATOM     11  C   UNL     1     -24.339  -7.508  70.588  1.00  0.00     0.005 C 
ATOM     12  C   UNL     1     -23.010  -7.719  70.516  1.00  0.00    -0.024 C 
ATOM     13  C   UNL     1     -22.243  -8.203  71.725  1.00  0.00     0.024 C 
ATOM     14  C   UNL     1     -20.664  -8.486  71.611  1.00  0.00    -0.022 C 
ATOM     15  C   UNL     1     -20.000  -7.908  70.314  1.00  0.00     0.010 C 
ATOM     16  C   UNL     1     -19.910  -8.934  69.185  1.00  0.00     0.033 C 
ATOM     17  C   UNL     1     -18.978 -10.118  69.553  1.00  0.00     0.123 C 
ATOM     18  C   UNL     1     -19.056 -10.568  71.083  1.00  0.00     0.020 C 
ATOM     19  C   UNL     1     -20.415 -10.034  71.695  1.00  0.00     0.006 C 
ATOM     20  C   UNL     1     -20.917 -10.639  73.038  1.00  0.00     0.005 C 
ATOM     21  C   UNL     1     -22.257 -10.021  73.538  1.00  0.00     0.008 C 
ATOM     22  C   UNL     1     -23.117  -9.320  72.427  1.00  0.00    -0.017 C 
ATOM     23  C   UNL     1     -24.439  -8.582  73.007  1.00  0.00     0.009 C 
ATOM     24  C   UNL     1     -25.395  -9.610  73.709  1.00  0.00     0.043 C 
ATOM     25  C   UNL     1     -26.860  -9.107  73.870  1.00  0.00     0.124 C 
ATOM     26  C   UNL     1     -24.074  -7.559  74.157  1.00  0.00     0.015 C 
ATOM     27  C   UNL     1     -23.528 -10.440  71.382  1.00  0.00     0.013 C 
ATOM     28  C   UNL     1     -19.034 -12.124  71.166  1.00  0.00     0.017 C 
ATOM     29  C   UNL     1     -19.969  -7.739  72.801  1.00  0.00     0.012 C 
ATOM     30  C   UNL     1     -29.203  -7.643  68.649  1.00  0.00     0.011 C 
ENDROOT
BRANCH  25  31
ATOM     31  O   UNL     1     -27.679 -10.235  74.064  1.00  0.00    -0.392 OA
ATOM     32  H   UNL     1     -28.139 -10.119  74.937  1.00  0.00     0.210 HD
ENDBRANCH  25  31
BRANCH  18  33
ATOM     33  C   UNL     1     -17.767 -10.063  71.810  1.00  0.00     0.165 C 
BRANCH  33  34
ATOM     34  O   UNL     1     -16.597 -10.249  71.059  1.00  0.00    -0.396 OA
ATOM     35  H   UNL     1     -16.625  -9.597  70.311  1.00  0.00     0.210 HD
ENDBRANCH  33  34
ENDBRANCH  18  33
BRANCH  17  36
ATOM     36  O   UNL     1     -19.303 -11.183  68.686  1.00  0.00    -0.392 OA
ATOM     37  H   UNL     1     -18.535 -11.324  68.072  1.00  0.00     0.210 HD
ENDBRANCH  17  36
TORSDOF 4
ENDMDL
MODEL 8
REMARK VINA RESULT:    -7.698      3.271      6.062
REMARK INTER + INTRA:          -8.892
REMARK INTER:                  -8.809
REMARK INTRA:                  -0.083
REMARK UNBOUND:                -0.069
REMARK SMILES CC1(C)CC[C@@]23CO[C@]4(C=C[C@@H]5[C@]6(C)CC[C@H](O)[C@@](C)(CO)[C@H]6CC[C@@]5(C)[C@]4(C)C[C@@H]2O)[C@@H]3C1
REMARK SMILES IDX 1 1 2 2 4 3 5 4 6 5 7 6 8 7 9 8 33 9 34 10 10 11 11 12 12 13
REMARK SMILES IDX 13 14 15 15 16 16 17 17 19 18 23 19 24 20 25 21 26 22 28 23
REMARK SMILES IDX 30 24 31 25 29 26 27 27 20 28 14 29 3 30 32 31 21 33 22 34
REMARK SMILES IDX 18 36
REMARK H PARENT 32 32 22 35 18 37
REMARK Flexibility Score: inf
ROOT
ATOM      1  C   UNL     1     -28.121   3.318  75.759  1.00  0.00     0.011 C 
ATOM      2  C   UNL     1     -28.733   2.317  74.749  1.00  0.00    -0.035 C 
ATOM      3  C   UNL     1     -30.008   2.887  74.091  1.00  0.00     0.007 C 
ATOM      4  C   UNL     1     -29.716   4.090  73.187  1.00  0.00     0.013 C 
ATOM      5  C   UNL     1     -28.567   3.871  72.149  1.00  0.00     0.026 C 
ATOM      6  C   UNL     1     -28.982   2.881  71.041  1.00  0.00     0.171 C 
ATOM      7  O   UNL     1     -27.833   2.175  70.606  1.00  0.00    -0.369 OA
ATOM      8  C   UNL     1     -26.725   2.677  71.333  1.00  0.00     0.096 C 
ATOM      9  C   UNL     1     -27.350   3.139  72.696  1.00  0.00     0.037 C 
ATOM     10  C   UNL     1     -27.717   1.955  73.644  1.00  0.00     0.014 C 
ATOM     11  C   UNL     1     -25.743   1.498  71.530  1.00  0.00     0.005 C 
ATOM     12  C   UNL     1     -24.522   1.400  70.970  1.00  0.00    -0.024 C 
ATOM     13  C   UNL     1     -24.039   2.447  69.994  1.00  0.00     0.024 C 
ATOM     14  C   UNL     1     -22.563   2.335  69.364  1.00  0.00    -0.022 C 
ATOM     15  C   UNL     1     -21.877   0.942  69.580  1.00  0.00     0.010 C 
ATOM     16  C   UNL     1     -20.973   0.910  70.813  1.00  0.00     0.033 C 
ATOM     17  C   UNL     1     -19.765   1.872  70.669  1.00  0.00     0.123 C 
ATOM     18  C   UNL     1     -20.097   3.240  69.915  1.00  0.00     0.020 C 
ATOM     19  C   UNL     1     -21.662   3.473  69.964  1.00  0.00     0.006 C 
ATOM     20  C   UNL     1     -22.216   4.891  69.644  1.00  0.00     0.005 C 
ATOM     21  C   UNL     1     -23.770   4.986  69.715  1.00  0.00     0.008 C 
ATOM     22  C   UNL     1     -24.462   3.861  70.564  1.00  0.00    -0.017 C 
ATOM     23  C   UNL     1     -26.082   3.920  70.511  1.00  0.00     0.009 C 
ATOM     24  C   UNL     1     -26.615   5.282  71.081  1.00  0.00     0.043 C 
ATOM     25  C   UNL     1     -28.113   5.250  71.504  1.00  0.00     0.124 C 
ATOM     26  C   UNL     1     -26.613   3.899  69.021  1.00  0.00     0.015 C 
ATOM     27  C   UNL     1     -23.956   4.030  72.058  1.00  0.00     0.013 C 
ATOM     28  C   UNL     1     -19.382   4.418  70.641  1.00  0.00     0.017 C 
ATOM     29  C   UNL     1     -22.705   2.490  67.811  1.00  0.00     0.012 C 
ATOM     30  C   UNL     1     -29.108   1.032  75.518  1.00  0.00     0.011 C 
ENDROOT
BRANCH  25  31
ATOM     31  O   UNL     1     -28.327   6.321  72.391  1.00  0.00    -0.392 OA
ATOM     32  H   UNL     1     -27.530   6.913  72.337  1.00  0.00     0.210 HD
ENDBRANCH  25  31
BRANCH  18  33
ATOM     33  C   UNL     1     -19.491   3.168  68.475  1.00  0.00     0.165 C 
BRANCH  33  34
ATOM     34  O   UNL     1     -19.342   4.425  67.873  1.00  0.00    -0.396 OA
ATOM     35  H   UNL     1     -19.078   5.061  68.589  1.00  0.00     0.210 HD
ENDBRANCH  33  34
ENDBRANCH  18  33
BRANCH  17  36
ATOM     36  O   UNL     1     -19.269   2.107  71.968  1.00  0.00    -0.392 OA
ATOM     37  H   UNL     1     -19.057   3.074  72.046  1.00  0.00     0.210 HD
ENDBRANCH  17  36
TORSDOF 4
ENDMDL
MODEL 9
REMARK VINA RESULT:    -7.669      3.852      5.729
REMARK INTER + INTRA:          -8.859
REMARK INTER:                  -8.698
REMARK INTRA:                  -0.161
REMARK UNBOUND:                -0.069
REMARK SMILES CC1(C)CC[C@@]23CO[C@]4(C=C[C@@H]5[C@]6(C)CC[C@H](O)[C@@](C)(CO)[C@H]6CC[C@@]5(C)[C@]4(C)C[C@@H]2O)[C@@H]3C1
REMARK SMILES IDX 1 1 2 2 4 3 5 4 6 5 7 6 8 7 9 8 33 9 34 10 10 11 11 12 12 13
REMARK SMILES IDX 13 14 15 15 16 16 17 17 19 18 23 19 24 20 25 21 26 22 28 23
REMARK SMILES IDX 30 24 31 25 29 26 27 27 20 28 14 29 3 30 32 31 21 33 22 34
REMARK SMILES IDX 18 36
REMARK H PARENT 32 32 22 35 18 37
REMARK Flexibility Score: inf
ROOT
ATOM      1  C   UNL     1     -15.749   4.884  71.701  1.00  0.00     0.011 C 
ATOM      2  C   UNL     1     -15.992   3.524  72.399  1.00  0.00    -0.035 C 
ATOM      3  C   UNL     1     -15.751   3.620  73.922  1.00  0.00     0.007 C 
ATOM      4  C   UNL     1     -16.781   4.511  74.625  1.00  0.00     0.013 C 
ATOM      5  C   UNL     1     -18.273   4.187  74.286  1.00  0.00     0.026 C 
ATOM      6  C   UNL     1     -18.718   2.842  74.896  1.00  0.00     0.171 C 
ATOM      7  O   UNL     1     -19.688   2.254  74.048  1.00  0.00    -0.369 OA
ATOM      8  C   UNL     1     -19.911   3.149  72.972  1.00  0.00     0.096 C 
ATOM      9  C   UNL     1     -18.539   3.895  72.816  1.00  0.00     0.037 C 
ATOM     10  C   UNL     1     -17.431   3.023  72.150  1.00  0.00     0.014 C 
ATOM     11  C   UNL     1     -20.234   2.289  71.729  1.00  0.00     0.005 C 
ATOM     12  C   UNL     1     -21.425   2.241  71.102  1.00  0.00    -0.024 C 
ATOM     13  C   UNL     1     -22.612   2.998  71.651  1.00  0.00     0.024 C 
ATOM     14  C   UNL     1     -24.017   2.961  70.869  1.00  0.00    -0.022 C 
ATOM     15  C   UNL     1     -24.108   1.853  69.764  1.00  0.00     0.010 C 
ATOM     16  C   UNL     1     -23.747   2.372  68.372  1.00  0.00     0.033 C 
ATOM     17  C   UNL     1     -24.754   3.441  67.875  1.00  0.00     0.123 C 
ATOM     18  C   UNL     1     -25.294   4.420  69.015  1.00  0.00     0.020 C 
ATOM     19  C   UNL     1     -24.288   4.372  70.236  1.00  0.00     0.006 C 
ATOM     20  C   UNL     1     -24.364   5.494  71.311  1.00  0.00     0.005 C 
ATOM     21  C   UNL     1     -23.330   5.325  72.464  1.00  0.00     0.008 C 
ATOM     22  C   UNL     1     -22.095   4.419  72.118  1.00  0.00    -0.017 C 
ATOM     23  C   UNL     1     -21.109   4.166  73.380  1.00  0.00     0.009 C 
ATOM     24  C   UNL     1     -20.516   5.518  73.911  1.00  0.00     0.043 C 
ATOM     25  C   UNL     1     -19.234   5.352  74.779  1.00  0.00     0.124 C 
ATOM     26  C   UNL     1     -21.896   3.583  74.622  1.00  0.00     0.015 C 
ATOM     27  C   UNL     1     -21.309   5.136  70.942  1.00  0.00     0.013 C 
ATOM     28  C   UNL     1     -25.356   5.875  68.461  1.00  0.00     0.017 C 
ATOM     29  C   UNL     1     -25.124   2.592  71.917  1.00  0.00     0.012 C 
ATOM     30  C   UNL     1     -15.000   2.500  71.807  1.00  0.00     0.011 C 
ENDROOT
BRANCH  25  31
ATOM     31  O   UNL     1     -18.566   6.591  74.792  1.00  0.00    -0.392 OA
ATOM     32  H   UNL     1     -19.027   7.181  74.138  1.00  0.00     0.210 HD
ENDBRANCH  25  31
BRANCH  18  33
ATOM     33  C   UNL     1     -26.763   4.010  69.361  1.00  0.00     0.165 C 
BRANCH  33  34
ATOM     34  O   UNL     1     -27.289   3.044  68.491  1.00  0.00    -0.396 OA
ATOM     35  H   UNL     1     -26.531   2.697  67.951  1.00  0.00     0.210 HD
ENDBRANCH  33  34
ENDBRANCH  18  33
BRANCH  17  36
ATOM     36  O   UNL     1     -24.117   4.157  66.840  1.00  0.00    -0.392 OA
ATOM     37  H   UNL     1     -24.694   4.930  66.600  1.00  0.00     0.210 HD
ENDBRANCH  17  36
TORSDOF 4
ENDMDL
