MODEL 1
REMARK VINA RESULT:    -6.820      0.000      0.000
REMARK INTER + INTRA:          -6.820
REMARK INTER:                  -6.820
REMARK INTRA:                   0.000
REMARK UNBOUND:                 0.000
REMARK SMILES O=c1ccc2ccccc2o1
REMARK SMILES IDX 7 1 8 2 9 3 10 4 5 5 6 6 4 7 3 8 2 9 1 10 11 11
REMARK H PARENT
REMARK Flexibility Score: inf
ROOT
ATOM      1  C   UNL     1     -22.244 -17.342  -5.491  1.00  0.00     0.001 A 
ATOM      2  C   UNL     1     -23.500 -17.456  -6.097  1.00  0.00     0.004 A 
ATOM      3  C   UNL     1     -23.763 -16.795  -7.301  1.00  0.00     0.048 A 
ATOM      4  C   UNL     1     -22.770 -16.016  -7.904  1.00  0.00     0.138 A 
ATOM      5  C   UNL     1     -21.501 -15.900  -7.293  1.00  0.00     0.018 A 
ATOM      6  C   UNL     1     -21.244 -16.566  -6.084  1.00  0.00     0.012 A 
ATOM      7  C   UNL     1     -20.528 -15.115  -7.918  1.00  0.00     0.019 A 
ATOM      8  C   UNL     1     -20.835 -14.475  -9.119  1.00  0.00     0.094 A 
ATOM      9  C   UNL     1     -22.113 -14.635  -9.666  1.00  0.00     0.336 A 
ATOM     10  O   UNL     1     -22.408 -14.064 -10.749  1.00  0.00    -0.246 OA
ATOM     11  O   UNL     1     -23.020 -15.388  -9.050  1.00  0.00    -0.423 OA
ENDROOT
TORSDOF 0
ENDMDL
MODEL 2
REMARK VINA RESULT:    -6.394      1.175      2.110
REMARK INTER + INTRA:          -6.394
REMARK INTER:                  -6.394
REMARK INTRA:                   0.000
REMARK UNBOUND:                 0.000
REMARK SMILES O=c1ccc2ccccc2o1
REMARK SMILES IDX 7 1 8 2 9 3 10 4 5 5 6 6 4 7 3 8 2 9 1 10 11 11
REMARK H PARENT
REMARK Flexibility Score: inf
ROOT
ATOM      1  C   UNL     1     -23.054 -17.275  -5.930  1.00  0.00     0.001 A 
ATOM      2  C   UNL     1     -21.775 -16.902  -5.504  1.00  0.00     0.004 A 
ATOM      3  C   UNL     1     -20.955 -16.127  -6.331  1.00  0.00     0.048 A 
ATOM      4  C   UNL     1     -21.414 -15.722  -7.590  1.00  0.00     0.138 A 
ATOM      5  C   UNL     1     -22.706 -16.098  -8.020  1.00  0.00     0.018 A 
ATOM      6  C   UNL     1     -23.522 -16.876  -7.185  1.00  0.00     0.012 A 
ATOM      7  C   UNL     1     -23.137 -15.679  -9.282  1.00  0.00     0.019 A 
ATOM      8  C   UNL     1     -22.287 -14.907 -10.073  1.00  0.00     0.094 A 
ATOM      9  C   UNL     1     -21.020 -14.572  -9.581  1.00  0.00     0.336 A 
ATOM     10  O   UNL     1     -20.239 -13.876 -10.281  1.00  0.00    -0.246 OA
ATOM     11  O   UNL     1     -20.635 -14.984  -8.376  1.00  0.00    -0.423 OA
ENDROOT
TORSDOF 0
ENDMDL
MODEL 3
REMARK VINA RESULT:    -6.359      2.032      3.282
REMARK INTER + INTRA:          -6.359
REMARK INTER:                  -6.359
REMARK INTRA:                   0.000
REMARK UNBOUND:                 0.000
REMARK SMILES O=c1ccc2ccccc2o1
REMARK SMILES IDX 7 1 8 2 9 3 10 4 5 5 6 6 4 7 3 8 2 9 1 10 11 11
REMARK H PARENT
REMARK Flexibility Score: inf
ROOT
ATOM      1  C   UNL     1     -23.171 -15.479  -7.519  1.00  0.00     0.001 A 
ATOM      2  C   UNL     1     -22.754 -14.182  -7.836  1.00  0.00     0.004 A 
ATOM      3  C   UNL     1     -22.326 -13.876  -9.132  1.00  0.00     0.048 A 
ATOM      4  C   UNL     1     -22.313 -14.869 -10.118  1.00  0.00     0.138 A 
ATOM      5  C   UNL     1     -22.734 -16.180  -9.799  1.00  0.00     0.018 A 
ATOM      6  C   UNL     1     -23.162 -16.479  -8.496  1.00  0.00     0.012 A 
ATOM      7  C   UNL     1     -22.711 -17.151 -10.804  1.00  0.00     0.019 A 
ATOM      8  C   UNL     1     -22.277 -16.801 -12.082  1.00  0.00     0.094 A 
ATOM      9  C   UNL     1     -21.874 -15.483 -12.326  1.00  0.00     0.336 A 
ATOM     10  O   UNL     1     -21.480 -15.149 -13.474  1.00  0.00    -0.246 OA
ATOM     11  O   UNL     1     -21.907 -14.578 -11.351  1.00  0.00    -0.423 OA
ENDROOT
TORSDOF 0
ENDMDL
MODEL 4
REMARK VINA RESULT:    -5.985      1.942      4.361
REMARK INTER + INTRA:          -5.985
REMARK INTER:                  -5.985
REMARK INTRA:                   0.000
REMARK UNBOUND:                 0.000
REMARK SMILES O=c1ccc2ccccc2o1
REMARK SMILES IDX 7 1 8 2 9 3 10 4 5 5 6 6 4 7 3 8 2 9 1 10 11 11
REMARK H PARENT
REMARK Flexibility Score: inf
ROOT
ATOM      1  C   UNL     1     -21.877 -14.104  -9.606  1.00  0.00     0.001 A 
ATOM      2  C   UNL     1     -20.632 -14.158  -8.972  1.00  0.00     0.004 A 
ATOM      3  C   UNL     1     -20.446 -14.977  -7.853  1.00  0.00     0.048 A 
ATOM      4  C   UNL     1     -21.508 -15.746  -7.364  1.00  0.00     0.138 A 
ATOM      5  C   UNL     1     -22.766 -15.692  -8.004  1.00  0.00     0.018 A 
ATOM      6  C   UNL     1     -22.945 -14.868  -9.126  1.00  0.00     0.012 A 
ATOM      7  C   UNL     1     -23.809 -16.471  -7.494  1.00  0.00     0.019 A 
ATOM      8  C   UNL     1     -23.578 -17.274  -6.377  1.00  0.00     0.094 A 
ATOM      9  C   UNL     1     -22.306 -17.276  -5.794  1.00  0.00     0.336 A 
ATOM     10  O   UNL     1     -22.079 -17.994  -4.785  1.00  0.00    -0.246 OA
ATOM     11  O   UNL     1     -21.331 -16.525  -6.300  1.00  0.00    -0.423 OA
ENDROOT
TORSDOF 0
ENDMDL
MODEL 5
REMARK VINA RESULT:    -5.910      2.216      3.217
REMARK INTER + INTRA:          -5.910
REMARK INTER:                  -5.910
REMARK INTRA:                   0.000
REMARK UNBOUND:                 0.000
REMARK SMILES O=c1ccc2ccccc2o1
REMARK SMILES IDX 7 1 8 2 9 3 10 4 5 5 6 6 4 7 3 8 2 9 1 10 11 11
REMARK H PARENT
REMARK Flexibility Score: inf
ROOT
ATOM      1  C   UNL     1     -22.809 -14.396  -7.763  1.00  0.00     0.001 A 
ATOM      2  C   UNL     1     -23.258 -15.709  -7.586  1.00  0.00     0.004 A 
ATOM      3  C   UNL     1     -23.265 -16.602  -8.663  1.00  0.00     0.048 A 
ATOM      4  C   UNL     1     -22.824 -16.183  -9.923  1.00  0.00     0.138 A 
ATOM      5  C   UNL     1     -22.370 -14.856 -10.102  1.00  0.00     0.018 A 
ATOM      6  C   UNL     1     -22.366 -13.966  -9.017  1.00  0.00     0.012 A 
ATOM      7  C   UNL     1     -21.935 -14.466 -11.372  1.00  0.00     0.019 A 
ATOM      8  C   UNL     1     -21.959 -15.389 -12.416  1.00  0.00     0.094 A 
ATOM      9  C   UNL     1     -22.422 -16.686 -12.165  1.00  0.00     0.336 A 
ATOM     10  O   UNL     1     -22.451 -17.533 -13.096  1.00  0.00    -0.246 OA
ATOM     11  O   UNL     1     -22.830 -17.032 -10.947  1.00  0.00    -0.423 OA
ENDROOT
TORSDOF 0
ENDMDL
MODEL 6
REMARK VINA RESULT:    -5.876      4.142      6.422
REMARK INTER + INTRA:          -5.876
REMARK INTER:                  -5.876
REMARK INTRA:                   0.000
REMARK UNBOUND:                 0.000
REMARK SMILES O=c1ccc2ccccc2o1
REMARK SMILES IDX 7 1 8 2 9 3 10 4 5 5 6 6 4 7 3 8 2 9 1 10 11 11
REMARK H PARENT
REMARK Flexibility Score: inf
ROOT
ATOM      1  C   UNL     1     -24.906 -15.746 -15.250  1.00  0.00     0.001 A 
ATOM      2  C   UNL     1     -24.769 -14.367 -15.056  1.00  0.00     0.004 A 
ATOM      3  C   UNL     1     -23.988 -13.878 -14.003  1.00  0.00     0.048 A 
ATOM      4  C   UNL     1     -23.339 -14.768 -13.140  1.00  0.00     0.138 A 
ATOM      5  C   UNL     1     -23.477 -16.161 -13.336  1.00  0.00     0.018 A 
ATOM      6  C   UNL     1     -24.263 -16.644 -14.394  1.00  0.00     0.012 A 
ATOM      7  C   UNL     1     -22.817 -17.027 -12.459  1.00  0.00     0.019 A 
ATOM      8  C   UNL     1     -22.048 -16.495 -11.424  1.00  0.00     0.094 A 
ATOM      9  C   UNL     1     -21.958 -15.105 -11.290  1.00  0.00     0.336 A 
ATOM     10  O   UNL     1     -21.268 -14.607 -10.362  1.00  0.00    -0.246 OA
ATOM     11  O   UNL     1     -22.596 -14.303 -12.140  1.00  0.00    -0.423 OA
ENDROOT
TORSDOF 0
ENDMDL
MODEL 7
REMARK VINA RESULT:    -5.858      2.093      4.357
REMARK INTER + INTRA:          -5.858
REMARK INTER:                  -5.858
REMARK INTRA:                   0.000
REMARK UNBOUND:                 0.000
REMARK SMILES O=c1ccc2ccccc2o1
REMARK SMILES IDX 7 1 8 2 9 3 10 4 5 5 6 6 4 7 3 8 2 9 1 10 11 11
REMARK H PARENT
REMARK Flexibility Score: inf
ROOT
ATOM      1  C   UNL     1     -22.170 -15.158 -12.502  1.00  0.00     0.001 A 
ATOM      2  C   UNL     1     -22.370 -16.539 -12.402  1.00  0.00     0.004 A 
ATOM      3  C   UNL     1     -22.682 -17.119 -11.168  1.00  0.00     0.048 A 
ATOM      4  C   UNL     1     -22.796 -16.316 -10.027  1.00  0.00     0.138 A 
ATOM      5  C   UNL     1     -22.594 -14.921 -10.127  1.00  0.00     0.018 A 
ATOM      6  C   UNL     1     -22.281 -14.347 -11.368  1.00  0.00     0.012 A 
ATOM      7  C   UNL     1     -22.714 -14.145  -8.970  1.00  0.00     0.019 A 
ATOM      8  C   UNL     1     -23.028 -14.765  -7.761  1.00  0.00     0.094 A 
ATOM      9  C   UNL     1     -23.214 -16.152  -7.737  1.00  0.00     0.336 A 
ATOM     10  O   UNL     1     -23.497 -16.729  -6.655  1.00  0.00    -0.246 OA
ATOM     11  O   UNL     1     -23.094 -16.867  -8.853  1.00  0.00    -0.423 OA
ENDROOT
TORSDOF 0
ENDMDL
MODEL 8
REMARK VINA RESULT:    -5.815      2.082      4.108
REMARK INTER + INTRA:          -5.815
REMARK INTER:                  -5.815
REMARK INTRA:                   0.000
REMARK UNBOUND:                 0.000
REMARK SMILES O=c1ccc2ccccc2o1
REMARK SMILES IDX 7 1 8 2 9 3 10 4 5 5 6 6 4 7 3 8 2 9 1 10 11 11
REMARK H PARENT
REMARK Flexibility Score: inf
ROOT
ATOM      1  C   UNL     1     -22.756 -16.918 -11.884  1.00  0.00     0.001 A 
ATOM      2  C   UNL     1     -22.002 -15.762 -12.112  1.00  0.00     0.004 A 
ATOM      3  C   UNL     1     -21.668 -14.917 -11.048  1.00  0.00     0.048 A 
ATOM      4  C   UNL     1     -22.088 -15.227  -9.750  1.00  0.00     0.138 A 
ATOM      5  C   UNL     1     -22.850 -16.395  -9.519  1.00  0.00     0.018 A 
ATOM      6  C   UNL     1     -23.182 -17.237 -10.591  1.00  0.00     0.012 A 
ATOM      7  C   UNL     1     -23.256 -16.680  -8.212  1.00  0.00     0.019 A 
ATOM      8  C   UNL     1     -22.899 -15.810  -7.181  1.00  0.00     0.094 A 
ATOM      9  C   UNL     1     -22.143 -14.672  -7.484  1.00  0.00     0.336 A 
ATOM     10  O   UNL     1     -21.812 -13.876  -6.567  1.00  0.00    -0.246 OA
ATOM     11  O   UNL     1     -21.770 -14.425  -8.737  1.00  0.00    -0.423 OA
ENDROOT
TORSDOF 0
ENDMDL
MODEL 9
REMARK VINA RESULT:    -5.774      2.101      3.474
REMARK INTER + INTRA:          -5.774
REMARK INTER:                  -5.774
REMARK INTRA:                   0.000
REMARK UNBOUND:                 0.000
REMARK SMILES O=c1ccc2ccccc2o1
REMARK SMILES IDX 7 1 8 2 9 3 10 4 5 5 6 6 4 7 3 8 2 9 1 10 11 11
REMARK H PARENT
REMARK Flexibility Score: inf
ROOT
ATOM      1  C   UNL     1     -21.095 -14.160  -8.174  1.00  0.00     0.001 A 
ATOM      2  C   UNL     1     -21.931 -14.462  -7.093  1.00  0.00     0.004 A 
ATOM      3  C   UNL     1     -22.898 -15.466  -7.210  1.00  0.00     0.048 A 
ATOM      4  C   UNL     1     -23.032 -16.173  -8.410  1.00  0.00     0.138 A 
ATOM      5  C   UNL     1     -22.187 -15.869  -9.502  1.00  0.00     0.018 A 
ATOM      6  C   UNL     1     -21.220 -14.859  -9.377  1.00  0.00     0.012 A 
ATOM      7  C   UNL     1     -22.344 -16.592 -10.688  1.00  0.00     0.019 A 
ATOM      8  C   UNL     1     -23.320 -17.585 -10.759  1.00  0.00     0.094 A 
ATOM      9  C   UNL     1     -24.121 -17.832  -9.638  1.00  0.00     0.336 A 
ATOM     10  O   UNL     1     -25.007 -18.724  -9.684  1.00  0.00    -0.246 OA
ATOM     11  O   UNL     1     -23.950 -17.129  -8.521  1.00  0.00    -0.423 OA
ENDROOT
TORSDOF 0
ENDMDL
