MODEL 1
REMARK VINA RESULT:    -5.347      0.000      0.000
REMARK INTER + INTRA:          -6.009
REMARK INTER:                  -5.816
REMARK INTRA:                  -0.193
REMARK UNBOUND:                -0.193
REMARK SMILES C=C(C)[C@H]1CC[C@H](C)C[C@H]1O
REMARK SMILES IDX 8 1 7 2 6 3 5 4 4 5 10 6 9 7 11 8 2 10 1 11 3 12
REMARK H PARENT 11 9
REMARK Flexibility Score: inf
ROOT
ATOM      1  C   UNL     1     136.172 124.156 144.193  1.00  0.00     0.008 C 
ATOM      2  C   UNL     1     136.380 124.191 142.675  1.00  0.00    -0.012 C 
ATOM      3  C   UNL     1     137.259 123.009 142.223  1.00  0.00     0.004 C 
ATOM      4  C   UNL     1     137.452 123.013 140.701  1.00  0.00     0.011 C 
ATOM      5  C   UNL     1     136.090 122.990 139.977  1.00  0.00     0.043 C 
ATOM      6  C   UNL     1     135.200 124.179 140.414  1.00  0.00     0.121 C 
ATOM      7  C   UNL     1     135.021 124.172 141.944  1.00  0.00     0.035 C 
ENDROOT
BRANCH   6   8
ATOM      8  O   UNL     1     135.764 125.399 140.005  1.00  0.00    -0.392 OA
ATOM      9  H   UNL     1     136.729 125.229 139.841  1.00  0.00     0.210 HD
ENDBRANCH   6   8
BRANCH   5  10
ATOM     10  C   UNL     1     136.242 122.910 138.461  1.00  0.00    -0.075 C 
ATOM     11  C   UNL     1     137.439 123.046 137.861  1.00  0.00     0.008 C 
ATOM     12  C   UNL     1     135.033 122.667 137.594  1.00  0.00     0.039 C 
ENDBRANCH   5  10
TORSDOF 2
ENDMDL
MODEL 2
REMARK VINA RESULT:    -5.151      1.764      4.682
REMARK INTER + INTRA:          -5.795
REMARK INTER:                  -5.605
REMARK INTRA:                  -0.190
REMARK UNBOUND:                -0.193
REMARK SMILES C=C(C)[C@H]1CC[C@H](C)C[C@H]1O
REMARK SMILES IDX 8 1 7 2 6 3 5 4 4 5 10 6 9 7 11 8 2 10 1 11 3 12
REMARK H PARENT 11 9
REMARK Flexibility Score: inf
ROOT
ATOM      1  C   UNL     1     135.370 122.437 139.308  1.00  0.00     0.008 C 
ATOM      2  C   UNL     1     135.398 122.820 140.792  1.00  0.00    -0.012 C 
ATOM      3  C   UNL     1     136.852 122.977 141.282  1.00  0.00     0.004 C 
ATOM      4  C   UNL     1     136.897 123.390 142.758  1.00  0.00     0.011 C 
ATOM      5  C   UNL     1     136.100 124.691 142.987  1.00  0.00     0.043 C 
ATOM      6  C   UNL     1     134.635 124.544 142.510  1.00  0.00     0.121 C 
ATOM      7  C   UNL     1     134.599 124.119 141.029  1.00  0.00     0.035 C 
ENDROOT
BRANCH   6   8
ATOM      8  O   UNL     1     133.948 123.601 143.294  1.00  0.00    -0.392 OA
ATOM      9  H   UNL     1     133.252 124.098 143.797  1.00  0.00     0.210 HD
ENDBRANCH   6   8
BRANCH   5  10
ATOM     10  C   UNL     1     136.190 125.178 144.430  1.00  0.00    -0.075 C 
ATOM     11  C   UNL     1     136.924 124.529 145.352  1.00  0.00     0.008 C 
ATOM     12  C   UNL     1     135.451 126.422 144.853  1.00  0.00     0.039 C 
ENDBRANCH   5  10
TORSDOF 2
ENDMDL
MODEL 3
REMARK VINA RESULT:    -5.094      1.383      2.246
REMARK INTER + INTRA:          -5.733
REMARK INTER:                  -5.555
REMARK INTRA:                  -0.178
REMARK UNBOUND:                -0.193
REMARK SMILES C=C(C)[C@H]1CC[C@H](C)C[C@H]1O
REMARK SMILES IDX 8 1 7 2 6 3 5 4 4 5 10 6 9 7 11 8 2 10 1 11 3 12
REMARK H PARENT 11 9
REMARK Flexibility Score: inf
ROOT
ATOM      1  C   UNL     1     135.750 124.503 144.285  1.00  0.00     0.008 C 
ATOM      2  C   UNL     1     135.487 124.017 142.856  1.00  0.00    -0.012 C 
ATOM      3  C   UNL     1     135.017 125.185 141.966  1.00  0.00     0.004 C 
ATOM      4  C   UNL     1     134.777 124.720 140.524  1.00  0.00     0.011 C 
ATOM      5  C   UNL     1     136.048 124.066 139.942  1.00  0.00     0.043 C 
ATOM      6  C   UNL     1     136.525 122.884 140.820  1.00  0.00     0.121 C 
ATOM      7  C   UNL     1     136.752 123.358 142.269  1.00  0.00     0.035 C 
ENDROOT
BRANCH   6   8
ATOM      8  O   UNL     1     135.585 121.840 140.801  1.00  0.00    -0.392 OA
ATOM      9  H   UNL     1     135.816 121.259 140.030  1.00  0.00     0.210 HD
ENDBRANCH   6   8
BRANCH   5  10
ATOM     10  C   UNL     1     135.874 123.665 138.480  1.00  0.00    -0.075 C 
ATOM     11  C   UNL     1     134.766 123.982 137.786  1.00  0.00     0.008 C 
ATOM     12  C   UNL     1     136.964 122.899 137.774  1.00  0.00     0.039 C 
ENDBRANCH   5  10
TORSDOF 2
ENDMDL
MODEL 4
REMARK VINA RESULT:    -5.045      1.585      4.222
REMARK INTER + INTRA:          -5.680
REMARK INTER:                  -5.780
REMARK INTRA:                   0.099
REMARK UNBOUND:                -0.193
REMARK SMILES C=C(C)[C@H]1CC[C@H](C)C[C@H]1O
REMARK SMILES IDX 8 1 7 2 6 3 5 4 4 5 10 6 9 7 11 8 2 10 1 11 3 12
REMARK H PARENT 11 9
REMARK Flexibility Score: inf
ROOT
ATOM      1  C   UNL     1     137.233 122.764 137.094  1.00  0.00     0.008 C 
ATOM      2  C   UNL     1     136.696 122.627 138.524  1.00  0.00    -0.012 C 
ATOM      3  C   UNL     1     137.517 123.500 139.494  1.00  0.00     0.004 C 
ATOM      4  C   UNL     1     136.974 123.398 140.925  1.00  0.00     0.011 C 
ATOM      5  C   UNL     1     135.480 123.784 140.972  1.00  0.00     0.043 C 
ATOM      6  C   UNL     1     134.642 122.908 140.010  1.00  0.00     0.121 C 
ATOM      7  C   UNL     1     135.202 123.008 138.578  1.00  0.00     0.035 C 
ENDROOT
BRANCH   6   8
ATOM      8  O   UNL     1     134.644 121.567 140.430  1.00  0.00    -0.392 OA
ATOM      9  H   UNL     1     133.695 121.304 140.555  1.00  0.00     0.210 HD
ENDBRANCH   6   8
BRANCH   5  10
ATOM     10  C   UNL     1     134.925 123.774 142.393  1.00  0.00    -0.075 C 
ATOM     11  C   UNL     1     135.672 124.147 143.448  1.00  0.00     0.008 C 
ATOM     12  C   UNL     1     133.502 123.344 142.643  1.00  0.00     0.039 C 
ENDBRANCH   5  10
TORSDOF 2
ENDMDL
MODEL 5
REMARK VINA RESULT:    -4.827      1.360      2.263
REMARK INTER + INTRA:          -5.443
REMARK INTER:                  -5.348
REMARK INTRA:                  -0.095
REMARK UNBOUND:                -0.193
REMARK SMILES C=C(C)[C@H]1CC[C@H](C)C[C@H]1O
REMARK SMILES IDX 8 1 7 2 6 3 5 4 4 5 10 6 9 7 11 8 2 10 1 11 3 12
REMARK H PARENT 11 9
REMARK Flexibility Score: inf
ROOT
ATOM      1  C   UNL     1     132.838 123.711 142.260  1.00  0.00     0.008 C 
ATOM      2  C   UNL     1     134.232 123.960 141.672  1.00  0.00    -0.012 C 
ATOM      3  C   UNL     1     135.271 123.035 142.338  1.00  0.00     0.004 C 
ATOM      4  C   UNL     1     136.667 123.251 141.739  1.00  0.00     0.011 C 
ATOM      5  C   UNL     1     136.646 123.039 140.211  1.00  0.00     0.043 C 
ATOM      6  C   UNL     1     135.614 123.970 139.529  1.00  0.00     0.121 C 
ATOM      7  C   UNL     1     134.218 123.754 140.143  1.00  0.00     0.035 C 
ENDROOT
BRANCH   6   8
ATOM      8  O   UNL     1     135.992 125.317 139.665  1.00  0.00    -0.392 OA
ATOM      9  H   UNL     1     136.647 125.505 138.943  1.00  0.00     0.210 HD
ENDBRANCH   6   8
BRANCH   5  10
ATOM     10  C   UNL     1     138.034 123.165 139.591  1.00  0.00    -0.075 C 
ATOM     11  C   UNL     1     139.152 123.069 140.332  1.00  0.00     0.008 C 
ATOM     12  C   UNL     1     138.179 123.396 138.108  1.00  0.00     0.039 C 
ENDBRANCH   5  10
TORSDOF 2
ENDMDL
MODEL 6
REMARK VINA RESULT:    -4.826      1.872      4.490
REMARK INTER + INTRA:          -5.441
REMARK INTER:                  -5.252
REMARK INTRA:                  -0.189
REMARK UNBOUND:                -0.193
REMARK SMILES C=C(C)[C@H]1CC[C@H](C)C[C@H]1O
REMARK SMILES IDX 8 1 7 2 6 3 5 4 4 5 10 6 9 7 11 8 2 10 1 11 3 12
REMARK H PARENT 11 9
REMARK Flexibility Score: inf
ROOT
ATOM      1  C   UNL     1     136.959 122.652 137.010  1.00  0.00     0.008 C 
ATOM      2  C   UNL     1     136.620 123.042 138.453  1.00  0.00    -0.012 C 
ATOM      3  C   UNL     1     135.933 124.421 138.493  1.00  0.00     0.004 C 
ATOM      4  C   UNL     1     135.561 124.813 139.928  1.00  0.00     0.011 C 
ATOM      5  C   UNL     1     134.663 123.736 140.573  1.00  0.00     0.043 C 
ATOM      6  C   UNL     1     135.345 122.347 140.550  1.00  0.00     0.121 C 
ATOM      7  C   UNL     1     135.725 121.967 139.106  1.00  0.00     0.035 C 
ENDROOT
BRANCH   6   8
ATOM      8  O   UNL     1     136.492 122.342 141.362  1.00  0.00    -0.392 OA
ATOM      9  H   UNL     1     136.182 122.199 142.295  1.00  0.00     0.210 HD
ENDBRANCH   6   8
BRANCH   5  10
ATOM     10  C   UNL     1     134.204 124.130 141.974  1.00  0.00    -0.075 C 
ATOM     11  C   UNL     1     133.172 123.515 142.580  1.00  0.00     0.008 C 
ATOM     12  C   UNL     1     134.917 125.229 142.719  1.00  0.00     0.039 C 
ENDBRANCH   5  10
TORSDOF 2
ENDMDL
MODEL 7
REMARK VINA RESULT:    -4.774      1.773      2.733
REMARK INTER + INTRA:          -5.385
REMARK INTER:                  -5.668
REMARK INTRA:                   0.283
REMARK UNBOUND:                -0.193
REMARK SMILES C=C(C)[C@H]1CC[C@H](C)C[C@H]1O
REMARK SMILES IDX 8 1 7 2 6 3 5 4 4 5 10 6 9 7 11 8 2 10 1 11 3 12
REMARK H PARENT 11 9
REMARK Flexibility Score: inf
ROOT
ATOM      1  C   UNL     1     133.136 123.365 142.628  1.00  0.00     0.008 C 
ATOM      2  C   UNL     1     134.430 122.949 141.918  1.00  0.00    -0.012 C 
ATOM      3  C   UNL     1     134.289 123.126 140.393  1.00  0.00     0.004 C 
ATOM      4  C   UNL     1     135.587 122.742 139.669  1.00  0.00     0.011 C 
ATOM      5  C   UNL     1     136.777 123.563 140.209  1.00  0.00     0.043 C 
ATOM      6  C   UNL     1     136.936 123.384 141.738  1.00  0.00     0.121 C 
ATOM      7  C   UNL     1     135.626 123.763 142.455  1.00  0.00     0.035 C 
ENDROOT
BRANCH   6   8
ATOM      8  O   UNL     1     137.287 122.060 142.051  1.00  0.00    -0.392 OA
ATOM      9  H   UNL     1     137.830 122.096 142.881  1.00  0.00     0.210 HD
ENDBRANCH   6   8
BRANCH   5  10
ATOM     10  C   UNL     1     138.071 123.266 139.456  1.00  0.00    -0.075 C 
ATOM     11  C   UNL     1     139.219 122.993 140.101  1.00  0.00     0.008 C 
ATOM     12  C   UNL     1     138.082 123.268 137.948  1.00  0.00     0.039 C 
ENDBRANCH   5  10
TORSDOF 2
ENDMDL
MODEL 8
REMARK VINA RESULT:    -4.659      1.184      4.333
REMARK INTER + INTRA:          -5.260
REMARK INTER:                  -5.124
REMARK INTRA:                  -0.136
REMARK UNBOUND:                -0.193
REMARK SMILES C=C(C)[C@H]1CC[C@H](C)C[C@H]1O
REMARK SMILES IDX 8 1 7 2 6 3 5 4 4 5 10 6 9 7 11 8 2 10 1 11 3 12
REMARK H PARENT 11 9
REMARK Flexibility Score: inf
ROOT
ATOM      1  C   UNL     1     137.245 122.629 137.006  1.00  0.00     0.008 C 
ATOM      2  C   UNL     1     136.428 123.145 138.196  1.00  0.00    -0.012 C 
ATOM      3  C   UNL     1     135.503 122.036 138.736  1.00  0.00     0.004 C 
ATOM      4  C   UNL     1     134.698 122.528 139.947  1.00  0.00     0.011 C 
ATOM      5  C   UNL     1     135.640 123.042 141.056  1.00  0.00     0.043 C 
ATOM      6  C   UNL     1     136.568 124.164 140.530  1.00  0.00     0.121 C 
ATOM      7  C   UNL     1     137.363 123.665 139.308  1.00  0.00     0.035 C 
ENDROOT
BRANCH   6   8
ATOM      8  O   UNL     1     135.823 125.304 140.181  1.00  0.00    -0.392 OA
ATOM      9  H   UNL     1     136.075 125.538 139.250  1.00  0.00     0.210 HD
ENDBRANCH   6   8
BRANCH   5  10
ATOM     10  C   UNL     1     134.879 123.464 142.310  1.00  0.00    -0.075 C 
ATOM     11  C   UNL     1     133.588 123.137 142.498  1.00  0.00     0.008 C 
ATOM     12  C   UNL     1     135.577 124.262 143.381  1.00  0.00     0.039 C 
ENDBRANCH   5  10
TORSDOF 2
ENDMDL
MODEL 9
REMARK VINA RESULT:    -4.655      1.011      1.584
REMARK INTER + INTRA:          -5.256
REMARK INTER:                  -5.065
REMARK INTRA:                  -0.191
REMARK UNBOUND:                -0.193
REMARK SMILES C=C(C)[C@H]1CC[C@H](C)C[C@H]1O
REMARK SMILES IDX 8 1 7 2 6 3 5 4 4 5 10 6 9 7 11 8 2 10 1 11 3 12
REMARK H PARENT 11 9
REMARK Flexibility Score: inf
ROOT
ATOM      1  C   UNL     1     135.901 124.897 145.182  1.00  0.00     0.008 C 
ATOM      2  C   UNL     1     136.165 124.774 143.677  1.00  0.00    -0.012 C 
ATOM      3  C   UNL     1     137.256 123.720 143.405  1.00  0.00     0.004 C 
ATOM      4  C   UNL     1     137.511 123.563 141.900  1.00  0.00     0.011 C 
ATOM      5  C   UNL     1     136.206 123.203 141.160  1.00  0.00     0.043 C 
ATOM      6  C   UNL     1     135.104 124.260 141.416  1.00  0.00     0.121 C 
ATOM      7  C   UNL     1     134.863 124.418 142.929  1.00  0.00     0.035 C 
ENDROOT
BRANCH   6   8
ATOM      8  O   UNL     1     135.463 125.498 140.857  1.00  0.00    -0.392 OA
ATOM      9  H   UNL     1     136.096 125.307 140.117  1.00  0.00     0.210 HD
ENDBRANCH   6   8
BRANCH   5  10
ATOM     10  C   UNL     1     136.435 122.958 139.671  1.00  0.00    -0.075 C 
ATOM     11  C   UNL     1     135.508 122.362 138.900  1.00  0.00     0.008 C 
ATOM     12  C   UNL     1     137.726 123.395 139.026  1.00  0.00     0.039 C 
ENDBRANCH   5  10
TORSDOF 2
ENDMDL
