MODEL 1
REMARK VINA RESULT:    -4.908      0.000      0.000
REMARK INTER + INTRA:          -5.587
REMARK INTER:                  -5.339
REMARK INTRA:                  -0.249
REMARK UNBOUND:                -0.249
REMARK SMILES O=C([O-])c1ccccc1O
REMARK SMILES IDX 4 1 9 2 5 3 8 4 6 5 7 6 2 7 1 8 3 9 10 10
REMARK H PARENT 10 11
REMARK Flexibility Score: inf
ROOT
ATOM      1  C   UNL     1       3.544  37.934   4.403  1.00  0.00     0.039 A 
ATOM      2  C   UNL     1       2.766  37.193   5.328  1.00  0.00     0.124 A 
ATOM      3  C   UNL     1       4.254  37.242   3.404  1.00  0.00     0.014 A 
ATOM      4  C   UNL     1       2.666  35.801   5.194  1.00  0.00     0.047 A 
ATOM      5  C   UNL     1       4.163  35.852   3.297  1.00  0.00     0.001 A 
ATOM      6  C   UNL     1       3.362  35.134   4.185  1.00  0.00     0.004 A 
ENDROOT
BRANCH   1   7
ATOM      7  C   UNL     1       3.609  39.412   4.424  1.00  0.00     0.075 C 
ATOM      8  O   UNL     1       3.350  40.070   3.382  1.00  0.00    -0.545 OA
ATOM      9  O   UNL     1       3.885  40.095   5.602  1.00  0.00    -0.545 OA
ENDBRANCH   1   7
BRANCH   2  10
ATOM     10  O   UNL     1       2.109  37.790   6.407  1.00  0.00    -0.507 OA
ATOM     11  H   UNL     1       1.715  38.720   6.371  1.00  0.00     0.293 HD
ENDBRANCH   2  10
TORSDOF 2
ENDMDL
MODEL 2
REMARK VINA RESULT:    -4.833     12.371     13.547
REMARK INTER + INTRA:          -5.506
REMARK INTER:                  -5.263
REMARK INTRA:                  -0.243
REMARK UNBOUND:                -0.249
REMARK SMILES O=C([O-])c1ccccc1O
REMARK SMILES IDX 4 1 9 2 5 3 8 4 6 5 7 6 2 7 1 8 3 9 10 10
REMARK H PARENT 10 11
REMARK Flexibility Score: inf
ROOT
ATOM      1  C   UNL     1      10.227  27.732  -0.664  1.00  0.00     0.039 A 
ATOM      2  C   UNL     1       9.615  27.397  -1.899  1.00  0.00     0.124 A 
ATOM      3  C   UNL     1       9.482  28.451   0.290  1.00  0.00     0.014 A 
ATOM      4  C   UNL     1       8.273  27.729  -2.122  1.00  0.00     0.047 A 
ATOM      5  C   UNL     1       8.150  28.795   0.044  1.00  0.00     0.001 A 
ATOM      6  C   UNL     1       7.544  28.425  -1.156  1.00  0.00     0.004 A 
ENDROOT
BRANCH   1   7
ATOM      7  C   UNL     1      11.606  27.320  -0.323  1.00  0.00     0.075 C 
ATOM      8  O   UNL     1      12.500  27.312  -1.211  1.00  0.00    -0.545 OA
ATOM      9  O   UNL     1      11.952  27.005   0.985  1.00  0.00    -0.545 OA
ENDBRANCH   1   7
BRANCH   2  10
ATOM     10  O   UNL     1      10.310  26.771  -2.936  1.00  0.00    -0.507 OA
ATOM     11  H   UNL     1      11.003  26.049  -2.786  1.00  0.00     0.293 HD
ENDBRANCH   2  10
TORSDOF 2
ENDMDL
MODEL 3
REMARK VINA RESULT:    -4.766     11.249     12.408
REMARK INTER + INTRA:          -5.432
REMARK INTER:                  -5.187
REMARK INTRA:                  -0.245
REMARK UNBOUND:                -0.249
REMARK SMILES O=C([O-])c1ccccc1O
REMARK SMILES IDX 4 1 9 2 5 3 8 4 6 5 7 6 2 7 1 8 3 9 10 10
REMARK H PARENT 10 11
REMARK Flexibility Score: inf
ROOT
ATOM      1  C   UNL     1       8.167  28.014  -0.928  1.00  0.00     0.039 A 
ATOM      2  C   UNL     1       6.787  27.790  -1.164  1.00  0.00     0.124 A 
ATOM      3  C   UNL     1       8.546  28.969   0.034  1.00  0.00     0.014 A 
ATOM      4  C   UNL     1       5.831  28.471  -0.398  1.00  0.00     0.047 A 
ATOM      5  C   UNL     1       7.581  29.657   0.775  1.00  0.00     0.001 A 
ATOM      6  C   UNL     1       6.226  29.401   0.566  1.00  0.00     0.004 A 
ENDROOT
BRANCH   1   7
ATOM      7  C   UNL     1       9.226  27.254  -1.628  1.00  0.00     0.075 C 
ATOM      8  O   UNL     1      10.276  26.923  -1.015  1.00  0.00    -0.545 OA
ATOM      9  O   UNL     1       9.052  26.836  -2.941  1.00  0.00    -0.545 OA
ENDBRANCH   1   7
BRANCH   2  10
ATOM     10  O   UNL     1       6.325  26.933  -2.165  1.00  0.00    -0.507 OA
ATOM     11  H   UNL     1       5.365  26.918  -2.486  1.00  0.00     0.293 HD
ENDBRANCH   2  10
TORSDOF 2
ENDMDL
MODEL 4
REMARK VINA RESULT:    -4.741     10.640     11.876
REMARK INTER + INTRA:          -5.406
REMARK INTER:                  -5.166
REMARK INTRA:                  -0.240
REMARK UNBOUND:                -0.249
REMARK SMILES O=C([O-])c1ccccc1O
REMARK SMILES IDX 4 1 9 2 5 3 8 4 6 5 7 6 2 7 1 8 3 9 10 10
REMARK H PARENT 10 11
REMARK Flexibility Score: inf
ROOT
ATOM      1  C   UNL     1       7.848  28.581  -0.280  1.00  0.00     0.039 A 
ATOM      2  C   UNL     1       7.981  27.666  -1.355  1.00  0.00     0.124 A 
ATOM      3  C   UNL     1       8.981  28.886   0.497  1.00  0.00     0.014 A 
ATOM      4  C   UNL     1       9.241  27.134  -1.663  1.00  0.00     0.047 A 
ATOM      5  C   UNL     1      10.226  28.331   0.192  1.00  0.00     0.001 A 
ATOM      6  C   UNL     1      10.357  27.464  -0.893  1.00  0.00     0.004 A 
ENDROOT
BRANCH   1   7
ATOM      7  C   UNL     1       6.570  29.257   0.033  1.00  0.00     0.075 C 
ATOM      8  O   UNL     1       6.572  30.429   0.495  1.00  0.00    -0.545 OA
ATOM      9  O   UNL     1       5.354  28.642  -0.239  1.00  0.00    -0.545 OA
ENDBRANCH   1   7
BRANCH   2  10
ATOM     10  O   UNL     1       6.892  27.234  -2.115  1.00  0.00    -0.507 OA
ATOM     11  H   UNL     1       6.304  27.859  -2.650  1.00  0.00     0.293 HD
ENDBRANCH   2  10
TORSDOF 2
ENDMDL
MODEL 5
REMARK VINA RESULT:    -4.731      2.470      3.723
REMARK INTER + INTRA:          -5.394
REMARK INTER:                  -5.152
REMARK INTRA:                  -0.242
REMARK UNBOUND:                -0.249
REMARK SMILES O=C([O-])c1ccccc1O
REMARK SMILES IDX 4 1 9 2 5 3 8 4 6 5 7 6 2 7 1 8 3 9 10 10
REMARK H PARENT 10 11
REMARK Flexibility Score: inf
ROOT
ATOM      1  C   UNL     1       3.535  36.038   4.136  1.00  0.00     0.039 A 
ATOM      2  C   UNL     1       2.683  36.546   5.150  1.00  0.00     0.124 A 
ATOM      3  C   UNL     1       4.274  36.945   3.352  1.00  0.00     0.014 A 
ATOM      4  C   UNL     1       2.641  37.924   5.396  1.00  0.00     0.047 A 
ATOM      5  C   UNL     1       4.203  38.319   3.595  1.00  0.00     0.001 A 
ATOM      6  C   UNL     1       3.396  38.807   4.622  1.00  0.00     0.004 A 
ENDROOT
BRANCH   1   7
ATOM      7  C   UNL     1       3.706  34.589   3.894  1.00  0.00     0.075 C 
ATOM      8  O   UNL     1       2.722  33.810   4.007  1.00  0.00    -0.545 OA
ATOM      9  O   UNL     1       4.927  34.077   3.474  1.00  0.00    -0.545 OA
ENDBRANCH   1   7
BRANCH   2  10
ATOM     10  O   UNL     1       1.844  35.725   5.907  1.00  0.00    -0.507 OA
ATOM     11  H   UNL     1       1.129  35.136   5.502  1.00  0.00     0.293 HD
ENDBRANCH   2  10
TORSDOF 2
ENDMDL
MODEL 6
REMARK VINA RESULT:    -4.623      6.297      7.340
REMARK INTER + INTRA:          -5.277
REMARK INTER:                  -5.025
REMARK INTRA:                  -0.252
REMARK UNBOUND:                -0.249
REMARK SMILES O=C([O-])c1ccccc1O
REMARK SMILES IDX 4 1 9 2 5 3 8 4 6 5 7 6 2 7 1 8 3 9 10 10
REMARK H PARENT 10 11
REMARK Flexibility Score: inf
ROOT
ATOM      1  C   UNL     1       0.075  31.591   4.101  1.00  0.00     0.039 A 
ATOM      2  C   UNL     1      -0.968  32.418   3.612  1.00  0.00     0.124 A 
ATOM      3  C   UNL     1       0.495  30.496   3.323  1.00  0.00     0.014 A 
ATOM      4  C   UNL     1      -1.515  32.171   2.346  1.00  0.00     0.047 A 
ATOM      5  C   UNL     1      -0.076  30.249   2.072  1.00  0.00     0.001 A 
ATOM      6  C   UNL     1      -1.072  31.091   1.580  1.00  0.00     0.004 A 
ENDROOT
BRANCH   1   7
ATOM      7  C   UNL     1       0.766  31.858   5.381  1.00  0.00     0.075 C 
ATOM      8  O   UNL     1       1.119  30.901   6.120  1.00  0.00    -0.545 OA
ATOM      9  O   UNL     1       1.096  33.155   5.754  1.00  0.00    -0.545 OA
ENDBRANCH   1   7
BRANCH   2  10
ATOM     10  O   UNL     1      -1.510  33.466   4.360  1.00  0.00    -0.507 OA
ATOM     11  H   UNL     1      -0.963  34.049   4.979  1.00  0.00     0.293 HD
ENDBRANCH   2  10
TORSDOF 2
ENDMDL
MODEL 7
REMARK VINA RESULT:    -4.598      9.812     11.023
REMARK INTER + INTRA:          -5.250
REMARK INTER:                  -5.002
REMARK INTRA:                  -0.248
REMARK UNBOUND:                -0.249
REMARK SMILES O=C([O-])c1ccccc1O
REMARK SMILES IDX 4 1 9 2 5 3 8 4 6 5 7 6 2 7 1 8 3 9 10 10
REMARK H PARENT 10 11
REMARK Flexibility Score: inf
ROOT
ATOM      1  C   UNL     1       7.948  29.148   0.279  1.00  0.00     0.039 A 
ATOM      2  C   UNL     1       7.214  28.646  -0.826  1.00  0.00     0.124 A 
ATOM      3  C   UNL     1       9.283  28.736   0.452  1.00  0.00     0.014 A 
ATOM      4  C   UNL     1       7.844  27.806  -1.754  1.00  0.00     0.047 A 
ATOM      5  C   UNL     1       9.890  27.881  -0.470  1.00  0.00     0.001 A 
ATOM      6  C   UNL     1       9.175  27.424  -1.576  1.00  0.00     0.004 A 
ENDROOT
BRANCH   1   7
ATOM      7  C   UNL     1       7.375  30.119   1.238  1.00  0.00     0.075 C 
ATOM      8  O   UNL     1       7.611  30.004   2.470  1.00  0.00    -0.545 OA
ATOM      9  O   UNL     1       6.632  31.204   0.792  1.00  0.00    -0.545 OA
ENDBRANCH   1   7
BRANCH   2  10
ATOM     10  O   UNL     1       5.859  28.926  -1.018  1.00  0.00    -0.507 OA
ATOM     11  H   UNL     1       5.144  28.211  -1.060  1.00  0.00     0.293 HD
ENDBRANCH   2  10
TORSDOF 2
ENDMDL
MODEL 8
REMARK VINA RESULT:    -4.595     10.141     11.440
REMARK INTER + INTRA:          -5.246
REMARK INTER:                  -5.018
REMARK INTRA:                  -0.228
REMARK UNBOUND:                -0.249
REMARK SMILES O=C([O-])c1ccccc1O
REMARK SMILES IDX 4 1 9 2 5 3 8 4 6 5 7 6 2 7 1 8 3 9 10 10
REMARK H PARENT 10 11
REMARK Flexibility Score: inf
ROOT
ATOM      1  C   UNL     1       6.286  28.523  -0.310  1.00  0.00     0.039 A 
ATOM      2  C   UNL     1       6.838  27.674  -1.304  1.00  0.00     0.124 A 
ATOM      3  C   UNL     1       7.157  29.236   0.535  1.00  0.00     0.014 A 
ATOM      4  C   UNL     1       8.228  27.610  -1.468  1.00  0.00     0.047 A 
ATOM      5  C   UNL     1       8.542  29.144   0.373  1.00  0.00     0.001 A 
ATOM      6  C   UNL     1       9.076  28.340  -0.634  1.00  0.00     0.004 A 
ENDROOT
BRANCH   1   7
ATOM      7  C   UNL     1       4.828  28.717  -0.152  1.00  0.00     0.075 C 
ATOM      8  O   UNL     1       4.052  28.483  -1.117  1.00  0.00    -0.545 OA
ATOM      9  O   UNL     1       4.289  29.091   1.072  1.00  0.00    -0.545 OA
ENDBRANCH   1   7
BRANCH   2  10
ATOM     10  O   UNL     1       6.049  26.859  -2.119  1.00  0.00    -0.507 OA
ATOM     11  H   UNL     1       5.750  25.930  -1.853  1.00  0.00     0.293 HD
ENDBRANCH   2  10
TORSDOF 2
ENDMDL
MODEL 9
REMARK VINA RESULT:    -4.547      3.184      4.056
REMARK INTER + INTRA:          -5.195
REMARK INTER:                  -4.946
REMARK INTRA:                  -0.249
REMARK UNBOUND:                -0.249
REMARK SMILES O=C([O-])c1ccccc1O
REMARK SMILES IDX 4 1 9 2 5 3 8 4 6 5 7 6 2 7 1 8 3 9 10 10
REMARK H PARENT 10 11
REMARK Flexibility Score: inf
ROOT
ATOM      1  C   UNL     1       4.144  35.547   3.537  1.00  0.00     0.039 A 
ATOM      2  C   UNL     1       3.331  35.007   4.567  1.00  0.00     0.124 A 
ATOM      3  C   UNL     1       4.200  36.944   3.379  1.00  0.00     0.014 A 
ATOM      4  C   UNL     1       2.655  35.867   5.441  1.00  0.00     0.047 A 
ATOM      5  C   UNL     1       3.502  37.789   4.245  1.00  0.00     0.001 A 
ATOM      6  C   UNL     1       2.739  37.251   5.281  1.00  0.00     0.004 A 
ENDROOT
BRANCH   1   7
ATOM      7  C   UNL     1       4.964  34.698   2.646  1.00  0.00     0.075 C 
ATOM      8  O   UNL     1       5.656  33.761   3.126  1.00  0.00    -0.545 OA
ATOM      9  O   UNL     1       4.934  34.875   1.268  1.00  0.00    -0.545 OA
ENDBRANCH   1   7
BRANCH   2  10
ATOM     10  O   UNL     1       3.142  33.633   4.732  1.00  0.00    -0.507 OA
ATOM     11  H   UNL     1       2.526  33.236   5.430  1.00  0.00     0.293 HD
ENDBRANCH   2  10
TORSDOF 2
ENDMDL
