MODEL 1
REMARK VINA RESULT:    -4.140      0.000      0.000
REMARK INTER + INTRA:          -6.882
REMARK INTER:                  -6.318
REMARK INTRA:                  -0.563
REMARK UNBOUND:                -0.563
REMARK SMILES O=C([O-])CCCCCCCCC(=O)[O-]
REMARK SMILES IDX 7 1 6 2 5 3 4 4 2 5 1 6 3 7 8 8 9 9 10 10 11 11 12 12 13 13
REMARK SMILES IDX 14 14
REMARK H PARENT
REMARK Flexibility Score: inf
ROOT
ATOM      1  C   UNL     1      48.170   5.874  21.884  1.00  0.00     0.000 C 
ENDROOT
BRANCH   1   2
ATOM      2  C   UNL     1      47.523   7.073  21.170  1.00  0.00     0.000 C 
BRANCH   2   3
ATOM      3  C   UNL     1      48.562   8.055  20.607  1.00  0.00     0.006 C 
BRANCH   3   4
ATOM      4  C   UNL     1      49.992   7.502  20.666  1.00  0.00     0.053 C 
BRANCH   4   5
ATOM      5  C   UNL     1      50.775   7.951  19.471  1.00  0.00     0.041 C 
ATOM      6  O   UNL     1      50.675   9.136  19.058  1.00  0.00    -0.550 OA
ATOM      7  O   UNL     1      51.653   7.075  18.848  1.00  0.00    -0.550 OA
ENDBRANCH   4   5
ENDBRANCH   3   4
ENDBRANCH   2   3
ENDBRANCH   1   2
BRANCH   1   8
ATOM      8  C   UNL     1      47.594   4.528  21.414  1.00  0.00     0.000 C 
BRANCH   8   9
ATOM      9  C   UNL     1      48.603   3.372  21.543  1.00  0.00     0.000 C 
BRANCH   9  10
ATOM     10  C   UNL     1      49.956   3.697  20.890  1.00  0.00     0.006 C 
BRANCH  10  11
ATOM     11  C   UNL     1      50.776   2.439  20.577  1.00  0.00     0.053 C 
BRANCH  11  12
ATOM     12  C   UNL     1      51.741   2.709  19.467  1.00  0.00     0.041 C 
ATOM     13  O   UNL     1      51.644   3.762  18.783  1.00  0.00    -0.550 OA
ATOM     14  O   UNL     1      52.721   1.775  19.154  1.00  0.00    -0.550 OA
ENDBRANCH  11  12
ENDBRANCH  10  11
ENDBRANCH   9  10
ENDBRANCH   8   9
ENDBRANCH   1   8
TORSDOF 9
ENDMDL
MODEL 2
REMARK VINA RESULT:    -3.984      1.238      5.144
REMARK INTER + INTRA:          -6.643
REMARK INTER:                  -6.145
REMARK INTRA:                  -0.498
REMARK UNBOUND:                -0.563
REMARK SMILES O=C([O-])CCCCCCCCC(=O)[O-]
REMARK SMILES IDX 7 1 6 2 5 3 4 4 2 5 1 6 3 7 8 8 9 9 10 10 11 11 12 12 13 13
REMARK SMILES IDX 14 14
REMARK H PARENT
REMARK Flexibility Score: inf
ROOT
ATOM      1  C   UNL     1      49.367   5.305  22.670  1.00  0.00     0.000 C 
ENDROOT
BRANCH   1   2
ATOM      2  C   UNL     1      49.643   3.814  22.414  1.00  0.00     0.000 C 
BRANCH   2   3
ATOM      3  C   UNL     1      49.584   3.451  20.922  1.00  0.00     0.006 C 
BRANCH   3   4
ATOM      4  C   UNL     1      50.618   2.388  20.530  1.00  0.00     0.053 C 
BRANCH   4   5
ATOM      5  C   UNL     1      51.570   2.935  19.512  1.00  0.00     0.041 C 
ATOM      6  O   UNL     1      51.440   4.116  19.094  1.00  0.00    -0.550 OA
ATOM      7  O   UNL     1      52.630   2.159  19.065  1.00  0.00    -0.550 OA
ENDBRANCH   4   5
ENDBRANCH   3   4
ENDBRANCH   2   3
ENDBRANCH   1   2
BRANCH   1   8
ATOM      8  C   UNL     1      49.359   6.133  21.375  1.00  0.00     0.000 C 
BRANCH   8   9
ATOM      9  C   UNL     1      48.299   7.250  21.391  1.00  0.00     0.000 C 
BRANCH   9  10
ATOM     10  C   UNL     1      48.779   8.527  20.685  1.00  0.00     0.006 C 
BRANCH  10  11
ATOM     11  C   UNL     1      50.036   8.295  19.837  1.00  0.00     0.053 C 
BRANCH  11  12
ATOM     12  C   UNL     1      49.940   9.044  18.546  1.00  0.00     0.041 C 
ATOM     13  O   UNL     1      49.832  10.299  18.547  1.00  0.00    -0.550 OA
ATOM     14  O   UNL     1      49.920   8.353  17.341  1.00  0.00    -0.550 OA
ENDBRANCH  11  12
ENDBRANCH  10  11
ENDBRANCH   9  10
ENDBRANCH   8   9
ENDBRANCH   1   8
TORSDOF 9
ENDMDL
MODEL 3
REMARK VINA RESULT:    -3.957      4.043      4.732
REMARK INTER + INTRA:          -6.602
REMARK INTER:                  -6.171
REMARK INTRA:                  -0.431
REMARK UNBOUND:                -0.563
REMARK SMILES O=C([O-])CCCCCCCCC(=O)[O-]
REMARK SMILES IDX 7 1 6 2 5 3 4 4 2 5 1 6 3 7 8 8 9 9 10 10 11 11 12 12 13 13
REMARK SMILES IDX 14 14
REMARK H PARENT
REMARK Flexibility Score: inf
ROOT
ATOM      1  C   UNL     1      49.267   4.984  21.936  1.00  0.00     0.000 C 
ENDROOT
BRANCH   1   2
ATOM      2  C   UNL     1      49.397   5.859  23.194  1.00  0.00     0.000 C 
BRANCH   2   3
ATOM      3  C   UNL     1      49.798   5.049  24.437  1.00  0.00     0.006 C 
BRANCH   3   4
ATOM      4  C   UNL     1      50.469   5.911  25.514  1.00  0.00     0.053 C 
BRANCH   4   5
ATOM      5  C   UNL     1      49.940   5.560  26.870  1.00  0.00     0.041 C 
ATOM      6  O   UNL     1      49.711   6.465  27.714  1.00  0.00    -0.550 OA
ATOM      7  O   UNL     1      49.652   4.238  27.181  1.00  0.00    -0.550 OA
ENDBRANCH   4   5
ENDBRANCH   3   4
ENDBRANCH   2   3
ENDBRANCH   1   2
BRANCH   1   8
ATOM      8  C   UNL     1      49.453   3.487  22.238  1.00  0.00     0.000 C 
BRANCH   8   9
ATOM      9  C   UNL     1      50.739   2.911  21.618  1.00  0.00     0.000 C 
BRANCH   9  10
ATOM     10  C   UNL     1      50.610   2.678  20.105  1.00  0.00     0.006 C 
BRANCH  10  11
ATOM     11  C   UNL     1      51.772   3.290  19.312  1.00  0.00     0.053 C 
BRANCH  11  12
ATOM     12  C   UNL     1      53.036   2.534  19.572  1.00  0.00     0.041 C 
ATOM     13  O   UNL     1      54.075   3.142  19.939  1.00  0.00    -0.550 OA
ATOM     14  O   UNL     1      53.080   1.161  19.362  1.00  0.00    -0.550 OA
ENDBRANCH  11  12
ENDBRANCH  10  11
ENDBRANCH   9  10
ENDBRANCH   8   9
ENDBRANCH   1   8
TORSDOF 9
ENDMDL
MODEL 4
REMARK VINA RESULT:    -3.931      3.137      4.906
REMARK INTER + INTRA:          -6.563
REMARK INTER:                  -5.579
REMARK INTRA:                  -0.984
REMARK UNBOUND:                -0.563
REMARK SMILES O=C([O-])CCCCCCCCC(=O)[O-]
REMARK SMILES IDX 7 1 6 2 5 3 4 4 2 5 1 6 3 7 8 8 9 9 10 10 11 11 12 12 13 13
REMARK SMILES IDX 14 14
REMARK H PARENT
REMARK Flexibility Score: inf
ROOT
ATOM      1  C   UNL     1      48.852   5.744  23.541  1.00  0.00     0.000 C 
ENDROOT
BRANCH   1   2
ATOM      2  C   UNL     1      50.036   6.432  24.241  1.00  0.00     0.000 C 
BRANCH   2   3
ATOM      3  C   UNL     1      49.604   7.659  25.062  1.00  0.00     0.006 C 
BRANCH   3   4
ATOM      4  C   UNL     1      49.455   8.922  24.204  1.00  0.00     0.053 C 
BRANCH   4   5
ATOM      5  C   UNL     1      48.050   9.436  24.272  1.00  0.00     0.041 C 
ATOM      6  O   UNL     1      47.353   9.239  25.301  1.00  0.00    -0.550 OA
ATOM      7  O   UNL     1      47.530  10.175  23.217  1.00  0.00    -0.550 OA
ENDBRANCH   4   5
ENDBRANCH   3   4
ENDBRANCH   2   3
ENDBRANCH   1   2
BRANCH   1   8
ATOM      8  C   UNL     1      48.959   5.803  22.008  1.00  0.00     0.000 C 
BRANCH   8   9
ATOM      9  C   UNL     1      47.932   6.762  21.378  1.00  0.00     0.000 C 
BRANCH   9  10
ATOM     10  C   UNL     1      48.597   7.938  20.645  1.00  0.00     0.006 C 
BRANCH  10  11
ATOM     11  C   UNL     1      50.129   7.853  20.664  1.00  0.00     0.053 C 
BRANCH  11  12
ATOM     12  C   UNL     1      50.677   8.012  19.282  1.00  0.00     0.041 C 
ATOM     13  O   UNL     1      50.299   8.969  18.556  1.00  0.00    -0.550 OA
ATOM     14  O   UNL     1      51.571   7.076  18.776  1.00  0.00    -0.550 OA
ENDBRANCH  11  12
ENDBRANCH  10  11
ENDBRANCH   9  10
ENDBRANCH   8   9
ENDBRANCH   1   8
TORSDOF 9
ENDMDL
MODEL 5
REMARK VINA RESULT:    -3.924      1.495      5.482
REMARK INTER + INTRA:          -6.552
REMARK INTER:                  -6.105
REMARK INTRA:                  -0.446
REMARK UNBOUND:                -0.563
REMARK SMILES O=C([O-])CCCCCCCCC(=O)[O-]
REMARK SMILES IDX 7 1 6 2 5 3 4 4 2 5 1 6 3 7 8 8 9 9 10 10 11 11 12 12 13 13
REMARK SMILES IDX 14 14
REMARK H PARENT
REMARK Flexibility Score: inf
ROOT
ATOM      1  C   UNL     1      49.033   3.737  21.913  1.00  0.00     0.000 C 
ENDROOT
BRANCH   1   2
ATOM      2  C   UNL     1      49.443   2.614  20.945  1.00  0.00     0.000 C 
BRANCH   2   3
ATOM      3  C   UNL     1      50.785   2.895  20.250  1.00  0.00     0.006 C 
BRANCH   3   4
ATOM      4  C   UNL     1      51.979   2.303  21.009  1.00  0.00     0.053 C 
BRANCH   4   5
ATOM      5  C   UNL     1      53.132   2.083  20.079  1.00  0.00     0.041 C 
ATOM      6  O   UNL     1      53.140   1.091  19.305  1.00  0.00    -0.550 OA
ATOM      7  O   UNL     1      54.172   3.001  20.034  1.00  0.00    -0.550 OA
ENDBRANCH   4   5
ENDBRANCH   3   4
ENDBRANCH   2   3
ENDBRANCH   1   2
BRANCH   1   8
ATOM      8  C   UNL     1      49.405   5.133  21.387  1.00  0.00     0.000 C 
BRANCH   8   9
ATOM      9  C   UNL     1      49.059   6.255  22.383  1.00  0.00     0.000 C 
BRANCH   9  10
ATOM     10  C   UNL     1      49.321   7.655  21.808  1.00  0.00     0.006 C 
BRANCH  10  11
ATOM     11  C   UNL     1      50.123   7.614  20.501  1.00  0.00     0.053 C 
BRANCH  11  12
ATOM     12  C   UNL     1      49.544   8.567  19.504  1.00  0.00     0.041 C 
ATOM     13  O   UNL     1      48.313   8.831  19.519  1.00  0.00    -0.550 OA
ATOM     14  O   UNL     1      50.355   9.128  18.526  1.00  0.00    -0.550 OA
ENDBRANCH  11  12
ENDBRANCH  10  11
ENDBRANCH   9  10
ENDBRANCH   8   9
ENDBRANCH   1   8
TORSDOF 9
ENDMDL
MODEL 6
REMARK VINA RESULT:    -3.895      3.761      7.465
REMARK INTER + INTRA:          -6.508
REMARK INTER:                  -5.888
REMARK INTRA:                  -0.620
REMARK UNBOUND:                -0.563
REMARK SMILES O=C([O-])CCCCCCCCC(=O)[O-]
REMARK SMILES IDX 7 1 6 2 5 3 4 4 2 5 1 6 3 7 8 8 9 9 10 10 11 11 12 12 13 13
REMARK SMILES IDX 14 14
REMARK H PARENT
REMARK Flexibility Score: inf
ROOT
ATOM      1  C   UNL     1      47.181   8.133  21.812  1.00  0.00     0.000 C 
ENDROOT
BRANCH   1   2
ATOM      2  C   UNL     1      47.910   7.713  20.525  1.00  0.00     0.000 C 
BRANCH   2   3
ATOM      3  C   UNL     1      49.255   8.436  20.347  1.00  0.00     0.006 C 
BRANCH   3   4
ATOM      4  C   UNL     1      49.332   9.227  19.034  1.00  0.00     0.053 C 
BRANCH   4   5
ATOM      5  C   UNL     1      49.943   8.388  17.955  1.00  0.00     0.041 C 
ATOM      6  O   UNL     1      49.522   8.475  16.771  1.00  0.00    -0.550 OA
ATOM      7  O   UNL     1      51.010   7.550  18.248  1.00  0.00    -0.550 OA
ENDBRANCH   4   5
ENDBRANCH   3   4
ENDBRANCH   2   3
ENDBRANCH   1   2
BRANCH   1   8
ATOM      8  C   UNL     1      47.353   9.629  22.126  1.00  0.00     0.000 C 
BRANCH   8   9
ATOM      9  C   UNL     1      46.324  10.511  21.397  1.00  0.00     0.000 C 
BRANCH   9  10
ATOM     10  C   UNL     1      46.982  11.647  20.598  1.00  0.00     0.006 C 
BRANCH  10  11
ATOM     11  C   UNL     1      46.584  13.036  21.113  1.00  0.00     0.053 C 
BRANCH  11  12
ATOM     12  C   UNL     1      47.404  14.094  20.446  1.00  0.00     0.041 C 
ATOM     13  O   UNL     1      47.447  15.259  20.923  1.00  0.00    -0.550 OA
ATOM     14  O   UNL     1      48.085  13.808  19.269  1.00  0.00    -0.550 OA
ENDBRANCH  11  12
ENDBRANCH  10  11
ENDBRANCH   9  10
ENDBRANCH   8   9
ENDBRANCH   1   8
TORSDOF 9
ENDMDL
MODEL 7
REMARK VINA RESULT:    -3.830      3.773      5.542
REMARK INTER + INTRA:          -6.409
REMARK INTER:                  -5.682
REMARK INTRA:                  -0.727
REMARK UNBOUND:                -0.563
REMARK SMILES O=C([O-])CCCCCCCCC(=O)[O-]
REMARK SMILES IDX 7 1 6 2 5 3 4 4 2 5 1 6 3 7 8 8 9 9 10 10 11 11 12 12 13 13
REMARK SMILES IDX 14 14
REMARK H PARENT
REMARK Flexibility Score: inf
ROOT
ATOM      1  C   UNL     1      46.680  10.643  22.528  1.00  0.00     0.000 C 
ENDROOT
BRANCH   1   2
ATOM      2  C   UNL     1      46.889   9.391  23.396  1.00  0.00     0.000 C 
BRANCH   2   3
ATOM      3  C   UNL     1      48.135   9.494  24.291  1.00  0.00     0.006 C 
BRANCH   3   4
ATOM      4  C   UNL     1      49.262   8.553  23.848  1.00  0.00     0.053 C 
BRANCH   4   5
ATOM      5  C   UNL     1      49.569   7.562  24.928  1.00  0.00     0.041 C 
ATOM      6  O   UNL     1      48.840   7.496  25.952  1.00  0.00    -0.550 OA
ATOM      7  O   UNL     1      50.629   6.678  24.777  1.00  0.00    -0.550 OA
ENDBRANCH   4   5
ENDBRANCH   3   4
ENDBRANCH   2   3
ENDBRANCH   1   2
BRANCH   1   8
ATOM      8  C   UNL     1      46.222  10.301  21.100  1.00  0.00     0.000 C 
BRANCH   8   9
ATOM      9  C   UNL     1      46.689   8.907  20.644  1.00  0.00     0.000 C 
BRANCH   9  10
ATOM     10  C   UNL     1      47.890   8.972  19.687  1.00  0.00     0.006 C 
BRANCH  10  11
ATOM     11  C   UNL     1      49.067   8.111  20.161  1.00  0.00     0.053 C 
BRANCH  11  12
ATOM     12  C   UNL     1      50.308   8.462  19.402  1.00  0.00     0.041 C 
ATOM     13  O   UNL     1      50.372   9.539  18.754  1.00  0.00    -0.550 OA
ATOM     14  O   UNL     1      51.378   7.576  19.371  1.00  0.00    -0.550 OA
ENDBRANCH  11  12
ENDBRANCH  10  11
ENDBRANCH   9  10
ENDBRANCH   8   9
ENDBRANCH   1   8
TORSDOF 9
ENDMDL
MODEL 8
REMARK VINA RESULT:    -3.824      4.289      6.089
REMARK INTER + INTRA:          -6.399
REMARK INTER:                  -5.583
REMARK INTRA:                  -0.816
REMARK UNBOUND:                -0.563
REMARK SMILES O=C([O-])CCCCCCCCC(=O)[O-]
REMARK SMILES IDX 7 1 6 2 5 3 4 4 2 5 1 6 3 7 8 8 9 9 10 10 11 11 12 12 13 13
REMARK SMILES IDX 14 14
REMARK H PARENT
REMARK Flexibility Score: inf
ROOT
ATOM      1  C   UNL     1      48.081   9.019  24.084  1.00  0.00     0.000 C 
ENDROOT
BRANCH   1   2
ATOM      2  C   UNL     1      49.584   8.961  24.405  1.00  0.00     0.000 C 
BRANCH   2   3
ATOM      3  C   UNL     1      50.058   7.542  24.759  1.00  0.00     0.006 C 
BRANCH   3   4
ATOM      4  C   UNL     1      48.999   6.739  25.525  1.00  0.00     0.053 C 
BRANCH   4   5
ATOM      5  C   UNL     1      49.476   6.436  26.911  1.00  0.00     0.041 C 
ATOM      6  O   UNL     1      50.260   5.472  27.114  1.00  0.00    -0.550 OA
ATOM      7  O   UNL     1      49.094   7.249  27.970  1.00  0.00    -0.550 OA
ENDBRANCH   4   5
ENDBRANCH   3   4
ENDBRANCH   2   3
ENDBRANCH   1   2
BRANCH   1   8
ATOM      8  C   UNL     1      47.800   9.015  22.572  1.00  0.00     0.000 C 
BRANCH   8   9
ATOM      9  C   UNL     1      47.359   7.635  22.053  1.00  0.00     0.000 C 
BRANCH   9  10
ATOM     10  C   UNL     1      48.352   7.040  21.043  1.00  0.00     0.006 C 
BRANCH  10  11
ATOM     11  C   UNL     1      49.625   7.884  20.902  1.00  0.00     0.053 C 
BRANCH  11  12
ATOM     12  C   UNL     1      49.729   8.444  19.519  1.00  0.00     0.041 C 
ATOM     13  O   UNL     1      50.846   8.802  19.062  1.00  0.00    -0.550 OA
ATOM     14  O   UNL     1      48.584   8.615  18.750  1.00  0.00    -0.550 OA
ENDBRANCH  11  12
ENDBRANCH  10  11
ENDBRANCH   9  10
ENDBRANCH   8   9
ENDBRANCH   1   8
TORSDOF 9
ENDMDL
MODEL 9
REMARK VINA RESULT:    -3.791      3.217      5.059
REMARK INTER + INTRA:          -6.348
REMARK INTER:                  -5.369
REMARK INTRA:                  -0.979
REMARK UNBOUND:                -0.563
REMARK SMILES O=C([O-])CCCCCCCCC(=O)[O-]
REMARK SMILES IDX 7 1 6 2 5 3 4 4 2 5 1 6 3 7 8 8 9 9 10 10 11 11 12 12 13 13
REMARK SMILES IDX 14 14
REMARK H PARENT
REMARK Flexibility Score: inf
ROOT
ATOM      1  C   UNL     1      47.147   7.407  20.907  1.00  0.00     0.000 C 
ENDROOT
BRANCH   1   2
ATOM      2  C   UNL     1      48.216   6.407  21.380  1.00  0.00     0.000 C 
BRANCH   2   3
ATOM      3  C   UNL     1      49.642   6.856  21.023  1.00  0.00     0.006 C 
BRANCH   3   4
ATOM      4  C   UNL     1      49.681   8.248  20.379  1.00  0.00     0.053 C 
BRANCH   4   5
ATOM      5  C   UNL     1      50.454   8.209  19.097  1.00  0.00     0.041 C 
ATOM      6  O   UNL     1      51.493   7.505  19.006  1.00  0.00    -0.550 OA
ATOM      7  O   UNL     1      49.998   8.913  17.991  1.00  0.00    -0.550 OA
ENDBRANCH   4   5
ENDBRANCH   3   4
ENDBRANCH   2   3
ENDBRANCH   1   2
BRANCH   1   8
ATOM      8  C   UNL     1      46.430   8.101  22.078  1.00  0.00     0.000 C 
BRANCH   8   9
ATOM      9  C   UNL     1      47.075   7.787  23.440  1.00  0.00     0.000 C 
BRANCH   9  10
ATOM     10  C   UNL     1      47.742   9.017  24.074  1.00  0.00     0.006 C 
BRANCH  10  11
ATOM     11  C   UNL     1      49.266   8.879  24.168  1.00  0.00     0.053 C 
BRANCH  11  12
ATOM     12  C   UNL     1      49.631   7.674  24.976  1.00  0.00     0.041 C 
ATOM     13  O   UNL     1      50.377   6.784  24.488  1.00  0.00    -0.550 OA
ATOM     14  O   UNL     1      49.109   7.508  26.253  1.00  0.00    -0.550 OA
ENDBRANCH  11  12
ENDBRANCH  10  11
ENDBRANCH   9  10
ENDBRANCH   8   9
ENDBRANCH   1   8
TORSDOF 9
ENDMDL
