MODEL 1
REMARK VINA RESULT:    -5.237      0.000      0.000
REMARK INTER + INTRA:          -5.390
REMARK INTER:                  -5.390
REMARK INTRA:                   0.000
REMARK UNBOUND:                 0.000
REMARK SMILES Oc1ccc2[nH]ccc2c1
REMARK SMILES IDX 3 1 4 2 5 3 9 4 8 5 7 6 6 7 10 8 2 9 1 11
REMARK H PARENT 6 10 1 12
REMARK Flexibility Score: inf
ROOT
ATOM      1  C   UNL     1     164.674 176.711 195.470  1.00  0.00     0.048 A 
ATOM      2  C   UNL     1     166.048 176.451 195.312  1.00  0.00     0.030 A 
ATOM      3  C   UNL     1     166.447 175.124 195.168  1.00  0.00     0.046 A 
ATOM      4  C   UNL     1     165.543 174.096 195.178  1.00  0.00     0.003 A 
ATOM      5  C   UNL     1     166.249 172.924 195.015  1.00  0.00     0.028 A 
ATOM      6  C   UNL     1     167.581 173.314 194.913  1.00  0.00     0.083 A 
ATOM      7  N   UNL     1     167.696 174.658 195.006  1.00  0.00    -0.361 N 
ATOM      8  C   UNL     1     164.176 174.318 195.332  1.00  0.00     0.056 A 
ATOM      9  C   UNL     1     163.738 175.652 195.481  1.00  0.00     0.116 A 
ATOM     10  H   UNL     1     168.578 175.216 194.962  1.00  0.00     0.166 HD
ENDROOT
BRANCH   9  11
ATOM     11  O   UNL     1     162.384 175.935 195.639  1.00  0.00    -0.508 OA
ATOM     12  H   UNL     1     161.904 175.755 196.513  1.00  0.00     0.293 HD
ENDBRANCH   9  11
TORSDOF 1
ENDMDL
MODEL 2
REMARK VINA RESULT:    -4.675      1.225      2.758
REMARK INTER + INTRA:          -4.811
REMARK INTER:                  -4.811
REMARK INTRA:                   0.000
REMARK UNBOUND:                 0.000
REMARK SMILES Oc1ccc2[nH]ccc2c1
REMARK SMILES IDX 3 1 4 2 5 3 9 4 8 5 7 6 6 7 10 8 2 9 1 11
REMARK H PARENT 6 10 1 12
REMARK Flexibility Score: inf
ROOT
ATOM      1  C   UNL     1     164.700 174.014 194.967  1.00  0.00     0.048 A 
ATOM      2  C   UNL     1     166.035 174.453 195.042  1.00  0.00     0.030 A 
ATOM      3  C   UNL     1     166.265 175.824 195.131  1.00  0.00     0.046 A 
ATOM      4  C   UNL     1     165.236 176.727 195.147  1.00  0.00     0.003 A 
ATOM      5  C   UNL     1     165.792 177.984 195.243  1.00  0.00     0.028 A 
ATOM      6  C   UNL     1     167.167 177.771 195.280  1.00  0.00     0.083 A 
ATOM      7  N   UNL     1     167.450 176.451 195.212  1.00  0.00    -0.361 N 
ATOM      8  C   UNL     1     163.904 176.327 195.075  1.00  0.00     0.056 A 
ATOM      9  C   UNL     1     163.635 174.944 194.983  1.00  0.00     0.116 A 
ATOM     10  H   UNL     1     168.398 176.012 195.220  1.00  0.00     0.166 HD
ENDROOT
BRANCH   9  11
ATOM     11  O   UNL     1     162.323 174.484 194.908  1.00  0.00    -0.508 OA
ATOM     12  H   UNL     1     161.616 174.791 195.566  1.00  0.00     0.293 HD
ENDBRANCH   9  11
TORSDOF 1
ENDMDL
MODEL 3
REMARK VINA RESULT:    -4.672      2.586      3.871
REMARK INTER + INTRA:          -4.809
REMARK INTER:                  -4.809
REMARK INTRA:                   0.000
REMARK UNBOUND:                 0.000
REMARK SMILES Oc1ccc2[nH]ccc2c1
REMARK SMILES IDX 3 1 4 2 5 3 9 4 8 5 7 6 6 7 10 8 2 9 1 11
REMARK H PARENT 6 10 1 12
REMARK Flexibility Score: inf
ROOT
ATOM      1  C   UNL     1     166.805 172.893 194.640  1.00  0.00     0.048 A 
ATOM      2  C   UNL     1     165.846 173.351 193.719  1.00  0.00     0.030 A 
ATOM      3  C   UNL     1     164.945 174.324 194.146  1.00  0.00     0.046 A 
ATOM      4  C   UNL     1     164.980 174.828 195.418  1.00  0.00     0.003 A 
ATOM      5  C   UNL     1     163.971 175.761 195.521  1.00  0.00     0.028 A 
ATOM      6  C   UNL     1     163.360 175.772 194.271  1.00  0.00     0.083 A 
ATOM      7  N   UNL     1     163.958 174.894 193.435  1.00  0.00    -0.361 N 
ATOM      8  C   UNL     1     165.917 174.398 196.355  1.00  0.00     0.056 A 
ATOM      9  C   UNL     1     166.845 173.412 195.955  1.00  0.00     0.116 A 
ATOM     10  H   UNL     1     163.702 174.700 192.441  1.00  0.00     0.166 HD
ENDROOT
BRANCH   9  11
ATOM     11  O   UNL     1     167.804 172.942 196.848  1.00  0.00    -0.508 OA
ATOM     12  H   UNL     1     168.587 173.519 197.135  1.00  0.00     0.293 HD
ENDBRANCH   9  11
TORSDOF 1
ENDMDL
MODEL 4
REMARK VINA RESULT:    -4.655      2.540      3.698
REMARK INTER + INTRA:          -4.791
REMARK INTER:                  -4.791
REMARK INTRA:                   0.000
REMARK UNBOUND:                 0.000
REMARK SMILES Oc1ccc2[nH]ccc2c1
REMARK SMILES IDX 3 1 4 2 5 3 9 4 8 5 7 6 6 7 10 8 2 9 1 11
REMARK H PARENT 6 10 1 12
REMARK Flexibility Score: inf
ROOT
ATOM      1  C   UNL     1     166.296 172.735 194.801  1.00  0.00     0.048 A 
ATOM      2  C   UNL     1     166.338 173.851 195.657  1.00  0.00     0.030 A 
ATOM      3  C   UNL     1     166.244 175.116 195.081  1.00  0.00     0.046 A 
ATOM      4  C   UNL     1     166.116 175.284 193.728  1.00  0.00     0.003 A 
ATOM      5  C   UNL     1     166.049 176.638 193.485  1.00  0.00     0.028 A 
ATOM      6  C   UNL     1     166.144 177.237 194.737  1.00  0.00     0.083 A 
ATOM      7  N   UNL     1     166.263 176.304 195.708  1.00  0.00    -0.361 N 
ATOM      8  C   UNL     1     166.071 174.201 192.853  1.00  0.00     0.056 A 
ATOM      9  C   UNL     1     166.163 172.904 193.404  1.00  0.00     0.116 A 
ATOM     10  H   UNL     1     166.351 176.476 196.735  1.00  0.00     0.166 HD
ENDROOT
BRANCH   9  11
ATOM     11  O   UNL     1     166.125 171.783 192.579  1.00  0.00    -0.508 OA
ATOM     12  H   UNL     1     166.954 171.449 192.102  1.00  0.00     0.293 HD
ENDBRANCH   9  11
TORSDOF 1
ENDMDL
MODEL 5
REMARK VINA RESULT:    -4.593      2.891      3.942
REMARK INTER + INTRA:          -4.727
REMARK INTER:                  -4.727
REMARK INTRA:                   0.000
REMARK UNBOUND:                 0.000
REMARK SMILES Oc1ccc2[nH]ccc2c1
REMARK SMILES IDX 3 1 4 2 5 3 9 4 8 5 7 6 6 7 10 8 2 9 1 11
REMARK H PARENT 6 10 1 12
REMARK Flexibility Score: inf
ROOT
ATOM      1  C   UNL     1     165.469 175.322 196.229  1.00  0.00     0.048 A 
ATOM      2  C   UNL     1     164.079 175.496 196.362  1.00  0.00     0.030 A 
ATOM      3  C   UNL     1     163.297 175.395 195.214  1.00  0.00     0.046 A 
ATOM      4  C   UNL     1     163.849 175.136 193.988  1.00  0.00     0.003 A 
ATOM      5  C   UNL     1     162.821 175.099 193.071  1.00  0.00     0.028 A 
ATOM      6  C   UNL     1     161.668 175.346 193.810  1.00  0.00     0.083 A 
ATOM      7  N   UNL     1     161.964 175.526 195.117  1.00  0.00    -0.361 N 
ATOM      8  C   UNL     1     165.221 174.957 193.821  1.00  0.00     0.056 A 
ATOM      9  C   UNL     1     166.042 175.053 194.965  1.00  0.00     0.116 A 
ATOM     10  H   UNL     1     161.290 175.726 195.891  1.00  0.00     0.166 HD
ENDROOT
BRANCH   9  11
ATOM     11  O   UNL     1     167.420 174.885 194.860  1.00  0.00    -0.508 OA
ATOM     12  H   UNL     1     167.986 175.501 194.287  1.00  0.00     0.293 HD
ENDBRANCH   9  11
TORSDOF 1
ENDMDL
MODEL 6
REMARK VINA RESULT:    -4.584      1.441      1.695
REMARK INTER + INTRA:          -4.718
REMARK INTER:                  -4.718
REMARK INTRA:                   0.000
REMARK UNBOUND:                 0.000
REMARK SMILES Oc1ccc2[nH]ccc2c1
REMARK SMILES IDX 3 1 4 2 5 3 9 4 8 5 7 6 6 7 10 8 2 9 1 11
REMARK H PARENT 6 10 1 12
REMARK Flexibility Score: inf
ROOT
ATOM      1  C   UNL     1     163.542 175.488 194.686  1.00  0.00     0.048 A 
ATOM      2  C   UNL     1     164.295 174.920 193.641  1.00  0.00     0.030 A 
ATOM      3  C   UNL     1     165.498 174.300 193.969  1.00  0.00     0.046 A 
ATOM      4  C   UNL     1     165.947 174.237 195.262  1.00  0.00     0.003 A 
ATOM      5  C   UNL     1     167.150 173.567 195.249  1.00  0.00     0.028 A 
ATOM      6  C   UNL     1     167.375 173.251 193.912  1.00  0.00     0.083 A 
ATOM      7  N   UNL     1     166.364 173.700 193.135  1.00  0.00    -0.361 N 
ATOM      8  C   UNL     1     165.226 174.788 196.319  1.00  0.00     0.056 A 
ATOM      9  C   UNL     1     164.002 175.424 196.021  1.00  0.00     0.116 A 
ATOM     10  H   UNL     1     166.277 173.600 192.099  1.00  0.00     0.166 HD
ENDROOT
BRANCH   9  11
ATOM     11  O   UNL     1     163.238 175.994 197.036  1.00  0.00    -0.508 OA
ATOM     12  H   UNL     1     163.664 176.340 197.888  1.00  0.00     0.293 HD
ENDBRANCH   9  11
TORSDOF 1
ENDMDL
MODEL 7
REMARK VINA RESULT:    -4.485      2.229      2.538
REMARK INTER + INTRA:          -4.617
REMARK INTER:                  -4.617
REMARK INTRA:                   0.000
REMARK UNBOUND:                 0.000
REMARK SMILES Oc1ccc2[nH]ccc2c1
REMARK SMILES IDX 3 1 4 2 5 3 9 4 8 5 7 6 6 7 10 8 2 9 1 11
REMARK H PARENT 6 10 1 12
REMARK Flexibility Score: inf
ROOT
ATOM      1  C   UNL     1     166.038 177.152 194.102  1.00  0.00     0.048 A 
ATOM      2  C   UNL     1     166.231 176.369 195.254  1.00  0.00     0.030 A 
ATOM      3  C   UNL     1     166.329 174.988 195.095  1.00  0.00     0.046 A 
ATOM      4  C   UNL     1     166.243 174.399 193.861  1.00  0.00     0.003 A 
ATOM      5  C   UNL     1     166.378 173.040 194.044  1.00  0.00     0.028 A 
ATOM      6  C   UNL     1     166.543 172.872 195.416  1.00  0.00     0.083 A 
ATOM      7  N   UNL     1     166.512 174.065 196.052  1.00  0.00    -0.361 N 
ATOM      8  C   UNL     1     166.053 175.145 192.700  1.00  0.00     0.056 A 
ATOM      9  C   UNL     1     165.949 176.546 192.827  1.00  0.00     0.116 A 
ATOM     10  H   UNL     1     166.611 174.229 197.079  1.00  0.00     0.166 HD
ENDROOT
BRANCH   9  11
ATOM     11  O   UNL     1     165.758 177.344 191.702  1.00  0.00    -0.508 OA
ATOM     12  H   UNL     1     165.006 177.163 191.047  1.00  0.00     0.293 HD
ENDBRANCH   9  11
TORSDOF 1
ENDMDL
MODEL 8
REMARK VINA RESULT:    -4.394     15.002     16.350
REMARK INTER + INTRA:          -4.522
REMARK INTER:                  -4.522
REMARK INTRA:                   0.000
REMARK UNBOUND:                 0.000
REMARK SMILES Oc1ccc2[nH]ccc2c1
REMARK SMILES IDX 3 1 4 2 5 3 9 4 8 5 7 6 6 7 10 8 2 9 1 11
REMARK H PARENT 6 10 1 12
REMARK Flexibility Score: inf
ROOT
ATOM      1  C   UNL     1     169.271 164.116 181.734  1.00  0.00     0.048 A 
ATOM      2  C   UNL     1     168.186 163.679 182.515  1.00  0.00     0.030 A 
ATOM      3  C   UNL     1     168.109 164.125 183.833  1.00  0.00     0.046 A 
ATOM      4  C   UNL     1     169.053 164.963 184.364  1.00  0.00     0.003 A 
ATOM      5  C   UNL     1     168.693 165.215 185.670  1.00  0.00     0.028 A 
ATOM      6  C   UNL     1     167.518 164.495 185.867  1.00  0.00     0.083 A 
ATOM      7  N   UNL     1     167.166 163.832 184.742  1.00  0.00    -0.361 N 
ATOM      8  C   UNL     1     170.140 165.416 183.619  1.00  0.00     0.056 A 
ATOM      9  C   UNL     1     170.247 164.982 182.280  1.00  0.00     0.116 A 
ATOM     10  H   UNL     1     166.331 163.218 184.612  1.00  0.00     0.166 HD
ENDROOT
BRANCH   9  11
ATOM     11  O   UNL     1     171.311 165.400 181.486  1.00  0.00    -0.508 OA
ATOM     12  H   UNL     1     171.925 166.152 181.778  1.00  0.00     0.293 HD
ENDBRANCH   9  11
TORSDOF 1
ENDMDL
MODEL 9
REMARK VINA RESULT:    -4.289      2.614      3.084
REMARK INTER + INTRA:          -4.415
REMARK INTER:                  -4.415
REMARK INTRA:                   0.000
REMARK UNBOUND:                 0.000
REMARK SMILES Oc1ccc2[nH]ccc2c1
REMARK SMILES IDX 3 1 4 2 5 3 9 4 8 5 7 6 6 7 10 8 2 9 1 11
REMARK H PARENT 6 10 1 12
REMARK Flexibility Score: inf
ROOT
ATOM      1  C   UNL     1     164.871 175.028 195.214  1.00  0.00     0.048 A 
ATOM      2  C   UNL     1     164.476 174.893 193.870  1.00  0.00     0.030 A 
ATOM      3  C   UNL     1     165.106 173.917 193.101  1.00  0.00     0.046 A 
ATOM      4  C   UNL     1     166.079 173.107 193.623  1.00  0.00     0.003 A 
ATOM      5  C   UNL     1     166.493 172.259 192.618  1.00  0.00     0.028 A 
ATOM      6  C   UNL     1     165.729 172.610 191.510  1.00  0.00     0.083 A 
ATOM      7  N   UNL     1     164.883 173.623 191.810  1.00  0.00    -0.361 N 
ATOM      8  C   UNL     1     166.493 173.213 194.949  1.00  0.00     0.056 A 
ATOM      9  C   UNL     1     165.875 174.193 195.755  1.00  0.00     0.116 A 
ATOM     10  H   UNL     1     164.199 174.080 191.166  1.00  0.00     0.166 HD
ENDROOT
BRANCH   9  11
ATOM     11  O   UNL     1     166.247 174.347 197.088  1.00  0.00    -0.508 OA
ATOM     12  H   UNL     1     165.666 174.855 197.745  1.00  0.00     0.293 HD
ENDBRANCH   9  11
TORSDOF 1
ENDMDL
