MODEL 1
REMARK VINA RESULT:    -3.516      0.000      0.000
REMARK INTER + INTRA:          -7.618
REMARK INTER:                  -5.982
REMARK INTRA:                  -1.636
REMARK UNBOUND:                -1.636
REMARK SMILES CCCCCCCCCCCCCC(=O)[O-]
REMARK SMILES IDX 8 1 9 2 10 3 11 4 12 5 13 6 14 7 15 8 16 9 7 10 6 11 5 12
REMARK SMILES IDX 4 13 3 14 2 15 1 16
REMARK H PARENT
REMARK Flexibility Score: inf
ROOT
ATOM      1  C   UNL     1      44.731  26.412   3.584  1.00  0.00     0.000 C 
ENDROOT
BRANCH   1   2
ATOM      2  C   UNL     1      46.274  26.431   3.538  1.00  0.00     0.000 C 
BRANCH   2   3
ATOM      3  C   UNL     1      46.884  26.966   4.847  1.00  0.00     0.000 C 
BRANCH   3   4
ATOM      4  C   UNL     1      46.250  28.289   5.302  1.00  0.00     0.000 C 
BRANCH   4   5
ATOM      5  C   UNL     1      46.177  28.416   6.833  1.00  0.00     0.006 C 
BRANCH   5   6
ATOM      6  C   UNL     1      46.146  27.048   7.528  1.00  0.00     0.053 C 
BRANCH   6   7
ATOM      7  C   UNL     1      45.501  27.124   8.878  1.00  0.00     0.041 C 
ATOM      8  O   UNL     1      45.387  26.089   9.585  1.00  0.00    -0.550 OA
ATOM      9  O   UNL     1      45.000  28.333   9.343  1.00  0.00    -0.550 OA
ENDBRANCH   6   7
ENDBRANCH   5   6
ENDBRANCH   4   5
ENDBRANCH   3   4
ENDBRANCH   2   3
ENDBRANCH   1   2
BRANCH   1  10
ATOM     10  C   UNL     1      44.070  26.752   2.237  1.00  0.00     0.000 C 
BRANCH  10  11
ATOM     11  C   UNL     1      43.115  27.952   2.328  1.00  0.00    -0.000 C 
BRANCH  11  12
ATOM     12  C   UNL     1      43.841  29.279   2.616  1.00  0.00    -0.000 C 
BRANCH  12  13
ATOM     13  C   UNL     1      44.636  29.866   1.435  1.00  0.00    -0.000 C 
BRANCH  13  14
ATOM     14  C   UNL     1      46.159  29.769   1.627  1.00  0.00    -0.000 C 
BRANCH  14  15
ATOM     15  C   UNL     1      46.795  28.686   0.741  1.00  0.00    -0.003 C 
ATOM     16  C   UNL     1      46.158  28.607  -0.647  1.00  0.00     0.004 C 
ENDBRANCH  14  15
ENDBRANCH  13  14
ENDBRANCH  12  13
ENDBRANCH  11  12
ENDBRANCH  10  11
ENDBRANCH   1  10
TORSDOF 12
ENDMDL
MODEL 2
REMARK VINA RESULT:    -3.471      3.708      6.854
REMARK INTER + INTRA:          -7.542
REMARK INTER:                  -6.503
REMARK INTRA:                  -1.039
REMARK UNBOUND:                -1.636
REMARK SMILES CCCCCCCCCCCCCC(=O)[O-]
REMARK SMILES IDX 8 1 9 2 10 3 11 4 12 5 13 6 14 7 15 8 16 9 7 10 6 11 5 12
REMARK SMILES IDX 4 13 3 14 2 15 1 16
REMARK H PARENT
REMARK Flexibility Score: inf
ROOT
ATOM      1  C   UNL     1      45.150  26.749   2.911  1.00  0.00     0.000 C 
ENDROOT
BRANCH   1   2
ATOM      2  C   UNL     1      43.704  27.200   2.614  1.00  0.00     0.000 C 
BRANCH   2   3
ATOM      3  C   UNL     1      43.626  28.697   2.262  1.00  0.00     0.000 C 
BRANCH   3   4
ATOM      4  C   UNL     1      44.800  29.504   2.837  1.00  0.00     0.000 C 
BRANCH   4   5
ATOM      5  C   UNL     1      45.765  30.005   1.749  1.00  0.00     0.006 C 
BRANCH   5   6
ATOM      6  C   UNL     1      45.284  29.646   0.337  1.00  0.00     0.053 C 
BRANCH   6   7
ATOM      7  C   UNL     1      46.213  28.686  -0.341  1.00  0.00     0.041 C 
ATOM      8  O   UNL     1      47.073  28.057   0.329  1.00  0.00    -0.550 OA
ATOM      9  O   UNL     1      46.147  28.506  -1.717  1.00  0.00    -0.550 OA
ENDBRANCH   6   7
ENDBRANCH   5   6
ENDBRANCH   4   5
ENDBRANCH   3   4
ENDBRANCH   2   3
ENDBRANCH   1   2
BRANCH   1  10
ATOM     10  C   UNL     1      45.275  25.861   4.161  1.00  0.00     0.000 C 
BRANCH  10  11
ATOM     11  C   UNL     1      46.447  26.269   5.067  1.00  0.00    -0.000 C 
BRANCH  11  12
ATOM     12  C   UNL     1      46.238  27.636   5.743  1.00  0.00    -0.000 C 
BRANCH  12  13
ATOM     13  C   UNL     1      46.584  27.691   7.243  1.00  0.00    -0.000 C 
BRANCH  13  14
ATOM     14  C   UNL     1      46.033  26.491   8.032  1.00  0.00    -0.000 C 
BRANCH  14  15
ATOM     15  C   UNL     1      45.331  26.915   9.331  1.00  0.00    -0.003 C 
ATOM     16  C   UNL     1      45.118  28.427   9.425  1.00  0.00     0.004 C 
ENDBRANCH  14  15
ENDBRANCH  13  14
ENDBRANCH  12  13
ENDBRANCH  11  12
ENDBRANCH  10  11
ENDBRANCH   1  10
TORSDOF 12
ENDMDL
MODEL 3
REMARK VINA RESULT:    -3.469      4.463      7.596
REMARK INTER + INTRA:          -7.539
REMARK INTER:                  -6.740
REMARK INTRA:                  -0.799
REMARK UNBOUND:                -1.636
REMARK SMILES CCCCCCCCCCCCCC(=O)[O-]
REMARK SMILES IDX 8 1 9 2 10 3 11 4 12 5 13 6 14 7 15 8 16 9 7 10 6 11 5 12
REMARK SMILES IDX 4 13 3 14 2 15 1 16
REMARK H PARENT
REMARK Flexibility Score: inf
ROOT
ATOM      1  C   UNL     1      44.194  26.762   3.059  1.00  0.00     0.000 C 
ENDROOT
BRANCH   1   2
ATOM      2  C   UNL     1      43.796  27.690   1.891  1.00  0.00     0.000 C 
BRANCH   2   3
ATOM      3  C   UNL     1      44.300  29.130   2.101  1.00  0.00     0.000 C 
BRANCH   3   4
ATOM      4  C   UNL     1      45.108  29.656   0.904  1.00  0.00     0.000 C 
BRANCH   4   5
ATOM      5  C   UNL     1      45.728  28.527   0.064  1.00  0.00     0.006 C 
BRANCH   5   6
ATOM      6  C   UNL     1      46.411  29.056  -1.204  1.00  0.00     0.053 C 
BRANCH   6   7
ATOM      7  C   UNL     1      46.102  28.207  -2.399  1.00  0.00     0.041 C 
ATOM      8  O   UNL     1      45.879  26.976  -2.260  1.00  0.00    -0.550 OA
ATOM      9  O   UNL     1      46.088  28.770  -3.669  1.00  0.00    -0.550 OA
ENDBRANCH   6   7
ENDBRANCH   5   6
ENDBRANCH   4   5
ENDBRANCH   3   4
ENDBRANCH   2   3
ENDBRANCH   1   2
BRANCH   1  10
ATOM     10  C   UNL     1      45.713  26.682   3.293  1.00  0.00     0.000 C 
BRANCH  10  11
ATOM     11  C   UNL     1      46.078  26.501   4.775  1.00  0.00    -0.000 C 
BRANCH  11  12
ATOM     12  C   UNL     1      46.424  27.827   5.476  1.00  0.00    -0.000 C 
BRANCH  12  13
ATOM     13  C   UNL     1      46.121  27.874   6.986  1.00  0.00    -0.000 C 
BRANCH  13  14
ATOM     14  C   UNL     1      46.300  26.512   7.678  1.00  0.00    -0.000 C 
BRANCH  14  15
ATOM     15  C   UNL     1      45.548  26.430   9.016  1.00  0.00    -0.003 C 
ATOM     16  C   UNL     1      45.226  27.806   9.601  1.00  0.00     0.004 C 
ENDBRANCH  14  15
ENDBRANCH  13  14
ENDBRANCH  12  13
ENDBRANCH  11  12
ENDBRANCH  10  11
ENDBRANCH   1  10
TORSDOF 12
ENDMDL
MODEL 4
REMARK VINA RESULT:    -3.385      2.024      3.791
REMARK INTER + INTRA:          -7.396
REMARK INTER:                  -6.450
REMARK INTRA:                  -0.947
REMARK UNBOUND:                -1.636
REMARK SMILES CCCCCCCCCCCCCC(=O)[O-]
REMARK SMILES IDX 8 1 9 2 10 3 11 4 12 5 13 6 14 7 15 8 16 9 7 10 6 11 5 12
REMARK SMILES IDX 4 13 3 14 2 15 1 16
REMARK H PARENT
REMARK Flexibility Score: inf
ROOT
ATOM      1  C   UNL     1      46.359  28.757   5.973  1.00  0.00     0.000 C 
ENDROOT
BRANCH   1   2
ATOM      2  C   UNL     1      47.031  29.643   7.044  1.00  0.00     0.000 C 
BRANCH   2   3
ATOM      3  C   UNL     1      46.738  29.146   8.471  1.00  0.00     0.000 C 
BRANCH   3   4
ATOM      4  C   UNL     1      45.262  28.776   8.681  1.00  0.00     0.000 C 
BRANCH   4   5
ATOM      5  C   UNL     1      45.072  27.661   9.723  1.00  0.00     0.006 C 
BRANCH   5   6
ATOM      6  C   UNL     1      46.404  27.202  10.330  1.00  0.00     0.053 C 
BRANCH   6   7
ATOM      7  C   UNL     1      46.689  25.763  10.024  1.00  0.00     0.041 C 
ATOM      8  O   UNL     1      46.973  25.409   8.850  1.00  0.00    -0.550 OA
ATOM      9  O   UNL     1      46.613  24.808  11.031  1.00  0.00    -0.550 OA
ENDBRANCH   6   7
ENDBRANCH   5   6
ENDBRANCH   4   5
ENDBRANCH   3   4
ENDBRANCH   2   3
ENDBRANCH   1   2
BRANCH   1  10
ATOM     10  C   UNL     1      46.874  27.306   5.962  1.00  0.00     0.000 C 
BRANCH  10  11
ATOM     11  C   UNL     1      45.987  26.367   5.130  1.00  0.00    -0.000 C 
BRANCH  11  12
ATOM     12  C   UNL     1      46.519  26.145   3.702  1.00  0.00    -0.000 C 
BRANCH  12  13
ATOM     13  C   UNL     1      45.939  27.084   2.628  1.00  0.00    -0.000 C 
BRANCH  13  14
ATOM     14  C   UNL     1      44.571  27.670   3.017  1.00  0.00    -0.000 C 
BRANCH  14  15
ATOM     15  C   UNL     1      43.515  27.478   1.917  1.00  0.00    -0.003 C 
ATOM     16  C   UNL     1      42.102  27.831   2.383  1.00  0.00     0.004 C 
ENDBRANCH  14  15
ENDBRANCH  13  14
ENDBRANCH  12  13
ENDBRANCH  11  12
ENDBRANCH  10  11
ENDBRANCH   1  10
TORSDOF 12
ENDMDL
MODEL 5
REMARK VINA RESULT:    -3.308      3.792      6.017
REMARK INTER + INTRA:          -7.264
REMARK INTER:                  -6.433
REMARK INTRA:                  -0.831
REMARK UNBOUND:                -1.636
REMARK SMILES CCCCCCCCCCCCCC(=O)[O-]
REMARK SMILES IDX 8 1 9 2 10 3 11 4 12 5 13 6 14 7 15 8 16 9 7 10 6 11 5 12
REMARK SMILES IDX 4 13 3 14 2 15 1 16
REMARK H PARENT
REMARK Flexibility Score: inf
ROOT
ATOM      1  C   UNL     1      46.520  29.200  -1.539  1.00  0.00     0.000 C 
ENDROOT
BRANCH   1   2
ATOM      2  C   UNL     1      45.632  29.932  -0.511  1.00  0.00     0.000 C 
BRANCH   2   3
ATOM      3  C   UNL     1      45.670  29.253   0.871  1.00  0.00     0.000 C 
BRANCH   3   4
ATOM      4  C   UNL     1      45.092  27.829   0.849  1.00  0.00     0.000 C 
BRANCH   4   5
ATOM      5  C   UNL     1      44.356  27.467   2.150  1.00  0.00     0.006 C 
BRANCH   5   6
ATOM      6  C   UNL     1      45.233  27.682   3.391  1.00  0.00     0.053 C 
BRANCH   6   7
ATOM      7  C   UNL     1      45.581  26.386   4.057  1.00  0.00     0.041 C 
ATOM      8  O   UNL     1      45.217  25.294   3.548  1.00  0.00    -0.550 OA
ATOM      9  O   UNL     1      46.283  26.385   5.256  1.00  0.00    -0.550 OA
ENDBRANCH   6   7
ENDBRANCH   5   6
ENDBRANCH   4   5
ENDBRANCH   3   4
ENDBRANCH   2   3
ENDBRANCH   1   2
BRANCH   1  10
ATOM     10  C   UNL     1      45.792  28.863  -2.852  1.00  0.00     0.000 C 
BRANCH  10  11
ATOM     11  C   UNL     1      45.803  27.359  -3.170  1.00  0.00    -0.000 C 
BRANCH  11  12
ATOM     12  C   UNL     1      45.729  27.061  -4.678  1.00  0.00    -0.000 C 
BRANCH  12  13
ATOM     13  C   UNL     1      44.784  27.973  -5.485  1.00  0.00    -0.000 C 
BRANCH  13  14
ATOM     14  C   UNL     1      43.358  27.407  -5.603  1.00  0.00    -0.000 C 
BRANCH  14  15
ATOM     15  C   UNL     1      42.284  28.504  -5.535  1.00  0.00    -0.003 C 
ATOM     16  C   UNL     1      42.829  29.837  -5.019  1.00  0.00     0.004 C 
ENDBRANCH  14  15
ENDBRANCH  13  14
ENDBRANCH  12  13
ENDBRANCH  11  12
ENDBRANCH  10  11
ENDBRANCH   1  10
TORSDOF 12
ENDMDL
MODEL 6
REMARK VINA RESULT:    -3.280      3.095      6.542
REMARK INTER + INTRA:          -7.217
REMARK INTER:                  -6.472
REMARK INTRA:                  -0.745
REMARK UNBOUND:                -1.636
REMARK SMILES CCCCCCCCCCCCCC(=O)[O-]
REMARK SMILES IDX 8 1 9 2 10 3 11 4 12 5 13 6 14 7 15 8 16 9 7 10 6 11 5 12
REMARK SMILES IDX 4 13 3 14 2 15 1 16
REMARK H PARENT
REMARK Flexibility Score: inf
ROOT
ATOM      1  C   UNL     1      45.890  25.990   5.143  1.00  0.00     0.000 C 
ENDROOT
BRANCH   1   2
ATOM      2  C   UNL     1      45.251  26.309   3.774  1.00  0.00     0.000 C 
BRANCH   2   3
ATOM      3  C   UNL     1      45.893  27.541   3.110  1.00  0.00     0.000 C 
BRANCH   3   4
ATOM      4  C   UNL     1      45.430  27.743   1.659  1.00  0.00     0.000 C 
BRANCH   4   5
ATOM      5  C   UNL     1      43.904  27.893   1.539  1.00  0.00     0.006 C 
BRANCH   5   6
ATOM      6  C   UNL     1      43.386  29.146   2.257  1.00  0.00     0.053 C 
BRANCH   6   7
ATOM      7  C   UNL     1      41.945  29.012   2.642  1.00  0.00     0.041 C 
ATOM      8  O   UNL     1      41.367  27.897   2.554  1.00  0.00    -0.550 OA
ATOM      9  O   UNL     1      41.232  30.124   3.071  1.00  0.00    -0.550 OA
ENDBRANCH   6   7
ENDBRANCH   5   6
ENDBRANCH   4   5
ENDBRANCH   3   4
ENDBRANCH   2   3
ENDBRANCH   1   2
BRANCH   1  10
ATOM     10  C   UNL     1      47.017  26.960   5.538  1.00  0.00     0.000 C 
BRANCH  10  11
ATOM     11  C   UNL     1      46.868  27.493   6.972  1.00  0.00    -0.000 C 
BRANCH  11  12
ATOM     12  C   UNL     1      46.520  26.393   7.990  1.00  0.00    -0.000 C 
BRANCH  12  13
ATOM     13  C   UNL     1      45.446  26.770   9.029  1.00  0.00    -0.000 C 
BRANCH  13  14
ATOM     14  C   UNL     1      45.808  28.027   9.838  1.00  0.00    -0.000 C 
BRANCH  14  15
ATOM     15  C   UNL     1      44.817  29.179   9.608  1.00  0.00    -0.003 C 
ATOM     16  C   UNL     1      45.230  30.096   8.456  1.00  0.00     0.004 C 
ENDBRANCH  14  15
ENDBRANCH  13  14
ENDBRANCH  12  13
ENDBRANCH  11  12
ENDBRANCH  10  11
ENDBRANCH   1  10
TORSDOF 12
ENDMDL
MODEL 7
REMARK VINA RESULT:    -3.254      6.391      9.715
REMARK INTER + INTRA:          -7.172
REMARK INTER:                  -6.288
REMARK INTRA:                  -0.884
REMARK UNBOUND:                -1.636
REMARK SMILES CCCCCCCCCCCCCC(=O)[O-]
REMARK SMILES IDX 8 1 9 2 10 3 11 4 12 5 13 6 14 7 15 8 16 9 7 10 6 11 5 12
REMARK SMILES IDX 4 13 3 14 2 15 1 16
REMARK H PARENT
REMARK Flexibility Score: inf
ROOT
ATOM      1  C   UNL     1      45.964  27.787  -2.617  1.00  0.00     0.000 C 
ENDROOT
BRANCH   1   2
ATOM      2  C   UNL     1      46.685  27.058  -3.771  1.00  0.00     0.000 C 
BRANCH   2   3
ATOM      3  C   UNL     1      46.744  27.915  -5.048  1.00  0.00     0.000 C 
BRANCH   3   4
ATOM      4  C   UNL     1      45.804  27.404  -6.151  1.00  0.00     0.000 C 
BRANCH   4   5
ATOM      5  C   UNL     1      44.601  28.334  -6.383  1.00  0.00     0.006 C 
BRANCH   5   6
ATOM      6  C   UNL     1      43.360  27.884  -5.600  1.00  0.00     0.053 C 
BRANCH   6   7
ATOM      7  C   UNL     1      42.334  28.972  -5.511  1.00  0.00     0.041 C 
ATOM      8  O   UNL     1      42.430  29.863  -4.627  1.00  0.00    -0.550 OA
ATOM      9  O   UNL     1      41.255  28.985  -6.386  1.00  0.00    -0.550 OA
ENDBRANCH   6   7
ENDBRANCH   5   6
ENDBRANCH   4   5
ENDBRANCH   3   4
ENDBRANCH   2   3
ENDBRANCH   1   2
BRANCH   1  10
ATOM     10  C   UNL     1      46.085  29.319  -2.685  1.00  0.00     0.000 C 
BRANCH  10  11
ATOM     11  C   UNL     1      45.866  29.995  -1.323  1.00  0.00    -0.000 C 
BRANCH  11  12
ATOM     12  C   UNL     1      46.037  29.029  -0.137  1.00  0.00    -0.000 C 
BRANCH  12  13
ATOM     13  C   UNL     1      44.887  29.031   0.889  1.00  0.00    -0.000 C 
BRANCH  13  14
ATOM     14  C   UNL     1      44.830  27.745   1.731  1.00  0.00    -0.000 C 
BRANCH  14  15
ATOM     15  C   UNL     1      43.397  27.220   1.905  1.00  0.00    -0.003 C 
ATOM     16  C   UNL     1      42.442  28.276   2.465  1.00  0.00     0.004 C 
ENDBRANCH  14  15
ENDBRANCH  13  14
ENDBRANCH  12  13
ENDBRANCH  11  12
ENDBRANCH  10  11
ENDBRANCH   1  10
TORSDOF 12
ENDMDL
MODEL 8
REMARK VINA RESULT:    -3.218      1.351      2.332
REMARK INTER + INTRA:          -7.112
REMARK INTER:                  -6.403
REMARK INTRA:                  -0.709
REMARK UNBOUND:                -1.636
REMARK SMILES CCCCCCCCCCCCCC(=O)[O-]
REMARK SMILES IDX 8 1 9 2 10 3 11 4 12 5 13 6 14 7 15 8 16 9 7 10 6 11 5 12
REMARK SMILES IDX 4 13 3 14 2 15 1 16
REMARK H PARENT
REMARK Flexibility Score: inf
ROOT
ATOM      1  C   UNL     1      44.040  27.093   2.426  1.00  0.00     0.000 C 
ENDROOT
BRANCH   1   2
ATOM      2  C   UNL     1      44.713  26.282   3.554  1.00  0.00     0.000 C 
BRANCH   2   3
ATOM      3  C   UNL     1      46.234  26.513   3.602  1.00  0.00     0.000 C 
BRANCH   3   4
ATOM      4  C   UNL     1      46.835  26.226   4.987  1.00  0.00     0.000 C 
BRANCH   4   5
ATOM      5  C   UNL     1      46.167  27.044   6.105  1.00  0.00     0.006 C 
BRANCH   5   6
ATOM      6  C   UNL     1      46.676  26.648   7.497  1.00  0.00     0.053 C 
BRANCH   6   7
ATOM      7  C   UNL     1      45.686  26.987   8.569  1.00  0.00     0.041 C 
ATOM      8  O   UNL     1      45.262  26.092   9.345  1.00  0.00    -0.550 OA
ATOM      9  O   UNL     1      45.212  28.287   8.693  1.00  0.00    -0.550 OA
ENDBRANCH   6   7
ENDBRANCH   5   6
ENDBRANCH   4   5
ENDBRANCH   3   4
ENDBRANCH   2   3
ENDBRANCH   1   2
BRANCH   1  10
ATOM     10  C   UNL     1      44.277  28.610   2.531  1.00  0.00     0.000 C 
BRANCH  10  11
ATOM     11  C   UNL     1      44.899  29.204   1.258  1.00  0.00    -0.000 C 
BRANCH  11  12
ATOM     12  C   UNL     1      45.591  28.150   0.376  1.00  0.00    -0.000 C 
BRANCH  12  13
ATOM     13  C   UNL     1      46.594  28.705  -0.654  1.00  0.00    -0.000 C 
BRANCH  13  14
ATOM     14  C   UNL     1      46.023  28.757  -2.081  1.00  0.00    -0.000 C 
BRANCH  14  15
ATOM     15  C   UNL     1      46.484  27.571  -2.942  1.00  0.00    -0.003 C 
ATOM     16  C   UNL     1      45.457  27.174  -4.003  1.00  0.00     0.004 C 
ENDBRANCH  14  15
ENDBRANCH  13  14
ENDBRANCH  12  13
ENDBRANCH  11  12
ENDBRANCH  10  11
ENDBRANCH   1  10
TORSDOF 12
ENDMDL
