MODEL 1
REMARK VINA RESULT:    -0.010      0.000      0.000
REMARK INTER + INTRA:           0.221
REMARK INTER:                  -0.015
REMARK INTRA:                   0.236
REMARK UNBOUND:                 0.236
REMARK SMILES C[C@@]12C[C@@]3(O)O[C@@H](O1)[C@]1(COC(=O)c4ccccc4)[C@H]3C[C@@]12O[C@@H]1O[C@@H](CO)[C@H](O)[C@@H](O)[C@@H]1O
REMARK SMILES IDX 1 1 2 2 3 3 4 4 20 5 21 6 22 7 9 8 7 9 8 10 6 11 23 12 24 13
REMARK SMILES IDX 33 14 25 15 31 16 26 17 29 18 34 19 32 21 27 23 28 24 30 26
REMARK SMILES IDX 5 28 10 30 11 31 12 32 13 33 14 34 15 35 19 36 16 37 18 38
REMARK SMILES IDX 17 39
REMARK H PARENT 34 20 32 22 28 25 30 27 5 29
REMARK Flexibility Score: inf
ROOT
ATOM      1  C   UNL     1      38.337 -32.805   7.674  1.00  0.00     0.046 C 
ATOM      2  C   UNL     1      37.276 -31.730   7.902  1.00  0.00     0.104 C 
ATOM      3  C   UNL     1      37.019 -30.898   6.592  1.00  0.00     0.104 C 
ATOM      4  C   UNL     1      35.982 -29.814   7.048  1.00  0.00     0.175 C 
ATOM      5  C   UNL     1      36.464 -29.122   8.362  1.00  0.00     0.070 C 
ATOM      6  C   UNL     1      37.966 -29.329   8.640  1.00  0.00     0.050 C 
ATOM      7  C   UNL     1      37.577 -30.758   9.109  1.00  0.00     0.115 C 
ATOM      8  C   UNL     1      36.150 -30.255   9.332  1.00  0.00     0.096 C 
ATOM      9  C   UNL     1      35.227 -31.212   8.596  1.00  0.00     0.267 C 
ATOM     10  O   UNL     1      36.032 -32.320   8.226  1.00  0.00    -0.342 OA
ATOM     11  O   UNL     1      34.817 -30.522   7.427  1.00  0.00    -0.320 OA
ENDROOT
BRANCH   7  12
ATOM     12  O   UNL     1      38.157 -31.408  10.244  1.00  0.00    -0.339 OA
BRANCH  12  13
ATOM     13  C   UNL     1      38.742 -30.538  11.203  1.00  0.00     0.282 C 
ATOM     14  C   UNL     1      39.293 -31.345  12.396  1.00  0.00     0.202 C 
ATOM     15  O   UNL     1      39.746 -29.710  10.632  1.00  0.00    -0.341 OA
ATOM     16  C   UNL     1      40.541 -32.142  11.985  1.00  0.00     0.179 C 
ATOM     17  C   UNL     1      40.847 -30.463  10.149  1.00  0.00     0.178 C 
ATOM     18  C   UNL     1      41.549 -31.208  11.305  1.00  0.00     0.177 C 
BRANCH  14  19
ATOM     19  O   UNL     1      38.294 -32.213  12.870  1.00  0.00    -0.385 OA
ATOM     20  H   UNL     1      37.685 -31.673  13.437  1.00  0.00     0.211 HD
ENDBRANCH  14  19
BRANCH  16  21
ATOM     21  O   UNL     1      41.140 -32.717  13.119  1.00  0.00    -0.387 OA
ATOM     22  H   UNL     1      41.883 -33.289  12.794  1.00  0.00     0.211 HD
ENDBRANCH  16  21
BRANCH  17  23
ATOM     23  C   UNL     1      41.812 -29.505   9.436  1.00  0.00     0.191 C 
BRANCH  23  24
ATOM     24  O   UNL     1      43.108 -29.644   9.954  1.00  0.00    -0.394 OA
ATOM     25  H   UNL     1      43.222 -28.934  10.637  1.00  0.00     0.210 HD
ENDBRANCH  23  24
ENDBRANCH  17  23
BRANCH  18  26
ATOM     26  O   UNL     1      42.616 -31.980  10.812  1.00  0.00    -0.387 OA
ATOM     27  H   UNL     1      42.295 -32.436   9.991  1.00  0.00     0.211 HD
ENDBRANCH  18  26
ENDBRANCH  12  13
ENDBRANCH   7  12
BRANCH   4  28
ATOM     28  O   UNL     1      35.712 -28.876   6.043  1.00  0.00    -0.365 OA
ATOM     29  H   UNL     1      36.260 -28.074   6.248  1.00  0.00     0.214 HD
ENDBRANCH   4  28
BRANCH   8  30
ATOM     30  C   UNL     1      35.727 -29.813  10.749  1.00  0.00     0.249 C 
BRANCH  30  31
ATOM     31  O   UNL     1      34.600 -30.570  11.190  1.00  0.00    -0.461 OA
BRANCH  31  32
ATOM     32  C   UNL     1      34.647 -31.532  12.206  1.00  0.00     0.338 C 
ATOM     33  O   UNL     1      35.635 -31.583  12.991  1.00  0.00    -0.246 OA
BRANCH  32  34
ATOM     34  C   UNL     1      33.530 -32.490  12.360  1.00  0.00     0.060 A 
ATOM     35  C   UNL     1      33.661 -33.811  11.892  1.00  0.00     0.015 A 
ATOM     36  C   UNL     1      32.328 -32.102  12.979  1.00  0.00     0.015 A 
ATOM     37  C   UNL     1      32.609 -34.721  12.041  1.00  0.00     0.001 A 
ATOM     38  C   UNL     1      31.280 -33.015  13.125  1.00  0.00     0.001 A 
ATOM     39  C   UNL     1      31.420 -34.323  12.657  1.00  0.00     0.000 A 
ENDBRANCH  32  34
ENDBRANCH  31  32
ENDBRANCH  30  31
ENDBRANCH   8  30
TORSDOF 12
ENDMDL
MODEL 2
REMARK VINA RESULT:     2.465      2.185      5.945
REMARK INTER + INTRA:           4.071
REMARK INTER:                   4.690
REMARK INTRA:                  -0.619
REMARK UNBOUND:                 0.236
REMARK SMILES C[C@@]12C[C@@]3(O)O[C@@H](O1)[C@]1(COC(=O)c4ccccc4)[C@H]3C[C@@]12O[C@@H]1O[C@@H](CO)[C@H](O)[C@@H](O)[C@@H]1O
REMARK SMILES IDX 1 1 2 2 3 3 4 4 20 5 21 6 22 7 9 8 7 9 8 10 6 11 23 12 24 13
REMARK SMILES IDX 33 14 25 15 31 16 26 17 29 18 34 19 32 21 27 23 28 24 30 26
REMARK SMILES IDX 5 28 10 30 11 31 12 32 13 33 14 34 15 35 19 36 16 37 18 38
REMARK SMILES IDX 17 39
REMARK H PARENT 34 20 32 22 28 25 30 27 5 29
REMARK Flexibility Score: inf
ROOT
ATOM      1  C   UNL     1      40.249 -33.221  12.338  1.00  0.00     0.046 C 
ATOM      2  C   UNL     1      40.765 -32.087  11.455  1.00  0.00     0.104 C 
ATOM      3  C   UNL     1      42.268 -31.753  11.778  1.00  0.00     0.104 C 
ATOM      4  C   UNL     1      42.578 -30.533  10.844  1.00  0.00     0.175 C 
ATOM      5  C   UNL     1      41.464 -29.448  10.982  1.00  0.00     0.070 C 
ATOM      6  C   UNL     1      40.611 -29.614  12.256  1.00  0.00     0.050 C 
ATOM      7  C   UNL     1      39.897 -30.770  11.505  1.00  0.00     0.115 C 
ATOM      8  C   UNL     1      40.373 -30.157  10.186  1.00  0.00     0.096 C 
ATOM      9  C   UNL     1      41.056 -31.267   9.407  1.00  0.00     0.267 C 
ATOM     10  O   UNL     1      40.747 -32.470  10.093  1.00  0.00    -0.342 OA
ATOM     11  O   UNL     1      42.447 -31.010   9.519  1.00  0.00    -0.320 OA
ENDROOT
BRANCH   7  12
ATOM     12  O   UNL     1      38.487 -31.008  11.568  1.00  0.00    -0.339 OA
BRANCH  12  13
ATOM     13  C   UNL     1      37.964 -31.185  12.877  1.00  0.00     0.282 C 
ATOM     14  C   UNL     1      36.788 -30.218  13.121  1.00  0.00     0.202 C 
ATOM     15  O   UNL     1      37.584 -32.532  13.125  1.00  0.00    -0.341 OA
ATOM     16  C   UNL     1      35.558 -30.637  12.300  1.00  0.00     0.179 C 
ATOM     17  C   UNL     1      36.523 -32.951  12.281  1.00  0.00     0.178 C 
ATOM     18  C   UNL     1      35.250 -32.118  12.550  1.00  0.00     0.177 C 
BRANCH  14  19
ATOM     19  O   UNL     1      37.182 -28.913  12.779  1.00  0.00    -0.385 OA
ATOM     20  H   UNL     1      36.367 -28.348  12.803  1.00  0.00     0.211 HD
ENDBRANCH  14  19
BRANCH  16  21
ATOM     21  O   UNL     1      34.444 -29.867  12.675  1.00  0.00    -0.387 OA
ATOM     22  H   UNL     1      34.213 -29.295  11.897  1.00  0.00     0.211 HD
ENDBRANCH  16  21
BRANCH  17  23
ATOM     23  C   UNL     1      36.273 -34.446  12.525  1.00  0.00     0.191 C 
BRANCH  23  24
ATOM     24  O   UNL     1      37.415 -35.046  13.075  1.00  0.00    -0.394 OA
ATOM     25  H   UNL     1      38.120 -35.016  12.377  1.00  0.00     0.210 HD
ENDBRANCH  23  24
ENDBRANCH  17  23
BRANCH  18  26
ATOM     26  O   UNL     1      34.215 -32.515  11.686  1.00  0.00    -0.387 OA
ATOM     27  H   UNL     1      34.426 -33.434  11.376  1.00  0.00     0.211 HD
ENDBRANCH  18  26
ENDBRANCH  12  13
ENDBRANCH   7  12
BRANCH   4  28
ATOM     28  O   UNL     1      43.850 -29.993  11.074  1.00  0.00    -0.365 OA
ATOM     29  H   UNL     1      43.807 -29.527  11.950  1.00  0.00     0.214 HD
ENDBRANCH   4  28
BRANCH   8  30
ATOM     30  C   UNL     1      39.417 -29.229   9.407  1.00  0.00     0.249 C 
BRANCH  30  31
ATOM     31  O   UNL     1      38.914 -29.896   8.248  1.00  0.00    -0.461 OA
BRANCH  31  32
ATOM     32  C   UNL     1      37.763 -29.504   7.553  1.00  0.00     0.338 C 
ATOM     33  O   UNL     1      37.861 -28.893   6.452  1.00  0.00    -0.246 OA
BRANCH  32  34
ATOM     34  C   UNL     1      36.430 -29.814   8.112  1.00  0.00     0.060 A 
ATOM     35  C   UNL     1      35.828 -31.060   7.860  1.00  0.00     0.015 A 
ATOM     36  C   UNL     1      35.747 -28.875   8.909  1.00  0.00     0.015 A 
ATOM     37  C   UNL     1      34.569 -31.359   8.393  1.00  0.00     0.001 A 
ATOM     38  C   UNL     1      34.489 -29.179   9.438  1.00  0.00     0.001 A 
ATOM     39  C   UNL     1      33.900 -30.419   9.180  1.00  0.00     0.000 A 
ENDBRANCH  32  34
ENDBRANCH  31  32
ENDBRANCH  30  31
ENDBRANCH   8  30
TORSDOF 12
ENDMDL
