MODEL 1
REMARK VINA RESULT:    -3.585      0.000      0.000
REMARK INTER + INTRA:          -5.042
REMARK INTER:                  -4.633
REMARK INTRA:                  -0.409
REMARK UNBOUND:                -0.409
REMARK SMILES CCCCCCC(=O)[O-]
REMARK SMILES IDX 5 1 6 2 7 3 8 4 9 5 4 6 3 7 2 8 1 9
REMARK H PARENT
REMARK Flexibility Score: inf
ROOT
ATOM      1  C   UNL     1      89.631  77.043  73.055  1.00  0.00     0.006 C 
ENDROOT
BRANCH   1   2
ATOM      2  C   UNL     1      88.844  76.990  71.739  1.00  0.00     0.053 C 
BRANCH   2   3
ATOM      3  C   UNL     1      87.998  78.212  71.545  1.00  0.00     0.041 C 
ATOM      4  O   UNL     1      88.514  79.280  71.124  1.00  0.00    -0.550 OA
ATOM      5  O   UNL     1      86.645  78.178  71.859  1.00  0.00    -0.550 OA
ENDBRANCH   2   3
ENDBRANCH   1   2
BRANCH   1   6
ATOM      6  C   UNL     1      89.040  76.105  74.122  1.00  0.00     0.000 C 
BRANCH   6   7
ATOM      7  C   UNL     1      88.194  76.853  75.164  1.00  0.00    -0.000 C 
BRANCH   7   8
ATOM      8  C   UNL     1      86.691  76.573  75.019  1.00  0.00    -0.003 C 
ATOM      9  C   UNL     1      86.446  75.231  74.335  1.00  0.00     0.004 C 
ENDBRANCH   7   8
ENDBRANCH   6   7
ENDBRANCH   1   6
TORSDOF 5
ENDMDL
MODEL 2
REMARK VINA RESULT:    -3.539     11.467     12.370
REMARK INTER + INTRA:          -4.983
REMARK INTER:                  -4.700
REMARK INTRA:                  -0.283
REMARK UNBOUND:                -0.409
REMARK SMILES CCCCCCC(=O)[O-]
REMARK SMILES IDX 5 1 6 2 7 3 8 4 9 5 4 6 3 7 2 8 1 9
REMARK H PARENT
REMARK Flexibility Score: inf
ROOT
ATOM      1  C   UNL     1      94.426  84.000  79.396  1.00  0.00     0.006 C 
ENDROOT
BRANCH   1   2
ATOM      2  C   UNL     1      95.352  84.746  80.367  1.00  0.00     0.053 C 
BRANCH   2   3
ATOM      3  C   UNL     1      96.164  85.794  79.669  1.00  0.00     0.041 C 
ATOM      4  O   UNL     1      97.318  86.081  80.084  1.00  0.00    -0.550 OA
ATOM      5  O   UNL     1      95.634  86.474  78.581  1.00  0.00    -0.550 OA
ENDBRANCH   2   3
ENDBRANCH   1   2
BRANCH   1   6
ATOM      6  C   UNL     1      93.080  83.633  80.045  1.00  0.00     0.000 C 
BRANCH   6   7
ATOM      7  C   UNL     1      92.080  84.799  80.031  1.00  0.00    -0.000 C 
BRANCH   7   8
ATOM      8  C   UNL     1      91.659  85.203  78.611  1.00  0.00    -0.003 C 
ATOM      9  C   UNL     1      92.097  86.629  78.293  1.00  0.00     0.004 C 
ENDBRANCH   7   8
ENDBRANCH   6   7
ENDBRANCH   1   6
TORSDOF 5
ENDMDL
MODEL 3
REMARK VINA RESULT:    -3.524      1.509      2.194
REMARK INTER + INTRA:          -4.963
REMARK INTER:                  -4.753
REMARK INTRA:                  -0.211
REMARK UNBOUND:                -0.409
REMARK SMILES CCCCCCC(=O)[O-]
REMARK SMILES IDX 5 1 6 2 7 3 8 4 9 5 4 6 3 7 2 8 1 9
REMARK H PARENT
REMARK Flexibility Score: inf
ROOT
ATOM      1  C   UNL     1      88.295  77.536  72.644  1.00  0.00     0.006 C 
ENDROOT
BRANCH   1   2
ATOM      2  C   UNL     1      89.751  77.780  72.226  1.00  0.00     0.053 C 
BRANCH   2   3
ATOM      3  C   UNL     1      89.849  78.312  70.828  1.00  0.00     0.041 C 
ATOM      4  O   UNL     1      88.811  78.675  70.215  1.00  0.00    -0.550 OA
ATOM      5  O   UNL     1      91.082  78.379  70.194  1.00  0.00    -0.550 OA
ENDBRANCH   2   3
ENDBRANCH   1   2
BRANCH   1   6
ATOM      6  C   UNL     1      88.014  76.049  72.925  1.00  0.00     0.000 C 
BRANCH   6   7
ATOM      7  C   UNL     1      88.128  75.698  74.416  1.00  0.00    -0.000 C 
BRANCH   7   8
ATOM      8  C   UNL     1      87.945  76.919  75.329  1.00  0.00    -0.003 C 
ATOM      9  C   UNL     1      86.560  76.925  75.968  1.00  0.00     0.004 C 
ENDBRANCH   7   8
ENDBRANCH   6   7
ENDBRANCH   1   6
TORSDOF 5
ENDMDL
MODEL 4
REMARK VINA RESULT:    -3.502     11.260     12.120
REMARK INTER + INTRA:          -4.936
REMARK INTER:                  -4.750
REMARK INTRA:                  -0.185
REMARK UNBOUND:                -0.409
REMARK SMILES CCCCCCC(=O)[O-]
REMARK SMILES IDX 5 1 6 2 7 3 8 4 9 5 4 6 3 7 2 8 1 9
REMARK H PARENT
REMARK Flexibility Score: inf
ROOT
ATOM      1  C   UNL     1      94.487  83.993  79.295  1.00  0.00     0.006 C 
ENDROOT
BRANCH   1   2
ATOM      2  C   UNL     1      95.285  84.819  80.313  1.00  0.00     0.053 C 
BRANCH   2   3
ATOM      3  C   UNL     1      96.167  85.829  79.645  1.00  0.00     0.041 C 
ATOM      4  O   UNL     1      97.342  86.016  80.058  1.00  0.00    -0.550 OA
ATOM      5  O   UNL     1      95.682  86.583  78.585  1.00  0.00    -0.550 OA
ENDBRANCH   2   3
ENDBRANCH   1   2
BRANCH   1   6
ATOM      6  C   UNL     1      93.027  83.787  79.733  1.00  0.00     0.000 C 
BRANCH   6   7
ATOM      7  C   UNL     1      92.062  84.776  79.060  1.00  0.00    -0.000 C 
BRANCH   7   8
ATOM      8  C   UNL     1      90.664  84.766  79.694  1.00  0.00    -0.003 C 
ATOM      9  C   UNL     1      90.669  84.016  81.023  1.00  0.00     0.004 C 
ENDBRANCH   7   8
ENDBRANCH   6   7
ENDBRANCH   1   6
TORSDOF 5
ENDMDL
MODEL 5
REMARK VINA RESULT:    -3.499      2.553      4.275
REMARK INTER + INTRA:          -4.931
REMARK INTER:                  -4.716
REMARK INTRA:                  -0.215
REMARK UNBOUND:                -0.409
REMARK SMILES CCCCCCC(=O)[O-]
REMARK SMILES IDX 5 1 6 2 7 3 8 4 9 5 4 6 3 7 2 8 1 9
REMARK H PARENT
REMARK Flexibility Score: inf
ROOT
ATOM      1  C   UNL     1      87.165  75.753  73.074  1.00  0.00     0.006 C 
ENDROOT
BRANCH   1   2
ATOM      2  C   UNL     1      86.870  75.418  74.542  1.00  0.00     0.053 C 
BRANCH   2   3
ATOM      3  C   UNL     1      85.997  76.453  75.185  1.00  0.00     0.041 C 
ATOM      4  O   UNL     1      84.897  76.769  74.659  1.00  0.00    -0.550 OA
ATOM      5  O   UNL     1      86.412  77.088  76.348  1.00  0.00    -0.550 OA
ENDBRANCH   2   3
ENDBRANCH   1   2
BRANCH   1   6
ATOM      6  C   UNL     1      87.961  77.062  72.926  1.00  0.00     0.000 C 
BRANCH   6   7
ATOM      7  C   UNL     1      87.455  77.935  71.768  1.00  0.00    -0.000 C 
BRANCH   7   8
ATOM      8  C   UNL     1      88.488  78.976  71.314  1.00  0.00    -0.003 C 
ATOM      9  C   UNL     1      89.851  78.709  71.946  1.00  0.00     0.004 C 
ENDBRANCH   7   8
ENDBRANCH   6   7
ENDBRANCH   1   6
TORSDOF 5
ENDMDL
MODEL 6
REMARK VINA RESULT:    -3.440     10.475     11.332
REMARK INTER + INTRA:          -4.856
REMARK INTER:                  -4.656
REMARK INTRA:                  -0.199
REMARK UNBOUND:                -0.409
REMARK SMILES CCCCCCC(=O)[O-]
REMARK SMILES IDX 5 1 6 2 7 3 8 4 9 5 4 6 3 7 2 8 1 9
REMARK H PARENT
REMARK Flexibility Score: inf
ROOT
ATOM      1  C   UNL     1      92.458  84.358  79.484  1.00  0.00     0.006 C 
ENDROOT
BRANCH   1   2
ATOM      2  C   UNL     1      93.866  83.787  79.266  1.00  0.00     0.053 C 
BRANCH   2   3
ATOM      3  C   UNL     1      94.931  84.772  79.640  1.00  0.00     0.041 C 
ATOM      4  O   UNL     1      95.685  84.547  80.623  1.00  0.00    -0.550 OA
ATOM      5  O   UNL     1      95.072  85.951  78.920  1.00  0.00    -0.550 OA
ENDBRANCH   2   3
ENDBRANCH   1   2
BRANCH   1   6
ATOM      6  C   UNL     1      92.050  84.344  80.967  1.00  0.00     0.000 C 
BRANCH   6   7
ATOM      7  C   UNL     1      90.578  83.952  81.171  1.00  0.00    -0.000 C 
BRANCH   7   8
ATOM      8  C   UNL     1      89.685  84.365  79.992  1.00  0.00    -0.003 C 
ATOM      9  C   UNL     1      88.337  83.654  80.048  1.00  0.00     0.004 C 
ENDBRANCH   7   8
ENDBRANCH   6   7
ENDBRANCH   1   6
TORSDOF 5
ENDMDL
MODEL 7
REMARK VINA RESULT:    -3.440      2.450      3.306
REMARK INTER + INTRA:          -4.855
REMARK INTER:                  -4.676
REMARK INTRA:                  -0.179
REMARK UNBOUND:                -0.409
REMARK SMILES CCCCCCC(=O)[O-]
REMARK SMILES IDX 5 1 6 2 7 3 8 4 9 5 4 6 3 7 2 8 1 9
REMARK H PARENT
REMARK Flexibility Score: inf
ROOT
ATOM      1  C   UNL     1      89.049  78.377  71.571  1.00  0.00     0.006 C 
ENDROOT
BRANCH   1   2
ATOM      2  C   UNL     1      89.544  78.342  70.119  1.00  0.00     0.053 C 
BRANCH   2   3
ATOM      3  C   UNL     1      90.946  77.823  70.020  1.00  0.00     0.041 C 
ATOM      4  O   UNL     1      91.170  76.586  70.095  1.00  0.00    -0.550 OA
ATOM      5  O   UNL     1      92.006  78.708  69.875  1.00  0.00    -0.550 OA
ENDBRANCH   2   3
ENDBRANCH   1   2
BRANCH   1   6
ATOM      6  C   UNL     1      87.548  78.054  71.681  1.00  0.00     0.000 C 
BRANCH   6   7
ATOM      7  C   UNL     1      87.222  77.161  72.888  1.00  0.00    -0.000 C 
BRANCH   7   8
ATOM      8  C   UNL     1      88.469  76.787  73.702  1.00  0.00    -0.003 C 
ATOM      9  C   UNL     1      88.191  76.866  75.200  1.00  0.00     0.004 C 
ENDBRANCH   7   8
ENDBRANCH   6   7
ENDBRANCH   1   6
TORSDOF 5
ENDMDL
MODEL 8
REMARK VINA RESULT:    -3.425     11.275     12.201
REMARK INTER + INTRA:          -4.836
REMARK INTER:                  -4.402
REMARK INTRA:                  -0.434
REMARK UNBOUND:                -0.409
REMARK SMILES CCCCCCC(=O)[O-]
REMARK SMILES IDX 5 1 6 2 7 3 8 4 9 5 4 6 3 7 2 8 1 9
REMARK H PARENT
REMARK Flexibility Score: inf
ROOT
ATOM      1  C   UNL     1      92.961  84.014  79.869  1.00  0.00     0.006 C 
ENDROOT
BRANCH   1   2
ATOM      2  C   UNL     1      91.989  84.677  78.884  1.00  0.00     0.053 C 
BRANCH   2   3
ATOM      3  C   UNL     1      91.939  86.164  79.065  1.00  0.00     0.041 C 
ATOM      4  O   UNL     1      92.221  86.928  78.105  1.00  0.00    -0.550 OA
ATOM      5  O   UNL     1      91.610  86.703  80.301  1.00  0.00    -0.550 OA
ENDBRANCH   2   3
ENDBRANCH   1   2
BRANCH   1   6
ATOM      6  C   UNL     1      94.412  84.039  79.359  1.00  0.00     0.000 C 
BRANCH   6   7
ATOM      7  C   UNL     1      95.373  84.726  80.343  1.00  0.00    -0.000 C 
BRANCH   7   8
ATOM      8  C   UNL     1      95.465  86.242  80.121  1.00  0.00    -0.003 C 
ATOM      9  C   UNL     1      95.686  86.570  78.648  1.00  0.00     0.004 C 
ENDBRANCH   7   8
ENDBRANCH   6   7
ENDBRANCH   1   6
TORSDOF 5
ENDMDL
MODEL 9
REMARK VINA RESULT:    -3.412      3.648      4.872
REMARK INTER + INTRA:          -4.819
REMARK INTER:                  -4.685
REMARK INTRA:                  -0.133
REMARK UNBOUND:                -0.409
REMARK SMILES CCCCCCC(=O)[O-]
REMARK SMILES IDX 5 1 6 2 7 3 8 4 9 5 4 6 3 7 2 8 1 9
REMARK H PARENT
REMARK Flexibility Score: inf
ROOT
ATOM      1  C   UNL     1      89.953  76.032  73.328  1.00  0.00     0.006 C 
ENDROOT
BRANCH   1   2
ATOM      2  C   UNL     1      89.995  75.547  74.784  1.00  0.00     0.053 C 
BRANCH   2   3
ATOM      3  C   UNL     1      91.108  74.571  75.015  1.00  0.00     0.041 C 
ATOM      4  O   UNL     1      91.244  74.020  76.139  1.00  0.00    -0.550 OA
ATOM      5  O   UNL     1      92.013  74.294  73.999  1.00  0.00    -0.550 OA
ENDBRANCH   2   3
ENDBRANCH   1   2
BRANCH   1   6
ATOM      6  C   UNL     1      89.181  77.355  73.180  1.00  0.00     0.000 C 
BRANCH   6   7
ATOM      7  C   UNL     1      87.823  77.172  72.485  1.00  0.00    -0.000 C 
BRANCH   7   8
ATOM      8  C   UNL     1      87.466  78.345  71.561  1.00  0.00    -0.003 C 
ATOM      9  C   UNL     1      88.667  78.768  70.722  1.00  0.00     0.004 C 
ENDBRANCH   7   8
ENDBRANCH   6   7
ENDBRANCH   1   6
TORSDOF 5
ENDMDL
