MODEL 1
REMARK VINA RESULT:    -6.652      0.000      0.000
REMARK INTER + INTRA:          -8.536
REMARK INTER:                  -8.207
REMARK INTRA:                  -0.329
REMARK UNBOUND:                -0.329
REMARK SMILES COc1cc(-c2oc3cc(O)cc(O)c3c(=O)c2O)ccc1O
REMARK SMILES IDX 6 1 18 2 16 3 17 4 15 5 13 6 12 7 10 8 9 9 8 10 7 11 5 12
REMARK SMILES IDX 3 13 22 14 4 15 21 16 20 17 2 18 1 19 23 20 19 22 14 24
REMARK SMILES IDX 11 26
REMARK H PARENT 23 21 19 23 14 25 11 27
REMARK Flexibility Score: inf
ROOT
ATOM      1  C   UNL     1     106.800 120.885 119.536  1.00  0.00     0.180 A 
ATOM      2  C   UNL     1     105.695 120.051 119.778  1.00  0.00     0.208 A 
ATOM      3  C   UNL     1     104.407 120.521 119.472  1.00  0.00     0.238 A 
ATOM      4  O   UNL     1     103.419 119.791 119.742  1.00  0.00    -0.285 OA
ATOM      5  C   UNL     1     104.243 121.811 118.913  1.00  0.00     0.111 A 
ATOM      6  C   UNL     1     102.989 122.373 118.528  1.00  0.00     0.134 A 
ATOM      7  C   UNL     1     102.931 123.708 118.107  1.00  0.00     0.093 A 
ATOM      8  C   UNL     1     104.089 124.480 117.995  1.00  0.00     0.123 A 
ATOM      9  C   UNL     1     105.325 123.921 118.313  1.00  0.00     0.094 A 
ATOM     10  C   UNL     1     105.411 122.604 118.770  1.00  0.00     0.146 A 
ATOM     11  O   UNL     1     106.608 122.114 119.072  1.00  0.00    -0.452 OA
ENDROOT
BRANCH   1  12
ATOM     12  C   UNL     1     108.190 120.451 119.809  1.00  0.00     0.025 A 
ATOM     13  C   UNL     1     110.226 120.648 121.149  1.00  0.00     0.161 A 
ATOM     14  C   UNL     1     110.851 119.699 120.327  1.00  0.00     0.157 A 
ATOM     15  C   UNL     1     108.895 121.025 120.879  1.00  0.00     0.062 A 
ATOM     16  C   UNL     1     110.157 119.141 119.246  1.00  0.00     0.051 A 
ATOM     17  C   UNL     1     108.838 119.518 118.985  1.00  0.00     0.016 A 
BRANCH  13  18
ATOM     18  O   UNL     1     110.957 121.192 122.217  1.00  0.00    -0.493 OA
ATOM     19  C   UNL     1     110.576 122.354 122.945  1.00  0.00     0.278 C 
ENDBRANCH  13  18
BRANCH  14  20
ATOM     20  O   UNL     1     112.166 119.321 120.589  1.00  0.00    -0.504 OA
ATOM     21  H   UNL     1     112.545 119.336 121.529  1.00  0.00     0.293 HD
ENDBRANCH  14  20
ENDBRANCH   1  12
BRANCH   2  22
ATOM     22  O   UNL     1     105.879 118.789 120.350  1.00  0.00    -0.502 OA
ATOM     23  H   UNL     1     105.177 118.350 120.934  1.00  0.00     0.293 HD
ENDBRANCH   2  22
BRANCH   6  24
ATOM     24  O   UNL     1     101.786 121.661 118.513  1.00  0.00    -0.507 OA
ATOM     25  H   UNL     1     100.878 122.071 118.352  1.00  0.00     0.293 HD
ENDBRANCH   6  24
BRANCH   8  26
ATOM     26  O   UNL     1     104.023 125.801 117.562  1.00  0.00    -0.508 OA
ATOM     27  H   UNL     1     104.468 126.552 118.077  1.00  0.00     0.293 HD
ENDBRANCH   8  26
TORSDOF 6
ENDMDL
MODEL 2
REMARK VINA RESULT:    -6.224      1.223      2.830
REMARK INTER + INTRA:          -8.008
REMARK INTER:                  -7.714
REMARK INTRA:                  -0.294
REMARK UNBOUND:                -0.329
REMARK SMILES COc1cc(-c2oc3cc(O)cc(O)c3c(=O)c2O)ccc1O
REMARK SMILES IDX 6 1 18 2 16 3 17 4 15 5 13 6 12 7 10 8 9 9 8 10 7 11 5 12
REMARK SMILES IDX 3 13 22 14 4 15 21 16 20 17 2 18 1 19 23 20 19 22 14 24
REMARK SMILES IDX 11 26
REMARK H PARENT 23 21 19 23 14 25 11 27
REMARK Flexibility Score: inf
ROOT
ATOM      1  C   UNL     1     107.133 121.188 119.236  1.00  0.00     0.180 A 
ATOM      2  C   UNL     1     106.994 122.460 118.653  1.00  0.00     0.208 A 
ATOM      3  C   UNL     1     105.712 122.914 118.305  1.00  0.00     0.238 A 
ATOM      4  O   UNL     1     105.601 124.029 117.733  1.00  0.00    -0.285 OA
ATOM      5  C   UNL     1     104.583 122.098 118.560  1.00  0.00     0.111 A 
ATOM      6  C   UNL     1     103.234 122.474 118.285  1.00  0.00     0.134 A 
ATOM      7  C   UNL     1     102.207 121.536 118.456  1.00  0.00     0.093 A 
ATOM      8  C   UNL     1     102.474 120.258 118.954  1.00  0.00     0.123 A 
ATOM      9  C   UNL     1     103.780 119.903 119.281  1.00  0.00     0.094 A 
ATOM     10  C   UNL     1     104.830 120.804 119.087  1.00  0.00     0.146 A 
ATOM     11  O   UNL     1     106.062 120.421 119.402  1.00  0.00    -0.452 OA
ENDROOT
BRANCH   1  12
ATOM     12  C   UNL     1     108.449 120.651 119.652  1.00  0.00     0.025 A 
ATOM     13  C   UNL     1     110.362 120.728 121.172  1.00  0.00     0.161 A 
ATOM     14  C   UNL     1     110.976 119.701 120.442  1.00  0.00     0.157 A 
ATOM     15  C   UNL     1     109.100 121.205 120.767  1.00  0.00     0.062 A 
ATOM     16  C   UNL     1     110.338 119.161 119.318  1.00  0.00     0.051 A 
ATOM     17  C   UNL     1     109.087 119.636 118.921  1.00  0.00     0.016 A 
BRANCH  13  18
ATOM     18  O   UNL     1     111.037 121.250 122.288  1.00  0.00    -0.493 OA
ATOM     19  C   UNL     1     110.607 122.385 123.031  1.00  0.00     0.278 C 
ENDBRANCH  13  18
BRANCH  14  20
ATOM     20  O   UNL     1     112.224 119.225 120.838  1.00  0.00    -0.504 OA
ATOM     21  H   UNL     1     113.073 119.500 120.358  1.00  0.00     0.293 HD
ENDBRANCH  14  20
ENDBRANCH   1  12
BRANCH   2  22
ATOM     22  O   UNL     1     108.124 123.239 118.391  1.00  0.00    -0.502 OA
ATOM     23  H   UNL     1     108.638 123.177 117.520  1.00  0.00     0.293 HD
ENDBRANCH   2  22
BRANCH   6  24
ATOM     24  O   UNL     1     102.848 123.752 117.872  1.00  0.00    -0.507 OA
ATOM     25  H   UNL     1     102.107 123.944 117.214  1.00  0.00     0.293 HD
ENDBRANCH   6  24
BRANCH   8  26
ATOM     26  O   UNL     1     101.445 119.338 119.136  1.00  0.00    -0.508 OA
ATOM     27  H   UNL     1     100.551 119.441 118.669  1.00  0.00     0.293 HD
ENDBRANCH   8  26
TORSDOF 6
ENDMDL
MODEL 3
REMARK VINA RESULT:    -6.197      1.837      6.943
REMARK INTER + INTRA:          -7.975
REMARK INTER:                  -7.594
REMARK INTRA:                  -0.381
REMARK UNBOUND:                -0.329
REMARK SMILES COc1cc(-c2oc3cc(O)cc(O)c3c(=O)c2O)ccc1O
REMARK SMILES IDX 6 1 18 2 16 3 17 4 15 5 13 6 12 7 10 8 9 9 8 10 7 11 5 12
REMARK SMILES IDX 3 13 22 14 4 15 21 16 20 17 2 18 1 19 23 20 19 22 14 24
REMARK SMILES IDX 11 26
REMARK H PARENT 23 21 19 23 14 25 11 27
REMARK Flexibility Score: inf
ROOT
ATOM      1  C   UNL     1     106.083 121.698 120.037  1.00  0.00     0.180 A 
ATOM      2  C   UNL     1     105.552 120.791 120.969  1.00  0.00     0.208 A 
ATOM      3  C   UNL     1     106.428 120.088 121.813  1.00  0.00     0.238 A 
ATOM      4  O   UNL     1     105.950 119.237 122.606  1.00  0.00    -0.285 OA
ATOM      5  C   UNL     1     107.823 120.316 121.725  1.00  0.00     0.111 A 
ATOM      6  C   UNL     1     108.799 119.690 122.557  1.00  0.00     0.134 A 
ATOM      7  C   UNL     1     110.160 119.891 122.295  1.00  0.00     0.093 A 
ATOM      8  C   UNL     1     110.579 120.745 121.273  1.00  0.00     0.123 A 
ATOM      9  C   UNL     1     109.633 121.407 120.494  1.00  0.00     0.094 A 
ATOM     10  C   UNL     1     108.268 121.199 120.708  1.00  0.00     0.146 A 
ATOM     11  O   UNL     1     107.399 121.841 119.935  1.00  0.00    -0.452 OA
ENDROOT
BRANCH   1  12
ATOM     12  C   UNL     1     105.222 122.493 119.132  1.00  0.00     0.025 A 
ATOM     13  C   UNL     1     104.020 122.687 117.012  1.00  0.00     0.161 A 
ATOM     14  C   UNL     1     103.636 123.991 117.356  1.00  0.00     0.157 A 
ATOM     15  C   UNL     1     104.821 121.945 117.903  1.00  0.00     0.062 A 
ATOM     16  C   UNL     1     104.053 124.548 118.571  1.00  0.00     0.051 A 
ATOM     17  C   UNL     1     104.845 123.808 119.450  1.00  0.00     0.016 A 
BRANCH  13  18
ATOM     18  O   UNL     1     103.590 122.167 115.780  1.00  0.00    -0.493 OA
ATOM     19  C   UNL     1     103.259 120.801 115.554  1.00  0.00     0.278 C 
ENDBRANCH  13  18
BRANCH  14  20
ATOM     20  O   UNL     1     102.844 124.730 116.479  1.00  0.00    -0.504 OA
ATOM     21  H   UNL     1     103.208 125.539 115.989  1.00  0.00     0.293 HD
ENDBRANCH  14  20
ENDBRANCH   1  12
BRANCH   2  22
ATOM     22  O   UNL     1     104.173 120.566 121.024  1.00  0.00    -0.502 OA
ATOM     23  H   UNL     1     103.683 120.401 121.895  1.00  0.00     0.293 HD
ENDBRANCH   2  22
BRANCH   6  24
ATOM     24  O   UNL     1     108.488 118.891 123.661  1.00  0.00    -0.507 OA
ATOM     25  H   UNL     1     107.719 119.059 124.293  1.00  0.00     0.293 HD
ENDBRANCH   6  24
BRANCH   8  26
ATOM     26  O   UNL     1     111.935 120.950 121.029  1.00  0.00    -0.508 OA
ATOM     27  H   UNL     1     112.256 121.657 120.378  1.00  0.00     0.293 HD
ENDBRANCH   8  26
TORSDOF 6
ENDMDL
MODEL 4
REMARK VINA RESULT:    -6.010      3.853      6.771
REMARK INTER + INTRA:          -7.744
REMARK INTER:                  -7.344
REMARK INTRA:                  -0.399
REMARK UNBOUND:                -0.329
REMARK SMILES COc1cc(-c2oc3cc(O)cc(O)c3c(=O)c2O)ccc1O
REMARK SMILES IDX 6 1 18 2 16 3 17 4 15 5 13 6 12 7 10 8 9 9 8 10 7 11 5 12
REMARK SMILES IDX 3 13 22 14 4 15 21 16 20 17 2 18 1 19 23 20 19 22 14 24
REMARK SMILES IDX 11 26
REMARK H PARENT 23 21 19 23 14 25 11 27
REMARK Flexibility Score: inf
ROOT
ATOM      1  C   UNL     1     105.696 119.972 122.235  1.00  0.00     0.180 A 
ATOM      2  C   UNL     1     105.296 120.931 121.288  1.00  0.00     0.208 A 
ATOM      3  C   UNL     1     106.272 121.551 120.492  1.00  0.00     0.238 A 
ATOM      4  O   UNL     1     105.914 122.448 119.686  1.00  0.00    -0.285 OA
ATOM      5  C   UNL     1     107.634 121.192 120.641  1.00  0.00     0.111 A 
ATOM      6  C   UNL     1     108.702 121.728 119.861  1.00  0.00     0.134 A 
ATOM      7  C   UNL     1     110.025 121.397 120.183  1.00  0.00     0.093 A 
ATOM      8  C   UNL     1     110.314 120.501 121.215  1.00  0.00     0.123 A 
ATOM      9  C   UNL     1     109.274 119.928 121.943  1.00  0.00     0.094 A 
ATOM     10  C   UNL     1     107.946 120.266 121.669  1.00  0.00     0.146 A 
ATOM     11  O   UNL     1     106.986 119.704 122.395  1.00  0.00    -0.452 OA
ENDROOT
BRANCH   1  12
ATOM     12  C   UNL     1     104.722 119.257 123.092  1.00  0.00     0.025 A 
ATOM     13  C   UNL     1     103.509 119.099 125.209  1.00  0.00     0.161 A 
ATOM     14  C   UNL     1     102.925 117.900 124.777  1.00  0.00     0.157 A 
ATOM     15  C   UNL     1     104.414 119.770 124.363  1.00  0.00     0.062 A 
ATOM     16  C   UNL     1     103.246 117.375 123.519  1.00  0.00     0.051 A 
ATOM     17  C   UNL     1     104.143 118.044 122.685  1.00  0.00     0.016 A 
BRANCH  13  18
ATOM     18  O   UNL     1     103.168 119.588 126.480  1.00  0.00    -0.493 OA
ATOM     19  C   UNL     1     103.918 119.344 127.665  1.00  0.00     0.278 C 
ENDBRANCH  13  18
BRANCH  14  20
ATOM     20  O   UNL     1     102.028 117.232 125.609  1.00  0.00    -0.504 OA
ATOM     21  H   UNL     1     101.899 117.505 126.576  1.00  0.00     0.293 HD
ENDBRANCH  14  20
ENDBRANCH   1  12
BRANCH   2  22
ATOM     22  O   UNL     1     103.949 121.285 121.173  1.00  0.00    -0.502 OA
ATOM     23  H   UNL     1     103.434 121.722 121.929  1.00  0.00     0.293 HD
ENDBRANCH   2  22
BRANCH   6  24
ATOM     24  O   UNL     1     108.519 122.558 118.751  1.00  0.00    -0.507 OA
ATOM     25  H   UNL     1     107.792 123.252 118.667  1.00  0.00     0.293 HD
ENDBRANCH   6  24
BRANCH   8  26
ATOM     26  O   UNL     1     111.631 120.167 121.517  1.00  0.00    -0.508 OA
ATOM     27  H   UNL     1     112.339 120.878 121.661  1.00  0.00     0.293 HD
ENDBRANCH   8  26
TORSDOF 6
ENDMDL
MODEL 5
REMARK VINA RESULT:    -5.878      1.346      2.232
REMARK INTER + INTRA:          -7.582
REMARK INTER:                  -7.183
REMARK INTRA:                  -0.399
REMARK UNBOUND:                -0.329
REMARK SMILES COc1cc(-c2oc3cc(O)cc(O)c3c(=O)c2O)ccc1O
REMARK SMILES IDX 6 1 18 2 16 3 17 4 15 5 13 6 12 7 10 8 9 9 8 10 7 11 5 12
REMARK SMILES IDX 3 13 22 14 4 15 21 16 20 17 2 18 1 19 23 20 19 22 14 24
REMARK SMILES IDX 11 26
REMARK H PARENT 23 21 19 23 14 25 11 27
REMARK Flexibility Score: inf
ROOT
ATOM      1  C   UNL     1     105.685 121.499 119.451  1.00  0.00     0.180 A 
ATOM      2  C   UNL     1     104.771 120.488 119.107  1.00  0.00     0.208 A 
ATOM      3  C   UNL     1     103.641 120.823 118.343  1.00  0.00     0.238 A 
ATOM      4  O   UNL     1     102.799 119.925 118.085  1.00  0.00    -0.285 OA
ATOM      5  C   UNL     1     103.449 122.160 117.920  1.00  0.00     0.111 A 
ATOM      6  C   UNL     1     102.361 122.604 117.109  1.00  0.00     0.134 A 
ATOM      7  C   UNL     1     102.200 123.973 116.860  1.00  0.00     0.093 A 
ATOM      8  C   UNL     1     103.123 124.907 117.337  1.00  0.00     0.123 A 
ATOM      9  C   UNL     1     104.220 124.476 118.079  1.00  0.00     0.094 A 
ATOM     10  C   UNL     1     104.388 123.121 118.375  1.00  0.00     0.146 A 
ATOM     11  O   UNL     1     105.443 122.754 119.095  1.00  0.00    -0.452 OA
ENDROOT
BRANCH   1  12
ATOM     12  C   UNL     1     106.912 121.219 120.233  1.00  0.00     0.025 A 
ATOM     13  C   UNL     1     109.262 120.547 120.282  1.00  0.00     0.161 A 
ATOM     14  C   UNL     1     109.247 120.620 121.682  1.00  0.00     0.157 A 
ATOM     15  C   UNL     1     108.087 120.841 119.563  1.00  0.00     0.062 A 
ATOM     16  C   UNL     1     108.071 120.976 122.354  1.00  0.00     0.051 A 
ATOM     17  C   UNL     1     106.910 121.267 121.636  1.00  0.00     0.016 A 
BRANCH  13  18
ATOM     18  O   UNL     1     110.458 120.179 119.645  1.00  0.00    -0.493 OA
ATOM     19  C   UNL     1     110.614 119.020 118.833  1.00  0.00     0.278 C 
ENDBRANCH  13  18
BRANCH  14  20
ATOM     20  O   UNL     1     110.407 120.332 122.399  1.00  0.00    -0.504 OA
ATOM     21  H   UNL     1     110.822 121.008 123.030  1.00  0.00     0.293 HD
ENDBRANCH  14  20
ENDBRANCH   1  12
BRANCH   2  22
ATOM     22  O   UNL     1     104.969 119.179 119.554  1.00  0.00    -0.502 OA
ATOM     23  H   UNL     1     105.805 118.894 120.051  1.00  0.00     0.293 HD
ENDBRANCH   2  22
BRANCH   6  24
ATOM     24  O   UNL     1     101.435 121.748 116.507  1.00  0.00    -0.507 OA
ATOM     25  H   UNL     1     100.766 121.182 117.007  1.00  0.00     0.293 HD
ENDBRANCH   6  24
BRANCH   8  26
ATOM     26  O   UNL     1     102.963 126.264 117.071  1.00  0.00    -0.508 OA
ATOM     27  H   UNL     1     103.666 126.793 116.568  1.00  0.00     0.293 HD
ENDBRANCH   8  26
TORSDOF 6
ENDMDL
MODEL 6
REMARK VINA RESULT:    -5.766      2.276      7.114
REMARK INTER + INTRA:          -7.444
REMARK INTER:                  -7.056
REMARK INTRA:                  -0.388
REMARK UNBOUND:                -0.329
REMARK SMILES COc1cc(-c2oc3cc(O)cc(O)c3c(=O)c2O)ccc1O
REMARK SMILES IDX 6 1 18 2 16 3 17 4 15 5 13 6 12 7 10 8 9 9 8 10 7 11 5 12
REMARK SMILES IDX 3 13 22 14 4 15 21 16 20 17 2 18 1 19 23 20 19 22 14 24
REMARK SMILES IDX 11 26
REMARK H PARENT 23 21 19 23 14 25 11 27
REMARK Flexibility Score: inf
ROOT
ATOM      1  C   UNL     1     106.389 120.261 120.708  1.00  0.00     0.180 A 
ATOM      2  C   UNL     1     106.390 121.152 121.794  1.00  0.00     0.208 A 
ATOM      3  C   UNL     1     107.618 121.576 122.328  1.00  0.00     0.238 A 
ATOM      4  O   UNL     1     107.612 122.329 123.335  1.00  0.00    -0.285 OA
ATOM      5  C   UNL     1     108.830 121.116 121.757  1.00  0.00     0.111 A 
ATOM      6  C   UNL     1     110.130 121.511 122.191  1.00  0.00     0.134 A 
ATOM      7  C   UNL     1     111.260 120.892 121.638  1.00  0.00     0.093 A 
ATOM      8  C   UNL     1     111.137 119.941 120.623  1.00  0.00     0.123 A 
ATOM      9  C   UNL     1     109.873 119.593 120.152  1.00  0.00     0.094 A 
ATOM     10  C   UNL     1     108.726 120.166 120.708  1.00  0.00     0.146 A 
ATOM     11  O   UNL     1     107.541 119.798 120.236  1.00  0.00    -0.452 OA
ENDROOT
BRANCH   1  12
ATOM     12  C   UNL     1     105.135 119.790 120.076  1.00  0.00     0.025 A 
ATOM     13  C   UNL     1     103.400 120.083 118.378  1.00  0.00     0.161 A 
ATOM     14  C   UNL     1     102.725 118.964 118.884  1.00  0.00     0.157 A 
ATOM     15  C   UNL     1     104.604 120.496 118.985  1.00  0.00     0.062 A 
ATOM     16  C   UNL     1     103.241 118.271 119.986  1.00  0.00     0.051 A 
ATOM     17  C   UNL     1     104.434 118.683 120.582  1.00  0.00     0.016 A 
BRANCH  13  18
ATOM     18  O   UNL     1     102.846 120.757 117.278  1.00  0.00    -0.493 OA
ATOM     19  C   UNL     1     103.218 120.530 115.923  1.00  0.00     0.278 C 
ENDBRANCH  13  18
BRANCH  14  20
ATOM     20  O   UNL     1     101.535 118.550 118.288  1.00  0.00    -0.504 OA
ATOM     21  H   UNL     1     101.088 119.097 117.561  1.00  0.00     0.293 HD
ENDBRANCH  14  20
ENDBRANCH   1  12
BRANCH   2  22
ATOM     22  O   UNL     1     105.182 121.576 122.356  1.00  0.00    -0.502 OA
ATOM     23  H   UNL     1     104.284 121.376 121.932  1.00  0.00     0.293 HD
ENDBRANCH   2  22
BRANCH   6  24
ATOM     24  O   UNL     1     110.368 122.516 123.132  1.00  0.00    -0.507 OA
ATOM     25  H   UNL     1     111.122 122.508 123.803  1.00  0.00     0.293 HD
ENDBRANCH   6  24
BRANCH   8  26
ATOM     26  O   UNL     1     112.265 119.343 120.070  1.00  0.00    -0.508 OA
ATOM     27  H   UNL     1     113.105 119.185 120.616  1.00  0.00     0.293 HD
ENDBRANCH   8  26
TORSDOF 6
ENDMDL
MODEL 7
REMARK VINA RESULT:    -5.743      1.741      7.090
REMARK INTER + INTRA:          -7.415
REMARK INTER:                  -7.031
REMARK INTRA:                  -0.384
REMARK UNBOUND:                -0.329
REMARK SMILES COc1cc(-c2oc3cc(O)cc(O)c3c(=O)c2O)ccc1O
REMARK SMILES IDX 6 1 18 2 16 3 17 4 15 5 13 6 12 7 10 8 9 9 8 10 7 11 5 12
REMARK SMILES IDX 3 13 22 14 4 15 21 16 20 17 2 18 1 19 23 20 19 22 14 24
REMARK SMILES IDX 11 26
REMARK H PARENT 23 21 19 23 14 25 11 27
REMARK Flexibility Score: inf
ROOT
ATOM      1  C   UNL     1     105.786 121.125 119.464  1.00  0.00     0.180 A 
ATOM      2  C   UNL     1     105.818 121.557 120.801  1.00  0.00     0.208 A 
ATOM      3  C   UNL     1     107.001 121.396 121.541  1.00  0.00     0.238 A 
ATOM      4  O   UNL     1     107.006 121.734 122.753  1.00  0.00    -0.285 OA
ATOM      5  C   UNL     1     108.141 120.822 120.929  1.00  0.00     0.111 A 
ATOM      6  C   UNL     1     109.404 120.648 121.571  1.00  0.00     0.134 A 
ATOM      7  C   UNL     1     110.423 119.949 120.912  1.00  0.00     0.093 A 
ATOM      8  C   UNL     1     110.247 119.475 119.609  1.00  0.00     0.123 A 
ATOM      9  C   UNL     1     109.038 119.693 118.953  1.00  0.00     0.094 A 
ATOM     10  C   UNL     1     107.990 120.355 119.598  1.00  0.00     0.146 A 
ATOM     11  O   UNL     1     106.851 120.532 118.939  1.00  0.00    -0.452 OA
ENDROOT
BRANCH   1  12
ATOM     12  C   UNL     1     104.583 121.284 118.614  1.00  0.00     0.025 A 
ATOM     13  C   UNL     1     103.190 122.703 117.192  1.00  0.00     0.161 A 
ATOM     14  C   UNL     1     102.281 121.646 117.039  1.00  0.00     0.157 A 
ATOM     15  C   UNL     1     104.337 122.517 117.989  1.00  0.00     0.062 A 
ATOM     16  C   UNL     1     102.514 120.422 117.678  1.00  0.00     0.051 A 
ATOM     17  C   UNL     1     103.653 120.243 118.465  1.00  0.00     0.016 A 
BRANCH  13  18
ATOM     18  O   UNL     1     102.917 123.918 116.543  1.00  0.00    -0.493 OA
ATOM     19  C   UNL     1     102.488 125.105 117.201  1.00  0.00     0.278 C 
ENDBRANCH  13  18
BRANCH  14  20
ATOM     20  O   UNL     1     101.145 121.823 116.251  1.00  0.00    -0.504 OA
ATOM     21  H   UNL     1     101.210 121.948 115.248  1.00  0.00     0.293 HD
ENDBRANCH  14  20
ENDBRANCH   1  12
BRANCH   2  22
ATOM     22  O   UNL     1     104.674 122.101 121.392  1.00  0.00    -0.502 OA
ATOM     23  H   UNL     1     103.982 122.618 120.863  1.00  0.00     0.293 HD
ENDBRANCH   2  22
BRANCH   6  24
ATOM     24  O   UNL     1     109.715 121.161 122.833  1.00  0.00    -0.507 OA
ATOM     25  H   UNL     1     109.470 120.722 123.708  1.00  0.00     0.293 HD
ENDBRANCH   6  24
BRANCH   8  26
ATOM     26  O   UNL     1     111.271 118.795 118.956  1.00  0.00    -0.508 OA
ATOM     27  H   UNL     1     111.404 117.797 119.071  1.00  0.00     0.293 HD
ENDBRANCH   8  26
TORSDOF 6
ENDMDL
MODEL 8
REMARK VINA RESULT:    -5.712      2.744      4.854
REMARK INTER + INTRA:          -7.377
REMARK INTER:                  -6.983
REMARK INTRA:                  -0.394
REMARK UNBOUND:                -0.329
REMARK SMILES COc1cc(-c2oc3cc(O)cc(O)c3c(=O)c2O)ccc1O
REMARK SMILES IDX 6 1 18 2 16 3 17 4 15 5 13 6 12 7 10 8 9 9 8 10 7 11 5 12
REMARK SMILES IDX 3 13 22 14 4 15 21 16 20 17 2 18 1 19 23 20 19 22 14 24
REMARK SMILES IDX 11 26
REMARK H PARENT 23 21 19 23 14 25 11 27
REMARK Flexibility Score: inf
ROOT
ATOM      1  C   UNL     1     106.587 120.347 121.712  1.00  0.00     0.180 A 
ATOM      2  C   UNL     1     105.660 121.170 121.049  1.00  0.00     0.208 A 
ATOM      3  C   UNL     1     104.288 120.923 121.218  1.00  0.00     0.238 A 
ATOM      4  O   UNL     1     103.465 121.628 120.578  1.00  0.00    -0.285 OA
ATOM      5  C   UNL     1     103.861 119.870 122.062  1.00  0.00     0.111 A 
ATOM      6  C   UNL     1     102.496 119.556 122.337  1.00  0.00     0.134 A 
ATOM      7  C   UNL     1     102.188 118.411 123.082  1.00  0.00     0.093 A 
ATOM      8  C   UNL     1     103.196 117.605 123.616  1.00  0.00     0.123 A 
ATOM      9  C   UNL     1     104.532 117.937 123.402  1.00  0.00     0.094 A 
ATOM     10  C   UNL     1     104.871 119.053 122.632  1.00  0.00     0.146 A 
ATOM     11  O   UNL     1     106.156 119.327 122.444  1.00  0.00    -0.452 OA
ENDROOT
BRANCH   1  12
ATOM     12  C   UNL     1     108.049 120.560 121.602  1.00  0.00     0.025 A 
ATOM     13  C   UNL     1     110.164 120.065 120.480  1.00  0.00     0.161 A 
ATOM     14  C   UNL     1     110.835 120.888 121.395  1.00  0.00     0.157 A 
ATOM     15  C   UNL     1     108.770 119.899 120.594  1.00  0.00     0.062 A 
ATOM     16  C   UNL     1     110.122 121.532 122.415  1.00  0.00     0.051 A 
ATOM     17  C   UNL     1     108.741 121.364 122.522  1.00  0.00     0.016 A 
BRANCH  13  18
ATOM     18  O   UNL     1     110.915 119.430 119.478  1.00  0.00    -0.493 OA
ATOM     19  C   UNL     1     110.354 118.723 118.376  1.00  0.00     0.278 C 
ENDBRANCH  13  18
BRANCH  14  20
ATOM     20  O   UNL     1     112.214 121.057 121.287  1.00  0.00    -0.504 OA
ATOM     21  H   UNL     1     112.794 120.383 120.802  1.00  0.00     0.293 HD
ENDBRANCH  14  20
ENDBRANCH   1  12
BRANCH   2  22
ATOM     22  O   UNL     1     106.105 122.190 120.204  1.00  0.00    -0.502 OA
ATOM     23  H   UNL     1     105.563 123.029 120.032  1.00  0.00     0.293 HD
ENDBRANCH   2  22
BRANCH   6  24
ATOM     24  O   UNL     1     101.416 120.344 121.930  1.00  0.00    -0.507 OA
ATOM     25  H   UNL     1     101.126 120.471 120.972  1.00  0.00     0.293 HD
ENDBRANCH   6  24
BRANCH   8  26
ATOM     26  O   UNL     1     102.881 116.476 124.368  1.00  0.00    -0.508 OA
ATOM     27  H   UNL     1     102.808 115.559 123.944  1.00  0.00     0.293 HD
ENDBRANCH   8  26
TORSDOF 6
ENDMDL
MODEL 9
REMARK VINA RESULT:    -5.542      4.089      6.198
REMARK INTER + INTRA:          -7.167
REMARK INTER:                  -6.770
REMARK INTRA:                  -0.397
REMARK UNBOUND:                -0.329
REMARK SMILES COc1cc(-c2oc3cc(O)cc(O)c3c(=O)c2O)ccc1O
REMARK SMILES IDX 6 1 18 2 16 3 17 4 15 5 13 6 12 7 10 8 9 9 8 10 7 11 5 12
REMARK SMILES IDX 3 13 22 14 4 15 21 16 20 17 2 18 1 19 23 20 19 22 14 24
REMARK SMILES IDX 11 26
REMARK H PARENT 23 21 19 23 14 25 11 27
REMARK Flexibility Score: inf
ROOT
ATOM      1  C   UNL     1     105.791 119.962 122.475  1.00  0.00     0.180 A 
ATOM      2  C   UNL     1     107.161 119.665 122.575  1.00  0.00     0.208 A 
ATOM      3  C   UNL     1     108.055 120.261 121.671  1.00  0.00     0.238 A 
ATOM      4  O   UNL     1     109.272 119.948 121.730  1.00  0.00    -0.285 OA
ATOM      5  C   UNL     1     107.570 121.161 120.691  1.00  0.00     0.111 A 
ATOM      6  C   UNL     1     108.391 121.852 119.750  1.00  0.00     0.134 A 
ATOM      7  C   UNL     1     107.790 122.617 118.742  1.00  0.00     0.093 A 
ATOM      8  C   UNL     1     106.403 122.767 118.679  1.00  0.00     0.123 A 
ATOM      9  C   UNL     1     105.598 122.143 119.629  1.00  0.00     0.094 A 
ATOM     10  C   UNL     1     106.165 121.344 120.625  1.00  0.00     0.146 A 
ATOM     11  O   UNL     1     105.359 120.759 121.504  1.00  0.00    -0.452 OA
ENDROOT
BRANCH   1  12
ATOM     12  C   UNL     1     104.790 119.392 123.407  1.00  0.00     0.025 A 
ATOM     13  C   UNL     1     103.628 119.489 125.555  1.00  0.00     0.161 A 
ATOM     14  C   UNL     1     102.943 118.309 125.231  1.00  0.00     0.157 A 
ATOM     15  C   UNL     1     104.558 120.022 124.640  1.00  0.00     0.062 A 
ATOM     16  C   UNL     1     103.189 117.668 124.011  1.00  0.00     0.051 A 
ATOM     17  C   UNL     1     104.110 118.201 123.108  1.00  0.00     0.016 A 
BRANCH  13  18
ATOM     18  O   UNL     1     103.361 120.098 126.792  1.00  0.00    -0.493 OA
ATOM     19  C   UNL     1     102.825 121.408 126.946  1.00  0.00     0.278 C 
ENDBRANCH  13  18
BRANCH  14  20
ATOM     20  O   UNL     1     102.022 117.778 126.132  1.00  0.00    -0.504 OA
ATOM     21  H   UNL     1     102.282 117.052 126.789  1.00  0.00     0.293 HD
ENDBRANCH  14  20
ENDBRANCH   1  12
BRANCH   2  22
ATOM     22  O   UNL     1     107.615 118.757 123.536  1.00  0.00    -0.502 OA
ATOM     23  H   UNL     1     107.151 118.632 124.428  1.00  0.00     0.293 HD
ENDBRANCH   2  22
BRANCH   6  24
ATOM     24  O   UNL     1     109.788 121.846 119.779  1.00  0.00    -0.507 OA
ATOM     25  H   UNL     1     110.346 121.981 120.609  1.00  0.00     0.293 HD
ENDBRANCH   6  24
BRANCH   8  26
ATOM     26  O   UNL     1     105.816 123.541 117.682  1.00  0.00    -0.508 OA
ATOM     27  H   UNL     1     105.556 123.145 116.786  1.00  0.00     0.293 HD
ENDBRANCH   8  26
TORSDOF 6
ENDMDL
