MODEL 1
REMARK VINA RESULT:    -4.135      0.000      0.000
REMARK INTER + INTRA:          -6.120
REMARK INTER:                  -5.585
REMARK INTRA:                  -0.535
REMARK UNBOUND:                -0.535
REMARK SMILES C[C@H](O)[C@H](O)[C@H](O)[C@@H](O)C=O
REMARK SMILES IDX 4 1 2 2 1 3 3 4 6 6 8 7 10 8 11 9 9 10 7 12 5 14
REMARK H PARENT 3 5 9 11 7 13 5 15
REMARK Flexibility Score: inf
ROOT
ATOM      1  C   UNL     1      18.282  25.742   8.284  1.00  0.00     0.174 C 
ENDROOT
BRANCH   1   2
ATOM      2  C   UNL     1      18.029  26.797   9.402  1.00  0.00     0.142 C 
ATOM      3  C   UNL     1      16.905  27.792   9.100  1.00  0.00     0.041 C 
BRANCH   2   4
ATOM      4  O   UNL     1      19.210  27.516   9.651  1.00  0.00    -0.391 OA
ATOM      5  H   UNL     1      19.079  27.999  10.509  1.00  0.00     0.211 HD
ENDBRANCH   2   4
ENDBRANCH   1   2
BRANCH   1   6
ATOM      6  C   UNL     1      19.425  24.723   8.595  1.00  0.00     0.181 C 
BRANCH   6   7
ATOM      7  C   UNL     1      19.250  23.962   9.934  1.00  0.00     0.209 C 
BRANCH   7   8
ATOM      8  C   UNL     1      20.542  23.299  10.334  1.00  0.00     0.258 C 
ATOM      9  O   UNL     1      21.137  22.580   9.546  1.00  0.00    -0.300 OA
ENDBRANCH   7   8
BRANCH   7  10
ATOM     10  O   UNL     1      18.250  22.985   9.798  1.00  0.00    -0.383 OA
ATOM     11  H   UNL     1      17.688  23.252   9.025  1.00  0.00     0.211 HD
ENDBRANCH   7  10
ENDBRANCH   6   7
BRANCH   6  12
ATOM     12  O   UNL     1      19.510  23.780   7.554  1.00  0.00    -0.387 OA
ATOM     13  H   UNL     1      20.141  24.144   6.881  1.00  0.00     0.211 HD
ENDBRANCH   6  12
ENDBRANCH   1   6
BRANCH   1  14
ATOM     14  O   UNL     1      17.098  25.114   7.858  1.00  0.00    -0.388 OA
ATOM     15  H   UNL     1      17.071  24.203   8.247  1.00  0.00     0.211 HD
ENDBRANCH   1  14
TORSDOF 8
ENDMDL
MODEL 2
REMARK VINA RESULT:    -4.080      1.085      1.686
REMARK INTER + INTRA:          -6.047
REMARK INTER:                  -5.127
REMARK INTRA:                  -0.920
REMARK UNBOUND:                -0.535
REMARK SMILES C[C@H](O)[C@H](O)[C@H](O)[C@@H](O)C=O
REMARK SMILES IDX 4 1 2 2 1 3 3 4 6 6 8 7 10 8 11 9 9 10 7 12 5 14
REMARK H PARENT 3 5 9 11 7 13 5 15
REMARK Flexibility Score: inf
ROOT
ATOM      1  C   UNL     1      17.974  25.010   8.485  1.00  0.00     0.174 C 
ENDROOT
BRANCH   1   2
ATOM      2  C   UNL     1      17.949  26.239   9.441  1.00  0.00     0.142 C 
ATOM      3  C   UNL     1      17.697  27.583   8.750  1.00  0.00     0.041 C 
BRANCH   2   4
ATOM      4  O   UNL     1      19.163  26.317  10.143  1.00  0.00    -0.391 OA
ATOM      5  H   UNL     1      19.072  25.735  10.943  1.00  0.00     0.211 HD
ENDBRANCH   2   4
ENDBRANCH   1   2
BRANCH   1   6
ATOM      6  C   UNL     1      18.113  23.628   9.201  1.00  0.00     0.181 C 
BRANCH   6   7
ATOM      7  C   UNL     1      19.468  22.919   8.953  1.00  0.00     0.209 C 
BRANCH   7   8
ATOM      8  C   UNL     1      20.266  22.851  10.229  1.00  0.00     0.258 C 
ATOM      9  O   UNL     1      20.861  23.834  10.639  1.00  0.00    -0.300 OA
ENDBRANCH   7   8
BRANCH   7  10
ATOM     10  O   UNL     1      20.203  23.622   7.984  1.00  0.00    -0.383 OA
ATOM     11  H   UNL     1      19.545  24.063   7.387  1.00  0.00     0.211 HD
ENDBRANCH   7  10
ENDBRANCH   6   7
BRANCH   6  12
ATOM     12  O   UNL     1      17.947  23.799  10.588  1.00  0.00    -0.387 OA
ATOM     13  H   UNL     1      18.627  23.232  11.036  1.00  0.00     0.211 HD
ENDBRANCH   6  12
ENDBRANCH   1   6
BRANCH   1  14
ATOM     14  O   UNL     1      16.921  25.032   7.551  1.00  0.00    -0.388 OA
ATOM     15  H   UNL     1      17.280  25.354   6.685  1.00  0.00     0.211 HD
ENDBRANCH   1  14
TORSDOF 8
ENDMDL
MODEL 3
REMARK VINA RESULT:    -4.059      1.293      2.321
REMARK INTER + INTRA:          -6.018
REMARK INTER:                  -4.985
REMARK INTRA:                  -1.033
REMARK UNBOUND:                -0.535
REMARK SMILES C[C@H](O)[C@H](O)[C@H](O)[C@@H](O)C=O
REMARK SMILES IDX 4 1 2 2 1 3 3 4 6 6 8 7 10 8 11 9 9 10 7 12 5 14
REMARK H PARENT 3 5 9 11 7 13 5 15
REMARK Flexibility Score: inf
ROOT
ATOM      1  C   UNL     1      18.675  25.602   9.849  1.00  0.00     0.174 C 
ENDROOT
BRANCH   1   2
ATOM      2  C   UNL     1      18.081  26.225   8.550  1.00  0.00     0.142 C 
ATOM      3  C   UNL     1      17.517  27.639   8.719  1.00  0.00     0.041 C 
BRANCH   2   4
ATOM      4  O   UNL     1      17.066  25.394   8.048  1.00  0.00    -0.391 OA
ATOM      5  H   UNL     1      16.222  25.916   8.082  1.00  0.00     0.211 HD
ENDBRANCH   2   4
ENDBRANCH   1   2
BRANCH   1   6
ATOM      6  C   UNL     1      19.455  24.265   9.634  1.00  0.00     0.181 C 
BRANCH   6   7
ATOM      7  C   UNL     1      18.636  22.993   9.969  1.00  0.00     0.209 C 
BRANCH   7   8
ATOM      8  C   UNL     1      18.426  22.163   8.729  1.00  0.00     0.258 C 
ATOM      9  O   UNL     1      17.590  22.489   7.902  1.00  0.00    -0.300 OA
ENDBRANCH   7   8
BRANCH   7  10
ATOM     10  O   UNL     1      17.388  23.355  10.500  1.00  0.00    -0.383 OA
ATOM     11  H   UNL     1      17.230  22.774  11.290  1.00  0.00     0.211 HD
ENDBRANCH   7  10
ENDBRANCH   6   7
BRANCH   6  12
ATOM     12  O   UNL     1      19.883  24.180   8.297  1.00  0.00    -0.387 OA
ATOM     13  H   UNL     1      19.248  24.715   7.752  1.00  0.00     0.211 HD
ENDBRANCH   6  12
ENDBRANCH   1   6
BRANCH   1  14
ATOM     14  O   UNL     1      19.400  26.536  10.612  1.00  0.00    -0.388 OA
ATOM     15  H   UNL     1      19.155  26.416  11.565  1.00  0.00     0.211 HD
ENDBRANCH   1  14
TORSDOF 8
ENDMDL
MODEL 4
REMARK VINA RESULT:    -3.964      1.434      4.117
REMARK INTER + INTRA:          -5.890
REMARK INTER:                  -5.168
REMARK INTRA:                  -0.721
REMARK UNBOUND:                -0.535
REMARK SMILES C[C@H](O)[C@H](O)[C@H](O)[C@@H](O)C=O
REMARK SMILES IDX 4 1 2 2 1 3 3 4 6 6 8 7 10 8 11 9 9 10 7 12 5 14
REMARK H PARENT 3 5 9 11 7 13 5 15
REMARK Flexibility Score: inf
ROOT
ATOM      1  C   UNL     1      18.517  23.258   9.224  1.00  0.00     0.174 C 
ENDROOT
BRANCH   1   2
ATOM      2  C   UNL     1      19.318  22.329  10.184  1.00  0.00     0.142 C 
ATOM      3  C   UNL     1      18.520  21.808  11.383  1.00  0.00     0.041 C 
BRANCH   2   4
ATOM      4  O   UNL     1      20.453  23.005  10.660  1.00  0.00    -0.391 OA
ATOM      5  H   UNL     1      20.182  23.472  11.494  1.00  0.00     0.211 HD
ENDBRANCH   2   4
ENDBRANCH   1   2
BRANCH   1   6
ATOM      6  C   UNL     1      18.806  24.783   9.400  1.00  0.00     0.181 C 
BRANCH   6   7
ATOM      7  C   UNL     1      18.266  25.668   8.248  1.00  0.00     0.209 C 
BRANCH   7   8
ATOM      8  C   UNL     1      18.229  27.114   8.670  1.00  0.00     0.258 C 
ATOM      9  O   UNL     1      19.187  27.615   9.238  1.00  0.00    -0.300 OA
ENDBRANCH   7   8
BRANCH   7  10
ATOM     10  O   UNL     1      16.969  25.255   7.898  1.00  0.00    -0.383 OA
ATOM     11  H   UNL     1      16.441  26.078   7.728  1.00  0.00     0.211 HD
ENDBRANCH   7  10
ENDBRANCH   6   7
BRANCH   6  12
ATOM     12  O   UNL     1      18.241  25.231  10.609  1.00  0.00    -0.387 OA
ATOM     13  H   UNL     1      18.116  26.212  10.526  1.00  0.00     0.211 HD
ENDBRANCH   6  12
ENDBRANCH   1   6
BRANCH   1  14
ATOM     14  O   UNL     1      18.597  22.843   7.881  1.00  0.00    -0.388 OA
ATOM     15  H   UNL     1      17.796  22.297   7.675  1.00  0.00     0.211 HD
ENDBRANCH   1  14
TORSDOF 8
ENDMDL
MODEL 5
REMARK VINA RESULT:    -3.933      1.554      2.608
REMARK INTER + INTRA:          -5.847
REMARK INTER:                  -5.119
REMARK INTRA:                  -0.729
REMARK UNBOUND:                -0.535
REMARK SMILES C[C@H](O)[C@H](O)[C@H](O)[C@@H](O)C=O
REMARK SMILES IDX 4 1 2 2 1 3 3 4 6 6 8 7 10 8 11 9 9 10 7 12 5 14
REMARK H PARENT 3 5 9 11 7 13 5 15
REMARK Flexibility Score: inf
ROOT
ATOM      1  C   UNL     1      19.194  24.814   9.044  1.00  0.00     0.174 C 
ENDROOT
BRANCH   1   2
ATOM      2  C   UNL     1      18.425  26.007   8.402  1.00  0.00     0.142 C 
ATOM      3  C   UNL     1      18.657  27.358   9.085  1.00  0.00     0.041 C 
BRANCH   2   4
ATOM      4  O   UNL     1      17.047  25.736   8.401  1.00  0.00    -0.391 OA
ATOM      5  H   UNL     1      16.632  26.351   7.741  1.00  0.00     0.211 HD
ENDBRANCH   2   4
ENDBRANCH   1   2
BRANCH   1   6
ATOM      6  C   UNL     1      18.283  23.681   9.616  1.00  0.00     0.181 C 
BRANCH   6   7
ATOM      7  C   UNL     1      19.046  22.394  10.017  1.00  0.00     0.209 C 
BRANCH   7   8
ATOM      8  C   UNL     1      18.275  21.631  11.062  1.00  0.00     0.258 C 
ATOM      9  O   UNL     1      18.626  21.659  12.231  1.00  0.00    -0.300 OA
ENDBRANCH   7   8
BRANCH   7  10
ATOM     10  O   UNL     1      20.311  22.730  10.528  1.00  0.00    -0.383 OA
ATOM     11  H   UNL     1      20.403  22.263  11.399  1.00  0.00     0.211 HD
ENDBRANCH   7  10
ENDBRANCH   6   7
BRANCH   6  12
ATOM     12  O   UNL     1      17.591  24.159  10.744  1.00  0.00    -0.387 OA
ATOM     13  H   UNL     1      17.559  23.417  11.403  1.00  0.00     0.211 HD
ENDBRANCH   6  12
ENDBRANCH   1   6
BRANCH   1  14
ATOM     14  O   UNL     1      20.214  24.319   8.210  1.00  0.00    -0.388 OA
ATOM     15  H   UNL     1      20.240  24.872   7.388  1.00  0.00     0.211 HD
ENDBRANCH   1  14
TORSDOF 8
ENDMDL
MODEL 6
REMARK VINA RESULT:    -3.890      1.767      2.836
REMARK INTER + INTRA:          -5.789
REMARK INTER:                  -5.253
REMARK INTRA:                  -0.537
REMARK UNBOUND:                -0.535
REMARK SMILES C[C@H](O)[C@H](O)[C@H](O)[C@@H](O)C=O
REMARK SMILES IDX 4 1 2 2 1 3 3 4 6 6 8 7 10 8 11 9 9 10 7 12 5 14
REMARK H PARENT 3 5 9 11 7 13 5 15
REMARK Flexibility Score: inf
ROOT
ATOM      1  C   UNL     1      19.789  24.288   8.808  1.00  0.00     0.174 C 
ENDROOT
BRANCH   1   2
ATOM      2  C   UNL     1      18.767  25.028   9.722  1.00  0.00     0.142 C 
ATOM      3  C   UNL     1      17.593  25.672   8.979  1.00  0.00     0.041 C 
BRANCH   2   4
ATOM      4  O   UNL     1      19.428  26.022  10.462  1.00  0.00    -0.391 OA
ATOM      5  H   UNL     1      20.294  25.635  10.758  1.00  0.00     0.211 HD
ENDBRANCH   2   4
ENDBRANCH   1   2
BRANCH   1   6
ATOM      6  C   UNL     1      20.506  23.073   9.481  1.00  0.00     0.181 C 
BRANCH   6   7
ATOM      7  C   UNL     1      21.707  22.520   8.673  1.00  0.00     0.209 C 
BRANCH   7   8
ATOM      8  C   UNL     1      21.342  21.212   8.020  1.00  0.00     0.258 C 
ATOM      9  O   UNL     1      20.322  21.117   7.356  1.00  0.00    -0.300 OA
ENDBRANCH   7   8
BRANCH   7  10
ATOM     10  O   UNL     1      22.804  22.320   9.528  1.00  0.00    -0.383 OA
ATOM     11  H   UNL     1      22.921  23.158  10.048  1.00  0.00     0.211 HD
ENDBRANCH   7  10
ENDBRANCH   6   7
BRANCH   6  12
ATOM     12  O   UNL     1      20.962  23.446  10.759  1.00  0.00    -0.387 OA
ATOM     13  H   UNL     1      21.723  22.850  10.983  1.00  0.00     0.211 HD
ENDBRANCH   6  12
ENDBRANCH   1   6
BRANCH   1  14
ATOM     14  O   UNL     1      19.251  23.968   7.547  1.00  0.00    -0.388 OA
ATOM     15  H   UNL     1      18.299  23.722   7.668  1.00  0.00     0.211 HD
ENDBRANCH   1  14
TORSDOF 8
ENDMDL
MODEL 7
REMARK VINA RESULT:    -3.878      1.461      4.274
REMARK INTER + INTRA:          -5.773
REMARK INTER:                  -4.855
REMARK INTRA:                  -0.918
REMARK UNBOUND:                -0.535
REMARK SMILES C[C@H](O)[C@H](O)[C@H](O)[C@@H](O)C=O
REMARK SMILES IDX 4 1 2 2 1 3 3 4 6 6 8 7 10 8 11 9 9 10 7 12 5 14
REMARK H PARENT 3 5 9 11 7 13 5 15
REMARK Flexibility Score: inf
ROOT
ATOM      1  C   UNL     1      20.131  23.520   9.639  1.00  0.00     0.174 C 
ENDROOT
BRANCH   1   2
ATOM      2  C   UNL     1      20.263  22.706   8.317  1.00  0.00     0.142 C 
ATOM      3  C   UNL     1      21.689  22.262   7.979  1.00  0.00     0.041 C 
BRANCH   2   4
ATOM      4  O   UNL     1      19.763  23.462   7.244  1.00  0.00    -0.391 OA
ATOM      5  H   UNL     1      20.448  24.149   7.030  1.00  0.00     0.211 HD
ENDBRANCH   2   4
ENDBRANCH   1   2
BRANCH   1   6
ATOM      6  C   UNL     1      18.681  23.597  10.216  1.00  0.00     0.181 C 
BRANCH   6   7
ATOM      7  C   UNL     1      18.098  25.031  10.276  1.00  0.00     0.209 C 
BRANCH   7   8
ATOM      8  C   UNL     1      17.180  25.274   9.107  1.00  0.00     0.258 C 
ATOM      9  O   UNL     1      17.623  25.304   7.970  1.00  0.00    -0.300 OA
ENDBRANCH   7   8
BRANCH   7  10
ATOM     10  O   UNL     1      19.141  25.971  10.248  1.00  0.00    -0.383 OA
ATOM     11  H   UNL     1      19.806  25.644   9.587  1.00  0.00     0.211 HD
ENDBRANCH   7  10
ENDBRANCH   6   7
BRANCH   6  12
ATOM     12  O   UNL     1      17.822  22.800   9.437  1.00  0.00    -0.387 OA
ATOM     13  H   UNL     1      18.385  22.333   8.765  1.00  0.00     0.211 HD
ENDBRANCH   6  12
ENDBRANCH   1   6
BRANCH   1  14
ATOM     14  O   UNL     1      21.079  23.136  10.606  1.00  0.00    -0.388 OA
ATOM     15  H   UNL     1      21.300  22.180  10.462  1.00  0.00     0.211 HD
ENDBRANCH   1  14
TORSDOF 8
ENDMDL
MODEL 8
REMARK VINA RESULT:    -3.878      1.662      4.600
REMARK INTER + INTRA:          -5.773
REMARK INTER:                  -5.208
REMARK INTRA:                  -0.565
REMARK UNBOUND:                -0.535
REMARK SMILES C[C@H](O)[C@H](O)[C@H](O)[C@@H](O)C=O
REMARK SMILES IDX 4 1 2 2 1 3 3 4 6 6 8 7 10 8 11 9 9 10 7 12 5 14
REMARK H PARENT 3 5 9 11 7 13 5 15
REMARK Flexibility Score: inf
ROOT
ATOM      1  C   UNL     1      20.396  22.322   9.571  1.00  0.00     0.174 C 
ENDROOT
BRANCH   1   2
ATOM      2  C   UNL     1      21.698  22.360   8.717  1.00  0.00     0.142 C 
ATOM      3  C   UNL     1      21.839  21.212   7.713  1.00  0.00     0.041 C 
BRANCH   2   4
ATOM      4  O   UNL     1      22.819  22.355   9.564  1.00  0.00    -0.391 OA
ATOM      5  H   UNL     1      23.267  21.476   9.445  1.00  0.00     0.211 HD
ENDBRANCH   2   4
ENDBRANCH   1   2
BRANCH   1   6
ATOM      6  C   UNL     1      19.721  23.713   9.794  1.00  0.00     0.181 C 
BRANCH   6   7
ATOM      7  C   UNL     1      19.560  24.555   8.503  1.00  0.00     0.209 C 
BRANCH   7   8
ATOM      8  C   UNL     1      18.930  25.886   8.819  1.00  0.00     0.258 C 
ATOM      9  O   UNL     1      19.032  26.368   9.936  1.00  0.00    -0.300 OA
ENDBRANCH   7   8
BRANCH   7  10
ATOM     10  O   UNL     1      18.752  23.866   7.584  1.00  0.00    -0.383 OA
ATOM     11  H   UNL     1      17.861  24.305   7.597  1.00  0.00     0.211 HD
ENDBRANCH   7  10
ENDBRANCH   6   7
BRANCH   6  12
ATOM     12  O   UNL     1      18.449  23.532  10.369  1.00  0.00    -0.387 OA
ATOM     13  H   UNL     1      18.432  24.057  11.212  1.00  0.00     0.211 HD
ENDBRANCH   6  12
ENDBRANCH   1   6
BRANCH   1  14
ATOM     14  O   UNL     1      19.487  21.345   9.124  1.00  0.00    -0.388 OA
ATOM     15  H   UNL     1      19.987  20.506   8.960  1.00  0.00     0.211 HD
ENDBRANCH   1  14
TORSDOF 8
ENDMDL
MODEL 9
REMARK VINA RESULT:    -3.853      3.163      4.473
REMARK INTER + INTRA:          -5.739
REMARK INTER:                  -4.711
REMARK INTRA:                  -1.028
REMARK UNBOUND:                -0.535
REMARK SMILES C[C@H](O)[C@H](O)[C@H](O)[C@@H](O)C=O
REMARK SMILES IDX 4 1 2 2 1 3 3 4 6 6 8 7 10 8 11 9 9 10 7 12 5 14
REMARK H PARENT 3 5 9 11 7 13 5 15
REMARK Flexibility Score: inf
ROOT
ATOM      1  C   UNL     1      20.520  22.647   9.766  1.00  0.00     0.174 C 
ENDROOT
BRANCH   1   2
ATOM      2  C   UNL     1      19.022  22.276   9.978  1.00  0.00     0.142 C 
ATOM      3  C   UNL     1      18.654  21.899  11.417  1.00  0.00     0.041 C 
BRANCH   2   4
ATOM      4  O   UNL     1      18.675  21.210   9.133  1.00  0.00    -0.391 OA
ATOM      5  H   UNL     1      17.751  20.937   9.377  1.00  0.00     0.211 HD
ENDBRANCH   2   4
ENDBRANCH   1   2
BRANCH   1   6
ATOM      6  C   UNL     1      20.852  23.242   8.360  1.00  0.00     0.181 C 
BRANCH   6   7
ATOM      7  C   UNL     1      21.411  22.208   7.350  1.00  0.00     0.209 C 
BRANCH   7   8
ATOM      8  C   UNL     1      20.497  22.093   6.158  1.00  0.00     0.258 C 
ATOM      9  O   UNL     1      19.451  21.470   6.240  1.00  0.00    -0.300 OA
ENDBRANCH   7   8
BRANCH   7  10
ATOM     10  O   UNL     1      21.526  20.952   7.969  1.00  0.00    -0.383 OA
ATOM     11  H   UNL     1      20.967  20.321   7.445  1.00  0.00     0.211 HD
ENDBRANCH   7  10
ENDBRANCH   6   7
BRANCH   6  12
ATOM     12  O   UNL     1      19.694  23.822   7.809  1.00  0.00    -0.387 OA
ATOM     13  H   UNL     1      19.221  23.108   7.308  1.00  0.00     0.211 HD
ENDBRANCH   6  12
ENDBRANCH   1   6
BRANCH   1  14
ATOM     14  O   UNL     1      21.037  23.425  10.819  1.00  0.00    -0.388 OA
ATOM     15  H   UNL     1      20.649  24.335  10.753  1.00  0.00     0.211 HD
ENDBRANCH   1  14
TORSDOF 8
ENDMDL
