MODEL 1
REMARK VINA RESULT:    -4.757      0.000      0.000
REMARK INTER + INTRA:         -10.700
REMARK INTER:                  -8.373
REMARK INTRA:                  -2.327
REMARK UNBOUND:                -2.327
REMARK SMILES CCCCCCC=CCCCCCCCC(=O)[O-]
REMARK SMILES IDX 10 1 11 2 12 3 13 4 14 5 15 6 16 7 17 8 18 9 9 10 8 11 7 12
REMARK SMILES IDX 6 13 5 14 4 15 3 16 2 17 1 18
REMARK H PARENT
REMARK Flexibility Score: inf
ROOT
ATOM      1  C   UNL     1      -2.273 -25.566  48.554  1.00  0.00     0.004 C 
ENDROOT
BRANCH   1   2
ATOM      2  C   UNL     1      -2.478 -25.018  47.134  1.00  0.00     0.000 C 
BRANCH   2   3
ATOM      3  C   UNL     1      -3.831 -24.309  47.007  1.00  0.00     0.000 C 
BRANCH   3   4
ATOM      4  C   UNL     1      -4.812 -24.804  48.080  1.00  0.00     0.000 C 
BRANCH   4   5
ATOM      5  C   UNL     1      -5.637 -23.664  48.699  1.00  0.00     0.006 C 
BRANCH   5   6
ATOM      6  C   UNL     1      -5.110 -22.277  48.314  1.00  0.00     0.053 C 
BRANCH   6   7
ATOM      7  C   UNL     1      -5.528 -21.259  49.329  1.00  0.00     0.041 C 
ATOM      8  O   UNL     1      -6.474 -20.468  49.078  1.00  0.00    -0.550 OA
ATOM      9  O   UNL     1      -4.841 -21.153  50.531  1.00  0.00    -0.550 OA
ENDBRANCH   6   7
ENDBRANCH   5   6
ENDBRANCH   4   5
ENDBRANCH   3   4
ENDBRANCH   2   3
ENDBRANCH   1   2
BRANCH   1  10
ATOM     10  C   UNL     1      -1.157 -24.829  49.303  1.00  0.00     0.027 C 
BRANCH  10  11
ATOM     11  C   UNL     1      -1.718 -23.778  50.232  1.00  0.00    -0.031 C 
ATOM     12  C   UNL     1      -1.565 -22.449  50.082  1.00  0.00    -0.031 C 
BRANCH  12  13
ATOM     13  C   UNL     1      -0.845 -21.790  48.930  1.00  0.00     0.027 C 
BRANCH  13  14
ATOM     14  C   UNL     1      -1.789 -21.449  47.760  1.00  0.00     0.004 C 
BRANCH  14  15
ATOM     15  C   UNL     1      -1.147 -21.621  46.373  1.00  0.00     0.000 C 
BRANCH  15  16
ATOM     16  C   UNL     1       0.139 -22.462  46.411  1.00  0.00    -0.000 C 
BRANCH  16  17
ATOM     17  C   UNL     1       1.184 -21.988  45.389  1.00  0.00    -0.003 C 
ATOM     18  C   UNL     1       2.597 -21.928  45.970  1.00  0.00     0.004 C 
ENDBRANCH  16  17
ENDBRANCH  15  16
ENDBRANCH  14  15
ENDBRANCH  13  14
ENDBRANCH  12  13
ENDBRANCH  10  11
ENDBRANCH   1  10
TORSDOF 13
ENDMDL
MODEL 2
REMARK VINA RESULT:    -4.748      2.821      5.307
REMARK INTER + INTRA:         -10.684
REMARK INTER:                  -8.200
REMARK INTRA:                  -2.484
REMARK UNBOUND:                -2.327
REMARK SMILES CCCCCCC=CCCCCCCCC(=O)[O-]
REMARK SMILES IDX 10 1 11 2 12 3 13 4 14 5 15 6 16 7 17 8 18 9 9 10 8 11 7 12
REMARK SMILES IDX 6 13 5 14 4 15 3 16 2 17 1 18
REMARK H PARENT
REMARK Flexibility Score: inf
ROOT
ATOM      1  C   UNL     1      -4.255 -23.884  45.962  1.00  0.00     0.004 C 
ENDROOT
BRANCH   1   2
ATOM      2  C   UNL     1      -2.945 -23.175  45.587  1.00  0.00     0.000 C 
BRANCH   2   3
ATOM      3  C   UNL     1      -1.793 -23.636  46.487  1.00  0.00     0.000 C 
BRANCH   3   4
ATOM      4  C   UNL     1      -1.269 -22.475  47.345  1.00  0.00     0.000 C 
BRANCH   4   5
ATOM      5  C   UNL     1      -0.354 -22.948  48.486  1.00  0.00     0.006 C 
BRANCH   5   6
ATOM      6  C   UNL     1       0.114 -21.796  49.385  1.00  0.00     0.053 C 
BRANCH   6   7
ATOM      7  C   UNL     1       0.272 -22.268  50.797  1.00  0.00     0.041 C 
ATOM      8  O   UNL     1       0.763 -21.503  51.668  1.00  0.00    -0.550 OA
ATOM      9  O   UNL     1      -0.076 -23.568  51.138  1.00  0.00    -0.550 OA
ENDBRANCH   6   7
ENDBRANCH   5   6
ENDBRANCH   4   5
ENDBRANCH   3   4
ENDBRANCH   2   3
ENDBRANCH   1   2
BRANCH   1  10
ATOM     10  C   UNL     1      -4.086 -24.808  47.174  1.00  0.00     0.027 C 
BRANCH  10  11
ATOM     11  C   UNL     1      -5.165 -24.568  48.204  1.00  0.00    -0.031 C 
ATOM     12  C   UNL     1      -4.952 -24.155  49.468  1.00  0.00    -0.031 C 
BRANCH  12  13
ATOM     13  C   UNL     1      -3.599 -23.818  50.047  1.00  0.00     0.027 C 
BRANCH  13  14
ATOM     14  C   UNL     1      -3.512 -22.360  50.538  1.00  0.00     0.004 C 
BRANCH  14  15
ATOM     15  C   UNL     1      -4.030 -21.329  49.519  1.00  0.00     0.000 C 
BRANCH  15  16
ATOM     16  C   UNL     1      -5.272 -20.572  50.015  1.00  0.00    -0.000 C 
BRANCH  16  17
ATOM     17  C   UNL     1      -6.371 -20.475  48.945  1.00  0.00    -0.003 C 
ATOM     18  C   UNL     1      -5.914 -20.988  47.579  1.00  0.00     0.004 C 
ENDBRANCH  16  17
ENDBRANCH  15  16
ENDBRANCH  14  15
ENDBRANCH  13  14
ENDBRANCH  12  13
ENDBRANCH  10  11
ENDBRANCH   1  10
TORSDOF 13
ENDMDL
MODEL 3
REMARK VINA RESULT:    -4.711      1.309      2.265
REMARK INTER + INTRA:         -10.619
REMARK INTER:                  -8.473
REMARK INTRA:                  -2.146
REMARK UNBOUND:                -2.327
REMARK SMILES CCCCCCC=CCCCCCCCC(=O)[O-]
REMARK SMILES IDX 10 1 11 2 12 3 13 4 14 5 15 6 16 7 17 8 18 9 9 10 8 11 7 12
REMARK SMILES IDX 6 13 5 14 4 15 3 16 2 17 1 18
REMARK H PARENT
REMARK Flexibility Score: inf
ROOT
ATOM      1  C   UNL     1      -1.811 -24.839  49.106  1.00  0.00     0.004 C 
ENDROOT
BRANCH   1   2
ATOM      2  C   UNL     1      -3.189 -24.779  48.431  1.00  0.00     0.000 C 
BRANCH   2   3
ATOM      3  C   UNL     1      -4.313 -24.748  49.474  1.00  0.00     0.000 C 
BRANCH   3   4
ATOM      4  C   UNL     1      -5.521 -23.955  48.954  1.00  0.00     0.000 C 
BRANCH   4   5
ATOM      5  C   UNL     1      -5.134 -22.923  47.883  1.00  0.00     0.006 C 
BRANCH   5   6
ATOM      6  C   UNL     1      -5.524 -21.492  48.272  1.00  0.00     0.053 C 
BRANCH   6   7
ATOM      7  C   UNL     1      -4.781 -21.063  49.498  1.00  0.00     0.041 C 
ATOM      8  O   UNL     1      -3.522 -21.068  49.509  1.00  0.00    -0.550 OA
ATOM      9  O   UNL     1      -5.479 -20.707  50.645  1.00  0.00    -0.550 OA
ENDBRANCH   6   7
ENDBRANCH   5   6
ENDBRANCH   4   5
ENDBRANCH   3   4
ENDBRANCH   2   3
ENDBRANCH   1   2
BRANCH   1  10
ATOM     10  C   UNL     1      -1.763 -24.012  50.396  1.00  0.00     0.027 C 
BRANCH  10  11
ATOM     11  C   UNL     1      -0.340 -23.769  50.842  1.00  0.00    -0.031 C 
ATOM     12  C   UNL     1       0.459 -22.787  50.384  1.00  0.00    -0.031 C 
BRANCH  12  13
ATOM     13  C   UNL     1       0.045 -21.738  49.381  1.00  0.00     0.027 C 
BRANCH  13  14
ATOM     14  C   UNL     1       0.782 -21.883  48.035  1.00  0.00     0.004 C 
BRANCH  14  15
ATOM     15  C   UNL     1      -0.115 -22.375  46.885  1.00  0.00     0.000 C 
BRANCH  15  16
ATOM     16  C   UNL     1      -1.525 -21.763  46.925  1.00  0.00    -0.000 C 
BRANCH  16  17
ATOM     17  C   UNL     1      -2.359 -22.125  45.686  1.00  0.00    -0.003 C 
ATOM     18  C   UNL     1      -2.975 -20.901  45.007  1.00  0.00     0.004 C 
ENDBRANCH  16  17
ENDBRANCH  15  16
ENDBRANCH  14  15
ENDBRANCH  13  14
ENDBRANCH  12  13
ENDBRANCH  10  11
ENDBRANCH   1  10
TORSDOF 13
ENDMDL
MODEL 4
REMARK VINA RESULT:    -4.676      2.610      5.193
REMARK INTER + INTRA:         -10.556
REMARK INTER:                  -7.861
REMARK INTRA:                  -2.695
REMARK UNBOUND:                -2.327
REMARK SMILES CCCCCCC=CCCCCCCCC(=O)[O-]
REMARK SMILES IDX 10 1 11 2 12 3 13 4 14 5 15 6 16 7 17 8 18 9 9 10 8 11 7 12
REMARK SMILES IDX 6 13 5 14 4 15 3 16 2 17 1 18
REMARK H PARENT
REMARK Flexibility Score: inf
ROOT
ATOM      1  C   UNL     1      -1.641 -21.770  48.813  1.00  0.00     0.004 C 
ENDROOT
BRANCH   1   2
ATOM      2  C   UNL     1      -0.434 -22.135  47.936  1.00  0.00     0.000 C 
BRANCH   2   3
ATOM      3  C   UNL     1      -0.861 -22.369  46.481  1.00  0.00     0.000 C 
BRANCH   3   4
ATOM      4  C   UNL     1      -2.294 -21.870  46.244  1.00  0.00     0.000 C 
BRANCH   4   5
ATOM      5  C   UNL     1      -3.232 -22.981  45.747  1.00  0.00     0.006 C 
BRANCH   5   6
ATOM      6  C   UNL     1      -2.476 -24.242  45.312  1.00  0.00     0.053 C 
BRANCH   6   7
ATOM      7  C   UNL     1      -3.125 -25.464  45.884  1.00  0.00     0.041 C 
ATOM      8  O   UNL     1      -4.378 -25.524  45.990  1.00  0.00    -0.550 OA
ATOM      9  O   UNL     1      -2.343 -26.514  46.347  1.00  0.00    -0.550 OA
ENDBRANCH   6   7
ENDBRANCH   5   6
ENDBRANCH   4   5
ENDBRANCH   3   4
ENDBRANCH   2   3
ENDBRANCH   1   2
BRANCH   1  10
ATOM     10  C   UNL     1      -1.846 -22.770  49.957  1.00  0.00     0.027 C 
BRANCH  10  11
ATOM     11  C   UNL     1      -2.249 -24.129  49.434  1.00  0.00    -0.031 C 
ATOM     12  C   UNL     1      -3.512 -24.591  49.368  1.00  0.00    -0.031 C 
BRANCH  12  13
ATOM     13  C   UNL     1      -4.738 -23.804  49.763  1.00  0.00     0.027 C 
BRANCH  13  14
ATOM     14  C   UNL     1      -5.535 -23.300  48.543  1.00  0.00     0.004 C 
BRANCH  14  15
ATOM     15  C   UNL     1      -5.479 -21.774  48.351  1.00  0.00     0.000 C 
BRANCH  15  16
ATOM     16  C   UNL     1      -5.877 -20.999  49.618  1.00  0.00    -0.000 C 
BRANCH  16  17
ATOM     17  C   UNL     1      -4.818 -19.965  50.033  1.00  0.00    -0.003 C 
ATOM     18  C   UNL     1      -4.184 -20.278  51.389  1.00  0.00     0.004 C 
ENDBRANCH  16  17
ENDBRANCH  15  16
ENDBRANCH  14  15
ENDBRANCH  13  14
ENDBRANCH  12  13
ENDBRANCH  10  11
ENDBRANCH   1  10
TORSDOF 13
ENDMDL
MODEL 5
REMARK VINA RESULT:    -4.662      3.514      5.712
REMARK INTER + INTRA:         -10.533
REMARK INTER:                  -8.049
REMARK INTRA:                  -2.484
REMARK UNBOUND:                -2.327
REMARK SMILES CCCCCCC=CCCCCCCCC(=O)[O-]
REMARK SMILES IDX 10 1 11 2 12 3 13 4 14 5 15 6 16 7 17 8 18 9 9 10 8 11 7 12
REMARK SMILES IDX 6 13 5 14 4 15 3 16 2 17 1 18
REMARK H PARENT
REMARK Flexibility Score: inf
ROOT
ATOM      1  C   UNL     1      -1.144 -22.342  47.018  1.00  0.00     0.004 C 
ENDROOT
BRANCH   1   2
ATOM      2  C   UNL     1      -1.310 -23.740  46.403  1.00  0.00     0.000 C 
BRANCH   2   3
ATOM      3  C   UNL     1      -1.339 -24.820  47.490  1.00  0.00     0.000 C 
BRANCH   3   4
ATOM      4  C   UNL     1      -2.364 -25.913  47.150  1.00  0.00     0.000 C 
BRANCH   4   5
ATOM      5  C   UNL     1      -2.636 -26.018  45.641  1.00  0.00     0.006 C 
BRANCH   5   6
ATOM      6  C   UNL     1      -2.457 -27.444  45.105  1.00  0.00     0.053 C 
BRANCH   6   7
ATOM      7  C   UNL     1      -3.787 -28.102  44.918  1.00  0.00     0.041 C 
ATOM      8  O   UNL     1      -3.866 -29.356  44.832  1.00  0.00    -0.550 OA
ATOM      9  O   UNL     1      -4.934 -27.329  44.788  1.00  0.00    -0.550 OA
ENDBRANCH   6   7
ENDBRANCH   5   6
ENDBRANCH   4   5
ENDBRANCH   3   4
ENDBRANCH   2   3
ENDBRANCH   1   2
BRANCH   1  10
ATOM     10  C   UNL     1      -2.476 -21.587  47.106  1.00  0.00     0.027 C 
BRANCH  10  11
ATOM     11  C   UNL     1      -3.513 -22.193  46.189  1.00  0.00    -0.031 C 
ATOM     12  C   UNL     1      -4.725 -22.634  46.575  1.00  0.00    -0.031 C 
BRANCH  12  13
ATOM     13  C   UNL     1      -5.264 -22.551  47.982  1.00  0.00     0.027 C 
BRANCH  13  14
ATOM     14  C   UNL     1      -5.551 -23.939  48.588  1.00  0.00     0.004 C 
BRANCH  14  15
ATOM     15  C   UNL     1      -4.528 -24.378  49.650  1.00  0.00     0.000 C 
BRANCH  15  16
ATOM     16  C   UNL     1      -3.693 -23.207  50.194  1.00  0.00    -0.000 C 
BRANCH  16  17
ATOM     17  C   UNL     1      -2.277 -23.635  50.610  1.00  0.00    -0.003 C 
ATOM     18  C   UNL     1      -1.307 -22.457  50.708  1.00  0.00     0.004 C 
ENDBRANCH  16  17
ENDBRANCH  15  16
ENDBRANCH  14  15
ENDBRANCH  13  14
ENDBRANCH  12  13
ENDBRANCH  10  11
ENDBRANCH   1  10
TORSDOF 13
ENDMDL
MODEL 6
REMARK VINA RESULT:    -4.595      2.182      3.664
REMARK INTER + INTRA:         -10.415
REMARK INTER:                  -7.877
REMARK INTRA:                  -2.538
REMARK UNBOUND:                -2.327
REMARK SMILES CCCCCCC=CCCCCCCCC(=O)[O-]
REMARK SMILES IDX 10 1 11 2 12 3 13 4 14 5 15 6 16 7 17 8 18 9 9 10 8 11 7 12
REMARK SMILES IDX 6 13 5 14 4 15 3 16 2 17 1 18
REMARK H PARENT
REMARK Flexibility Score: inf
ROOT
ATOM      1  C   UNL     1      -2.974 -23.245  50.542  1.00  0.00     0.004 C 
ENDROOT
BRANCH   1   2
ATOM      2  C   UNL     1      -3.323 -21.900  49.887  1.00  0.00     0.000 C 
BRANCH   2   3
ATOM      3  C   UNL     1      -4.411 -21.166  50.680  1.00  0.00     0.000 C 
BRANCH   3   4
ATOM      4  C   UNL     1      -5.565 -20.739  49.761  1.00  0.00     0.000 C 
BRANCH   4   5
ATOM      5  C   UNL     1      -5.108 -20.489  48.315  1.00  0.00     0.006 C 
BRANCH   5   6
ATOM      6  C   UNL     1      -6.081 -21.064  47.279  1.00  0.00     0.053 C 
BRANCH   6   7
ATOM      7  C   UNL     1      -6.364 -20.054  46.211  1.00  0.00     0.041 C 
ATOM      8  O   UNL     1      -7.467 -20.067  45.605  1.00  0.00    -0.550 OA
ATOM      9  O   UNL     1      -5.391 -19.130  45.853  1.00  0.00    -0.550 OA
ENDBRANCH   6   7
ENDBRANCH   5   6
ENDBRANCH   4   5
ENDBRANCH   3   4
ENDBRANCH   2   3
ENDBRANCH   1   2
BRANCH   1  10
ATOM     10  C   UNL     1      -3.231 -24.429  49.603  1.00  0.00     0.027 C 
BRANCH  10  11
ATOM     11  C   UNL     1      -4.643 -24.409  49.065  1.00  0.00    -0.031 C 
ATOM     12  C   UNL     1      -4.980 -24.553  47.769  1.00  0.00    -0.031 C 
BRANCH  12  13
ATOM     13  C   UNL     1      -4.003 -24.808  46.648  1.00  0.00     0.027 C 
BRANCH  13  14
ATOM     14  C   UNL     1      -4.074 -23.731  45.546  1.00  0.00     0.004 C 
BRANCH  14  15
ATOM     15  C   UNL     1      -3.107 -22.554  45.765  1.00  0.00     0.000 C 
BRANCH  15  16
ATOM     16  C   UNL     1      -1.843 -22.956  46.542  1.00  0.00    -0.000 C 
BRANCH  16  17
ATOM     17  C   UNL     1      -1.071 -21.742  47.080  1.00  0.00    -0.003 C 
ATOM     18  C   UNL     1      -0.026 -22.121  48.131  1.00  0.00     0.004 C 
ENDBRANCH  16  17
ENDBRANCH  15  16
ENDBRANCH  14  15
ENDBRANCH  13  14
ENDBRANCH  12  13
ENDBRANCH  10  11
ENDBRANCH   1  10
TORSDOF 13
ENDMDL
MODEL 7
REMARK VINA RESULT:    -4.574      3.907      5.806
REMARK INTER + INTRA:         -10.378
REMARK INTER:                  -8.363
REMARK INTRA:                  -2.015
REMARK UNBOUND:                -2.327
REMARK SMILES CCCCCCC=CCCCCCCCC(=O)[O-]
REMARK SMILES IDX 10 1 11 2 12 3 13 4 14 5 15 6 16 7 17 8 18 9 9 10 8 11 7 12
REMARK SMILES IDX 6 13 5 14 4 15 3 16 2 17 1 18
REMARK H PARENT
REMARK Flexibility Score: inf
ROOT
ATOM      1  C   UNL     1      -1.106 -23.523  48.204  1.00  0.00     0.004 C 
ENDROOT
BRANCH   1   2
ATOM      2  C   UNL     1      -1.541 -24.268  46.933  1.00  0.00     0.000 C 
BRANCH   2   3
ATOM      3  C   UNL     1      -2.155 -25.630  47.277  1.00  0.00     0.000 C 
BRANCH   3   4
ATOM      4  C   UNL     1      -2.403 -26.456  46.005  1.00  0.00     0.000 C 
BRANCH   4   5
ATOM      5  C   UNL     1      -3.664 -26.010  45.247  1.00  0.00     0.006 C 
BRANCH   5   6
ATOM      6  C   UNL     1      -4.623 -27.172  44.962  1.00  0.00     0.053 C 
BRANCH   6   7
ATOM      7  C   UNL     1      -3.890 -28.309  44.322  1.00  0.00     0.041 C 
ATOM      8  O   UNL     1      -3.798 -29.416  44.915  1.00  0.00    -0.550 OA
ATOM      9  O   UNL     1      -3.265 -28.131  43.095  1.00  0.00    -0.550 OA
ENDBRANCH   6   7
ENDBRANCH   5   6
ENDBRANCH   4   5
ENDBRANCH   3   4
ENDBRANCH   2   3
ENDBRANCH   1   2
BRANCH   1  10
ATOM     10  C   UNL     1      -1.486 -24.285  49.479  1.00  0.00     0.027 C 
BRANCH  10  11
ATOM     11  C   UNL     1      -2.381 -23.455  50.369  1.00  0.00    -0.031 C 
ATOM     12  C   UNL     1      -3.725 -23.531  50.403  1.00  0.00    -0.031 C 
BRANCH  12  13
ATOM     13  C   UNL     1      -4.554 -24.493  49.586  1.00  0.00     0.027 C 
BRANCH  13  14
ATOM     14  C   UNL     1      -5.541 -23.773  48.647  1.00  0.00     0.004 C 
BRANCH  14  15
ATOM     15  C   UNL     1      -4.862 -23.037  47.478  1.00  0.00     0.000 C 
BRANCH  15  16
ATOM     16  C   UNL     1      -5.078 -21.515  47.526  1.00  0.00    -0.000 C 
BRANCH  16  17
ATOM     17  C   UNL     1      -5.974 -21.083  48.697  1.00  0.00    -0.003 C 
ATOM     18  C   UNL     1      -5.272 -20.122  49.657  1.00  0.00     0.004 C 
ENDBRANCH  16  17
ENDBRANCH  15  16
ENDBRANCH  14  15
ENDBRANCH  13  14
ENDBRANCH  12  13
ENDBRANCH  10  11
ENDBRANCH   1  10
TORSDOF 13
ENDMDL
MODEL 8
REMARK VINA RESULT:    -4.572      2.243      4.972
REMARK INTER + INTRA:         -10.373
REMARK INTER:                  -8.146
REMARK INTRA:                  -2.227
REMARK UNBOUND:                -2.327
REMARK SMILES CCCCCCC=CCCCCCCCC(=O)[O-]
REMARK SMILES IDX 10 1 11 2 12 3 13 4 14 5 15 6 16 7 17 8 18 9 9 10 8 11 7 12
REMARK SMILES IDX 6 13 5 14 4 15 3 16 2 17 1 18
REMARK H PARENT
REMARK Flexibility Score: inf
ROOT
ATOM      1  C   UNL     1      -0.960 -22.616  50.406  1.00  0.00     0.004 C 
ENDROOT
BRANCH   1   2
ATOM      2  C   UNL     1       0.319 -22.330  49.606  1.00  0.00     0.000 C 
BRANCH   2   3
ATOM      3  C   UNL     1      -0.013 -21.867  48.182  1.00  0.00     0.000 C 
BRANCH   3   4
ATOM      4  C   UNL     1      -1.501 -21.504  48.058  1.00  0.00     0.000 C 
BRANCH   4   5
ATOM      5  C   UNL     1      -2.151 -22.101  46.799  1.00  0.00     0.006 C 
BRANCH   5   6
ATOM      6  C   UNL     1      -2.697 -21.026  45.850  1.00  0.00     0.053 C 
BRANCH   6   7
ATOM      7  C   UNL     1      -3.880 -21.549  45.097  1.00  0.00     0.041 C 
ATOM      8  O   UNL     1      -4.472 -22.588  45.490  1.00  0.00    -0.550 OA
ATOM      9  O   UNL     1      -4.297 -20.917  43.932  1.00  0.00    -0.550 OA
ENDBRANCH   6   7
ENDBRANCH   5   6
ENDBRANCH   4   5
ENDBRANCH   3   4
ENDBRANCH   2   3
ENDBRANCH   1   2
BRANCH   1  10
ATOM     10  C   UNL     1      -1.164 -24.116  50.651  1.00  0.00     0.027 C 
BRANCH  10  11
ATOM     11  C   UNL     1      -1.583 -24.828  49.386  1.00  0.00    -0.031 C 
ATOM     12  C   UNL     1      -2.855 -25.011  48.983  1.00  0.00    -0.031 C 
BRANCH  12  13
ATOM     13  C   UNL     1      -4.071 -24.491  49.711  1.00  0.00     0.027 C 
BRANCH  13  14
ATOM     14  C   UNL     1      -5.148 -23.951  48.749  1.00  0.00     0.004 C 
BRANCH  14  15
ATOM     15  C   UNL     1      -5.383 -22.435  48.867  1.00  0.00     0.000 C 
BRANCH  15  16
ATOM     16  C   UNL     1      -4.541 -21.785  49.977  1.00  0.00    -0.000 C 
BRANCH  16  17
ATOM     17  C   UNL     1      -4.479 -20.255  49.852  1.00  0.00    -0.003 C 
ATOM     18  C   UNL     1      -4.476 -19.548  51.208  1.00  0.00     0.004 C 
ENDBRANCH  16  17
ENDBRANCH  15  16
ENDBRANCH  14  15
ENDBRANCH  13  14
ENDBRANCH  12  13
ENDBRANCH  10  11
ENDBRANCH   1  10
TORSDOF 13
ENDMDL
MODEL 9
REMARK VINA RESULT:    -4.565      1.521      2.906
REMARK INTER + INTRA:         -10.361
REMARK INTER:                  -8.003
REMARK INTRA:                  -2.358
REMARK UNBOUND:                -2.327
REMARK SMILES CCCCCCC=CCCCCCCCC(=O)[O-]
REMARK SMILES IDX 10 1 11 2 12 3 13 4 14 5 15 6 16 7 17 8 18 9 9 10 8 11 7 12
REMARK SMILES IDX 6 13 5 14 4 15 3 16 2 17 1 18
REMARK H PARENT
REMARK Flexibility Score: inf
ROOT
ATOM      1  C   UNL     1      -2.124 -23.700  50.513  1.00  0.00     0.004 C 
ENDROOT
BRANCH   1   2
ATOM      2  C   UNL     1      -2.873 -24.515  49.448  1.00  0.00     0.000 C 
BRANCH   2   3
ATOM      3  C   UNL     1      -4.381 -24.528  49.724  1.00  0.00     0.000 C 
BRANCH   3   4
ATOM      4  C   UNL     1      -5.172 -24.150  48.462  1.00  0.00     0.000 C 
BRANCH   4   5
ATOM      5  C   UNL     1      -5.883 -22.794  48.594  1.00  0.00     0.006 C 
BRANCH   5   6
ATOM      6  C   UNL     1      -5.021 -21.624  48.101  1.00  0.00     0.053 C 
BRANCH   6   7
ATOM      7  C   UNL     1      -4.586 -20.775  49.255  1.00  0.00     0.041 C 
ATOM      8  O   UNL     1      -3.375 -20.746  49.597  1.00  0.00    -0.550 OA
ATOM      9  O   UNL     1      -5.526 -20.056  49.982  1.00  0.00    -0.550 OA
ENDBRANCH   6   7
ENDBRANCH   5   6
ENDBRANCH   4   5
ENDBRANCH   3   4
ENDBRANCH   2   3
ENDBRANCH   1   2
BRANCH   1  10
ATOM     10  C   UNL     1      -0.609 -23.694  50.275  1.00  0.00     0.027 C 
BRANCH  10  11
ATOM     11  C   UNL     1      -0.115 -22.314  49.909  1.00  0.00    -0.031 C 
ATOM     12  C   UNL     1       0.016 -21.845  48.653  1.00  0.00    -0.031 C 
BRANCH  12  13
ATOM     13  C   UNL     1      -0.355 -22.610  47.406  1.00  0.00     0.027 C 
BRANCH  13  14
ATOM     14  C   UNL     1      -1.642 -22.076  46.746  1.00  0.00     0.004 C 
BRANCH  14  15
ATOM     15  C   UNL     1      -2.478 -23.162  46.046  1.00  0.00     0.000 C 
BRANCH  15  16
ATOM     16  C   UNL     1      -1.816 -24.549  46.096  1.00  0.00    -0.000 C 
BRANCH  16  17
ATOM     17  C   UNL     1      -2.831 -25.693  45.941  1.00  0.00    -0.003 C 
ATOM     18  C   UNL     1      -4.087 -25.271  45.177  1.00  0.00     0.004 C 
ENDBRANCH  16  17
ENDBRANCH  15  16
ENDBRANCH  14  15
ENDBRANCH  13  14
ENDBRANCH  12  13
ENDBRANCH  10  11
ENDBRANCH   1  10
TORSDOF 13
ENDMDL
