MODEL 1
REMARK VINA RESULT:    -4.209      0.000      0.000
REMARK INTER + INTRA:          -4.332
REMARK INTER:                  -4.332
REMARK INTRA:                   0.000
REMARK UNBOUND:                 0.000
REMARK SMILES Oc1ccc2[nH]ccc2c1
REMARK SMILES IDX 3 1 4 2 5 3 9 4 8 5 7 6 6 7 10 8 2 9 1 11
REMARK H PARENT 6 10 1 12
REMARK Flexibility Score: inf
ROOT
ATOM      1  C   UNL     1      26.516  38.532  19.036  1.00  0.00     0.048 A 
ATOM      2  C   UNL     1      25.904  39.016  20.207  1.00  0.00     0.030 A 
ATOM      3  C   UNL     1      26.116  40.350  20.547  1.00  0.00     0.046 A 
ATOM      4  C   UNL     1      26.890  41.176  19.777  1.00  0.00     0.003 A 
ATOM      5  C   UNL     1      26.898  42.415  20.380  1.00  0.00     0.028 A 
ATOM      6  C   UNL     1      26.106  42.271  21.515  1.00  0.00     0.083 A 
ATOM      7  N   UNL     1      25.630  41.008  21.613  1.00  0.00    -0.361 N 
ATOM      8  C   UNL     1      27.510  40.729  18.613  1.00  0.00     0.056 A 
ATOM      9  C   UNL     1      27.317  39.382  18.238  1.00  0.00     0.116 A 
ATOM     10  H   UNL     1      25.012  40.627  22.364  1.00  0.00     0.166 HD
ENDROOT
BRANCH   9  11
ATOM     11  O   UNL     1      27.911  38.879  17.084  1.00  0.00    -0.508 OA
ATOM     12  H   UNL     1      28.047  37.883  16.950  1.00  0.00     0.293 HD
ENDBRANCH   9  11
TORSDOF 1
ENDMDL
MODEL 2
REMARK VINA RESULT:    -4.054     10.236     11.327
REMARK INTER + INTRA:          -4.173
REMARK INTER:                  -4.173
REMARK INTRA:                   0.000
REMARK UNBOUND:                 0.000
REMARK SMILES Oc1ccc2[nH]ccc2c1
REMARK SMILES IDX 3 1 4 2 5 3 9 4 8 5 7 6 6 7 10 8 2 9 1 11
REMARK H PARENT 6 10 1 12
REMARK Flexibility Score: inf
ROOT
ATOM      1  C   UNL     1      28.890  28.445  23.681  1.00  0.00     0.048 A 
ATOM      2  C   UNL     1      29.116  29.340  22.619  1.00  0.00     0.030 A 
ATOM      3  C   UNL     1      28.958  30.701  22.871  1.00  0.00     0.046 A 
ATOM      4  C   UNL     1      28.596  31.168  24.106  1.00  0.00     0.003 A 
ATOM      5  C   UNL     1      28.527  32.542  24.024  1.00  0.00     0.028 A 
ATOM      6  C   UNL     1      28.860  32.843  22.707  1.00  0.00     0.083 A 
ATOM      7  N   UNL     1      29.122  31.716  22.007  1.00  0.00    -0.361 N 
ATOM      8  C   UNL     1      28.365  30.310  25.179  1.00  0.00     0.056 A 
ATOM      9  C   UNL     1      28.516  28.924  24.959  1.00  0.00     0.116 A 
ATOM     10  H   UNL     1      29.396  31.653  21.000  1.00  0.00     0.166 HD
ENDROOT
BRANCH   9  11
ATOM     11  O   UNL     1      28.299  28.018  25.993  1.00  0.00    -0.508 OA
ATOM     12  H   UNL     1      28.967  27.905  26.747  1.00  0.00     0.293 HD
ENDBRANCH   9  11
TORSDOF 1
ENDMDL
MODEL 3
REMARK VINA RESULT:    -3.942      3.210      4.729
REMARK INTER + INTRA:          -4.057
REMARK INTER:                  -4.057
REMARK INTRA:                   0.000
REMARK UNBOUND:                 0.000
REMARK SMILES Oc1ccc2[nH]ccc2c1
REMARK SMILES IDX 3 1 4 2 5 3 9 4 8 5 7 6 6 7 10 8 2 9 1 11
REMARK H PARENT 6 10 1 12
REMARK Flexibility Score: inf
ROOT
ATOM      1  C   UNL     1      26.513  39.368  19.363  1.00  0.00     0.048 A 
ATOM      2  C   UNL     1      27.659  38.708  18.883  1.00  0.00     0.030 A 
ATOM      3  C   UNL     1      28.007  37.495  19.472  1.00  0.00     0.046 A 
ATOM      4  C   UNL     1      27.267  36.948  20.486  1.00  0.00     0.003 A 
ATOM      5  C   UNL     1      27.869  35.761  20.842  1.00  0.00     0.028 A 
ATOM      6  C   UNL     1      28.973  35.648  20.003  1.00  0.00     0.083 A 
ATOM      7  N   UNL     1      29.053  36.709  19.167  1.00  0.00    -0.361 N 
ATOM      8  C   UNL     1      26.127  37.574  20.985  1.00  0.00     0.056 A 
ATOM      9  C   UNL     1      25.746  38.806  20.411  1.00  0.00     0.116 A 
ATOM     10  H   UNL     1      29.781  36.879  18.438  1.00  0.00     0.166 HD
ENDROOT
BRANCH   9  11
ATOM     11  O   UNL     1      24.615  39.477  20.868  1.00  0.00    -0.508 OA
ATOM     12  H   UNL     1      24.343  40.375  20.485  1.00  0.00     0.293 HD
ENDBRANCH   9  11
TORSDOF 1
ENDMDL
MODEL 4
REMARK VINA RESULT:    -3.924      1.910      3.262
REMARK INTER + INTRA:          -4.038
REMARK INTER:                  -4.038
REMARK INTRA:                   0.000
REMARK UNBOUND:                 0.000
REMARK SMILES Oc1ccc2[nH]ccc2c1
REMARK SMILES IDX 3 1 4 2 5 3 9 4 8 5 7 6 6 7 10 8 2 9 1 11
REMARK H PARENT 6 10 1 12
REMARK Flexibility Score: inf
ROOT
ATOM      1  C   UNL     1      26.448  42.994  20.570  1.00  0.00     0.048 A 
ATOM      2  C   UNL     1      26.029  41.851  21.275  1.00  0.00     0.030 A 
ATOM      3  C   UNL     1      26.205  40.610  20.666  1.00  0.00     0.046 A 
ATOM      4  C   UNL     1      26.766  40.491  19.423  1.00  0.00     0.003 A 
ATOM      5  C   UNL     1      26.797  39.150  19.111  1.00  0.00     0.028 A 
ATOM      6  C   UNL     1      26.237  38.509  20.211  1.00  0.00     0.083 A 
ATOM      7  N   UNL     1      25.877  39.405  21.159  1.00  0.00    -0.361 N 
ATOM      8  C   UNL     1      27.192  41.603  18.698  1.00  0.00     0.056 A 
ATOM      9  C   UNL     1      27.029  42.875  19.286  1.00  0.00     0.116 A 
ATOM     10  H   UNL     1      25.435  39.197  22.082  1.00  0.00     0.166 HD
ENDROOT
BRANCH   9  11
ATOM     11  O   UNL     1      27.436  44.022  18.609  1.00  0.00    -0.508 OA
ATOM     12  H   UNL     1      26.781  44.584  18.078  1.00  0.00     0.293 HD
ENDBRANCH   9  11
TORSDOF 1
ENDMDL
MODEL 5
REMARK VINA RESULT:    -3.903      2.612      4.069
REMARK INTER + INTRA:          -4.017
REMARK INTER:                  -4.017
REMARK INTRA:                   0.000
REMARK UNBOUND:                 0.000
REMARK SMILES Oc1ccc2[nH]ccc2c1
REMARK SMILES IDX 3 1 4 2 5 3 9 4 8 5 7 6 6 7 10 8 2 9 1 11
REMARK H PARENT 6 10 1 12
REMARK Flexibility Score: inf
ROOT
ATOM      1  C   UNL     1      26.977  42.484  20.390  1.00  0.00     0.048 A 
ATOM      2  C   UNL     1      27.314  41.946  19.134  1.00  0.00     0.030 A 
ATOM      3  C   UNL     1      27.109  40.583  18.934  1.00  0.00     0.046 A 
ATOM      4  C   UNL     1      26.594  39.779  19.916  1.00  0.00     0.003 A 
ATOM      5  C   UNL     1      26.516  38.502  19.406  1.00  0.00     0.028 A 
ATOM      6  C   UNL     1      27.001  38.601  18.105  1.00  0.00     0.083 A 
ATOM      7  N   UNL     1      27.361  39.874  17.821  1.00  0.00    -0.361 N 
ATOM      8  C   UNL     1      26.249  40.280  21.170  1.00  0.00     0.056 A 
ATOM      9  C   UNL     1      26.445  41.657  21.407  1.00  0.00     0.116 A 
ATOM     10  H   UNL     1      27.755  40.228  16.921  1.00  0.00     0.166 HD
ENDROOT
BRANCH   9  11
ATOM     11  O   UNL     1      26.118  42.214  22.641  1.00  0.00    -0.508 OA
ATOM     12  H   UNL     1      25.332  41.874  23.182  1.00  0.00     0.293 HD
ENDBRANCH   9  11
TORSDOF 1
ENDMDL
MODEL 6
REMARK VINA RESULT:    -3.887      1.740      2.376
REMARK INTER + INTRA:          -4.001
REMARK INTER:                  -4.001
REMARK INTRA:                   0.000
REMARK UNBOUND:                 0.000
REMARK SMILES Oc1ccc2[nH]ccc2c1
REMARK SMILES IDX 3 1 4 2 5 3 9 4 8 5 7 6 6 7 10 8 2 9 1 11
REMARK H PARENT 6 10 1 12
REMARK Flexibility Score: inf
ROOT
ATOM      1  C   UNL     1      26.636  38.844  18.843  1.00  0.00     0.048 A 
ATOM      2  C   UNL     1      27.282  40.086  18.708  1.00  0.00     0.030 A 
ATOM      3  C   UNL     1      27.014  41.066  19.661  1.00  0.00     0.046 A 
ATOM      4  C   UNL     1      26.153  40.842  20.702  1.00  0.00     0.003 A 
ATOM      5  C   UNL     1      26.108  41.995  21.455  1.00  0.00     0.028 A 
ATOM      6  C   UNL     1      26.968  42.881  20.813  1.00  0.00     0.083 A 
ATOM      7  N   UNL     1      27.519  42.309  19.718  1.00  0.00    -0.361 N 
ATOM      8  C   UNL     1      25.497  39.624  20.865  1.00  0.00     0.056 A 
ATOM      9  C   UNL     1      25.745  38.609  19.917  1.00  0.00     0.116 A 
ATOM     10  H   UNL     1      28.197  42.748  19.056  1.00  0.00     0.166 HD
ENDROOT
BRANCH   9  11
ATOM     11  O   UNL     1      25.119  37.370  20.029  1.00  0.00    -0.508 OA
ATOM     12  H   UNL     1      24.343  37.114  19.430  1.00  0.00     0.293 HD
ENDBRANCH   9  11
TORSDOF 1
ENDMDL
MODEL 7
REMARK VINA RESULT:    -3.886     10.446     11.495
REMARK INTER + INTRA:          -4.000
REMARK INTER:                  -4.000
REMARK INTRA:                   0.000
REMARK UNBOUND:                 0.000
REMARK SMILES Oc1ccc2[nH]ccc2c1
REMARK SMILES IDX 3 1 4 2 5 3 9 4 8 5 7 6 6 7 10 8 2 9 1 11
REMARK H PARENT 6 10 1 12
REMARK Flexibility Score: inf
ROOT
ATOM      1  C   UNL     1      28.752  29.852  22.550  1.00  0.00     0.048 A 
ATOM      2  C   UNL     1      28.621  28.950  23.622  1.00  0.00     0.030 A 
ATOM      3  C   UNL     1      28.748  29.454  24.915  1.00  0.00     0.046 A 
ATOM      4  C   UNL     1      28.989  30.781  25.150  1.00  0.00     0.003 A 
ATOM      5  C   UNL     1      29.058  30.952  26.515  1.00  0.00     0.028 A 
ATOM      6  C   UNL     1      28.849  29.685  27.050  1.00  0.00     0.083 A 
ATOM      7  N   UNL     1      28.660  28.773  26.069  1.00  0.00    -0.361 N 
ATOM      8  C   UNL     1      29.123  31.700  24.112  1.00  0.00     0.056 A 
ATOM      9  C   UNL     1      29.001  31.224  22.789  1.00  0.00     0.116 A 
ATOM     10  H   UNL     1      28.482  27.751  26.189  1.00  0.00     0.166 HD
ENDROOT
BRANCH   9  11
ATOM     11  O   UNL     1      29.125  32.096  21.710  1.00  0.00    -0.508 OA
ATOM     12  H   UNL     1      29.204  33.096  21.846  1.00  0.00     0.293 HD
ENDBRANCH   9  11
TORSDOF 1
ENDMDL
MODEL 8
REMARK VINA RESULT:    -3.867     10.439     11.687
REMARK INTER + INTRA:          -3.980
REMARK INTER:                  -3.980
REMARK INTRA:                   0.000
REMARK UNBOUND:                 0.000
REMARK SMILES Oc1ccc2[nH]ccc2c1
REMARK SMILES IDX 3 1 4 2 5 3 9 4 8 5 7 6 6 7 10 8 2 9 1 11
REMARK H PARENT 6 10 1 12
REMARK Flexibility Score: inf
ROOT
ATOM      1  C   UNL     1      28.925  32.180  24.012  1.00  0.00     0.048 A 
ATOM      2  C   UNL     1      28.819  31.512  25.246  1.00  0.00     0.030 A 
ATOM      3  C   UNL     1      28.805  30.118  25.231  1.00  0.00     0.046 A 
ATOM      4  C   UNL     1      28.891  29.409  24.063  1.00  0.00     0.003 A 
ATOM      5  C   UNL     1      28.849  28.071  24.389  1.00  0.00     0.028 A 
ATOM      6  C   UNL     1      28.738  28.039  25.776  1.00  0.00     0.083 A 
ATOM      7  N   UNL     1      28.711  29.292  26.286  1.00  0.00    -0.361 N 
ATOM      8  C   UNL     1      28.996  30.039  22.826  1.00  0.00     0.056 A 
ATOM      9  C   UNL     1      29.014  31.450  22.803  1.00  0.00     0.116 A 
ATOM     10  H   UNL     1      28.633  29.557  27.293  1.00  0.00     0.166 HD
ENDROOT
BRANCH   9  11
ATOM     11  O   UNL     1      29.118  32.136  21.596  1.00  0.00    -0.508 OA
ATOM     12  H   UNL     1      30.007  32.235  21.119  1.00  0.00     0.293 HD
ENDBRANCH   9  11
TORSDOF 1
ENDMDL
MODEL 9
REMARK VINA RESULT:    -3.789     11.315     12.378
REMARK INTER + INTRA:          -3.899
REMARK INTER:                  -3.899
REMARK INTRA:                   0.000
REMARK UNBOUND:                 0.000
REMARK SMILES Oc1ccc2[nH]ccc2c1
REMARK SMILES IDX 3 1 4 2 5 3 9 4 8 5 7 6 6 7 10 8 2 9 1 11
REMARK H PARENT 6 10 1 12
REMARK Flexibility Score: inf
ROOT
ATOM      1  C   UNL     1      27.279  28.030  24.064  1.00  0.00     0.048 A 
ATOM      2  C   UNL     1      27.441  29.313  23.509  1.00  0.00     0.030 A 
ATOM      3  C   UNL     1      28.083  30.279  24.280  1.00  0.00     0.046 A 
ATOM      4  C   UNL     1      28.548  30.005  25.538  1.00  0.00     0.003 A 
ATOM      5  C   UNL     1      29.124  31.158  26.025  1.00  0.00     0.028 A 
ATOM      6  C   UNL     1      28.974  32.096  25.008  1.00  0.00     0.083 A 
ATOM      7  N   UNL     1      28.337  31.555  23.944  1.00  0.00    -0.361 N 
ATOM      8  C   UNL     1      28.405  28.746  26.117  1.00  0.00     0.056 A 
ATOM      9  C   UNL     1      27.759  27.743  25.364  1.00  0.00     0.116 A 
ATOM     10  H   UNL     1      28.095  32.034  23.048  1.00  0.00     0.166 HD
ENDROOT
BRANCH   9  11
ATOM     11  O   UNL     1      27.588  26.465  25.890  1.00  0.00    -0.508 OA
ATOM     12  H   UNL     1      28.350  25.798  25.918  1.00  0.00     0.293 HD
ENDBRANCH   9  11
TORSDOF 1
ENDMDL
