MODEL 1
REMARK VINA RESULT:    -4.234      0.000      0.000
REMARK INTER + INTRA:          -9.755
REMARK INTER:                  -7.452
REMARK INTRA:                  -2.302
REMARK UNBOUND:                -2.302
REMARK SMILES CCCCCCC=CCCCCCCCC(=O)[O-]
REMARK SMILES IDX 10 1 11 2 12 3 13 4 14 5 15 6 16 7 17 8 18 9 9 10 8 11 7 12
REMARK SMILES IDX 6 13 5 14 4 15 3 16 2 17 1 18
REMARK H PARENT
REMARK Flexibility Score: inf
ROOT
ATOM      1  C   UNL     1     129.382 122.496 141.059  1.00  0.00     0.004 C 
ENDROOT
BRANCH   1   2
ATOM      2  C   UNL     1     128.484 121.270 141.297  1.00  0.00     0.000 C 
BRANCH   2   3
ATOM      3  C   UNL     1     127.275 121.228 140.349  1.00  0.00     0.000 C 
BRANCH   3   4
ATOM      4  C   UNL     1     127.407 122.217 139.178  1.00  0.00     0.000 C 
BRANCH   4   5
ATOM      5  C   UNL     1     126.876 121.641 137.856  1.00  0.00     0.006 C 
BRANCH   5   6
ATOM      6  C   UNL     1     126.096 122.673 137.031  1.00  0.00     0.053 C 
BRANCH   6   7
ATOM      7  C   UNL     1     126.267 122.408 135.568  1.00  0.00     0.041 C 
ATOM      8  O   UNL     1     126.829 123.259 134.830  1.00  0.00    -0.550 OA
ATOM      9  O   UNL     1     125.848 121.198 135.028  1.00  0.00    -0.550 OA
ENDBRANCH   6   7
ENDBRANCH   5   6
ENDBRANCH   4   5
ENDBRANCH   3   4
ENDBRANCH   2   3
ENDBRANCH   1   2
BRANCH   1  10
ATOM     10  C   UNL     1     130.870 122.126 141.001  1.00  0.00     0.027 C 
BRANCH  10  11
ATOM     11  C   UNL     1     131.501 122.546 139.695  1.00  0.00    -0.031 C 
ATOM     12  C   UNL     1     131.794 121.728 138.666  1.00  0.00    -0.031 C 
BRANCH  12  13
ATOM     13  C   UNL     1     131.505 120.247 138.612  1.00  0.00     0.027 C 
BRANCH  13  14
ATOM     14  C   UNL     1     130.083 119.962 138.112  1.00  0.00     0.004 C 
BRANCH  14  15
ATOM     15  C   UNL     1     129.435 118.771 138.837  1.00  0.00     0.000 C 
BRANCH  15  16
ATOM     16  C   UNL     1     130.318 118.215 139.965  1.00  0.00    -0.000 C 
BRANCH  16  17
ATOM     17  C   UNL     1     129.503 117.527 141.070  1.00  0.00    -0.003 C 
ATOM     18  C   UNL     1     128.014 117.529 140.736  1.00  0.00     0.004 C 
ENDBRANCH  16  17
ENDBRANCH  15  16
ENDBRANCH  14  15
ENDBRANCH  13  14
ENDBRANCH  12  13
ENDBRANCH  10  11
ENDBRANCH   1  10
TORSDOF 13
ENDMDL
MODEL 2
REMARK VINA RESULT:    -4.228      2.855      6.077
REMARK INTER + INTRA:          -9.744
REMARK INTER:                  -8.086
REMARK INTRA:                  -1.657
REMARK UNBOUND:                -2.302
REMARK SMILES CCCCCCC=CCCCCCCCC(=O)[O-]
REMARK SMILES IDX 10 1 11 2 12 3 13 4 14 5 15 6 16 7 17 8 18 9 9 10 8 11 7 12
REMARK SMILES IDX 6 13 5 14 4 15 3 16 2 17 1 18
REMARK H PARENT
REMARK Flexibility Score: inf
ROOT
ATOM      1  C   UNL     1     128.560 120.097 140.946  1.00  0.00     0.004 C 
ENDROOT
BRANCH   1   2
ATOM      2  C   UNL     1     128.444 118.966 139.911  1.00  0.00     0.000 C 
BRANCH   2   3
ATOM      3  C   UNL     1     129.061 119.340 138.553  1.00  0.00     0.000 C 
BRANCH   3   4
ATOM      4  C   UNL     1     130.494 119.884 138.684  1.00  0.00     0.000 C 
BRANCH   4   5
ATOM      5  C   UNL     1     130.594 121.376 138.327  1.00  0.00     0.006 C 
BRANCH   5   6
ATOM      6  C   UNL     1     132.000 121.946 138.552  1.00  0.00     0.053 C 
BRANCH   6   7
ATOM      7  C   UNL     1     132.013 122.845 139.748  1.00  0.00     0.041 C 
ATOM      8  O   UNL     1     132.700 123.900 139.742  1.00  0.00    -0.550 OA
ATOM      9  O   UNL     1     131.226 122.543 140.852  1.00  0.00    -0.550 OA
ENDBRANCH   6   7
ENDBRANCH   5   6
ENDBRANCH   4   5
ENDBRANCH   3   4
ENDBRANCH   2   3
ENDBRANCH   1   2
BRANCH   1  10
ATOM     10  C   UNL     1     127.320 121.002 140.963  1.00  0.00     0.027 C 
BRANCH  10  11
ATOM     11  C   UNL     1     127.573 122.312 140.256  1.00  0.00    -0.031 C 
ATOM     12  C   UNL     1     127.139 122.634 139.022  1.00  0.00    -0.031 C 
BRANCH  12  13
ATOM     13  C   UNL     1     126.283 121.760 138.136  1.00  0.00     0.027 C 
BRANCH  13  14
ATOM     14  C   UNL     1     126.813 121.717 136.697  1.00  0.00     0.004 C 
BRANCH  14  15
ATOM     15  C   UNL     1     126.155 122.778 135.799  1.00  0.00     0.000 C 
BRANCH  15  16
ATOM     16  C   UNL     1     125.902 122.269 134.372  1.00  0.00    -0.000 C 
BRANCH  16  17
ATOM     17  C   UNL     1     126.200 123.331 133.303  1.00  0.00    -0.003 C 
ATOM     18  C   UNL     1     127.536 124.019 133.570  1.00  0.00     0.004 C 
ENDBRANCH  16  17
ENDBRANCH  15  16
ENDBRANCH  14  15
ENDBRANCH  13  14
ENDBRANCH  12  13
ENDBRANCH  10  11
ENDBRANCH   1  10
TORSDOF 13
ENDMDL
MODEL 3
REMARK VINA RESULT:    -4.076      1.354      3.450
REMARK INTER + INTRA:          -9.475
REMARK INTER:                  -7.765
REMARK INTRA:                  -1.710
REMARK UNBOUND:                -2.302
REMARK SMILES CCCCCCC=CCCCCCCCC(=O)[O-]
REMARK SMILES IDX 10 1 11 2 12 3 13 4 14 5 15 6 16 7 17 8 18 9 9 10 8 11 7 12
REMARK SMILES IDX 6 13 5 14 4 15 3 16 2 17 1 18
REMARK H PARENT
REMARK Flexibility Score: inf
ROOT
ATOM      1  C   UNL     1     127.306 121.363 140.598  1.00  0.00     0.004 C 
ENDROOT
BRANCH   1   2
ATOM      2  C   UNL     1     126.523 121.132 139.295  1.00  0.00     0.000 C 
BRANCH   2   3
ATOM      3  C   UNL     1     126.507 122.371 138.385  1.00  0.00     0.000 C 
BRANCH   3   4
ATOM      4  C   UNL     1     126.810 122.031 136.917  1.00  0.00     0.000 C 
BRANCH   4   5
ATOM      5  C   UNL     1     125.892 122.779 135.936  1.00  0.00     0.006 C 
BRANCH   5   6
ATOM      6  C   UNL     1     125.968 122.219 134.509  1.00  0.00     0.053 C 
BRANCH   6   7
ATOM      7  C   UNL     1     126.397 123.287 133.553  1.00  0.00     0.041 C 
ATOM      8  O   UNL     1     127.492 123.886 133.719  1.00  0.00    -0.550 OA
ATOM      9  O   UNL     1     125.608 123.588 132.449  1.00  0.00    -0.550 OA
ENDBRANCH   6   7
ENDBRANCH   5   6
ENDBRANCH   4   5
ENDBRANCH   3   4
ENDBRANCH   2   3
ENDBRANCH   1   2
BRANCH   1  10
ATOM     10  C   UNL     1     127.857 120.057 141.187  1.00  0.00     0.027 C 
BRANCH  10  11
ATOM     11  C   UNL     1     127.713 118.904 140.223  1.00  0.00    -0.031 C 
ATOM     12  C   UNL     1     128.661 118.473 139.368  1.00  0.00    -0.031 C 
BRANCH  12  13
ATOM     13  C   UNL     1     130.056 119.038 139.246  1.00  0.00     0.027 C 
BRANCH  13  14
ATOM     14  C   UNL     1     130.183 119.988 138.047  1.00  0.00     0.004 C 
BRANCH  14  15
ATOM     15  C   UNL     1     130.221 121.465 138.473  1.00  0.00     0.000 C 
BRANCH  15  16
ATOM     16  C   UNL     1     131.654 121.987 138.665  1.00  0.00    -0.000 C 
BRANCH  16  17
ATOM     17  C   UNL     1     131.816 122.812 139.949  1.00  0.00    -0.003 C 
ATOM     18  C   UNL     1     130.934 122.265 141.068  1.00  0.00     0.004 C 
ENDBRANCH  16  17
ENDBRANCH  15  16
ENDBRANCH  14  15
ENDBRANCH  13  14
ENDBRANCH  12  13
ENDBRANCH  10  11
ENDBRANCH   1  10
TORSDOF 13
ENDMDL
MODEL 4
REMARK VINA RESULT:    -4.068      3.038      6.584
REMARK INTER + INTRA:          -9.461
REMARK INTER:                  -7.907
REMARK INTRA:                  -1.554
REMARK UNBOUND:                -2.302
REMARK SMILES CCCCCCC=CCCCCCCCC(=O)[O-]
REMARK SMILES IDX 10 1 11 2 12 3 13 4 14 5 15 6 16 7 17 8 18 9 9 10 8 11 7 12
REMARK SMILES IDX 6 13 5 14 4 15 3 16 2 17 1 18
REMARK H PARENT
REMARK Flexibility Score: inf
ROOT
ATOM      1  C   UNL     1     127.793 118.735 138.053  1.00  0.00     0.004 C 
ENDROOT
BRANCH   1   2
ATOM      2  C   UNL     1     128.357 118.695 139.484  1.00  0.00     0.000 C 
BRANCH   2   3
ATOM      3  C   UNL     1     129.733 119.372 139.597  1.00  0.00     0.000 C 
BRANCH   3   4
ATOM      4  C   UNL     1     130.198 119.993 138.269  1.00  0.00     0.000 C 
BRANCH   4   5
ATOM      5  C   UNL     1     130.415 121.511 138.372  1.00  0.00     0.006 C 
BRANCH   5   6
ATOM      6  C   UNL     1     131.880 121.883 138.636  1.00  0.00     0.053 C 
BRANCH   6   7
ATOM      7  C   UNL     1     131.977 122.834 139.788  1.00  0.00     0.041 C 
ATOM      8  O   UNL     1     131.432 122.555 140.889  1.00  0.00    -0.550 OA
ATOM      9  O   UNL     1     132.710 124.007 139.661  1.00  0.00    -0.550 OA
ENDBRANCH   6   7
ENDBRANCH   5   6
ENDBRANCH   4   5
ENDBRANCH   3   4
ENDBRANCH   2   3
ENDBRANCH   1   2
BRANCH   1  10
ATOM     10  C   UNL     1     126.360 119.281 138.006  1.00  0.00     0.027 C 
BRANCH  10  11
ATOM     11  C   UNL     1     126.222 120.560 138.796  1.00  0.00    -0.031 C 
ATOM     12  C   UNL     1     126.546 121.792 138.357  1.00  0.00    -0.031 C 
BRANCH  12  13
ATOM     13  C   UNL     1     127.067 122.125 136.980  1.00  0.00     0.027 C 
BRANCH  13  14
ATOM     14  C   UNL     1     125.946 122.606 136.049  1.00  0.00     0.004 C 
BRANCH  14  15
ATOM     15  C   UNL     1     125.974 121.898 134.684  1.00  0.00     0.000 C 
BRANCH  15  16
ATOM     16  C   UNL     1     125.513 122.809 133.536  1.00  0.00    -0.000 C 
BRANCH  16  17
ATOM     17  C   UNL     1     126.171 124.196 133.581  1.00  0.00    -0.003 C 
ATOM     18  C   UNL     1     127.673 124.100 133.331  1.00  0.00     0.004 C 
ENDBRANCH  16  17
ENDBRANCH  15  16
ENDBRANCH  14  15
ENDBRANCH  13  14
ENDBRANCH  12  13
ENDBRANCH  10  11
ENDBRANCH   1  10
TORSDOF 13
ENDMDL
MODEL 5
REMARK VINA RESULT:    -3.987      1.050      1.974
REMARK INTER + INTRA:          -9.320
REMARK INTER:                  -7.350
REMARK INTRA:                  -1.969
REMARK UNBOUND:                -2.302
REMARK SMILES CCCCCCC=CCCCCCCCC(=O)[O-]
REMARK SMILES IDX 10 1 11 2 12 3 13 4 14 5 15 6 16 7 17 8 18 9 9 10 8 11 7 12
REMARK SMILES IDX 6 13 5 14 4 15 3 16 2 17 1 18
REMARK H PARENT
REMARK Flexibility Score: inf
ROOT
ATOM      1  C   UNL     1     127.212 121.324 141.060  1.00  0.00     0.004 C 
ENDROOT
BRANCH   1   2
ATOM      2  C   UNL     1     126.546 121.025 139.707  1.00  0.00     0.000 C 
BRANCH   2   3
ATOM      3  C   UNL     1     126.676 122.190 138.712  1.00  0.00     0.000 C 
BRANCH   3   4
ATOM      4  C   UNL     1     127.319 121.762 137.382  1.00  0.00     0.000 C 
BRANCH   4   5
ATOM      5  C   UNL     1     126.299 121.670 136.235  1.00  0.00     0.006 C 
BRANCH   5   6
ATOM      6  C   UNL     1     126.389 122.856 135.266  1.00  0.00     0.053 C 
BRANCH   6   7
ATOM      7  C   UNL     1     125.888 122.462 133.912  1.00  0.00     0.041 C 
ATOM      8  O   UNL     1     125.142 121.456 133.779  1.00  0.00    -0.550 OA
ATOM      9  O   UNL     1     126.206 123.234 132.802  1.00  0.00    -0.550 OA
ENDBRANCH   6   7
ENDBRANCH   5   6
ENDBRANCH   4   5
ENDBRANCH   3   4
ENDBRANCH   2   3
ENDBRANCH   1   2
BRANCH   1  10
ATOM     10  C   UNL     1     128.190 122.504 140.980  1.00  0.00     0.027 C 
BRANCH  10  11
ATOM     11  C   UNL     1     129.590 122.098 141.372  1.00  0.00    -0.031 C 
ATOM     12  C   UNL     1     130.578 121.763 140.519  1.00  0.00    -0.031 C 
BRANCH  12  13
ATOM     13  C   UNL     1     130.478 121.774 139.012  1.00  0.00     0.027 C 
BRANCH  13  14
ATOM     14  C   UNL     1     130.715 120.380 138.416  1.00  0.00     0.004 C 
BRANCH  14  15
ATOM     15  C   UNL     1     129.848 119.302 139.086  1.00  0.00     0.000 C 
BRANCH  15  16
ATOM     16  C   UNL     1     130.681 118.142 139.653  1.00  0.00    -0.000 C 
BRANCH  16  17
ATOM     17  C   UNL     1     130.035 117.498 140.888  1.00  0.00    -0.003 C 
ATOM     18  C   UNL     1     128.584 117.943 141.045  1.00  0.00     0.004 C 
ENDBRANCH  16  17
ENDBRANCH  15  16
ENDBRANCH  14  15
ENDBRANCH  13  14
ENDBRANCH  12  13
ENDBRANCH  10  11
ENDBRANCH   1  10
TORSDOF 13
ENDMDL
MODEL 6
REMARK VINA RESULT:    -3.972      1.442      2.763
REMARK INTER + INTRA:          -9.293
REMARK INTER:                  -6.731
REMARK INTRA:                  -2.561
REMARK UNBOUND:                -2.302
REMARK SMILES CCCCCCC=CCCCCCCCC(=O)[O-]
REMARK SMILES IDX 10 1 11 2 12 3 13 4 14 5 15 6 16 7 17 8 18 9 9 10 8 11 7 12
REMARK SMILES IDX 6 13 5 14 4 15 3 16 2 17 1 18
REMARK H PARENT
REMARK Flexibility Score: inf
ROOT
ATOM      1  C   UNL     1     131.315 122.597 139.616  1.00  0.00     0.004 C 
ENDROOT
BRANCH   1   2
ATOM      2  C   UNL     1     130.872 122.090 140.999  1.00  0.00     0.000 C 
BRANCH   2   3
ATOM      3  C   UNL     1     129.404 122.424 141.310  1.00  0.00     0.000 C 
BRANCH   3   4
ATOM      4  C   UNL     1     128.481 121.199 141.191  1.00  0.00     0.000 C 
BRANCH   4   5
ATOM      5  C   UNL     1     127.256 121.469 140.302  1.00  0.00     0.006 C 
BRANCH   5   6
ATOM      6  C   UNL     1     127.592 122.327 139.075  1.00  0.00     0.053 C 
BRANCH   6   7
ATOM      7  C   UNL     1     126.639 122.036 137.959  1.00  0.00     0.041 C 
ATOM      8  O   UNL     1     127.005 122.167 136.761  1.00  0.00    -0.550 OA
ATOM      9  O   UNL     1     125.359 121.573 138.240  1.00  0.00    -0.550 OA
ENDBRANCH   6   7
ENDBRANCH   5   6
ENDBRANCH   4   5
ENDBRANCH   3   4
ENDBRANCH   2   3
ENDBRANCH   1   2
BRANCH   1  10
ATOM     10  C   UNL     1     131.746 121.455 138.686  1.00  0.00     0.027 C 
BRANCH  10  11
ATOM     11  C   UNL     1     130.558 120.730 138.101  1.00  0.00    -0.031 C 
ATOM     12  C   UNL     1     130.129 119.506 138.466  1.00  0.00    -0.031 C 
BRANCH  12  13
ATOM     13  C   UNL     1     130.730 118.653 139.557  1.00  0.00     0.027 C 
BRANCH  13  14
ATOM     14  C   UNL     1     129.911 117.378 139.799  1.00  0.00     0.004 C 
BRANCH  14  15
ATOM     15  C   UNL     1     128.489 117.682 140.300  1.00  0.00     0.000 C 
BRANCH  15  16
ATOM     16  C   UNL     1     127.403 117.102 139.381  1.00  0.00    -0.000 C 
BRANCH  16  17
ATOM     17  C   UNL     1     126.520 118.188 138.749  1.00  0.00    -0.003 C 
ATOM     18  C   UNL     1     126.860 118.382 137.274  1.00  0.00     0.004 C 
ENDBRANCH  16  17
ENDBRANCH  15  16
ENDBRANCH  14  15
ENDBRANCH  13  14
ENDBRANCH  12  13
ENDBRANCH  10  11
ENDBRANCH   1  10
TORSDOF 13
ENDMDL
MODEL 7
REMARK VINA RESULT:    -3.875      2.136      4.832
REMARK INTER + INTRA:          -9.122
REMARK INTER:                  -6.722
REMARK INTRA:                  -2.400
REMARK UNBOUND:                -2.302
REMARK SMILES CCCCCCC=CCCCCCCCC(=O)[O-]
REMARK SMILES IDX 10 1 11 2 12 3 13 4 14 5 15 6 16 7 17 8 18 9 9 10 8 11 7 12
REMARK SMILES IDX 6 13 5 14 4 15 3 16 2 17 1 18
REMARK H PARENT
REMARK Flexibility Score: inf
ROOT
ATOM      1  C   UNL     1     130.438 120.356 137.971  1.00  0.00     0.004 C 
ENDROOT
BRANCH   1   2
ATOM      2  C   UNL     1     129.829 119.140 138.689  1.00  0.00     0.000 C 
BRANCH   2   3
ATOM      3  C   UNL     1     130.729 118.604 139.814  1.00  0.00     0.000 C 
BRANCH   3   4
ATOM      4  C   UNL     1     130.218 117.276 140.398  1.00  0.00     0.000 C 
BRANCH   4   5
ATOM      5  C   UNL     1     128.784 116.948 139.952  1.00  0.00     0.006 C 
BRANCH   5   6
ATOM      6  C   UNL     1     127.723 117.505 140.910  1.00  0.00     0.053 C 
BRANCH   6   7
ATOM      7  C   UNL     1     126.452 117.788 140.174  1.00  0.00     0.041 C 
ATOM      8  O   UNL     1     126.463 117.945 138.925  1.00  0.00    -0.550 OA
ATOM      9  O   UNL     1     125.245 117.829 140.862  1.00  0.00    -0.550 OA
ENDBRANCH   6   7
ENDBRANCH   5   6
ENDBRANCH   4   5
ENDBRANCH   3   4
ENDBRANCH   2   3
ENDBRANCH   1   2
BRANCH   1  10
ATOM     10  C   UNL     1     131.808 120.744 138.542  1.00  0.00     0.027 C 
BRANCH  10  11
ATOM     11  C   UNL     1     131.888 122.219 138.854  1.00  0.00    -0.031 C 
ATOM     12  C   UNL     1     131.441 122.807 139.981  1.00  0.00    -0.031 C 
BRANCH  12  13
ATOM     13  C   UNL     1     130.817 122.094 141.156  1.00  0.00     0.027 C 
BRANCH  13  14
ATOM     14  C   UNL     1     129.328 122.434 141.303  1.00  0.00     0.004 C 
BRANCH  14  15
ATOM     15  C   UNL     1     128.432 121.187 141.213  1.00  0.00     0.000 C 
BRANCH  15  16
ATOM     16  C   UNL     1     127.290 121.353 140.197  1.00  0.00    -0.000 C 
BRANCH  16  17
ATOM     17  C   UNL     1     127.635 122.342 139.075  1.00  0.00    -0.003 C 
ATOM     18  C   UNL     1     127.051 121.885 137.741  1.00  0.00     0.004 C 
ENDBRANCH  16  17
ENDBRANCH  15  16
ENDBRANCH  14  15
ENDBRANCH  13  14
ENDBRANCH  12  13
ENDBRANCH  10  11
ENDBRANCH   1  10
TORSDOF 13
ENDMDL
MODEL 8
REMARK VINA RESULT:    -3.846      1.288      3.725
REMARK INTER + INTRA:          -9.071
REMARK INTER:                  -7.166
REMARK INTRA:                  -1.905
REMARK UNBOUND:                -2.302
REMARK SMILES CCCCCCC=CCCCCCCCC(=O)[O-]
REMARK SMILES IDX 10 1 11 2 12 3 13 4 14 5 15 6 16 7 17 8 18 9 9 10 8 11 7 12
REMARK SMILES IDX 6 13 5 14 4 15 3 16 2 17 1 18
REMARK H PARENT
REMARK Flexibility Score: inf
ROOT
ATOM      1  C   UNL     1     126.836 119.675 141.357  1.00  0.00     0.004 C 
ENDROOT
BRANCH   1   2
ATOM      2  C   UNL     1     126.812 121.131 140.863  1.00  0.00     0.000 C 
BRANCH   2   3
ATOM      3  C   UNL     1     125.457 121.528 140.255  1.00  0.00     0.000 C 
BRANCH   3   4
ATOM      4  C   UNL     1     125.418 121.346 138.728  1.00  0.00     0.000 C 
BRANCH   4   5
ATOM      5  C   UNL     1     126.053 122.528 137.977  1.00  0.00     0.006 C 
BRANCH   5   6
ATOM      6  C   UNL     1     126.972 122.078 136.833  1.00  0.00     0.053 C 
BRANCH   6   7
ATOM      7  C   UNL     1     126.244 122.132 135.527  1.00  0.00     0.041 C 
ATOM      8  O   UNL     1     125.534 121.161 135.155  1.00  0.00    -0.550 OA
ATOM      9  O   UNL     1     126.310 123.277 134.742  1.00  0.00    -0.550 OA
ENDBRANCH   6   7
ENDBRANCH   5   6
ENDBRANCH   4   5
ENDBRANCH   3   4
ENDBRANCH   2   3
ENDBRANCH   1   2
BRANCH   1  10
ATOM     10  C   UNL     1     127.974 118.863 140.724  1.00  0.00     0.027 C 
BRANCH  10  11
ATOM     11  C   UNL     1     127.852 118.805 139.220  1.00  0.00    -0.031 C 
ATOM     12  C   UNL     1     128.787 119.214 138.341  1.00  0.00    -0.031 C 
BRANCH  12  13
ATOM     13  C   UNL     1     130.146 119.766 138.698  1.00  0.00     0.027 C 
BRANCH  13  14
ATOM     14  C   UNL     1     130.246 121.268 138.401  1.00  0.00     0.004 C 
BRANCH  14  15
ATOM     15  C   UNL     1     129.958 122.130 139.641  1.00  0.00     0.000 C 
BRANCH  15  16
ATOM     16  C   UNL     1     131.241 122.570 140.364  1.00  0.00    -0.000 C 
BRANCH  16  17
ATOM     17  C   UNL     1     132.358 122.978 139.393  1.00  0.00    -0.003 C 
ATOM     18  C   UNL     1     132.986 124.307 139.806  1.00  0.00     0.004 C 
ENDBRANCH  16  17
ENDBRANCH  15  16
ENDBRANCH  14  15
ENDBRANCH  13  14
ENDBRANCH  12  13
ENDBRANCH  10  11
ENDBRANCH   1  10
TORSDOF 13
ENDMDL
MODEL 9
REMARK VINA RESULT:    -3.829      2.788      6.054
REMARK INTER + INTRA:          -9.041
REMARK INTER:                  -7.671
REMARK INTRA:                  -1.370
REMARK UNBOUND:                -2.302
REMARK SMILES CCCCCCC=CCCCCCCCC(=O)[O-]
REMARK SMILES IDX 10 1 11 2 12 3 13 4 14 5 15 6 16 7 17 8 18 9 9 10 8 11 7 12
REMARK SMILES IDX 6 13 5 14 4 15 3 16 2 17 1 18
REMARK H PARENT
REMARK Flexibility Score: inf
ROOT
ATOM      1  C   UNL     1     129.278 122.506 141.115  1.00  0.00     0.004 C 
ENDROOT
BRANCH   1   2
ATOM      2  C   UNL     1     130.663 121.855 140.962  1.00  0.00     0.000 C 
BRANCH   2   3
ATOM      3  C   UNL     1     131.367 122.259 139.657  1.00  0.00     0.000 C 
BRANCH   3   4
ATOM      4  C   UNL     1     130.746 121.591 138.418  1.00  0.00     0.000 C 
BRANCH   4   5
ATOM      5  C   UNL     1     131.004 120.076 138.374  1.00  0.00     0.006 C 
BRANCH   5   6
ATOM      6  C   UNL     1     129.758 119.252 138.725  1.00  0.00     0.053 C 
BRANCH   6   7
ATOM      7  C   UNL     1     130.050 118.325 139.863  1.00  0.00     0.041 C 
ATOM      8  O   UNL     1     129.207 118.165 140.784  1.00  0.00    -0.550 OA
ATOM      9  O   UNL     1     131.235 117.599 139.880  1.00  0.00    -0.550 OA
ENDBRANCH   6   7
ENDBRANCH   5   6
ENDBRANCH   4   5
ENDBRANCH   3   4
ENDBRANCH   2   3
ENDBRANCH   1   2
BRANCH   1  10
ATOM     10  C   UNL     1     128.137 121.488 140.989  1.00  0.00     0.027 C 
BRANCH  10  11
ATOM     11  C   UNL     1     126.842 122.145 140.576  1.00  0.00    -0.031 C 
ATOM     12  C   UNL     1     126.469 122.418 139.311  1.00  0.00    -0.031 C 
BRANCH  12  13
ATOM     13  C   UNL     1     127.259 122.078 138.070  1.00  0.00     0.027 C 
BRANCH  13  14
ATOM     14  C   UNL     1     126.360 121.520 136.959  1.00  0.00     0.004 C 
BRANCH  14  15
ATOM     15  C   UNL     1     125.950 122.597 135.941  1.00  0.00     0.000 C 
BRANCH  15  16
ATOM     16  C   UNL     1     126.040 122.102 134.489  1.00  0.00    -0.000 C 
BRANCH  16  17
ATOM     17  C   UNL     1     126.058 123.252 133.472  1.00  0.00    -0.003 C 
ATOM     18  C   UNL     1     127.402 123.976 133.485  1.00  0.00     0.004 C 
ENDBRANCH  16  17
ENDBRANCH  15  16
ENDBRANCH  14  15
ENDBRANCH  13  14
ENDBRANCH  12  13
ENDBRANCH  10  11
ENDBRANCH   1  10
TORSDOF 13
ENDMDL
