MODEL 1
REMARK VINA RESULT:    -4.203      0.000      0.000
REMARK INTER + INTRA:          -7.102
REMARK INTER:                  -6.415
REMARK INTRA:                  -0.687
REMARK UNBOUND:                -0.687
REMARK SMILES CCCCCCCCCC=CC(=O)[O-]
REMARK SMILES IDX 7 1 8 2 9 3 10 4 11 5 12 6 13 7 14 8 6 9 5 10 4 11 3 12 2 13
REMARK SMILES IDX 1 14
REMARK H PARENT
REMARK Flexibility Score: inf
ROOT
ATOM      1  C   UNL     1     148.733  -2.806   7.739  1.00  0.00     0.000 C 
ENDROOT
BRANCH   1   2
ATOM      2  C   UNL     1     148.661  -1.280   7.925  1.00  0.00     0.004 C 
BRANCH   2   3
ATOM      3  C   UNL     1     147.396  -0.680   7.294  1.00  0.00     0.027 C 
BRANCH   3   4
ATOM      4  C   UNL     1     146.230  -1.628   7.330  1.00  0.00    -0.025 C 
ATOM      5  C   UNL     1     145.244  -1.490   8.222  1.00  0.00     0.020 C 
BRANCH   5   6
ATOM      6  C   UNL     1     144.101  -2.415   8.273  1.00  0.00     0.064 C 
ATOM      7  O   UNL     1     143.454  -2.661   7.222  1.00  0.00    -0.545 OA
ATOM      8  O   UNL     1     143.726  -3.024   9.465  1.00  0.00    -0.545 OA
ENDBRANCH   5   6
ENDBRANCH   3   4
ENDBRANCH   2   3
ENDBRANCH   1   2
BRANCH   1   9
ATOM      9  C   UNL     1     149.790  -3.236   6.707  1.00  0.00     0.000 C 
BRANCH   9  10
ATOM     10  C   UNL     1     149.443  -2.904   5.243  1.00  0.00     0.000 C 
BRANCH  10  11
ATOM     11  C   UNL     1     150.186  -1.666   4.716  1.00  0.00    -0.000 C 
BRANCH  11  12
ATOM     12  C   UNL     1     149.511  -1.119   3.450  1.00  0.00    -0.000 C 
BRANCH  12  13
ATOM     13  C   UNL     1     150.515  -0.508   2.462  1.00  0.00    -0.003 C 
ATOM     14  C   UNL     1     151.956  -0.572   2.967  1.00  0.00     0.004 C 
ENDBRANCH  12  13
ENDBRANCH  11  12
ENDBRANCH  10  11
ENDBRANCH   9  10
ENDBRANCH   1   9
TORSDOF 9
ENDMDL
MODEL 2
REMARK VINA RESULT:    -4.115      0.997      1.520
REMARK INTER + INTRA:          -6.967
REMARK INTER:                  -6.123
REMARK INTRA:                  -0.844
REMARK UNBOUND:                -0.687
REMARK SMILES CCCCCCCCCC=CC(=O)[O-]
REMARK SMILES IDX 7 1 8 2 9 3 10 4 11 5 12 6 13 7 14 8 6 9 5 10 4 11 3 12 2 13
REMARK SMILES IDX 1 14
REMARK H PARENT
REMARK Flexibility Score: inf
ROOT
ATOM      1  C   UNL     1     150.185  -3.179   6.558  1.00  0.00     0.000 C 
ENDROOT
BRANCH   1   2
ATOM      2  C   UNL     1     149.268  -3.275   7.789  1.00  0.00     0.004 C 
BRANCH   2   3
ATOM      3  C   UNL     1     148.450  -1.993   8.003  1.00  0.00     0.027 C 
BRANCH   3   4
ATOM      4  C   UNL     1     146.970  -2.254   8.037  1.00  0.00    -0.025 C 
ATOM      5  C   UNL     1     146.085  -1.289   7.770  1.00  0.00     0.020 C 
BRANCH   5   6
ATOM      6  C   UNL     1     144.634  -1.528   7.806  1.00  0.00     0.064 C 
ATOM      7  O   UNL     1     144.199  -2.709   7.825  1.00  0.00    -0.545 OA
ATOM      8  O   UNL     1     143.734  -0.469   7.822  1.00  0.00    -0.545 OA
ENDBRANCH   5   6
ENDBRANCH   3   4
ENDBRANCH   2   3
ENDBRANCH   1   2
BRANCH   1   9
ATOM      9  C   UNL     1     149.495  -3.631   5.258  1.00  0.00     0.000 C 
BRANCH   9  10
ATOM     10  C   UNL     1     148.890  -2.494   4.414  1.00  0.00     0.000 C 
BRANCH  10  11
ATOM     11  C   UNL     1     149.760  -1.228   4.400  1.00  0.00    -0.000 C 
BRANCH  11  12
ATOM     12  C   UNL     1     150.077  -0.795   2.961  1.00  0.00    -0.000 C 
BRANCH  12  13
ATOM     13  C   UNL     1     151.578  -0.570   2.730  1.00  0.00    -0.003 C 
ATOM     14  C   UNL     1     152.415  -0.828   3.982  1.00  0.00     0.004 C 
ENDBRANCH  12  13
ENDBRANCH  11  12
ENDBRANCH  10  11
ENDBRANCH   9  10
ENDBRANCH   1   9
TORSDOF 9
ENDMDL
MODEL 3
REMARK VINA RESULT:    -4.035     11.970     14.247
REMARK INTER + INTRA:          -6.845
REMARK INTER:                  -6.107
REMARK INTRA:                  -0.738
REMARK UNBOUND:                -0.687
REMARK SMILES CCCCCCCCCC=CC(=O)[O-]
REMARK SMILES IDX 7 1 8 2 9 3 10 4 11 5 12 6 13 7 14 8 6 9 5 10 4 11 3 12 2 13
REMARK SMILES IDX 1 14
REMARK H PARENT
REMARK Flexibility Score: inf
ROOT
ATOM      1  C   UNL     1     146.800  -1.741  -7.205  1.00  0.00     0.000 C 
ENDROOT
BRANCH   1   2
ATOM      2  C   UNL     1     145.267  -1.783  -7.320  1.00  0.00     0.004 C 
BRANCH   2   3
ATOM      3  C   UNL     1     144.761  -1.063  -8.579  1.00  0.00     0.027 C 
BRANCH   3   4
ATOM      4  C   UNL     1     144.079   0.238  -8.262  1.00  0.00    -0.025 C 
ATOM      5  C   UNL     1     143.469   0.441  -7.090  1.00  0.00     0.020 C 
BRANCH   5   6
ATOM      6  C   UNL     1     142.792   1.706  -6.771  1.00  0.00     0.064 C 
ATOM      7  O   UNL     1     141.534   1.758  -6.778  1.00  0.00    -0.545 OA
ATOM      8  O   UNL     1     143.520   2.849  -6.458  1.00  0.00    -0.545 OA
ENDBRANCH   5   6
ENDBRANCH   3   4
ENDBRANCH   2   3
ENDBRANCH   1   2
BRANCH   1   9
ATOM      9  C   UNL     1     147.486  -2.947  -7.871  1.00  0.00     0.000 C 
BRANCH   9  10
ATOM     10  C   UNL     1     146.697  -4.267  -7.795  1.00  0.00     0.000 C 
BRANCH  10  11
ATOM     11  C   UNL     1     147.538  -5.440  -7.270  1.00  0.00    -0.000 C 
BRANCH  11  12
ATOM     12  C   UNL     1     146.887  -6.070  -6.029  1.00  0.00    -0.000 C 
BRANCH  12  13
ATOM     13  C   UNL     1     147.382  -5.441  -4.719  1.00  0.00    -0.003 C 
ATOM     14  C   UNL     1     146.381  -4.452  -4.122  1.00  0.00     0.004 C 
ENDBRANCH  12  13
ENDBRANCH  11  12
ENDBRANCH  10  11
ENDBRANCH   9  10
ENDBRANCH   1   9
TORSDOF 9
ENDMDL
MODEL 4
REMARK VINA RESULT:    -4.005      3.076      5.972
REMARK INTER + INTRA:          -6.800
REMARK INTER:                  -5.917
REMARK INTRA:                  -0.883
REMARK UNBOUND:                -0.687
REMARK SMILES CCCCCCCCCC=CC(=O)[O-]
REMARK SMILES IDX 7 1 8 2 9 3 10 4 11 5 12 6 13 7 14 8 6 9 5 10 4 11 3 12 2 13
REMARK SMILES IDX 1 14
REMARK H PARENT
REMARK Flexibility Score: inf
ROOT
ATOM      1  C   UNL     1     149.364  -4.034   8.083  1.00  0.00     0.000 C 
ENDROOT
BRANCH   1   2
ATOM      2  C   UNL     1     149.257  -5.236   7.128  1.00  0.00     0.004 C 
BRANCH   2   3
ATOM      3  C   UNL     1     149.661  -4.872   5.692  1.00  0.00     0.027 C 
BRANCH   3   4
ATOM      4  C   UNL     1     149.993  -3.414   5.540  1.00  0.00    -0.025 C 
ATOM      5  C   UNL     1     149.308  -2.624   4.707  1.00  0.00     0.020 C 
BRANCH   5   6
ATOM      6  C   UNL     1     149.627  -1.198   4.544  1.00  0.00     0.064 C 
ATOM      7  O   UNL     1     149.917  -0.506   5.554  1.00  0.00    -0.545 OA
ATOM      8  O   UNL     1     149.615  -0.601   3.288  1.00  0.00    -0.545 OA
ENDBRANCH   5   6
ENDBRANCH   3   4
ENDBRANCH   2   3
ENDBRANCH   1   2
BRANCH   1   9
ATOM      9  C   UNL     1     147.992  -3.467   8.490  1.00  0.00     0.000 C 
BRANCH   9  10
ATOM     10  C   UNL     1     147.855  -1.939   8.358  1.00  0.00     0.000 C 
BRANCH  10  11
ATOM     11  C   UNL     1     146.862  -1.517   7.264  1.00  0.00    -0.000 C 
BRANCH  11  12
ATOM     12  C   UNL     1     145.454  -1.324   7.845  1.00  0.00    -0.000 C 
BRANCH  12  13
ATOM     13  C   UNL     1     144.347  -1.704   6.851  1.00  0.00    -0.003 C 
ATOM     14  C   UNL     1     143.319  -2.664   7.449  1.00  0.00     0.004 C 
ENDBRANCH  12  13
ENDBRANCH  11  12
ENDBRANCH  10  11
ENDBRANCH   9  10
ENDBRANCH   1   9
TORSDOF 9
ENDMDL
MODEL 5
REMARK VINA RESULT:    -3.964      1.877      3.615
REMARK INTER + INTRA:          -6.736
REMARK INTER:                  -5.370
REMARK INTRA:                  -1.366
REMARK UNBOUND:                -0.687
REMARK SMILES CCCCCCCCCC=CC(=O)[O-]
REMARK SMILES IDX 7 1 8 2 9 3 10 4 11 5 12 6 13 7 14 8 6 9 5 10 4 11 3 12 2 13
REMARK SMILES IDX 1 14
REMARK H PARENT
REMARK Flexibility Score: inf
ROOT
ATOM      1  C   UNL     1     148.679  -2.141   5.687  1.00  0.00     0.000 C 
ENDROOT
BRANCH   1   2
ATOM      2  C   UNL     1     148.928  -0.732   6.251  1.00  0.00     0.004 C 
BRANCH   2   3
ATOM      3  C   UNL     1     147.845  -0.311   7.255  1.00  0.00     0.027 C 
BRANCH   3   4
ATOM      4  C   UNL     1     146.656  -1.231   7.238  1.00  0.00    -0.025 C 
ATOM      5  C   UNL     1     145.846  -1.346   8.295  1.00  0.00     0.020 C 
BRANCH   5   6
ATOM      6  C   UNL     1     144.684  -2.247   8.294  1.00  0.00     0.064 C 
ATOM      7  O   UNL     1     144.031  -2.419   7.232  1.00  0.00    -0.545 OA
ATOM      8  O   UNL     1     144.297  -2.917   9.450  1.00  0.00    -0.545 OA
ENDBRANCH   5   6
ENDBRANCH   3   4
ENDBRANCH   2   3
ENDBRANCH   1   2
BRANCH   1   9
ATOM      9  C   UNL     1     149.975  -2.946   5.486  1.00  0.00     0.000 C 
BRANCH   9  10
ATOM     10  C   UNL     1     149.857  -4.454   5.776  1.00  0.00     0.000 C 
BRANCH  10  11
ATOM     11  C   UNL     1     150.162  -4.810   7.239  1.00  0.00    -0.000 C 
BRANCH  11  12
ATOM     12  C   UNL     1     148.904  -5.323   7.953  1.00  0.00    -0.000 C 
BRANCH  12  13
ATOM     13  C   UNL     1     148.205  -4.231   8.776  1.00  0.00    -0.003 C 
ATOM     14  C   UNL     1     149.178  -3.185   9.319  1.00  0.00     0.004 C 
ENDBRANCH  12  13
ENDBRANCH  11  12
ENDBRANCH  10  11
ENDBRANCH   9  10
ENDBRANCH   1   9
TORSDOF 9
ENDMDL
MODEL 6
REMARK VINA RESULT:    -3.959      1.226      1.694
REMARK INTER + INTRA:          -6.729
REMARK INTER:                  -5.904
REMARK INTRA:                  -0.825
REMARK UNBOUND:                -0.687
REMARK SMILES CCCCCCCCCC=CC(=O)[O-]
REMARK SMILES IDX 7 1 8 2 9 3 10 4 11 5 12 6 13 7 14 8 6 9 5 10 4 11 3 12 2 13
REMARK SMILES IDX 1 14
REMARK H PARENT
REMARK Flexibility Score: inf
ROOT
ATOM      1  C   UNL     1     149.118  -4.276   7.690  1.00  0.00     0.000 C 
ENDROOT
BRANCH   1   2
ATOM      2  C   UNL     1     148.639  -3.425   8.878  1.00  0.00     0.004 C 
BRANCH   2   3
ATOM      3  C   UNL     1     148.038  -2.086   8.425  1.00  0.00     0.027 C 
BRANCH   3   4
ATOM      4  C   UNL     1     146.536  -2.086   8.467  1.00  0.00    -0.025 C 
ATOM      5  C   UNL     1     145.808  -1.597   7.457  1.00  0.00     0.020 C 
BRANCH   5   6
ATOM      6  C   UNL     1     144.338  -1.585   7.489  1.00  0.00     0.064 C 
ATOM      7  O   UNL     1     143.734  -0.562   7.904  1.00  0.00    -0.545 OA
ATOM      8  O   UNL     1     143.604  -2.687   7.064  1.00  0.00    -0.545 OA
ENDBRANCH   5   6
ENDBRANCH   3   4
ENDBRANCH   2   3
ENDBRANCH   1   2
BRANCH   1   9
ATOM      9  C   UNL     1     150.535  -3.906   7.218  1.00  0.00     0.000 C 
BRANCH   9  10
ATOM     10  C   UNL     1     150.598  -3.150   5.878  1.00  0.00     0.000 C 
BRANCH  10  11
ATOM     11  C   UNL     1     149.299  -3.260   5.065  1.00  0.00    -0.000 C 
BRANCH  11  12
ATOM     12  C   UNL     1     149.026  -1.965   4.286  1.00  0.00    -0.000 C 
BRANCH  12  13
ATOM     13  C   UNL     1     150.316  -1.231   3.891  1.00  0.00    -0.003 C 
ATOM     14  C   UNL     1     150.225  -0.573   2.515  1.00  0.00     0.004 C 
ENDBRANCH  12  13
ENDBRANCH  11  12
ENDBRANCH  10  11
ENDBRANCH   9  10
ENDBRANCH   1   9
TORSDOF 9
ENDMDL
MODEL 7
REMARK VINA RESULT:    -3.915      1.516      2.775
REMARK INTER + INTRA:          -6.663
REMARK INTER:                  -5.729
REMARK INTRA:                  -0.934
REMARK UNBOUND:                -0.687
REMARK SMILES CCCCCCCCCC=CC(=O)[O-]
REMARK SMILES IDX 7 1 8 2 9 3 10 4 11 5 12 6 13 7 14 8 6 9 5 10 4 11 3 12 2 13
REMARK SMILES IDX 1 14
REMARK H PARENT
REMARK Flexibility Score: inf
ROOT
ATOM      1  C   UNL     1     149.059  -2.445   4.579  1.00  0.00     0.000 C 
ENDROOT
BRANCH   1   2
ATOM      2  C   UNL     1     149.562  -2.906   5.957  1.00  0.00     0.004 C 
BRANCH   2   3
ATOM      3  C   UNL     1     149.128  -1.953   7.080  1.00  0.00     0.027 C 
BRANCH   3   4
ATOM      4  C   UNL     1     147.698  -2.162   7.491  1.00  0.00    -0.025 C 
ATOM      5  C   UNL     1     146.781  -1.200   7.345  1.00  0.00     0.020 C 
BRANCH   5   6
ATOM      6  C   UNL     1     145.380  -1.388   7.750  1.00  0.00     0.064 C 
ATOM      7  O   UNL     1     144.919  -0.733   8.720  1.00  0.00    -0.545 OA
ATOM      8  O   UNL     1     144.554  -2.280   7.074  1.00  0.00    -0.545 OA
ENDBRANCH   5   6
ENDBRANCH   3   4
ENDBRANCH   2   3
ENDBRANCH   1   2
BRANCH   1   9
ATOM      9  C   UNL     1     149.525  -1.025   4.213  1.00  0.00     0.000 C 
BRANCH   9  10
ATOM     10  C   UNL     1     150.138  -0.883   2.807  1.00  0.00     0.000 C 
BRANCH  10  11
ATOM     11  C   UNL     1     151.606  -0.432   2.834  1.00  0.00    -0.000 C 
BRANCH  11  12
ATOM     12  C   UNL     1     152.343  -1.035   4.040  1.00  0.00    -0.000 C 
BRANCH  12  13
ATOM     13  C   UNL     1     152.964   0.036   4.948  1.00  0.00    -0.003 C 
ATOM     14  C   UNL     1     152.478  -0.059   6.393  1.00  0.00     0.004 C 
ENDBRANCH  12  13
ENDBRANCH  11  12
ENDBRANCH  10  11
ENDBRANCH   9  10
ENDBRANCH   1   9
TORSDOF 9
ENDMDL
MODEL 8
REMARK VINA RESULT:    -3.809      1.734      2.452
REMARK INTER + INTRA:          -6.500
REMARK INTER:                  -5.243
REMARK INTRA:                  -1.257
REMARK UNBOUND:                -0.687
REMARK SMILES CCCCCCCCCC=CC(=O)[O-]
REMARK SMILES IDX 7 1 8 2 9 3 10 4 11 5 12 6 13 7 14 8 6 9 5 10 4 11 3 12 2 13
REMARK SMILES IDX 1 14
REMARK H PARENT
REMARK Flexibility Score: inf
ROOT
ATOM      1  C   UNL     1     150.081  -3.649   8.019  1.00  0.00     0.000 C 
ENDROOT
BRANCH   1   2
ATOM      2  C   UNL     1     148.546  -3.730   8.092  1.00  0.00     0.004 C 
BRANCH   2   3
ATOM      3  C   UNL     1     147.947  -2.599   8.940  1.00  0.00     0.027 C 
BRANCH   3   4
ATOM      4  C   UNL     1     146.455  -2.496   8.790  1.00  0.00    -0.025 C 
ATOM      5  C   UNL     1     145.898  -1.796   7.796  1.00  0.00     0.020 C 
BRANCH   5   6
ATOM      6  C   UNL     1     144.441  -1.682   7.642  1.00  0.00     0.064 C 
ATOM      7  O   UNL     1     143.797  -2.618   7.100  1.00  0.00    -0.545 OA
ATOM      8  O   UNL     1     143.760  -0.554   8.088  1.00  0.00    -0.545 OA
ENDBRANCH   5   6
ENDBRANCH   3   4
ENDBRANCH   2   3
ENDBRANCH   1   2
BRANCH   1   9
ATOM      9  C   UNL     1     150.605  -3.457   6.585  1.00  0.00     0.000 C 
BRANCH   9  10
ATOM     10  C   UNL     1     149.524  -3.491   5.487  1.00  0.00     0.000 C 
BRANCH  10  11
ATOM     11  C   UNL     1     149.340  -2.137   4.785  1.00  0.00    -0.000 C 
BRANCH  11  12
ATOM     12  C   UNL     1     149.726  -0.978   5.716  1.00  0.00    -0.000 C 
BRANCH  12  13
ATOM     13  C   UNL     1     148.515  -0.140   6.148  1.00  0.00    -0.003 C 
ATOM     14  C   UNL     1     148.805   0.734   7.369  1.00  0.00     0.004 C 
ENDBRANCH  12  13
ENDBRANCH  11  12
ENDBRANCH  10  11
ENDBRANCH   9  10
ENDBRANCH   1   9
TORSDOF 9
ENDMDL
MODEL 9
REMARK VINA RESULT:    -3.789     12.307     14.325
REMARK INTER + INTRA:          -6.470
REMARK INTER:                  -5.778
REMARK INTRA:                  -0.692
REMARK UNBOUND:                -0.687
REMARK SMILES CCCCCCCCCC=CC(=O)[O-]
REMARK SMILES IDX 7 1 8 2 9 3 10 4 11 5 12 6 13 7 14 8 6 9 5 10 4 11 3 12 2 13
REMARK SMILES IDX 1 14
REMARK H PARENT
REMARK Flexibility Score: inf
ROOT
ATOM      1  C   UNL     1     146.743  -2.192  -5.816  1.00  0.00     0.000 C 
ENDROOT
BRANCH   1   2
ATOM      2  C   UNL     1     145.926  -3.458  -5.507  1.00  0.00     0.004 C 
BRANCH   2   3
ATOM      3  C   UNL     1     146.644  -4.381  -4.511  1.00  0.00     0.027 C 
BRANCH   3   4
ATOM      4  C   UNL     1     147.058  -5.686  -5.132  1.00  0.00    -0.025 C 
ATOM      5  C   UNL     1     147.150  -5.831  -6.458  1.00  0.00     0.020 C 
BRANCH   5   6
ATOM      6  C   UNL     1     147.546  -7.104  -7.078  1.00  0.00     0.064 C 
ATOM      7  O   UNL     1     148.503  -7.126  -7.895  1.00  0.00    -0.545 OA
ATOM      8  O   UNL     1     146.880  -8.286  -6.774  1.00  0.00    -0.545 OA
ENDBRANCH   5   6
ENDBRANCH   3   4
ENDBRANCH   2   3
ENDBRANCH   1   2
BRANCH   1   9
ATOM      9  C   UNL     1     146.799  -1.865  -7.319  1.00  0.00     0.000 C 
BRANCH   9  10
ATOM     10  C   UNL     1     145.558  -2.292  -8.124  1.00  0.00     0.000 C 
BRANCH  10  11
ATOM     11  C   UNL     1     144.691  -1.103  -8.567  1.00  0.00    -0.000 C 
BRANCH  11  12
ATOM     12  C   UNL     1     143.816  -0.601  -7.409  1.00  0.00    -0.000 C 
BRANCH  12  13
ATOM     13  C   UNL     1     143.397   0.867  -7.578  1.00  0.00    -0.003 C 
ATOM     14  C   UNL     1     142.945   1.508  -6.266  1.00  0.00     0.004 C 
ENDBRANCH  12  13
ENDBRANCH  11  12
ENDBRANCH  10  11
ENDBRANCH   9  10
ENDBRANCH   1   9
TORSDOF 9
ENDMDL
