MODEL 1
REMARK VINA RESULT:    -3.501      0.000      0.000
REMARK INTER + INTRA:          -7.489
REMARK INTER:                  -6.059
REMARK INTRA:                  -1.430
REMARK UNBOUND:                -1.430
REMARK SMILES CCCCCCCCCCCCCCO
REMARK SMILES IDX 8 1 7 2 6 3 5 4 4 5 3 6 2 7 1 8 9 9 10 10 11 11 12 12 13 13
REMARK SMILES IDX 14 14 15 15
REMARK H PARENT 15 16
REMARK Flexibility Score: inf
ROOT
ATOM      1  C   UNL     1     164.514 176.900 165.504  1.00  0.00     0.000 C 
ENDROOT
BRANCH   1   2
ATOM      2  C   UNL     1     165.143 176.637 166.881  1.00  0.00    -0.000 C 
BRANCH   2   3
ATOM      3  C   UNL     1     164.909 177.821 167.828  1.00  0.00    -0.000 C 
BRANCH   3   4
ATOM      4  C   UNL     1     165.917 178.948 167.559  1.00  0.00    -0.000 C 
BRANCH   4   5
ATOM      5  C   UNL     1     165.258 180.336 167.535  1.00  0.00    -0.000 C 
BRANCH   5   6
ATOM      6  C   UNL     1     165.111 180.896 166.109  1.00  0.00    -0.000 C 
BRANCH   6   7
ATOM      7  C   UNL     1     166.075 180.231 165.114  1.00  0.00    -0.003 C 
ATOM      8  C   UNL     1     165.443 180.003 163.742  1.00  0.00     0.004 C 
ENDBRANCH   6   7
ENDBRANCH   5   6
ENDBRANCH   4   5
ENDBRANCH   3   4
ENDBRANCH   2   3
ENDBRANCH   1   2
BRANCH   1   9
ATOM      9  C   UNL     1     163.089 177.467 165.601  1.00  0.00     0.000 C 
BRANCH   9  10
ATOM     10  C   UNL     1     162.008 176.414 165.299  1.00  0.00     0.000 C 
BRANCH  10  11
ATOM     11  C   UNL     1     160.677 176.724 166.018  1.00  0.00     0.000 C 
BRANCH  11  12
ATOM     12  C   UNL     1     160.819 177.733 167.174  1.00  0.00     0.002 C 
BRANCH  12  13
ATOM     13  C   UNL     1     160.125 177.315 168.481  1.00  0.00     0.028 C 
BRANCH  13  14
ATOM     14  C   UNL     1     160.794 177.903 169.725  1.00  0.00     0.156 C 
BRANCH  14  15
ATOM     15  O   UNL     1     162.025 177.268 169.934  1.00  0.00    -0.396 OA
ATOM     16  H   UNL     1     162.690 177.993 170.062  1.00  0.00     0.210 HD
ENDBRANCH  14  15
ENDBRANCH  13  14
ENDBRANCH  12  13
ENDBRANCH  11  12
ENDBRANCH  10  11
ENDBRANCH   9  10
ENDBRANCH   1   9
TORSDOF 13
ENDMDL
MODEL 2
REMARK VINA RESULT:    -3.403      9.044     10.994
REMARK INTER + INTRA:          -7.320
REMARK INTER:                  -6.114
REMARK INTRA:                  -1.206
REMARK UNBOUND:                -1.430
REMARK SMILES CCCCCCCCCCCCCCO
REMARK SMILES IDX 8 1 7 2 6 3 5 4 4 5 3 6 2 7 1 8 9 9 10 10 11 11 12 12 13 13
REMARK SMILES IDX 14 14 15 15
REMARK H PARENT 15 16
REMARK Flexibility Score: inf
ROOT
ATOM      1  C   UNL     1     169.676 172.156 163.158  1.00  0.00     0.000 C 
ENDROOT
BRANCH   1   2
ATOM      2  C   UNL     1     171.128 172.214 163.658  1.00  0.00    -0.000 C 
BRANCH   2   3
ATOM      3  C   UNL     1     171.721 170.806 163.787  1.00  0.00    -0.000 C 
BRANCH   3   4
ATOM      4  C   UNL     1     172.598 170.464 162.573  1.00  0.00    -0.000 C 
BRANCH   4   5
ATOM      5  C   UNL     1     172.325 169.055 162.024  1.00  0.00    -0.000 C 
BRANCH   5   6
ATOM      6  C   UNL     1     170.822 168.758 161.881  1.00  0.00    -0.000 C 
BRANCH   6   7
ATOM      7  C   UNL     1     170.417 167.438 162.556  1.00  0.00    -0.003 C 
ATOM      8  C   UNL     1     169.743 167.650 163.910  1.00  0.00     0.004 C 
ENDBRANCH   6   7
ENDBRANCH   5   6
ENDBRANCH   4   5
ENDBRANCH   3   4
ENDBRANCH   2   3
ENDBRANCH   1   2
BRANCH   1   9
ATOM      9  C   UNL     1     168.738 171.440 164.143  1.00  0.00     0.000 C 
BRANCH   9  10
ATOM     10  C   UNL     1     167.765 170.476 163.442  1.00  0.00     0.000 C 
BRANCH  10  11
ATOM     11  C   UNL     1     166.289 170.859 163.686  1.00  0.00     0.000 C 
BRANCH  11  12
ATOM     12  C   UNL     1     165.687 171.739 162.573  1.00  0.00     0.002 C 
BRANCH  12  13
ATOM     13  C   UNL     1     165.398 171.001 161.255  1.00  0.00     0.028 C 
BRANCH  13  14
ATOM     14  C   UNL     1     164.088 170.210 161.290  1.00  0.00     0.156 C 
BRANCH  14  15
ATOM     15  O   UNL     1     163.015 171.077 161.052  1.00  0.00    -0.396 OA
ATOM     16  H   UNL     1     162.849 171.551 161.908  1.00  0.00     0.210 HD
ENDBRANCH  14  15
ENDBRANCH  13  14
ENDBRANCH  12  13
ENDBRANCH  11  12
ENDBRANCH  10  11
ENDBRANCH   9  10
ENDBRANCH   1   9
TORSDOF 13
ENDMDL
MODEL 3
REMARK VINA RESULT:    -3.357      1.712      3.460
REMARK INTER + INTRA:          -7.240
REMARK INTER:                  -5.790
REMARK INTRA:                  -1.451
REMARK UNBOUND:                -1.430
REMARK SMILES CCCCCCCCCCCCCCO
REMARK SMILES IDX 8 1 7 2 6 3 5 4 4 5 3 6 2 7 1 8 9 9 10 10 11 11 12 12 13 13
REMARK SMILES IDX 14 14 15 15
REMARK H PARENT 15 16
REMARK Flexibility Score: inf
ROOT
ATOM      1  C   UNL     1     160.789 177.738 169.782  1.00  0.00     0.000 C 
ENDROOT
BRANCH   1   2
ATOM      2  C   UNL     1     162.190 177.959 169.193  1.00  0.00    -0.000 C 
BRANCH   2   3
ATOM      3  C   UNL     1     162.220 179.205 168.299  1.00  0.00    -0.000 C 
BRANCH   3   4
ATOM      4  C   UNL     1     163.660 179.558 167.895  1.00  0.00    -0.000 C 
BRANCH   4   5
ATOM      5  C   UNL     1     164.637 178.393 168.114  1.00  0.00    -0.000 C 
BRANCH   5   6
ATOM      6  C   UNL     1     165.749 178.346 167.052  1.00  0.00    -0.000 C 
BRANCH   6   7
ATOM      7  C   UNL     1     165.288 178.898 165.694  1.00  0.00    -0.003 C 
ATOM      8  C   UNL     1     166.177 180.032 165.185  1.00  0.00     0.004 C 
ENDBRANCH   6   7
ENDBRANCH   5   6
ENDBRANCH   4   5
ENDBRANCH   3   4
ENDBRANCH   2   3
ENDBRANCH   1   2
BRANCH   1   9
ATOM      9  C   UNL     1     159.690 177.713 168.708  1.00  0.00     0.000 C 
BRANCH   9  10
ATOM     10  C   UNL     1     159.371 176.291 168.217  1.00  0.00     0.000 C 
BRANCH  10  11
ATOM     11  C   UNL     1     159.695 176.105 166.718  1.00  0.00     0.000 C 
BRANCH  11  12
ATOM     12  C   UNL     1     159.998 177.426 165.984  1.00  0.00     0.002 C 
BRANCH  12  13
ATOM     13  C   UNL     1     161.285 177.413 165.143  1.00  0.00     0.028 C 
BRANCH  13  14
ATOM     14  C   UNL     1     161.967 176.044 165.118  1.00  0.00     0.156 C 
BRANCH  14  15
ATOM     15  O   UNL     1     163.132 176.091 165.892  1.00  0.00    -0.396 OA
ATOM     16  H   UNL     1     163.141 176.985 166.322  1.00  0.00     0.210 HD
ENDBRANCH  14  15
ENDBRANCH  13  14
ENDBRANCH  12  13
ENDBRANCH  11  12
ENDBRANCH  10  11
ENDBRANCH   9  10
ENDBRANCH   1   9
TORSDOF 13
ENDMDL
MODEL 4
REMARK VINA RESULT:    -3.325      1.905      5.429
REMARK INTER + INTRA:          -7.186
REMARK INTER:                  -5.295
REMARK INTRA:                  -1.891
REMARK UNBOUND:                -1.430
REMARK SMILES CCCCCCCCCCCCCCO
REMARK SMILES IDX 8 1 7 2 6 3 5 4 4 5 3 6 2 7 1 8 9 9 10 10 11 11 12 12 13 13
REMARK SMILES IDX 14 14 15 15
REMARK H PARENT 15 16
REMARK Flexibility Score: inf
ROOT
ATOM      1  C   UNL     1     161.124 177.624 169.727  1.00  0.00     0.000 C 
ENDROOT
BRANCH   1   2
ATOM      2  C   UNL     1     160.004 178.440 169.065  1.00  0.00    -0.000 C 
BRANCH   2   3
ATOM      3  C   UNL     1     158.876 177.526 168.571  1.00  0.00    -0.000 C 
BRANCH   3   4
ATOM      4  C   UNL     1     159.442 176.292 167.852  1.00  0.00    -0.000 C 
BRANCH   4   5
ATOM      5  C   UNL     1     159.557 176.493 166.333  1.00  0.00    -0.000 C 
BRANCH   5   6
ATOM      6  C   UNL     1     161.010 176.704 165.873  1.00  0.00    -0.000 C 
BRANCH   6   7
ATOM      7  C   UNL     1     161.160 177.910 164.933  1.00  0.00    -0.003 C 
ATOM      8  C   UNL     1     160.305 179.102 165.360  1.00  0.00     0.004 C 
ENDBRANCH   6   7
ENDBRANCH   5   6
ENDBRANCH   4   5
ENDBRANCH   3   4
ENDBRANCH   2   3
ENDBRANCH   1   2
BRANCH   1   9
ATOM      9  C   UNL     1     162.527 178.138 169.365  1.00  0.00     0.000 C 
BRANCH   9  10
ATOM     10  C   UNL     1     162.497 179.236 168.287  1.00  0.00     0.000 C 
BRANCH  10  11
ATOM     11  C   UNL     1     163.915 179.635 167.824  1.00  0.00     0.000 C 
BRANCH  11  12
ATOM     12  C   UNL     1     164.159 179.410 166.318  1.00  0.00     0.002 C 
BRANCH  12  13
ATOM     13  C   UNL     1     165.259 178.386 165.991  1.00  0.00     0.028 C 
BRANCH  13  14
ATOM     14  C   UNL     1     165.255 177.184 166.938  1.00  0.00     0.156 C 
BRANCH  14  15
ATOM     15  O   UNL     1     164.332 176.236 166.482  1.00  0.00    -0.396 OA
ATOM     16  H   UNL     1     163.536 176.323 167.068  1.00  0.00     0.210 HD
ENDBRANCH  14  15
ENDBRANCH  13  14
ENDBRANCH  12  13
ENDBRANCH  11  12
ENDBRANCH  10  11
ENDBRANCH   9  10
ENDBRANCH   1   9
TORSDOF 13
ENDMDL
MODEL 5
REMARK VINA RESULT:    -3.324      9.986     12.140
REMARK INTER + INTRA:          -7.184
REMARK INTER:                  -5.880
REMARK INTRA:                  -1.304
REMARK UNBOUND:                -1.430
REMARK SMILES CCCCCCCCCCCCCCO
REMARK SMILES IDX 8 1 7 2 6 3 5 4 4 5 3 6 2 7 1 8 9 9 10 10 11 11 12 12 13 13
REMARK SMILES IDX 14 14 15 15
REMARK H PARENT 15 16
REMARK Flexibility Score: inf
ROOT
ATOM      1  C   UNL     1     171.442 170.593 163.706  1.00  0.00     0.000 C 
ENDROOT
BRANCH   1   2
ATOM      2  C   UNL     1     171.478 172.129 163.735  1.00  0.00    -0.000 C 
BRANCH   2   3
ATOM      3  C   UNL     1     170.066 172.714 163.606  1.00  0.00    -0.000 C 
BRANCH   3   4
ATOM      4  C   UNL     1     169.854 173.337 162.217  1.00  0.00    -0.000 C 
BRANCH   4   5
ATOM      5  C   UNL     1     168.382 173.308 161.776  1.00  0.00    -0.000 C 
BRANCH   5   6
ATOM      6  C   UNL     1     167.724 171.935 162.003  1.00  0.00    -0.000 C 
BRANCH   6   7
ATOM      7  C   UNL     1     166.476 172.021 162.895  1.00  0.00    -0.003 C 
ATOM      8  C   UNL     1     166.344 170.830 163.842  1.00  0.00     0.004 C 
ENDBRANCH   6   7
ENDBRANCH   5   6
ENDBRANCH   4   5
ENDBRANCH   3   4
ENDBRANCH   2   3
ENDBRANCH   1   2
BRANCH   1   9
ATOM      9  C   UNL     1     170.098 170.022 164.184  1.00  0.00     0.000 C 
BRANCH   9  10
ATOM     10  C   UNL     1     169.519 168.975 163.216  1.00  0.00     0.000 C 
BRANCH  10  11
ATOM     11  C   UNL     1     170.104 167.567 163.462  1.00  0.00     0.000 C 
BRANCH  11  12
ATOM     12  C   UNL     1     170.356 166.769 162.168  1.00  0.00     0.002 C 
BRANCH  12  13
ATOM     13  C   UNL     1     171.683 167.093 161.462  1.00  0.00     0.028 C 
BRANCH  13  14
ATOM     14  C   UNL     1     172.885 166.397 162.103  1.00  0.00     0.156 C 
BRANCH  14  15
ATOM     15  O   UNL     1     173.718 167.356 162.692  1.00  0.00    -0.396 OA
ATOM     16  H   UNL     1     173.356 168.239 162.420  1.00  0.00     0.210 HD
ENDBRANCH  14  15
ENDBRANCH  13  14
ENDBRANCH  12  13
ENDBRANCH  11  12
ENDBRANCH  10  11
ENDBRANCH   9  10
ENDBRANCH   1   9
TORSDOF 13
ENDMDL
MODEL 6
REMARK VINA RESULT:    -3.307     12.062     13.961
REMARK INTER + INTRA:          -7.154
REMARK INTER:                  -6.324
REMARK INTRA:                  -0.831
REMARK UNBOUND:                -1.430
REMARK SMILES CCCCCCCCCCCCCCO
REMARK SMILES IDX 8 1 7 2 6 3 5 4 4 5 3 6 2 7 1 8 9 9 10 10 11 11 12 12 13 13
REMARK SMILES IDX 14 14 15 15
REMARK H PARENT 15 16
REMARK Flexibility Score: inf
ROOT
ATOM      1  C   UNL     1     170.616 167.764 161.567  1.00  0.00     0.000 C 
ENDROOT
BRANCH   1   2
ATOM      2  C   UNL     1     170.198 167.297 162.970  1.00  0.00    -0.000 C 
BRANCH   2   3
ATOM      3  C   UNL     1     169.432 168.400 163.711  1.00  0.00    -0.000 C 
BRANCH   3   4
ATOM      4  C   UNL     1     170.216 169.721 163.694  1.00  0.00    -0.000 C 
BRANCH   4   5
ATOM      5  C   UNL     1     169.426 170.867 163.043  1.00  0.00    -0.000 C 
BRANCH   5   6
ATOM      6  C   UNL     1     168.497 171.585 164.038  1.00  0.00    -0.000 C 
BRANCH   6   7
ATOM      7  C   UNL     1     167.072 171.761 163.489  1.00  0.00    -0.003 C 
ATOM      8  C   UNL     1     166.182 170.548 163.756  1.00  0.00     0.004 C 
ENDBRANCH   6   7
ENDBRANCH   5   6
ENDBRANCH   4   5
ENDBRANCH   3   4
ENDBRANCH   2   3
ENDBRANCH   1   2
BRANCH   1   9
ATOM      9  C   UNL     1     171.106 166.609 160.679  1.00  0.00     0.000 C 
BRANCH   9  10
ATOM     10  C   UNL     1     170.978 165.237 161.363  1.00  0.00     0.000 C 
BRANCH  10  11
ATOM     11  C   UNL     1     170.059 164.277 160.576  1.00  0.00     0.000 C 
BRANCH  11  12
ATOM     12  C   UNL     1     168.894 164.986 159.859  1.00  0.00     0.002 C 
BRANCH  12  13
ATOM     13  C   UNL     1     168.667 164.541 158.405  1.00  0.00     0.028 C 
BRANCH  13  14
ATOM     14  C   UNL     1     168.445 165.716 157.450  1.00  0.00     0.156 C 
BRANCH  14  15
ATOM     15  O   UNL     1     167.316 165.466 156.661  1.00  0.00    -0.396 OA
ATOM     16  H   UNL     1     166.936 164.609 156.988  1.00  0.00     0.210 HD
ENDBRANCH  14  15
ENDBRANCH  13  14
ENDBRANCH  12  13
ENDBRANCH  11  12
ENDBRANCH  10  11
ENDBRANCH   9  10
ENDBRANCH   1   9
TORSDOF 13
ENDMDL
MODEL 7
REMARK VINA RESULT:    -3.276      1.896      3.296
REMARK INTER + INTRA:          -7.099
REMARK INTER:                  -5.150
REMARK INTRA:                  -1.950
REMARK UNBOUND:                -1.430
REMARK SMILES CCCCCCCCCCCCCCO
REMARK SMILES IDX 8 1 7 2 6 3 5 4 4 5 3 6 2 7 1 8 9 9 10 10 11 11 12 12 13 13
REMARK SMILES IDX 14 14 15 15
REMARK H PARENT 15 16
REMARK Flexibility Score: inf
ROOT
ATOM      1  C   UNL     1     165.609 178.142 166.688  1.00  0.00     0.000 C 
ENDROOT
BRANCH   1   2
ATOM      2  C   UNL     1     164.906 176.816 166.361  1.00  0.00    -0.000 C 
BRANCH   2   3
ATOM      3  C   UNL     1     164.166 176.903 165.020  1.00  0.00    -0.000 C 
BRANCH   3   4
ATOM      4  C   UNL     1     162.648 176.778 165.220  1.00  0.00    -0.000 C 
BRANCH   4   5
ATOM      5  C   UNL     1     161.905 178.094 164.942  1.00  0.00    -0.000 C 
BRANCH   5   6
ATOM      6  C   UNL     1     162.839 179.201 164.422  1.00  0.00    -0.000 C 
BRANCH   6   7
ATOM      7  C   UNL     1     162.871 180.426 165.349  1.00  0.00    -0.003 C 
ATOM      8  C   UNL     1     161.475 180.896 165.756  1.00  0.00     0.004 C 
ENDBRANCH   6   7
ENDBRANCH   5   6
ENDBRANCH   4   5
ENDBRANCH   3   4
ENDBRANCH   2   3
ENDBRANCH   1   2
BRANCH   1   9
ATOM      9  C   UNL     1     164.987 178.861 167.896  1.00  0.00     0.000 C 
BRANCH   9  10
ATOM     10  C   UNL     1     163.838 178.061 168.536  1.00  0.00     0.000 C 
BRANCH  10  11
ATOM     11  C   UNL     1     162.615 178.950 168.851  1.00  0.00     0.000 C 
BRANCH  11  12
ATOM     12  C   UNL     1     161.275 178.341 168.391  1.00  0.00     0.002 C 
BRANCH  12  13
ATOM     13  C   UNL     1     160.481 177.626 169.498  1.00  0.00     0.028 C 
BRANCH  13  14
ATOM     14  C   UNL     1     159.079 178.207 169.693  1.00  0.00     0.156 C 
BRANCH  14  15
ATOM     15  O   UNL     1     159.171 179.421 170.383  1.00  0.00    -0.396 OA
ATOM     16  H   UNL     1     160.008 179.374 170.914  1.00  0.00     0.210 HD
ENDBRANCH  14  15
ENDBRANCH  13  14
ENDBRANCH  12  13
ENDBRANCH  11  12
ENDBRANCH  10  11
ENDBRANCH   9  10
ENDBRANCH   1   9
TORSDOF 13
ENDMDL
MODEL 8
REMARK VINA RESULT:    -3.267      8.972     11.384
REMARK INTER + INTRA:          -7.084
REMARK INTER:                  -5.579
REMARK INTRA:                  -1.505
REMARK UNBOUND:                -1.430
REMARK SMILES CCCCCCCCCCCCCCO
REMARK SMILES IDX 8 1 7 2 6 3 5 4 4 5 3 6 2 7 1 8 9 9 10 10 11 11 12 12 13 13
REMARK SMILES IDX 14 14 15 15
REMARK H PARENT 15 16
REMARK Flexibility Score: inf
ROOT
ATOM      1  C   UNL     1     168.531 171.150 164.161  1.00  0.00     0.000 C 
ENDROOT
BRANCH   1   2
ATOM      2  C   UNL     1     167.182 171.709 163.685  1.00  0.00    -0.000 C 
BRANCH   2   3
ATOM      3  C   UNL     1     166.121 170.602 163.622  1.00  0.00    -0.000 C 
BRANCH   3   4
ATOM      4  C   UNL     1     165.455 170.558 162.238  1.00  0.00    -0.000 C 
BRANCH   4   5
ATOM      5  C   UNL     1     166.176 171.439 161.207  1.00  0.00    -0.000 C 
BRANCH   5   6
ATOM      6  C   UNL     1     166.889 170.616 160.120  1.00  0.00    -0.000 C 
BRANCH   6   7
ATOM      7  C   UNL     1     168.418 170.642 160.272  1.00  0.00    -0.003 C 
ATOM      8  C   UNL     1     169.062 169.282 160.004  1.00  0.00     0.004 C 
ENDBRANCH   6   7
ENDBRANCH   5   6
ENDBRANCH   4   5
ENDBRANCH   3   4
ENDBRANCH   2   3
ENDBRANCH   1   2
BRANCH   1   9
ATOM      9  C   UNL     1     168.713 169.664 163.817  1.00  0.00     0.000 C 
BRANCH   9  10
ATOM     10  C   UNL     1     170.183 169.290 163.557  1.00  0.00     0.000 C 
BRANCH  10  11
ATOM     11  C   UNL     1     171.162 170.316 164.169  1.00  0.00     0.000 C 
BRANCH  11  12
ATOM     12  C   UNL     1     172.028 171.043 163.121  1.00  0.00     0.002 C 
BRANCH  12  13
ATOM     13  C   UNL     1     172.003 172.577 163.220  1.00  0.00     0.028 C 
BRANCH  13  14
ATOM     14  C   UNL     1     173.322 173.224 162.793  1.00  0.00     0.156 C 
BRANCH  14  15
ATOM     15  O   UNL     1     173.434 174.488 163.385  1.00  0.00    -0.396 OA
ATOM     16  H   UNL     1     174.204 174.931 162.945  1.00  0.00     0.210 HD
ENDBRANCH  14  15
ENDBRANCH  13  14
ENDBRANCH  12  13
ENDBRANCH  11  12
ENDBRANCH  10  11
ENDBRANCH   9  10
ENDBRANCH   1   9
TORSDOF 13
ENDMDL
MODEL 9
REMARK VINA RESULT:    -3.218      9.548     11.325
REMARK INTER + INTRA:          -7.000
REMARK INTER:                  -5.004
REMARK INTRA:                  -1.996
REMARK UNBOUND:                -1.430
REMARK SMILES CCCCCCCCCCCCCCO
REMARK SMILES IDX 8 1 7 2 6 3 5 4 4 5 3 6 2 7 1 8 9 9 10 10 11 11 12 12 13 13
REMARK SMILES IDX 14 14 15 15
REMARK H PARENT 15 16
REMARK Flexibility Score: inf
ROOT
ATOM      1  C   UNL     1     171.020 168.384 161.756  1.00  0.00     0.000 C 
ENDROOT
BRANCH   1   2
ATOM      2  C   UNL     1     169.911 168.534 160.703  1.00  0.00    -0.000 C 
BRANCH   2   3
ATOM      3  C   UNL     1     169.725 170.004 160.306  1.00  0.00    -0.000 C 
BRANCH   3   4
ATOM      4  C   UNL     1     170.982 170.826 160.632  1.00  0.00    -0.000 C 
BRANCH   4   5
ATOM      5  C   UNL     1     170.648 172.210 161.212  1.00  0.00    -0.000 C 
BRANCH   5   6
ATOM      6  C   UNL     1     171.567 172.598 162.383  1.00  0.00    -0.000 C 
BRANCH   6   7
ATOM      7  C   UNL     1     172.757 171.638 162.539  1.00  0.00    -0.003 C 
ATOM      8  C   UNL     1     174.103 172.324 162.305  1.00  0.00     0.004 C 
ENDBRANCH   6   7
ENDBRANCH   5   6
ENDBRANCH   4   5
ENDBRANCH   3   4
ENDBRANCH   2   3
ENDBRANCH   1   2
BRANCH   1   9
ATOM      9  C   UNL     1     170.552 167.621 163.005  1.00  0.00     0.000 C 
BRANCH   9  10
ATOM     10  C   UNL     1     169.455 168.368 163.783  1.00  0.00     0.000 C 
BRANCH  10  11
ATOM     11  C   UNL     1     169.901 169.787 164.200  1.00  0.00     0.000 C 
BRANCH  11  12
ATOM     12  C   UNL     1     168.765 170.828 164.157  1.00  0.00     0.002 C 
BRANCH  12  13
ATOM     13  C   UNL     1     167.623 170.494 163.183  1.00  0.00     0.028 C 
BRANCH  13  14
ATOM     14  C   UNL     1     166.255 170.961 163.685  1.00  0.00     0.156 C 
BRANCH  14  15
ATOM     15  O   UNL     1     166.094 172.321 163.396  1.00  0.00    -0.396 OA
ATOM     16  H   UNL     1     166.340 172.810 164.224  1.00  0.00     0.210 HD
ENDBRANCH  14  15
ENDBRANCH  13  14
ENDBRANCH  12  13
ENDBRANCH  11  12
ENDBRANCH  10  11
ENDBRANCH   9  10
ENDBRANCH   1   9
TORSDOF 13
ENDMDL
