MODEL 1
REMARK VINA RESULT:    -6.427      0.000      0.000
REMARK INTER + INTRA:          -7.843
REMARK INTER:                  -7.742
REMARK INTRA:                  -0.101
REMARK UNBOUND:                -0.101
REMARK SMILES Oc1cc(O)c2c(c1)O[C@H](c1ccc(O)c(O)c1)[C@H](O)C2
REMARK SMILES IDX 21 1 19 2 10 3 9 4 7 5 8 6 2 7 3 8 4 9 6 10 20 11 11 13
REMARK SMILES IDX 18 14 12 15 16 16 13 17 14 18 17 19 15 21 5 23 1 25
REMARK H PARENT 20 12 17 20 15 22 5 24 1 26
REMARK Flexibility Score: inf
ROOT
ATOM      1  C   UNL     1      10.513  -6.902  -9.133  1.00  0.00     0.079 C 
ATOM      2  C   UNL     1       9.648  -8.121  -8.759  1.00  0.00     0.164 C 
ATOM      3  C   UNL     1       8.233  -7.701  -8.308  1.00  0.00     0.232 C 
ATOM      4  O   UNL     1       7.637  -6.849  -9.289  1.00  0.00    -0.482 OA
ATOM      5  C   UNL     1       8.372  -5.974 -10.102  1.00  0.00     0.131 A 
ATOM      6  C   UNL     1       7.682  -5.100 -10.948  1.00  0.00     0.093 A 
ATOM      7  C   UNL     1       8.377  -4.187 -11.742  1.00  0.00     0.122 A 
ATOM      8  C   UNL     1       9.774  -4.146 -11.695  1.00  0.00     0.092 A 
ATOM      9  C   UNL     1      10.484  -5.010 -10.851  1.00  0.00     0.126 A 
ATOM     10  C   UNL     1       9.785  -5.962 -10.070  1.00  0.00     0.039 A 
ENDROOT
BRANCH   2  11
ATOM     11  O   UNL     1      10.285  -8.938  -7.805  1.00  0.00    -0.389 OA
ATOM     12  H   UNL     1      10.661  -8.351  -7.100  1.00  0.00     0.211 HD
ENDBRANCH   2  11
BRANCH   3  13
ATOM     13  C   UNL     1       8.207  -7.054  -6.932  1.00  0.00    -0.001 A 
ATOM     14  C   UNL     1       7.694  -7.778  -5.841  1.00  0.00     0.057 A 
ATOM     15  C   UNL     1       8.705  -5.757  -6.712  1.00  0.00     0.012 A 
ATOM     16  C   UNL     1       7.647  -7.218  -4.559  1.00  0.00     0.157 A 
ATOM     17  C   UNL     1       8.650  -5.188  -5.439  1.00  0.00     0.050 A 
ATOM     18  C   UNL     1       8.114  -5.897  -4.360  1.00  0.00     0.157 A 
BRANCH  16  19
ATOM     19  O   UNL     1       7.137  -8.001  -3.523  1.00  0.00    -0.504 OA
ATOM     20  H   UNL     1       7.628  -8.181  -2.659  1.00  0.00     0.293 HD
ENDBRANCH  16  19
BRANCH  18  21
ATOM     21  O   UNL     1       8.055  -5.256  -3.120  1.00  0.00    -0.504 OA
ATOM     22  H   UNL     1       7.216  -4.847  -2.735  1.00  0.00     0.293 HD
ENDBRANCH  18  21
ENDBRANCH   3  13
BRANCH   9  23
ATOM     23  O   UNL     1      11.874  -4.887 -10.812  1.00  0.00    -0.507 OA
ATOM     24  H   UNL     1      12.353  -4.053 -10.499  1.00  0.00     0.293 HD
ENDBRANCH   9  23
BRANCH   7  25
ATOM     25  O   UNL     1       7.669  -3.312 -12.562  1.00  0.00    -0.508 OA
ATOM     26  H   UNL     1       6.798  -3.583 -13.001  1.00  0.00     0.293 HD
ENDBRANCH   7  25
TORSDOF 6
ENDMDL
MODEL 2
REMARK VINA RESULT:    -6.336      2.602      4.679
REMARK INTER + INTRA:          -7.733
REMARK INTER:                  -7.729
REMARK INTRA:                  -0.004
REMARK UNBOUND:                -0.101
REMARK SMILES Oc1cc(O)c2c(c1)O[C@H](c1ccc(O)c(O)c1)[C@H](O)C2
REMARK SMILES IDX 21 1 19 2 10 3 9 4 7 5 8 6 2 7 3 8 4 9 6 10 20 11 11 13
REMARK SMILES IDX 18 14 12 15 16 16 13 17 14 18 17 19 15 21 5 23 1 25
REMARK H PARENT 20 12 17 20 15 22 5 24 1 26
REMARK Flexibility Score: inf
ROOT
ATOM      1  C   UNL     1      11.494  -6.121  -9.258  1.00  0.00     0.079 C 
ATOM      2  C   UNL     1      10.710  -6.560  -8.006  1.00  0.00     0.164 C 
ATOM      3  C   UNL     1       9.317  -7.116  -8.369  1.00  0.00     0.232 C 
ATOM      4  O   UNL     1       9.440  -8.138  -9.362  1.00  0.00    -0.482 OA
ATOM      5  C   UNL     1      10.446  -8.150 -10.340  1.00  0.00     0.131 A 
ATOM      6  C   UNL     1      10.406  -9.130 -11.335  1.00  0.00     0.093 A 
ATOM      7  C   UNL     1      11.366  -9.150 -12.348  1.00  0.00     0.122 A 
ATOM      8  C   UNL     1      12.377  -8.185 -12.367  1.00  0.00     0.092 A 
ATOM      9  C   UNL     1      12.432  -7.191 -11.382  1.00  0.00     0.126 A 
ATOM     10  C   UNL     1      11.481  -7.187 -10.332  1.00  0.00     0.039 A 
ENDROOT
BRANCH   2  11
ATOM     11  O   UNL     1      10.634  -5.528  -7.052  1.00  0.00    -0.389 OA
ATOM     12  H   UNL     1      11.546  -5.368  -6.697  1.00  0.00     0.211 HD
ENDBRANCH   2  11
BRANCH   3  13
ATOM     13  C   UNL     1       8.336  -6.041  -8.808  1.00  0.00    -0.001 A 
ATOM     14  C   UNL     1       8.414  -5.532 -10.116  1.00  0.00     0.057 A 
ATOM     15  C   UNL     1       7.335  -5.553  -7.949  1.00  0.00     0.012 A 
ATOM     16  C   UNL     1       7.533  -4.537 -10.559  1.00  0.00     0.157 A 
ATOM     17  C   UNL     1       6.461  -4.553  -8.380  1.00  0.00     0.050 A 
ATOM     18  C   UNL     1       6.557  -4.028  -9.672  1.00  0.00     0.157 A 
BRANCH  16  19
ATOM     19  O   UNL     1       7.662  -4.092 -11.876  1.00  0.00    -0.504 OA
ATOM     20  H   UNL     1       6.906  -3.684 -12.409  1.00  0.00     0.293 HD
ENDBRANCH  16  19
BRANCH  18  21
ATOM     21  O   UNL     1       5.676  -3.003 -10.028  1.00  0.00    -0.504 OA
ATOM     22  H   UNL     1       4.768  -3.157 -10.443  1.00  0.00     0.293 HD
ENDBRANCH  18  21
ENDBRANCH   3  13
BRANCH   9  23
ATOM     23  O   UNL     1      13.435  -6.225 -11.483  1.00  0.00    -0.507 OA
ATOM     24  H   UNL     1      14.285  -6.241 -10.935  1.00  0.00     0.293 HD
ENDBRANCH   9  23
BRANCH   7  25
ATOM     25  O   UNL     1      11.297 -10.125 -13.341  1.00  0.00    -0.508 OA
ATOM     26  H   UNL     1      12.132 -10.509 -13.767  1.00  0.00     0.293 HD
ENDBRANCH   7  25
TORSDOF 6
ENDMDL
MODEL 3
REMARK VINA RESULT:    -6.311      2.551      4.134
REMARK INTER + INTRA:          -7.703
REMARK INTER:                  -7.604
REMARK INTRA:                  -0.099
REMARK UNBOUND:                -0.101
REMARK SMILES Oc1cc(O)c2c(c1)O[C@H](c1ccc(O)c(O)c1)[C@H](O)C2
REMARK SMILES IDX 21 1 19 2 10 3 9 4 7 5 8 6 2 7 3 8 4 9 6 10 20 11 11 13
REMARK SMILES IDX 18 14 12 15 16 16 13 17 14 18 17 19 15 21 5 23 1 25
REMARK H PARENT 20 12 17 20 15 22 5 24 1 26
REMARK Flexibility Score: inf
ROOT
ATOM      1  C   UNL     1       8.463  -6.581 -11.578  1.00  0.00     0.079 C 
ATOM      2  C   UNL     1       8.652  -5.234 -10.854  1.00  0.00     0.164 C 
ATOM      3  C   UNL     1       9.575  -5.370  -9.625  1.00  0.00     0.232 C 
ATOM      4  O   UNL     1      10.802  -6.002  -9.999  1.00  0.00    -0.482 OA
ATOM      5  C   UNL     1      10.899  -6.955 -11.023  1.00  0.00     0.131 A 
ATOM      6  C   UNL     1      12.123  -7.598 -11.230  1.00  0.00     0.093 A 
ATOM      7  C   UNL     1      12.249  -8.581 -12.213  1.00  0.00     0.122 A 
ATOM      8  C   UNL     1      11.144  -8.924 -12.999  1.00  0.00     0.092 A 
ATOM      9  C   UNL     1       9.908  -8.296 -12.805  1.00  0.00     0.126 A 
ATOM     10  C   UNL     1       9.785  -7.273 -11.832  1.00  0.00     0.039 A 
ENDROOT
BRANCH   2  11
ATOM     11  O   UNL     1       7.418  -4.642 -10.524  1.00  0.00    -0.389 OA
ATOM     12  H   UNL     1       7.226  -3.936 -11.193  1.00  0.00     0.211 HD
ENDBRANCH   2  11
BRANCH   3  13
ATOM     13  C   UNL     1       8.920  -6.092  -8.458  1.00  0.00    -0.001 A 
ATOM     14  C   UNL     1       8.514  -5.353  -7.333  1.00  0.00     0.057 A 
ATOM     15  C   UNL     1       8.685  -7.479  -8.480  1.00  0.00     0.012 A 
ATOM     16  C   UNL     1       7.911  -5.979  -6.235  1.00  0.00     0.157 A 
ATOM     17  C   UNL     1       8.097  -8.111  -7.384  1.00  0.00     0.050 A 
ATOM     18  C   UNL     1       7.718  -7.381  -6.254  1.00  0.00     0.157 A 
BRANCH  16  19
ATOM     19  O   UNL     1       7.522  -5.179  -5.161  1.00  0.00    -0.504 OA
ATOM     20  H   UNL     1       6.580  -4.841  -5.022  1.00  0.00     0.293 HD
ENDBRANCH  16  19
BRANCH  18  21
ATOM     21  O   UNL     1       7.168  -8.080  -5.177  1.00  0.00    -0.504 OA
ATOM     22  H   UNL     1       7.508  -8.973  -4.850  1.00  0.00     0.293 HD
ENDBRANCH  18  21
ENDBRANCH   3  13
BRANCH   9  23
ATOM     23  O   UNL     1       8.831  -8.717 -13.586  1.00  0.00    -0.507 OA
ATOM     24  H   UNL     1       8.237  -8.086 -14.107  1.00  0.00     0.293 HD
ENDBRANCH   9  23
BRANCH   7  25
ATOM     25  O   UNL     1      13.472  -9.223 -12.390  1.00  0.00    -0.508 OA
ATOM     26  H   UNL     1      13.659 -10.131 -11.984  1.00  0.00     0.293 HD
ENDBRANCH   7  25
TORSDOF 6
ENDMDL
MODEL 4
REMARK VINA RESULT:    -6.282      1.731      2.984
REMARK INTER + INTRA:          -7.668
REMARK INTER:                  -7.870
REMARK INTRA:                   0.201
REMARK UNBOUND:                -0.101
REMARK SMILES Oc1cc(O)c2c(c1)O[C@H](c1ccc(O)c(O)c1)[C@H](O)C2
REMARK SMILES IDX 21 1 19 2 10 3 9 4 7 5 8 6 2 7 3 8 4 9 6 10 20 11 11 13
REMARK SMILES IDX 18 14 12 15 16 16 13 17 14 18 17 19 15 21 5 23 1 25
REMARK H PARENT 20 12 17 20 15 22 5 24 1 26
REMARK Flexibility Score: inf
ROOT
ATOM      1  C   UNL     1       9.326  -8.633  -9.887  1.00  0.00     0.079 C 
ATOM      2  C   UNL     1       7.875  -8.128 -10.003  1.00  0.00     0.164 C 
ATOM      3  C   UNL     1       7.701  -6.733  -9.365  1.00  0.00     0.232 C 
ATOM      4  O   UNL     1       8.672  -5.827  -9.895  1.00  0.00    -0.482 OA
ATOM      5  C   UNL     1       9.951  -6.222 -10.314  1.00  0.00     0.131 A 
ATOM      6  C   UNL     1      10.865  -5.239 -10.706  1.00  0.00     0.093 A 
ATOM      7  C   UNL     1      12.160  -5.590 -11.091  1.00  0.00     0.122 A 
ATOM      8  C   UNL     1      12.547  -6.934 -11.088  1.00  0.00     0.092 A 
ATOM      9  C   UNL     1      11.648  -7.933 -10.694  1.00  0.00     0.126 A 
ATOM     10  C   UNL     1      10.322  -7.586 -10.336  1.00  0.00     0.039 A 
ENDROOT
BRANCH   2  11
ATOM     11  O   UNL     1       6.956  -9.062  -9.487  1.00  0.00    -0.389 OA
ATOM     12  H   UNL     1       6.750  -8.806  -8.551  1.00  0.00     0.211 HD
ENDBRANCH   2  11
BRANCH   3  13
ATOM     13  C   UNL     1       7.746  -6.757  -7.846  1.00  0.00    -0.001 A 
ATOM     14  C   UNL     1       8.167  -5.609  -7.152  1.00  0.00     0.057 A 
ATOM     15  C   UNL     1       7.354  -7.890  -7.109  1.00  0.00     0.012 A 
ATOM     16  C   UNL     1       8.228  -5.590  -5.754  1.00  0.00     0.157 A 
ATOM     17  C   UNL     1       7.424  -7.882  -5.715  1.00  0.00     0.050 A 
ATOM     18  C   UNL     1       7.869  -6.750  -5.026  1.00  0.00     0.157 A 
BRANCH  16  19
ATOM     19  O   UNL     1       8.642  -4.410  -5.134  1.00  0.00    -0.504 OA
ATOM     20  H   UNL     1       9.602  -4.096  -5.106  1.00  0.00     0.293 HD
ENDBRANCH  16  19
BRANCH  18  21
ATOM     21  O   UNL     1       7.950  -6.821  -3.633  1.00  0.00    -0.504 OA
ATOM     22  H   UNL     1       7.832  -7.673  -3.103  1.00  0.00     0.293 HD
ENDBRANCH  18  21
ENDBRANCH   3  13
BRANCH   9  23
ATOM     23  O   UNL     1      12.109  -9.250 -10.663  1.00  0.00    -0.507 OA
ATOM     24  H   UNL     1      13.088  -9.502 -10.710  1.00  0.00     0.293 HD
ENDBRANCH   9  23
BRANCH   7  25
ATOM     25  O   UNL     1      13.060  -4.593 -11.460  1.00  0.00    -0.508 OA
ATOM     26  H   UNL     1      12.750  -3.727 -11.883  1.00  0.00     0.293 HD
ENDBRANCH   7  25
TORSDOF 6
ENDMDL
MODEL 5
REMARK VINA RESULT:    -6.155      2.425      3.519
REMARK INTER + INTRA:          -7.515
REMARK INTER:                  -7.595
REMARK INTRA:                   0.080
REMARK UNBOUND:                -0.101
REMARK SMILES Oc1cc(O)c2c(c1)O[C@H](c1ccc(O)c(O)c1)[C@H](O)C2
REMARK SMILES IDX 21 1 19 2 10 3 9 4 7 5 8 6 2 7 3 8 4 9 6 10 20 11 11 13
REMARK SMILES IDX 18 14 12 15 16 16 13 17 14 18 17 19 15 21 5 23 1 25
REMARK H PARENT 20 12 17 20 15 22 5 24 1 26
REMARK Flexibility Score: inf
ROOT
ATOM      1  C   UNL     1       9.823  -6.763 -10.660  1.00  0.00     0.079 C 
ATOM      2  C   UNL     1      10.760  -7.477  -9.667  1.00  0.00     0.164 C 
ATOM      3  C   UNL     1       9.975  -8.151  -8.522  1.00  0.00     0.232 C 
ATOM      4  O   UNL     1       8.952  -8.993  -9.058  1.00  0.00    -0.482 OA
ATOM      5  C   UNL     1       8.289  -8.732 -10.267  1.00  0.00     0.131 A 
ATOM      6  C   UNL     1       7.223  -9.556 -10.641  1.00  0.00     0.093 A 
ATOM      7  C   UNL     1       6.514  -9.304 -11.816  1.00  0.00     0.122 A 
ATOM      8  C   UNL     1       6.873  -8.223 -12.627  1.00  0.00     0.092 A 
ATOM      9  C   UNL     1       7.934  -7.383 -12.268  1.00  0.00     0.126 A 
ATOM     10  C   UNL     1       8.680  -7.655 -11.094  1.00  0.00     0.039 A 
ENDROOT
BRANCH   2  11
ATOM     11  O   UNL     1      11.761  -6.613  -9.183  1.00  0.00    -0.389 OA
ATOM     12  H   UNL     1      12.416  -6.461  -9.912  1.00  0.00     0.211 HD
ENDBRANCH   2  11
BRANCH   3  13
ATOM     13  C   UNL     1       9.402  -7.159  -7.522  1.00  0.00    -0.001 A 
ATOM     14  C   UNL     1      10.266  -6.264  -6.868  1.00  0.00     0.057 A 
ATOM     15  C   UNL     1       8.024  -7.095  -7.247  1.00  0.00     0.012 A 
ATOM     16  C   UNL     1       9.781  -5.339  -5.936  1.00  0.00     0.157 A 
ATOM     17  C   UNL     1       7.534  -6.183  -6.310  1.00  0.00     0.050 A 
ATOM     18  C   UNL     1       8.398  -5.312  -5.639  1.00  0.00     0.157 A 
BRANCH  16  19
ATOM     19  O   UNL     1      10.697  -4.473  -5.338  1.00  0.00    -0.504 OA
ATOM     20  H   UNL     1      11.129  -4.642  -4.440  1.00  0.00     0.293 HD
ENDBRANCH  16  19
BRANCH  18  21
ATOM     21  O   UNL     1       7.848  -4.450  -4.687  1.00  0.00    -0.504 OA
ATOM     22  H   UNL     1       8.255  -3.564  -4.426  1.00  0.00     0.293 HD
ENDBRANCH  18  21
ENDBRANCH   3  13
BRANCH   9  23
ATOM     23  O   UNL     1       8.212  -6.291 -13.092  1.00  0.00    -0.507 OA
ATOM     24  H   UNL     1       8.546  -6.378 -14.042  1.00  0.00     0.293 HD
ENDBRANCH   9  23
BRANCH   7  25
ATOM     25  O   UNL     1       5.443 -10.125 -12.162  1.00  0.00    -0.508 OA
ATOM     26  H   UNL     1       4.598  -9.749 -12.574  1.00  0.00     0.293 HD
ENDBRANCH   7  25
TORSDOF 6
ENDMDL
MODEL 6
REMARK VINA RESULT:    -5.946      2.343      6.269
REMARK INTER + INTRA:          -7.263
REMARK INTER:                  -7.162
REMARK INTRA:                  -0.101
REMARK UNBOUND:                -0.101
REMARK SMILES Oc1cc(O)c2c(c1)O[C@H](c1ccc(O)c(O)c1)[C@H](O)C2
REMARK SMILES IDX 21 1 19 2 10 3 9 4 7 5 8 6 2 7 3 8 4 9 6 10 20 11 11 13
REMARK SMILES IDX 18 14 12 15 16 16 13 17 14 18 17 19 15 21 5 23 1 25
REMARK H PARENT 20 12 17 20 15 22 5 24 1 26
REMARK Flexibility Score: inf
ROOT
ATOM      1  C   UNL     1       8.115  -5.919 -10.493  1.00  0.00     0.079 C 
ATOM      2  C   UNL     1       8.438  -7.184 -11.312  1.00  0.00     0.164 C 
ATOM      3  C   UNL     1       9.590  -7.995 -10.682  1.00  0.00     0.232 C 
ATOM      4  O   UNL     1       9.312  -8.254  -9.303  1.00  0.00    -0.482 OA
ATOM      5  C   UNL     1       8.575  -7.384  -8.486  1.00  0.00     0.131 A 
ATOM      6  C   UNL     1       8.461  -7.676  -7.123  1.00  0.00     0.093 A 
ATOM      7  C   UNL     1       7.770  -6.814  -6.271  1.00  0.00     0.122 A 
ATOM      8  C   UNL     1       7.185  -5.651  -6.783  1.00  0.00     0.092 A 
ATOM      9  C   UNL     1       7.292  -5.338  -8.143  1.00  0.00     0.126 A 
ATOM     10  C   UNL     1       7.962  -6.228  -9.019  1.00  0.00     0.039 A 
ENDROOT
BRANCH   2  11
ATOM     11  O   UNL     1       8.685  -6.880 -12.664  1.00  0.00    -0.389 OA
ATOM     12  H   UNL     1       8.987  -7.709 -13.116  1.00  0.00     0.211 HD
ENDBRANCH   2  11
BRANCH   3  13
ATOM     13  C   UNL     1      10.951  -7.338 -10.852  1.00  0.00    -0.001 A 
ATOM     14  C   UNL     1      11.858  -7.868 -11.787  1.00  0.00     0.057 A 
ATOM     15  C   UNL     1      11.323  -6.198 -10.117  1.00  0.00     0.012 A 
ATOM     16  C   UNL     1      13.122  -7.297 -11.972  1.00  0.00     0.157 A 
ATOM     17  C   UNL     1      12.587  -5.631 -10.287  1.00  0.00     0.050 A 
ATOM     18  C   UNL     1      13.499  -6.175 -11.197  1.00  0.00     0.157 A 
BRANCH  16  19
ATOM     19  O   UNL     1      13.962  -7.868 -12.929  1.00  0.00    -0.504 OA
ATOM     20  H   UNL     1      13.861  -7.728 -13.924  1.00  0.00     0.293 HD
ENDBRANCH  16  19
BRANCH  18  21
ATOM     21  O   UNL     1      14.760  -5.581 -11.292  1.00  0.00    -0.504 OA
ATOM     22  H   UNL     1      14.924  -4.660 -11.672  1.00  0.00     0.293 HD
ENDBRANCH  18  21
ENDBRANCH   3  13
BRANCH   9  23
ATOM     23  O   UNL     1       6.730  -4.139  -8.584  1.00  0.00    -0.507 OA
ATOM     24  H   UNL     1       5.807  -3.823  -8.319  1.00  0.00     0.293 HD
ENDBRANCH   9  23
BRANCH   7  25
ATOM     25  O   UNL     1       7.684  -7.112  -4.913  1.00  0.00    -0.508 OA
ATOM     26  H   UNL     1       8.108  -7.946  -4.525  1.00  0.00     0.293 HD
ENDBRANCH   7  25
TORSDOF 6
ENDMDL
MODEL 7
REMARK VINA RESULT:    -5.940      2.370      6.185
REMARK INTER + INTRA:          -7.256
REMARK INTER:                  -7.310
REMARK INTRA:                   0.054
REMARK UNBOUND:                -0.101
REMARK SMILES Oc1cc(O)c2c(c1)O[C@H](c1ccc(O)c(O)c1)[C@H](O)C2
REMARK SMILES IDX 21 1 19 2 10 3 9 4 7 5 8 6 2 7 3 8 4 9 6 10 20 11 11 13
REMARK SMILES IDX 18 14 12 15 16 16 13 17 14 18 17 19 15 21 5 23 1 25
REMARK H PARENT 20 12 17 20 15 22 5 24 1 26
REMARK Flexibility Score: inf
ROOT
ATOM      1  C   UNL     1       8.049  -6.026 -10.773  1.00  0.00     0.079 C 
ATOM      2  C   UNL     1       8.144  -7.292 -11.645  1.00  0.00     0.164 C 
ATOM      3  C   UNL     1       9.184  -8.290 -11.093  1.00  0.00     0.232 C 
ATOM      4  O   UNL     1       8.923  -8.557  -9.712  1.00  0.00    -0.482 OA
ATOM      5  C   UNL     1       8.358  -7.619  -8.836  1.00  0.00     0.131 A 
ATOM      6  C   UNL     1       8.254  -7.941  -7.480  1.00  0.00     0.093 A 
ATOM      7  C   UNL     1       7.735  -7.018  -6.571  1.00  0.00     0.122 A 
ATOM      8  C   UNL     1       7.314  -5.762  -7.019  1.00  0.00     0.092 A 
ATOM      9  C   UNL     1       7.414  -5.418  -8.372  1.00  0.00     0.126 A 
ATOM     10  C   UNL     1       7.907  -6.364  -9.304  1.00  0.00     0.039 A 
ENDROOT
BRANCH   2  11
ATOM     11  O   UNL     1       8.382  -6.977 -12.997  1.00  0.00    -0.389 OA
ATOM     12  H   UNL     1       9.362  -6.992 -13.148  1.00  0.00     0.211 HD
ENDBRANCH   2  11
BRANCH   3  13
ATOM     13  C   UNL     1      10.620  -7.839 -11.302  1.00  0.00    -0.001 A 
ATOM     14  C   UNL     1      11.114  -6.751 -10.561  1.00  0.00     0.057 A 
ATOM     15  C   UNL     1      11.481  -8.493 -12.201  1.00  0.00     0.012 A 
ATOM     16  C   UNL     1      12.429  -6.300 -10.726  1.00  0.00     0.157 A 
ATOM     17  C   UNL     1      12.790  -8.041 -12.380  1.00  0.00     0.050 A 
ATOM     18  C   UNL     1      13.272  -6.942 -11.663  1.00  0.00     0.157 A 
BRANCH  16  19
ATOM     19  O   UNL     1      12.852  -5.224  -9.945  1.00  0.00    -0.504 OA
ATOM     20  H   UNL     1      12.404  -4.941  -9.085  1.00  0.00     0.293 HD
ENDBRANCH  16  19
BRANCH  18  21
ATOM     21  O   UNL     1      14.579  -6.518 -11.916  1.00  0.00    -0.504 OA
ATOM     22  H   UNL     1      15.300  -7.110 -12.303  1.00  0.00     0.293 HD
ENDBRANCH  18  21
ENDBRANCH   3  13
BRANCH   9  23
ATOM     23  O   UNL     1       7.024  -4.131  -8.750  1.00  0.00    -0.507 OA
ATOM     24  H   UNL     1       7.596  -3.309  -8.608  1.00  0.00     0.293 HD
ENDBRANCH   9  23
BRANCH   7  25
ATOM     25  O   UNL     1       7.657  -7.352  -5.221  1.00  0.00    -0.508 OA
ATOM     26  H   UNL     1       6.804  -7.714  -4.812  1.00  0.00     0.293 HD
ENDBRANCH   7  25
TORSDOF 6
ENDMDL
MODEL 8
REMARK VINA RESULT:    -5.802     11.102     13.647
REMARK INTER + INTRA:          -7.090
REMARK INTER:                  -7.047
REMARK INTRA:                  -0.043
REMARK UNBOUND:                -0.101
REMARK SMILES Oc1cc(O)c2c(c1)O[C@H](c1ccc(O)c(O)c1)[C@H](O)C2
REMARK SMILES IDX 21 1 19 2 10 3 9 4 7 5 8 6 2 7 3 8 4 9 6 10 20 11 11 13
REMARK SMILES IDX 18 14 12 15 16 16 13 17 14 18 17 19 15 21 5 23 1 25
REMARK H PARENT 20 12 17 20 15 22 5 24 1 26
REMARK Flexibility Score: inf
ROOT
ATOM      1  C   UNL     1      20.340  -3.046  -6.579  1.00  0.00     0.079 C 
ATOM      2  C   UNL     1      21.785  -2.551  -6.373  1.00  0.00     0.164 C 
ATOM      3  C   UNL     1      22.505  -2.314  -7.717  1.00  0.00     0.232 C 
ATOM      4  O   UNL     1      21.717  -1.463  -8.554  1.00  0.00    -0.482 OA
ATOM      5  C   UNL     1      20.315  -1.437  -8.527  1.00  0.00     0.131 A 
ATOM      6  C   UNL     1      19.638  -0.655  -9.468  1.00  0.00     0.093 A 
ATOM      7  C   UNL     1      18.243  -0.633  -9.499  1.00  0.00     0.122 A 
ATOM      8  C   UNL     1      17.515  -1.398  -8.581  1.00  0.00     0.092 A 
ATOM      9  C   UNL     1      18.174  -2.191  -7.633  1.00  0.00     0.126 A 
ATOM     10  C   UNL     1      19.589  -2.189  -7.575  1.00  0.00     0.039 A 
ENDROOT
BRANCH   2  11
ATOM     11  O   UNL     1      22.514  -3.410  -5.529  1.00  0.00    -0.389 OA
ATOM     12  H   UNL     1      22.440  -4.331  -5.889  1.00  0.00     0.211 HD
ENDBRANCH   2  11
BRANCH   3  13
ATOM     13  C   UNL     1      22.874  -3.601  -8.437  1.00  0.00    -0.001 A 
ATOM     14  C   UNL     1      22.299  -3.877  -9.690  1.00  0.00     0.057 A 
ATOM     15  C   UNL     1      23.794  -4.518  -7.896  1.00  0.00     0.012 A 
ATOM     16  C   UNL     1      22.607  -5.053 -10.384  1.00  0.00     0.157 A 
ATOM     17  C   UNL     1      24.096  -5.698  -8.577  1.00  0.00     0.050 A 
ATOM     18  C   UNL     1      23.503  -5.985  -9.810  1.00  0.00     0.157 A 
BRANCH  16  19
ATOM     19  O   UNL     1      22.009  -5.251 -11.629  1.00  0.00    -0.504 OA
ATOM     20  H   UNL     1      21.813  -6.162 -12.022  1.00  0.00     0.293 HD
ENDBRANCH  16  19
BRANCH  18  21
ATOM     21  O   UNL     1      23.821  -7.201 -10.422  1.00  0.00    -0.504 OA
ATOM     22  H   UNL     1      24.106  -7.290 -11.386  1.00  0.00     0.293 HD
ENDBRANCH  18  21
ENDBRANCH   3  13
BRANCH   9  23
ATOM     23  O   UNL     1      17.393  -2.970  -6.778  1.00  0.00    -0.507 OA
ATOM     24  H   UNL     1      16.846  -2.589  -6.017  1.00  0.00     0.293 HD
ENDBRANCH   9  23
BRANCH   7  25
ATOM     25  O   UNL     1      17.589   0.138 -10.456  1.00  0.00    -0.508 OA
ATOM     26  H   UNL     1      16.816  -0.231 -10.997  1.00  0.00     0.293 HD
ENDBRANCH   7  25
TORSDOF 6
ENDMDL
MODEL 9
REMARK VINA RESULT:    -5.707      9.458     12.815
REMARK INTER + INTRA:          -6.976
REMARK INTER:                  -7.025
REMARK INTRA:                   0.049
REMARK UNBOUND:                -0.101
REMARK SMILES Oc1cc(O)c2c(c1)O[C@H](c1ccc(O)c(O)c1)[C@H](O)C2
REMARK SMILES IDX 21 1 19 2 10 3 9 4 7 5 8 6 2 7 3 8 4 9 6 10 20 11 11 13
REMARK SMILES IDX 18 14 12 15 16 16 13 17 14 18 17 19 15 21 5 23 1 25
REMARK H PARENT 20 12 17 20 15 22 5 24 1 26
REMARK Flexibility Score: inf
ROOT
ATOM      1  C   UNL     1       7.611   2.986 -18.948  1.00  0.00     0.079 C 
ATOM      2  C   UNL     1       6.696   3.821 -18.032  1.00  0.00     0.164 C 
ATOM      3  C   UNL     1       7.144   3.751 -16.557  1.00  0.00     0.232 C 
ATOM      4  O   UNL     1       8.530   4.085 -16.448  1.00  0.00    -0.482 OA
ATOM      5  C   UNL     1       9.472   3.814 -17.452  1.00  0.00     0.131 A 
ATOM      6  C   UNL     1      10.821   4.075 -17.198  1.00  0.00     0.093 A 
ATOM      7  C   UNL     1      11.792   3.782 -18.156  1.00  0.00     0.122 A 
ATOM      8  C   UNL     1      11.413   3.225 -19.382  1.00  0.00     0.092 A 
ATOM      9  C   UNL     1      10.067   2.952 -19.655  1.00  0.00     0.126 A 
ATOM     10  C   UNL     1       9.075   3.281 -18.699  1.00  0.00     0.039 A 
ENDROOT
BRANCH   2  11
ATOM     11  O   UNL     1       5.341   3.469 -18.189  1.00  0.00    -0.389 OA
ATOM     12  H   UNL     1       5.119   3.523 -19.154  1.00  0.00     0.211 HD
ENDBRANCH   2  11
BRANCH   3  13
ATOM     13  C   UNL     1       6.850   2.410 -15.903  1.00  0.00    -0.001 A 
ATOM     14  C   UNL     1       7.868   1.759 -15.184  1.00  0.00     0.057 A 
ATOM     15  C   UNL     1       5.580   1.810 -15.975  1.00  0.00     0.012 A 
ATOM     16  C   UNL     1       7.641   0.521 -14.570  1.00  0.00     0.157 A 
ATOM     17  C   UNL     1       5.351   0.571 -15.376  1.00  0.00     0.050 A 
ATOM     18  C   UNL     1       6.371  -0.090 -14.685  1.00  0.00     0.157 A 
BRANCH  16  19
ATOM     19  O   UNL     1       8.695  -0.058 -13.862  1.00  0.00    -0.504 OA
ATOM     20  H   UNL     1       9.670   0.098 -14.074  1.00  0.00     0.293 HD
ENDBRANCH  16  19
BRANCH  18  21
ATOM     21  O   UNL     1       6.085  -1.345 -14.141  1.00  0.00    -0.504 OA
ATOM     22  H   UNL     1       5.248  -1.871 -14.343  1.00  0.00     0.293 HD
ENDBRANCH  18  21
ENDBRANCH   3  13
BRANCH   9  23
ATOM     23  O   UNL     1       9.758   2.350 -20.876  1.00  0.00    -0.507 OA
ATOM     24  H   UNL     1       9.920   2.788 -21.773  1.00  0.00     0.293 HD
ENDBRANCH   9  23
BRANCH   7  25
ATOM     25  O   UNL     1      13.133   4.032 -17.875  1.00  0.00    -0.508 OA
ATOM     26  H   UNL     1      13.483   4.974 -17.752  1.00  0.00     0.293 HD
ENDBRANCH   7  25
TORSDOF 6
ENDMDL
