MODEL 1
REMARK VINA RESULT:    -4.970      0.000      0.000
REMARK INTER + INTRA:          -9.799
REMARK INTER:                  -7.585
REMARK INTRA:                  -2.215
REMARK UNBOUND:                -2.215
REMARK SMILES CC(=O)CCC=C(C)CCC=C(C)CCC=C(C)C
REMARK SMILES IDX 10 1 11 2 12 3 13 4 14 5 15 6 16 7 18 8 17 9 19 10 9 11 7 12
REMARK SMILES IDX 6 13 8 14 5 15 4 16 2 17 3 18 1 19
REMARK H PARENT
REMARK Flexibility Score: inf
ROOT
ATOM      1  C   UNL     1      19.511  18.213   8.458  1.00  0.00     0.032 C 
ENDROOT
BRANCH   1   2
ATOM      2  C   UNL     1      19.974  19.534   7.896  1.00  0.00    -0.028 C 
ATOM      3  C   UNL     1      20.624  20.482   8.608  1.00  0.00    -0.077 C 
ATOM      4  C   UNL     1      20.911  20.318  10.083  1.00  0.00     0.039 C 
BRANCH   3   5
ATOM      5  C   UNL     1      21.045  21.762   7.916  1.00  0.00     0.034 C 
BRANCH   5   6
ATOM      6  C   UNL     1      20.857  22.986   8.821  1.00  0.00     0.032 C 
BRANCH   6   7
ATOM      7  C   UNL     1      19.542  23.674   8.538  1.00  0.00    -0.028 C 
ATOM      8  C   UNL     1      17.280  24.522   8.987  1.00  0.00     0.039 C 
ATOM      9  C   UNL     1      18.502  23.742   9.398  1.00  0.00    -0.080 C 
ATOM     10  C   UNL     1      18.530  23.065  10.748  1.00  0.00     0.039 C 
ENDBRANCH   6   7
ENDBRANCH   5   6
ENDBRANCH   3   5
ENDBRANCH   1   2
BRANCH   1  11
ATOM     11  C   UNL     1      17.988  18.083   8.357  1.00  0.00     0.034 C 
BRANCH  11  12
ATOM     12  C   UNL     1      17.302  19.092   9.252  1.00  0.00    -0.077 C 
ATOM     13  C   UNL     1      16.552  20.067   8.688  1.00  0.00    -0.028 C 
ATOM     14  C   UNL     1      17.497  18.997  10.748  1.00  0.00     0.039 C 
BRANCH  13  15
ATOM     15  C   UNL     1      15.791  21.117   9.462  1.00  0.00     0.035 C 
BRANCH  15  16
ATOM     16  C   UNL     1      14.295  21.118   9.117  1.00  0.00     0.079 C 
BRANCH  16  17
ATOM     17  C   UNL     1      13.441  20.833  10.327  1.00  0.00     0.130 C 
ATOM     18  O   UNL     1      12.369  21.403  10.462  1.00  0.00    -0.300 OA
ATOM     19  C   UNL     1      13.882  19.826  11.345  1.00  0.00     0.087 C 
ENDBRANCH  16  17
ENDBRANCH  15  16
ENDBRANCH  13  15
ENDBRANCH  11  12
ENDBRANCH   1  11
TORSDOF 9
ENDMDL
MODEL 2
REMARK VINA RESULT:    -4.797      2.405      4.987
REMARK INTER + INTRA:          -9.536
REMARK INTER:                  -7.092
REMARK INTRA:                  -2.444
REMARK UNBOUND:                -2.215
REMARK SMILES CC(=O)CCC=C(C)CCC=C(C)CCC=C(C)C
REMARK SMILES IDX 10 1 11 2 12 3 13 4 14 5 15 6 16 7 18 8 17 9 19 10 9 11 7 12
REMARK SMILES IDX 6 13 8 14 5 15 4 16 2 17 3 18 1 19
REMARK H PARENT
REMARK Flexibility Score: inf
ROOT
ATOM      1  C   UNL     1      20.667  18.361   8.219  1.00  0.00     0.032 C 
ENDROOT
BRANCH   1   2
ATOM      2  C   UNL     1      20.171  17.432   9.299  1.00  0.00    -0.028 C 
ATOM      3  C   UNL     1      20.463  17.562  10.613  1.00  0.00    -0.077 C 
ATOM      4  C   UNL     1      21.376  18.653  11.125  1.00  0.00     0.039 C 
BRANCH   3   5
ATOM      5  C   UNL     1      19.889  16.564  11.596  1.00  0.00     0.034 C 
BRANCH   5   6
ATOM      6  C   UNL     1      18.356  16.615  11.628  1.00  0.00     0.032 C 
BRANCH   6   7
ATOM      7  C   UNL     1      17.868  17.952  12.135  1.00  0.00    -0.028 C 
ATOM      8  C   UNL     1      16.606  20.060  12.128  1.00  0.00     0.039 C 
ATOM      9  C   UNL     1      17.054  18.788  11.454  1.00  0.00    -0.080 C 
ATOM     10  C   UNL     1      16.584  18.487  10.052  1.00  0.00     0.039 C 
ENDBRANCH   6   7
ENDBRANCH   5   6
ENDBRANCH   3   5
ENDBRANCH   1   2
BRANCH   1  11
ATOM     11  C   UNL     1      19.562  19.330   7.785  1.00  0.00     0.034 C 
BRANCH  11  12
ATOM     12  C   UNL     1      19.741  20.680   8.444  1.00  0.00    -0.077 C 
ATOM     13  C   UNL     1      18.762  21.153   9.249  1.00  0.00    -0.028 C 
ATOM     14  C   UNL     1      20.997  21.472   8.163  1.00  0.00     0.039 C 
BRANCH  13  15
ATOM     15  C   UNL     1      18.823  22.466   9.992  1.00  0.00     0.035 C 
BRANCH  15  16
ATOM     16  C   UNL     1      17.624  23.369   9.671  1.00  0.00     0.079 C 
BRANCH  16  17
ATOM     17  C   UNL     1      18.027  24.564   8.845  1.00  0.00     0.130 C 
ATOM     18  O   UNL     1      17.183  25.379   8.503  1.00  0.00    -0.300 OA
ATOM     19  C   UNL     1      19.462  24.778   8.473  1.00  0.00     0.087 C 
ENDBRANCH  16  17
ENDBRANCH  15  16
ENDBRANCH  13  15
ENDBRANCH  11  12
ENDBRANCH   1  11
TORSDOF 9
ENDMDL
MODEL 3
REMARK VINA RESULT:    -4.770      2.423      6.091
REMARK INTER + INTRA:          -9.494
REMARK INTER:                  -8.051
REMARK INTRA:                  -1.443
REMARK UNBOUND:                -2.215
REMARK SMILES CC(=O)CCC=C(C)CCC=C(C)CCC=C(C)C
REMARK SMILES IDX 10 1 11 2 12 3 13 4 14 5 15 6 16 7 18 8 17 9 19 10 9 11 7 12
REMARK SMILES IDX 6 13 8 14 5 15 4 16 2 17 3 18 1 19
REMARK H PARENT
REMARK Flexibility Score: inf
ROOT
ATOM      1  C   UNL     1      18.002  23.257  10.068  1.00  0.00     0.032 C 
ENDROOT
BRANCH   1   2
ATOM      2  C   UNL     1      16.925  22.437   9.403  1.00  0.00    -0.028 C 
ATOM      3  C   UNL     1      16.454  21.262   9.880  1.00  0.00    -0.077 C 
ATOM      4  C   UNL     1      17.012  20.627  11.132  1.00  0.00     0.039 C 
BRANCH   3   5
ATOM      5  C   UNL     1      15.360  20.545   9.117  1.00  0.00     0.034 C 
BRANCH   5   6
ATOM      6  C   UNL     1      13.972  20.849   9.693  1.00  0.00     0.032 C 
BRANCH   6   7
ATOM      7  C   UNL     1      12.891  20.603   8.666  1.00  0.00    -0.028 C 
ATOM      8  C   UNL     1      11.364  21.113   6.810  1.00  0.00     0.039 C 
ATOM      9  C   UNL     1      12.400  21.536   7.821  1.00  0.00    -0.080 C 
ATOM     10  C   UNL     1      12.856  22.974   7.857  1.00  0.00     0.039 C 
ENDBRANCH   6   7
ENDBRANCH   5   6
ENDBRANCH   3   5
ENDBRANCH   1   2
BRANCH   1  11
ATOM     11  C   UNL     1      18.867  23.971   9.024  1.00  0.00     0.034 C 
BRANCH  11  12
ATOM     12  C   UNL     1      20.006  23.083   8.572  1.00  0.00    -0.077 C 
ATOM     13  C   UNL     1      20.192  21.891   9.185  1.00  0.00    -0.028 C 
ATOM     14  C   UNL     1      20.919  23.566   7.469  1.00  0.00     0.039 C 
BRANCH  13  15
ATOM     15  C   UNL     1      21.267  20.897   8.815  1.00  0.00     0.035 C 
BRANCH  15  16
ATOM     16  C   UNL     1      20.754  19.825   7.843  1.00  0.00     0.079 C 
BRANCH  16  17
ATOM     17  C   UNL     1      19.672  18.979   8.462  1.00  0.00     0.130 C 
ATOM     18  O   UNL     1      19.877  18.409   9.524  1.00  0.00    -0.300 OA
ATOM     19  C   UNL     1      18.331  18.860   7.802  1.00  0.00     0.087 C 
ENDBRANCH  16  17
ENDBRANCH  15  16
ENDBRANCH  13  15
ENDBRANCH  11  12
ENDBRANCH   1  11
TORSDOF 9
ENDMDL
MODEL 4
REMARK VINA RESULT:    -4.758      3.626      5.439
REMARK INTER + INTRA:          -9.475
REMARK INTER:                  -7.822
REMARK INTRA:                  -1.654
REMARK UNBOUND:                -2.215
REMARK SMILES CC(=O)CCC=C(C)CCC=C(C)CCC=C(C)C
REMARK SMILES IDX 10 1 11 2 12 3 13 4 14 5 15 6 16 7 18 8 17 9 19 10 9 11 7 12
REMARK SMILES IDX 6 13 8 14 5 15 4 16 2 17 3 18 1 19
REMARK H PARENT
REMARK Flexibility Score: inf
ROOT
ATOM      1  C   UNL     1      19.821  19.781   7.872  1.00  0.00     0.032 C 
ENDROOT
BRANCH   1   2
ATOM      2  C   UNL     1      19.202  20.849   8.739  1.00  0.00    -0.028 C 
ATOM      3  C   UNL     1      17.952  20.788   9.253  1.00  0.00    -0.077 C 
ATOM      4  C   UNL     1      17.022  19.633   8.959  1.00  0.00     0.039 C 
BRANCH   3   5
ATOM      5  C   UNL     1      17.457  21.927  10.119  1.00  0.00     0.034 C 
BRANCH   5   6
ATOM      6  C   UNL     1      18.490  23.057  10.216  1.00  0.00     0.032 C 
BRANCH   6   7
ATOM      7  C   UNL     1      18.017  24.291   9.484  1.00  0.00    -0.028 C 
ATOM      8  C   UNL     1      18.061  26.103   7.826  1.00  0.00     0.039 C 
ATOM      9  C   UNL     1      18.701  24.917   8.501  1.00  0.00    -0.080 C 
ATOM     10  C   UNL     1      20.073  24.466   8.063  1.00  0.00     0.039 C 
ENDBRANCH   6   7
ENDBRANCH   5   6
ENDBRANCH   3   5
ENDBRANCH   1   2
BRANCH   1  11
ATOM     11  C   UNL     1      20.991  19.105   8.594  1.00  0.00     0.034 C 
BRANCH  11  12
ATOM     12  C   UNL     1      20.497  17.998   9.499  1.00  0.00    -0.077 C 
ATOM     13  C   UNL     1      19.650  17.069   8.999  1.00  0.00    -0.028 C 
ATOM     14  C   UNL     1      20.943  17.980  10.944  1.00  0.00     0.039 C 
BRANCH  13  15
ATOM     15  C   UNL     1      19.106  15.897   9.781  1.00  0.00     0.035 C 
BRANCH  15  16
ATOM     16  C   UNL     1      19.826  14.587   9.435  1.00  0.00     0.079 C 
BRANCH  16  17
ATOM     17  C   UNL     1      20.705  14.115  10.565  1.00  0.00     0.130 C 
ATOM     18  O   UNL     1      21.643  13.365  10.334  1.00  0.00    -0.300 OA
ATOM     19  C   UNL     1      20.460  14.589  11.965  1.00  0.00     0.087 C 
ENDBRANCH  16  17
ENDBRANCH  15  16
ENDBRANCH  13  15
ENDBRANCH  11  12
ENDBRANCH   1  11
TORSDOF 9
ENDMDL
MODEL 5
REMARK VINA RESULT:    -4.667      2.371      5.375
REMARK INTER + INTRA:          -9.338
REMARK INTER:                  -7.057
REMARK INTRA:                  -2.281
REMARK UNBOUND:                -2.215
REMARK SMILES CC(=O)CCC=C(C)CCC=C(C)CCC=C(C)C
REMARK SMILES IDX 10 1 11 2 12 3 13 4 14 5 15 6 16 7 18 8 17 9 19 10 9 11 7 12
REMARK SMILES IDX 6 13 8 14 5 15 4 16 2 17 3 18 1 19
REMARK H PARENT
REMARK Flexibility Score: inf
ROOT
ATOM      1  C   UNL     1      17.997  17.680   8.510  1.00  0.00     0.032 C 
ENDROOT
BRANCH   1   2
ATOM      2  C   UNL     1      17.082  17.905   9.688  1.00  0.00    -0.028 C 
ATOM      3  C   UNL     1      17.501  18.043  10.966  1.00  0.00    -0.077 C 
ATOM      4  C   UNL     1      18.960  17.933  11.345  1.00  0.00     0.039 C 
BRANCH   3   5
ATOM      5  C   UNL     1      16.475  18.276  12.055  1.00  0.00     0.034 C 
BRANCH   5   6
ATOM      6  C   UNL     1      15.801  19.647  11.916  1.00  0.00     0.032 C 
BRANCH   6   7
ATOM      7  C   UNL     1      16.829  20.746  11.771  1.00  0.00    -0.028 C 
ATOM      8  C   UNL     1      17.959  22.678  10.759  1.00  0.00     0.039 C 
ATOM      9  C   UNL     1      16.912  21.593  10.722  1.00  0.00    -0.080 C 
ATOM     10  C   UNL     1      15.996  21.487   9.527  1.00  0.00     0.039 C 
ENDBRANCH   6   7
ENDBRANCH   5   6
ENDBRANCH   3   5
ENDBRANCH   1   2
BRANCH   1  11
ATOM     11  C   UNL     1      18.297  19.001   7.793  1.00  0.00     0.034 C 
BRANCH  11  12
ATOM     12  C   UNL     1      19.705  19.467   8.094  1.00  0.00    -0.077 C 
ATOM     13  C   UNL     1      19.927  20.783   8.318  1.00  0.00    -0.028 C 
ATOM     14  C   UNL     1      20.825  18.453   8.107  1.00  0.00     0.039 C 
BRANCH  13  15
ATOM     15  C   UNL     1      21.272  21.378   8.658  1.00  0.00     0.035 C 
BRANCH  15  16
ATOM     16  C   UNL     1      21.173  22.868   9.012  1.00  0.00     0.079 C 
BRANCH  16  17
ATOM     17  C   UNL     1      20.680  23.690   7.847  1.00  0.00     0.130 C 
ATOM     18  O   UNL     1      19.590  24.237   7.907  1.00  0.00    -0.300 OA
ATOM     19  C   UNL     1      21.537  23.870   6.631  1.00  0.00     0.087 C 
ENDBRANCH  16  17
ENDBRANCH  15  16
ENDBRANCH  13  15
ENDBRANCH  11  12
ENDBRANCH   1  11
TORSDOF 9
ENDMDL
MODEL 6
REMARK VINA RESULT:    -4.666      2.716      5.699
REMARK INTER + INTRA:          -9.335
REMARK INTER:                  -7.577
REMARK INTRA:                  -1.758
REMARK UNBOUND:                -2.215
REMARK SMILES CC(=O)CCC=C(C)CCC=C(C)CCC=C(C)C
REMARK SMILES IDX 10 1 11 2 12 3 13 4 14 5 15 6 16 7 18 8 17 9 19 10 9 11 7 12
REMARK SMILES IDX 6 13 8 14 5 15 4 16 2 17 3 18 1 19
REMARK H PARENT
REMARK Flexibility Score: inf
ROOT
ATOM      1  C   UNL     1      19.098  21.985   9.809  1.00  0.00     0.032 C 
ENDROOT
BRANCH   1   2
ATOM      2  C   UNL     1      17.834  21.446   9.188  1.00  0.00    -0.028 C 
ATOM      3  C   UNL     1      16.941  20.660   9.832  1.00  0.00    -0.077 C 
ATOM      4  C   UNL     1      17.160  20.202  11.256  1.00  0.00     0.039 C 
BRANCH   3   5
ATOM      5  C   UNL     1      15.703  20.196   9.094  1.00  0.00     0.034 C 
BRANCH   5   6
ATOM      6  C   UNL     1      14.489  21.079   9.408  1.00  0.00     0.032 C 
BRANCH   6   7
ATOM      7  C   UNL     1      13.340  20.777   8.474  1.00  0.00    -0.028 C 
ATOM      8  C   UNL     1      11.540  21.237   6.867  1.00  0.00     0.039 C 
ATOM      9  C   UNL     1      12.616  21.706   7.813  1.00  0.00    -0.080 C 
ATOM     10  C   UNL     1      12.851  23.186   7.992  1.00  0.00     0.039 C 
ENDBRANCH   6   7
ENDBRANCH   5   6
ENDBRANCH   3   5
ENDBRANCH   1   2
BRANCH   1  11
ATOM     11  C   UNL     1      20.317  21.643   8.945  1.00  0.00     0.034 C 
BRANCH  11  12
ATOM     12  C   UNL     1      20.622  20.163   9.009  1.00  0.00    -0.077 C 
ATOM     13  C   UNL     1      20.689  19.557  10.217  1.00  0.00    -0.028 C 
ATOM     14  C   UNL     1      20.870  19.410   7.722  1.00  0.00     0.039 C 
BRANCH  13  15
ATOM     15  C   UNL     1      20.953  18.085  10.423  1.00  0.00     0.035 C 
BRANCH  15  16
ATOM     16  C   UNL     1      19.682  17.318  10.816  1.00  0.00     0.079 C 
BRANCH  16  17
ATOM     17  C   UNL     1      18.945  16.798   9.608  1.00  0.00     0.130 C 
ATOM     18  O   UNL     1      19.563  16.246   8.710  1.00  0.00    -0.300 OA
ATOM     19  C   UNL     1      17.454  16.920   9.519  1.00  0.00     0.087 C 
ENDBRANCH  16  17
ENDBRANCH  15  16
ENDBRANCH  13  15
ENDBRANCH  11  12
ENDBRANCH   1  11
TORSDOF 9
ENDMDL
MODEL 7
REMARK VINA RESULT:    -4.659      2.795      4.979
REMARK INTER + INTRA:          -9.325
REMARK INTER:                  -7.278
REMARK INTRA:                  -2.047
REMARK UNBOUND:                -2.215
REMARK SMILES CC(=O)CCC=C(C)CCC=C(C)CCC=C(C)C
REMARK SMILES IDX 10 1 11 2 12 3 13 4 14 5 15 6 16 7 18 8 17 9 19 10 9 11 7 12
REMARK SMILES IDX 6 13 8 14 5 15 4 16 2 17 3 18 1 19
REMARK H PARENT
REMARK Flexibility Score: inf
ROOT
ATOM      1  C   UNL     1      16.561  21.609  10.235  1.00  0.00     0.032 C 
ENDROOT
BRANCH   1   2
ATOM      2  C   UNL     1      17.508  22.298   9.285  1.00  0.00    -0.028 C 
ATOM      3  C   UNL     1      18.520  23.110   9.668  1.00  0.00    -0.077 C 
ATOM      4  C   UNL     1      18.769  23.446  11.120  1.00  0.00     0.039 C 
BRANCH   3   5
ATOM      5  C   UNL     1      19.406  23.730   8.608  1.00  0.00     0.034 C 
BRANCH   5   6
ATOM      6  C   UNL     1      20.837  23.183   8.673  1.00  0.00     0.032 C 
BRANCH   6   7
ATOM      7  C   UNL     1      20.946  21.858   7.954  1.00  0.00    -0.028 C 
ATOM      8  C   UNL     1      21.050  19.417   7.697  1.00  0.00     0.039 C 
ATOM      9  C   UNL     1      21.006  20.651   8.560  1.00  0.00    -0.080 C 
ATOM     10  C   UNL     1      21.029  20.506  10.063  1.00  0.00     0.039 C 
ENDBRANCH   6   7
ENDBRANCH   5   6
ENDBRANCH   3   5
ENDBRANCH   1   2
BRANCH   1  11
ATOM     11  C   UNL     1      16.022  20.312   9.623  1.00  0.00     0.034 C 
BRANCH  11  12
ATOM     12  C   UNL     1      17.133  19.302   9.440  1.00  0.00    -0.077 C 
ATOM     13  C   UNL     1      17.691  18.734  10.534  1.00  0.00    -0.028 C 
ATOM     14  C   UNL     1      17.606  18.978   8.041  1.00  0.00     0.039 C 
BRANCH  13  15
ATOM     15  C   UNL     1      18.783  17.692  10.495  1.00  0.00     0.035 C 
BRANCH  15  16
ATOM     16  C   UNL     1      18.464  16.486  11.390  1.00  0.00     0.079 C 
BRANCH  16  17
ATOM     17  C   UNL     1      19.715  15.857  11.949  1.00  0.00     0.130 C 
ATOM     18  O   UNL     1      19.943  15.918  13.148  1.00  0.00    -0.300 OA
ATOM     19  C   UNL     1      20.662  15.123  11.048  1.00  0.00     0.087 C 
ENDBRANCH  16  17
ENDBRANCH  15  16
ENDBRANCH  13  15
ENDBRANCH  11  12
ENDBRANCH   1  11
TORSDOF 9
ENDMDL
MODEL 8
REMARK VINA RESULT:    -4.647      3.010      4.965
REMARK INTER + INTRA:          -9.307
REMARK INTER:                  -7.223
REMARK INTRA:                  -2.083
REMARK UNBOUND:                -2.215
REMARK SMILES CC(=O)CCC=C(C)CCC=C(C)CCC=C(C)C
REMARK SMILES IDX 10 1 11 2 12 3 13 4 14 5 15 6 16 7 18 8 17 9 19 10 9 11 7 12
REMARK SMILES IDX 6 13 8 14 5 15 4 16 2 17 3 18 1 19
REMARK H PARENT
REMARK Flexibility Score: inf
ROOT
ATOM      1  C   UNL     1      18.068  18.702   8.282  1.00  0.00     0.032 C 
ENDROOT
BRANCH   1   2
ATOM      2  C   UNL     1      17.496  20.074   8.539  1.00  0.00    -0.028 C 
ATOM      3  C   UNL     1      17.183  20.555   9.763  1.00  0.00    -0.077 C 
ATOM      4  C   UNL     1      17.339  19.721  11.014  1.00  0.00     0.039 C 
BRANCH   3   5
ATOM      5  C   UNL     1      16.624  21.957   9.881  1.00  0.00     0.034 C 
BRANCH   5   6
ATOM      6  C   UNL     1      17.586  23.002   9.302  1.00  0.00     0.032 C 
BRANCH   6   7
ATOM      7  C   UNL     1      18.703  23.310  10.272  1.00  0.00    -0.028 C 
ATOM      8  C   UNL     1      21.009  23.462  11.106  1.00  0.00     0.039 C 
ATOM      9  C   UNL     1      20.009  23.033  10.063  1.00  0.00    -0.080 C 
ATOM     10  C   UNL     1      20.490  22.313   8.826  1.00  0.00     0.039 C 
ENDBRANCH   6   7
ENDBRANCH   5   6
ENDBRANCH   3   5
ENDBRANCH   1   2
BRANCH   1  11
ATOM     11  C   UNL     1      19.599  18.751   8.232  1.00  0.00     0.034 C 
BRANCH  11  12
ATOM     12  C   UNL     1      20.199  18.068   9.441  1.00  0.00    -0.077 C 
ATOM     13  C   UNL     1      20.001  16.740   9.611  1.00  0.00    -0.028 C 
ATOM     14  C   UNL     1      20.977  18.894  10.438  1.00  0.00     0.039 C 
BRANCH  13  15
ATOM     15  C   UNL     1      20.566  15.929  10.752  1.00  0.00     0.035 C 
BRANCH  15  16
ATOM     16  C   UNL     1      19.475  15.161  11.512  1.00  0.00     0.079 C 
BRANCH  16  17
ATOM     17  C   UNL     1      19.207  15.763  12.868  1.00  0.00     0.130 C 
ATOM     18  O   UNL     1      19.035  16.968  12.975  1.00  0.00    -0.300 OA
ATOM     19  C   UNL     1      19.114  14.888  14.081  1.00  0.00     0.087 C 
ENDBRANCH  16  17
ENDBRANCH  15  16
ENDBRANCH  13  15
ENDBRANCH  11  12
ENDBRANCH   1  11
TORSDOF 9
ENDMDL
MODEL 9
REMARK VINA RESULT:    -4.602      2.124      4.008
REMARK INTER + INTRA:          -9.237
REMARK INTER:                  -7.063
REMARK INTRA:                  -2.175
REMARK UNBOUND:                -2.215
REMARK SMILES CC(=O)CCC=C(C)CCC=C(C)CCC=C(C)C
REMARK SMILES IDX 10 1 11 2 12 3 13 4 14 5 15 6 16 7 18 8 17 9 19 10 9 11 7 12
REMARK SMILES IDX 6 13 8 14 5 15 4 16 2 17 3 18 1 19
REMARK H PARENT
REMARK Flexibility Score: inf
ROOT
ATOM      1  C   UNL     1      21.273  20.855   8.647  1.00  0.00     0.032 C 
ENDROOT
BRANCH   1   2
ATOM      2  C   UNL     1      20.257  21.950   8.439  1.00  0.00    -0.028 C 
ATOM      3  C   UNL     1      20.092  23.007   9.267  1.00  0.00    -0.077 C 
ATOM      4  C   UNL     1      20.903  23.165  10.532  1.00  0.00     0.039 C 
BRANCH   3   5
ATOM      5  C   UNL     1      19.040  24.044   8.934  1.00  0.00     0.034 C 
BRANCH   5   6
ATOM      6  C   UNL     1      17.805  23.909   9.834  1.00  0.00     0.032 C 
BRANCH   6   7
ATOM      7  C   UNL     1      16.871  22.838   9.319  1.00  0.00    -0.028 C 
ATOM      8  C   UNL     1      15.633  20.717   9.313  1.00  0.00     0.039 C 
ATOM      9  C   UNL     1      16.644  21.652   9.924  1.00  0.00    -0.080 C 
ATOM     10  C   UNL     1      17.367  21.241  11.185  1.00  0.00     0.039 C 
ENDBRANCH   6   7
ENDBRANCH   5   6
ENDBRANCH   3   5
ENDBRANCH   1   2
BRANCH   1  11
ATOM     11  C   UNL     1      20.944  19.636   7.779  1.00  0.00     0.034 C 
BRANCH  11  12
ATOM     12  C   UNL     1      19.903  18.765   8.447  1.00  0.00    -0.077 C 
ATOM     13  C   UNL     1      20.253  18.038   9.533  1.00  0.00    -0.028 C 
ATOM     14  C   UNL     1      18.509  18.712   7.864  1.00  0.00     0.039 C 
BRANCH  13  15
ATOM     15  C   UNL     1      19.310  17.154  10.312  1.00  0.00     0.035 C 
BRANCH  15  16
ATOM     16  C   UNL     1      19.227  17.558  11.791  1.00  0.00     0.079 C 
BRANCH  16  17
ATOM     17  C   UNL     1      17.800  17.689  12.258  1.00  0.00     0.130 C 
ATOM     18  O   UNL     1      17.564  17.934  13.432  1.00  0.00    -0.300 OA
ATOM     19  C   UNL     1      16.669  17.558  11.283  1.00  0.00     0.087 C 
ENDBRANCH  16  17
ENDBRANCH  15  16
ENDBRANCH  13  15
ENDBRANCH  11  12
ENDBRANCH   1  11
TORSDOF 9
ENDMDL
