MODEL 1
REMARK VINA RESULT:    -5.399      0.000      0.000
REMARK INTER + INTRA:         -10.437
REMARK INTER:                  -8.554
REMARK INTRA:                  -1.882
REMARK UNBOUND:                -1.882
REMARK SMILES C[C@@H]1O[C@H](O[C@@H]2[C@@H](Oc3cc(O)c4c(c3)O[C@H](c3ccc(O)cc3)CC4=O)O[C@@H](CO)[C@@H](O)[C@H]2O)[C@@H](O)[C@H](O)[C@@H]1O
REMARK SMILES IDX 6 1 34 2 32 3 29 4 28 5 7 6 5 7 4 8 1 9 2 10 40 11 3 12
REMARK SMILES IDX 38 13 36 14 41 15 39 17 37 19 35 21 8 23 9 24 10 25 15 26
REMARK SMILES IDX 11 27 14 28 13 29 16 30 26 31 17 32 27 33 25 34 12 35 18 37
REMARK SMILES IDX 19 38 24 39 20 40 23 41 21 42 22 43 33 45 30 47 31 48
REMARK H PARENT 41 16 39 18 37 20 35 22 12 36 22 44 33 46 31 49
REMARK Flexibility Score: inf
ROOT
ATOM      1  C   UNL     1     -10.687 -26.442 -39.721  1.00  0.00     0.221 C 
ATOM      2  C   UNL     1      -9.364 -25.907 -40.282  1.00  0.00     0.181 C 
ATOM      3  C   UNL     1      -8.507 -27.068 -40.819  1.00  0.00     0.177 C 
ATOM      4  C   UNL     1      -9.313 -28.080 -41.690  1.00  0.00     0.179 C 
ATOM      5  O   UNL     1     -10.584 -28.436 -41.154  1.00  0.00    -0.332 OA
ATOM      6  C   UNL     1     -11.388 -27.332 -40.768  1.00  0.00     0.339 C 
ENDROOT
BRANCH   1   7
ATOM      7  O   UNL     1     -10.407 -27.218 -38.562  1.00  0.00    -0.337 OA
BRANCH   7   8
ATOM      8  C   UNL     1     -11.564 -27.807 -37.985  1.00  0.00     0.282 C 
ATOM      9  C   UNL     1      -8.965 -28.897 -36.553  1.00  0.00     0.041 C 
ATOM     10  C   UNL     1     -10.467 -29.060 -36.257  1.00  0.00     0.150 C 
ATOM     11  C   UNL     1     -11.027 -28.145 -35.137  1.00  0.00     0.174 C 
ATOM     12  O   UNL     1     -11.267 -29.085 -37.436  1.00  0.00    -0.344 OA
ATOM     13  C   UNL     1     -11.448 -26.752 -35.634  1.00  0.00     0.179 C 
ATOM     14  C   UNL     1     -12.214 -26.837 -36.969  1.00  0.00     0.202 C 
BRANCH  11  15
ATOM     15  O   UNL     1     -10.107 -28.038 -34.080  1.00  0.00    -0.388 OA
ATOM     16  H   UNL     1     -10.019 -27.072 -33.870  1.00  0.00     0.211 HD
ENDBRANCH  11  15
BRANCH  13  17
ATOM     17  O   UNL     1     -10.366 -25.853 -35.689  1.00  0.00    -0.387 OA
ATOM     18  H   UNL     1     -10.035 -25.699 -34.771  1.00  0.00     0.211 HD
ENDBRANCH  13  17
BRANCH  14  19
ATOM     19  O   UNL     1     -13.558 -27.191 -36.739  1.00  0.00    -0.385 OA
ATOM     20  H   UNL     1     -13.609 -28.182 -36.693  1.00  0.00     0.211 HD
ENDBRANCH  14  19
ENDBRANCH   7   8
ENDBRANCH   1   7
BRANCH   2  21
ATOM     21  O   UNL     1      -9.620 -24.949 -41.278  1.00  0.00    -0.387 OA
ATOM     22  H   UNL     1     -10.417 -25.256 -41.782  1.00  0.00     0.211 HD
ENDBRANCH   2  21
BRANCH   6  23
ATOM     23  O   UNL     1     -11.805 -26.587 -41.915  1.00  0.00    -0.462 OA
BRANCH  23  24
ATOM     24  C   UNL     1     -12.902 -25.710 -41.976  1.00  0.00     0.130 A 
ATOM     25  C   UNL     1     -13.890 -25.790 -42.974  1.00  0.00     0.093 A 
ATOM     26  C   UNL     1     -13.007 -24.725 -40.993  1.00  0.00     0.094 A 
ATOM     27  C   UNL     1     -14.982 -24.913 -42.978  1.00  0.00     0.133 A 
ATOM     28  C   UNL     1     -14.069 -23.821 -40.998  1.00  0.00     0.138 A 
ATOM     29  C   UNL     1     -15.063 -23.891 -41.996  1.00  0.00     0.102 A 
ATOM     30  O   UNL     1     -14.138 -22.850 -39.989  1.00  0.00    -0.484 OA
ATOM     31  C   UNL     1     -16.142 -22.875 -41.936  1.00  0.00     0.174 C 
ATOM     32  C   UNL     1     -15.013 -21.720 -40.063  1.00  0.00     0.211 C 
ATOM     33  O   UNL     1     -16.823 -22.568 -42.950  1.00  0.00    -0.294 OA
ATOM     34  C   UNL     1     -16.374 -22.149 -40.644  1.00  0.00     0.131 C 
BRANCH  27  35
ATOM     35  O   UNL     1     -15.966 -25.120 -43.948  1.00  0.00    -0.507 OA
ATOM     36  H   UNL     1     -15.948 -24.708 -44.870  1.00  0.00     0.293 HD
ENDBRANCH  27  35
BRANCH  32  37
ATOM     37  C   UNL     1     -15.071 -21.049 -38.702  1.00  0.00    -0.007 A 
ATOM     38  C   UNL     1     -15.908 -21.614 -37.721  1.00  0.00     0.011 A 
ATOM     39  C   UNL     1     -14.335 -19.891 -38.373  1.00  0.00     0.011 A 
ATOM     40  C   UNL     1     -16.016 -21.035 -36.452  1.00  0.00     0.046 A 
ATOM     41  C   UNL     1     -14.444 -19.317 -37.103  1.00  0.00     0.046 A 
ATOM     42  C   UNL     1     -15.284 -19.883 -36.141  1.00  0.00     0.115 A 
BRANCH  42  43
ATOM     43  O   UNL     1     -15.388 -19.295 -34.883  1.00  0.00    -0.508 OA
ATOM     44  H   UNL     1     -15.893 -19.746 -34.128  1.00  0.00     0.293 HD
ENDBRANCH  42  43
ENDBRANCH  32  37
ENDBRANCH  23  24
ENDBRANCH   6  23
BRANCH   3  45
ATOM     45  O   UNL     1      -7.398 -26.565 -41.519  1.00  0.00    -0.387 OA
ATOM     46  H   UNL     1      -6.789 -27.333 -41.680  1.00  0.00     0.211 HD
ENDBRANCH   3  45
BRANCH   4  47
ATOM     47  C   UNL     1      -9.367 -27.788 -43.208  1.00  0.00     0.191 C 
BRANCH  47  48
ATOM     48  O   UNL     1      -9.607 -26.439 -43.480  1.00  0.00    -0.394 OA
ATOM     49  H   UNL     1      -8.717 -26.007 -43.563  1.00  0.00     0.210 HD
ENDBRANCH  47  48
ENDBRANCH   4  47
TORSDOF 14
ENDMDL
MODEL 2
REMARK VINA RESULT:    -5.375      2.323      5.411
REMARK INTER + INTRA:         -10.400
REMARK INTER:                  -8.128
REMARK INTRA:                  -2.271
REMARK UNBOUND:                -1.882
REMARK SMILES C[C@@H]1O[C@H](O[C@@H]2[C@@H](Oc3cc(O)c4c(c3)O[C@H](c3ccc(O)cc3)CC4=O)O[C@@H](CO)[C@@H](O)[C@H]2O)[C@@H](O)[C@H](O)[C@@H]1O
REMARK SMILES IDX 6 1 34 2 32 3 29 4 28 5 7 6 5 7 4 8 1 9 2 10 40 11 3 12
REMARK SMILES IDX 38 13 36 14 41 15 39 17 37 19 35 21 8 23 9 24 10 25 15 26
REMARK SMILES IDX 11 27 14 28 13 29 16 30 26 31 17 32 27 33 25 34 12 35 18 37
REMARK SMILES IDX 19 38 24 39 20 40 23 41 21 42 22 43 33 45 30 47 31 48
REMARK H PARENT 41 16 39 18 37 20 35 22 12 36 22 44 33 46 31 49
REMARK Flexibility Score: inf
ROOT
ATOM      1  C   UNL     1     -13.029 -25.413 -41.208  1.00  0.00     0.221 C 
ATOM      2  C   UNL     1     -13.030 -24.084 -41.973  1.00  0.00     0.181 C 
ATOM      3  C   UNL     1     -13.585 -24.291 -43.395  1.00  0.00     0.177 C 
ATOM      4  C   UNL     1     -14.880 -25.158 -43.433  1.00  0.00     0.179 C 
ATOM      5  O   UNL     1     -14.841 -26.314 -42.602  1.00  0.00    -0.332 OA
ATOM      6  C   UNL     1     -14.425 -26.064 -41.269  1.00  0.00     0.339 C 
ENDROOT
BRANCH   1   7
ATOM      7  O   UNL     1     -12.081 -26.284 -41.815  1.00  0.00    -0.337 OA
BRANCH   7   8
ATOM      8  C   UNL     1     -11.589 -27.282 -40.932  1.00  0.00     0.282 C 
ATOM      9  C   UNL     1      -9.827 -27.190 -43.556  1.00  0.00     0.041 C 
ATOM     10  C   UNL     1      -9.677 -27.945 -42.223  1.00  0.00     0.150 C 
ATOM     11  C   UNL     1      -8.684 -27.317 -41.212  1.00  0.00     0.174 C 
ATOM     12  O   UNL     1     -10.927 -28.318 -41.650  1.00  0.00    -0.344 OA
ATOM     13  C   UNL     1      -9.314 -26.227 -40.328  1.00  0.00     0.179 C 
ATOM     14  C   UNL     1     -10.712 -26.643 -39.829  1.00  0.00     0.202 C 
BRANCH  11  15
ATOM     15  O   UNL     1      -7.548 -26.824 -41.876  1.00  0.00    -0.388 OA
ATOM     16  H   UNL     1      -7.621 -25.833 -41.877  1.00  0.00     0.211 HD
ENDBRANCH  11  15
BRANCH  13  17
ATOM     17  O   UNL     1      -9.318 -24.966 -40.955  1.00  0.00    -0.387 OA
ATOM     18  H   UNL     1      -9.846 -25.028 -41.788  1.00  0.00     0.211 HD
ENDBRANCH  13  17
BRANCH  14  19
ATOM     19  O   UNL     1     -10.597 -27.509 -38.725  1.00  0.00    -0.385 OA
ATOM     20  H   UNL     1     -10.363 -26.961 -37.930  1.00  0.00     0.211 HD
ENDBRANCH  14  19
ENDBRANCH   7   8
ENDBRANCH   1   7
BRANCH   2  21
ATOM     21  O   UNL     1     -13.773 -23.125 -41.263  1.00  0.00    -0.387 OA
ATOM     22  H   UNL     1     -13.191 -22.783 -40.535  1.00  0.00     0.211 HD
ENDBRANCH   2  21
BRANCH   6  23
ATOM     23  O   UNL     1     -15.409 -25.296 -40.570  1.00  0.00    -0.462 OA
BRANCH  23  24
ATOM     24  C   UNL     1     -15.585 -25.250 -39.177  1.00  0.00     0.130 A 
ATOM     25  C   UNL     1     -15.530 -26.394 -38.361  1.00  0.00     0.093 A 
ATOM     26  C   UNL     1     -15.818 -24.006 -38.588  1.00  0.00     0.094 A 
ATOM     27  C   UNL     1     -15.683 -26.297 -36.972  1.00  0.00     0.133 A 
ATOM     28  C   UNL     1     -16.005 -23.891 -37.211  1.00  0.00     0.138 A 
ATOM     29  C   UNL     1     -15.954 -25.034 -36.385  1.00  0.00     0.102 A 
ATOM     30  O   UNL     1     -16.232 -22.623 -36.661  1.00  0.00    -0.484 OA
ATOM     31  C   UNL     1     -16.187 -24.820 -34.935  1.00  0.00     0.174 C 
ATOM     32  C   UNL     1     -16.708 -22.434 -35.324  1.00  0.00     0.211 C 
ATOM     33  O   UNL     1     -16.574 -25.750 -34.180  1.00  0.00    -0.294 OA
ATOM     34  C   UNL     1     -16.023 -23.438 -34.378  1.00  0.00     0.131 C 
BRANCH  27  35
ATOM     35  O   UNL     1     -15.520 -27.467 -36.227  1.00  0.00    -0.507 OA
ATOM     36  H   UNL     1     -15.555 -27.505 -35.218  1.00  0.00     0.293 HD
ENDBRANCH  27  35
BRANCH  32  37
ATOM     37  C   UNL     1     -16.551 -20.972 -34.944  1.00  0.00    -0.007 A 
ATOM     38  C   UNL     1     -15.788 -20.146 -35.791  1.00  0.00     0.011 A 
ATOM     39  C   UNL     1     -17.125 -20.402 -33.787  1.00  0.00     0.011 A 
ATOM     40  C   UNL     1     -15.594 -18.794 -35.490  1.00  0.00     0.046 A 
ATOM     41  C   UNL     1     -16.931 -19.050 -33.491  1.00  0.00     0.046 A 
ATOM     42  C   UNL     1     -16.164 -18.243 -34.337  1.00  0.00     0.115 A 
BRANCH  42  43
ATOM     43  O   UNL     1     -15.974 -16.900 -34.023  1.00  0.00    -0.508 OA
ATOM     44  H   UNL     1     -15.456 -16.281 -34.638  1.00  0.00     0.293 HD
ENDBRANCH  42  43
ENDBRANCH  32  37
ENDBRANCH  23  24
ENDBRANCH   6  23
BRANCH   3  45
ATOM     45  O   UNL     1     -13.784 -23.049 -44.019  1.00  0.00    -0.387 OA
ATOM     46  H   UNL     1     -14.468 -22.567 -43.483  1.00  0.00     0.211 HD
ENDBRANCH   3  45
BRANCH   4  47
ATOM     47  C   UNL     1     -16.221 -24.392 -43.325  1.00  0.00     0.191 C 
BRANCH  47  48
ATOM     48  O   UNL     1     -16.110 -23.236 -42.549  1.00  0.00    -0.394 OA
ATOM     49  H   UNL     1     -15.478 -22.638 -43.026  1.00  0.00     0.210 HD
ENDBRANCH  47  48
ENDBRANCH   4  47
TORSDOF 14
ENDMDL
MODEL 3
REMARK VINA RESULT:    -4.753      1.129      1.762
REMARK INTER + INTRA:          -9.414
REMARK INTER:                  -7.354
REMARK INTRA:                  -2.060
REMARK UNBOUND:                -1.882
REMARK SMILES C[C@@H]1O[C@H](O[C@@H]2[C@@H](Oc3cc(O)c4c(c3)O[C@H](c3ccc(O)cc3)CC4=O)O[C@@H](CO)[C@@H](O)[C@H]2O)[C@@H](O)[C@H](O)[C@@H]1O
REMARK SMILES IDX 6 1 34 2 32 3 29 4 28 5 7 6 5 7 4 8 1 9 2 10 40 11 3 12
REMARK SMILES IDX 38 13 36 14 41 15 39 17 37 19 35 21 8 23 9 24 10 25 15 26
REMARK SMILES IDX 11 27 14 28 13 29 16 30 26 31 17 32 27 33 25 34 12 35 18 37
REMARK SMILES IDX 19 38 24 39 20 40 23 41 21 42 22 43 33 45 30 47 31 48
REMARK H PARENT 41 16 39 18 37 20 35 22 12 36 22 44 33 46 31 49
REMARK Flexibility Score: inf
ROOT
ATOM      1  C   UNL     1     -10.145 -26.686 -40.477  1.00  0.00     0.221 C 
ATOM      2  C   UNL     1      -9.046 -26.980 -41.504  1.00  0.00     0.181 C 
ATOM      3  C   UNL     1      -9.000 -28.488 -41.813  1.00  0.00     0.177 C 
ATOM      4  C   UNL     1     -10.408 -29.114 -42.050  1.00  0.00     0.179 C 
ATOM      5  O   UNL     1     -11.402 -28.697 -41.119  1.00  0.00    -0.332 OA
ATOM      6  C   UNL     1     -11.485 -27.292 -40.941  1.00  0.00     0.339 C 
ENDROOT
BRANCH   1   7
ATOM      7  O   UNL     1      -9.774 -27.272 -39.234  1.00  0.00    -0.337 OA
BRANCH   7   8
ATOM      8  C   UNL     1      -9.796 -26.355 -38.150  1.00  0.00     0.282 C 
ATOM      9  C   UNL     1     -11.978 -28.600 -37.714  1.00  0.00     0.041 C 
ATOM     10  C   UNL     1     -11.456 -27.463 -36.818  1.00  0.00     0.150 C 
ATOM     11  C   UNL     1     -10.420 -27.884 -35.745  1.00  0.00     0.174 C 
ATOM     12  O   UNL     1     -11.086 -26.300 -37.553  1.00  0.00    -0.344 OA
ATOM     13  C   UNL     1      -8.973 -27.910 -36.264  1.00  0.00     0.179 C 
ATOM     14  C   UNL     1      -8.666 -26.682 -37.143  1.00  0.00     0.202 C 
BRANCH  11  15
ATOM     15  O   UNL     1     -10.768 -29.124 -35.181  1.00  0.00    -0.388 OA
ATOM     16  H   UNL     1     -11.465 -28.945 -34.496  1.00  0.00     0.211 HD
ENDBRANCH  11  15
BRANCH  13  17
ATOM     17  O   UNL     1      -8.655 -29.125 -36.904  1.00  0.00    -0.387 OA
ATOM     18  H   UNL     1      -7.682 -29.147 -37.075  1.00  0.00     0.211 HD
ENDBRANCH  13  17
BRANCH  14  19
ATOM     19  O   UNL     1      -8.384 -25.563 -36.336  1.00  0.00    -0.385 OA
ATOM     20  H   UNL     1      -9.156 -25.426 -35.725  1.00  0.00     0.211 HD
ENDBRANCH  14  19
ENDBRANCH   7   8
ENDBRANCH   1   7
BRANCH   2  21
ATOM     21  O   UNL     1      -9.263 -26.221 -42.667  1.00  0.00    -0.387 OA
ATOM     22  H   UNL     1     -10.233 -26.268 -42.872  1.00  0.00     0.211 HD
ENDBRANCH   2  21
BRANCH   6  23
ATOM     23  O   UNL     1     -11.979 -26.662 -42.126  1.00  0.00    -0.462 OA
BRANCH  23  24
ATOM     24  C   UNL     1     -13.040 -25.742 -42.192  1.00  0.00     0.130 A 
ATOM     25  C   UNL     1     -14.010 -25.766 -43.209  1.00  0.00     0.093 A 
ATOM     26  C   UNL     1     -13.125 -24.770 -41.193  1.00  0.00     0.094 A 
ATOM     27  C   UNL     1     -15.068 -24.847 -43.218  1.00  0.00     0.133 A 
ATOM     28  C   UNL     1     -14.152 -23.826 -41.202  1.00  0.00     0.138 A 
ATOM     29  C   UNL     1     -15.128 -23.841 -42.220  1.00  0.00     0.102 A 
ATOM     30  O   UNL     1     -14.202 -22.870 -40.178  1.00  0.00    -0.484 OA
ATOM     31  C   UNL     1     -16.168 -22.784 -42.162  1.00  0.00     0.174 C 
ATOM     32  C   UNL     1     -15.031 -21.706 -40.248  1.00  0.00     0.211 C 
ATOM     33  O   UNL     1     -16.817 -22.433 -43.182  1.00  0.00    -0.294 OA
ATOM     34  C   UNL     1     -16.396 -22.072 -40.862  1.00  0.00     0.131 C 
BRANCH  27  35
ATOM     35  O   UNL     1     -16.040 -25.000 -44.209  1.00  0.00    -0.507 OA
ATOM     36  H   UNL     1     -16.181 -25.848 -44.739  1.00  0.00     0.293 HD
ENDBRANCH  27  35
BRANCH  32  37
ATOM     37  C   UNL     1     -15.090 -21.057 -38.877  1.00  0.00    -0.007 A 
ATOM     38  C   UNL     1     -15.764 -21.741 -37.848  1.00  0.00     0.011 A 
ATOM     39  C   UNL     1     -14.508 -19.804 -38.583  1.00  0.00     0.011 A 
ATOM     40  C   UNL     1     -15.864 -21.190 -36.566  1.00  0.00     0.046 A 
ATOM     41  C   UNL     1     -14.609 -19.258 -37.300  1.00  0.00     0.046 A 
ATOM     42  C   UNL     1     -15.287 -19.945 -36.290  1.00  0.00     0.115 A 
BRANCH  42  43
ATOM     43  O   UNL     1     -15.385 -19.384 -35.020  1.00  0.00    -0.508 OA
ATOM     44  H   UNL     1     -15.100 -18.427 -34.840  1.00  0.00     0.293 HD
ENDBRANCH  42  43
ENDBRANCH  32  37
ENDBRANCH  23  24
ENDBRANCH   6  23
BRANCH   3  45
ATOM     45  O   UNL     1      -8.145 -28.730 -42.901  1.00  0.00    -0.387 OA
ATOM     46  H   UNL     1      -8.386 -29.626 -43.260  1.00  0.00     0.211 HD
ENDBRANCH   3  45
BRANCH   4  47
ATOM     47  C   UNL     1     -10.921 -29.117 -43.509  1.00  0.00     0.191 C 
BRANCH  47  48
ATOM     48  O   UNL     1     -10.426 -28.039 -44.247  1.00  0.00    -0.394 OA
ATOM     49  H   UNL     1     -10.581 -27.228 -43.697  1.00  0.00     0.210 HD
ENDBRANCH  47  48
ENDBRANCH   4  47
TORSDOF 14
ENDMDL
MODEL 4
REMARK VINA RESULT:    -4.212      2.692      7.073
REMARK INTER + INTRA:          -8.557
REMARK INTER:                  -6.823
REMARK INTRA:                  -1.734
REMARK UNBOUND:                -1.882
REMARK SMILES C[C@@H]1O[C@H](O[C@@H]2[C@@H](Oc3cc(O)c4c(c3)O[C@H](c3ccc(O)cc3)CC4=O)O[C@@H](CO)[C@@H](O)[C@H]2O)[C@@H](O)[C@H](O)[C@@H]1O
REMARK SMILES IDX 6 1 34 2 32 3 29 4 28 5 7 6 5 7 4 8 1 9 2 10 40 11 3 12
REMARK SMILES IDX 38 13 36 14 41 15 39 17 37 19 35 21 8 23 9 24 10 25 15 26
REMARK SMILES IDX 11 27 14 28 13 29 16 30 26 31 17 32 27 33 25 34 12 35 18 37
REMARK SMILES IDX 19 38 24 39 20 40 23 41 21 42 22 43 33 45 30 47 31 48
REMARK H PARENT 41 16 39 18 37 20 35 22 12 36 22 44 33 46 31 49
REMARK Flexibility Score: inf
ROOT
ATOM      1  C   UNL     1     -12.427 -26.507 -42.040  1.00  0.00     0.221 C 
ATOM      2  C   UNL     1     -12.504 -27.879 -42.719  1.00  0.00     0.181 C 
ATOM      3  C   UNL     1     -11.816 -27.828 -44.096  1.00  0.00     0.177 C 
ATOM      4  C   UNL     1     -10.437 -27.102 -44.071  1.00  0.00     0.179 C 
ATOM      5  O   UNL     1     -10.422 -25.892 -43.320  1.00  0.00    -0.332 OA
ATOM      6  C   UNL     1     -10.969 -26.005 -42.015  1.00  0.00     0.339 C 
ENDROOT
BRANCH   1   7
ATOM      7  O   UNL     1     -13.223 -25.589 -42.779  1.00  0.00    -0.337 OA
BRANCH   7   8
ATOM      8  C   UNL     1     -14.616 -25.852 -42.690  1.00  0.00     0.282 C 
ATOM      9  C   UNL     1     -13.801 -23.610 -40.615  1.00  0.00     0.041 C 
ATOM     10  C   UNL     1     -15.162 -24.176 -41.061  1.00  0.00     0.150 C 
ATOM     11  C   UNL     1     -15.933 -23.317 -42.095  1.00  0.00     0.174 C 
ATOM     12  O   UNL     1     -15.108 -25.562 -41.387  1.00  0.00    -0.344 OA
ATOM     13  C   UNL     1     -15.529 -23.599 -43.552  1.00  0.00     0.179 C 
ATOM     14  C   UNL     1     -15.379 -25.111 -43.814  1.00  0.00     0.202 C 
BRANCH  11  15
ATOM     15  O   UNL     1     -15.800 -21.949 -41.799  1.00  0.00    -0.388 OA
ATOM     16  H   UNL     1     -16.666 -21.651 -41.415  1.00  0.00     0.211 HD
ENDBRANCH  11  15
BRANCH  13  17
ATOM     17  O   UNL     1     -14.389 -22.868 -43.943  1.00  0.00    -0.387 OA
ATOM     18  H   UNL     1     -13.630 -23.136 -43.370  1.00  0.00     0.211 HD
ENDBRANCH  13  17
BRANCH  14  19
ATOM     19  O   UNL     1     -16.643 -25.696 -44.023  1.00  0.00    -0.385 OA
ATOM     20  H   UNL     1     -16.499 -26.627 -44.338  1.00  0.00     0.211 HD
ENDBRANCH  14  19
ENDBRANCH   7   8
ENDBRANCH   1   7
BRANCH   2  21
ATOM     21  O   UNL     1     -11.928 -28.856 -41.889  1.00  0.00    -0.387 OA
ATOM     22  H   UNL     1     -11.314 -29.395 -42.452  1.00  0.00     0.211 HD
ENDBRANCH   2  21
BRANCH   6  23
ATOM     23  O   UNL     1     -10.133 -26.819 -41.187  1.00  0.00    -0.462 OA
BRANCH  23  24
ATOM     24  C   UNL     1      -9.934 -26.659 -39.806  1.00  0.00     0.130 A 
ATOM     25  C   UNL     1      -8.686 -26.331 -39.246  1.00  0.00     0.093 A 
ATOM     26  C   UNL     1     -11.033 -26.832 -38.962  1.00  0.00     0.094 A 
ATOM     27  C   UNL     1      -8.540 -26.153 -37.864  1.00  0.00     0.133 A 
ATOM     28  C   UNL     1     -10.902 -26.691 -37.581  1.00  0.00     0.138 A 
ATOM     29  C   UNL     1      -9.654 -26.364 -37.010  1.00  0.00     0.102 A 
ATOM     30  O   UNL     1     -12.032 -26.868 -36.771  1.00  0.00    -0.484 OA
ATOM     31  C   UNL     1      -9.604 -26.258 -35.531  1.00  0.00     0.174 C 
ATOM     32  C   UNL     1     -11.949 -27.022 -35.351  1.00  0.00     0.211 C 
ATOM     33  O   UNL     1      -8.527 -26.387 -34.892  1.00  0.00    -0.294 OA
ATOM     34  C   UNL     1     -10.888 -26.062 -34.782  1.00  0.00     0.131 C 
BRANCH  27  35
ATOM     35  O   UNL     1      -7.291 -25.736 -37.400  1.00  0.00    -0.507 OA
ATOM     36  H   UNL     1      -6.475 -25.633 -37.986  1.00  0.00     0.293 HD
ENDBRANCH  27  35
BRANCH  32  37
ATOM     37  C   UNL     1     -13.339 -26.881 -34.755  1.00  0.00    -0.007 A 
ATOM     38  C   UNL     1     -13.587 -25.785 -33.908  1.00  0.00     0.011 A 
ATOM     39  C   UNL     1     -14.389 -27.792 -35.004  1.00  0.00     0.011 A 
ATOM     40  C   UNL     1     -14.843 -25.606 -33.318  1.00  0.00     0.046 A 
ATOM     41  C   UNL     1     -15.643 -27.608 -34.413  1.00  0.00     0.046 A 
ATOM     42  C   UNL     1     -15.873 -26.519 -33.568  1.00  0.00     0.115 A 
BRANCH  42  43
ATOM     43  O   UNL     1     -17.125 -26.355 -32.981  1.00  0.00    -0.508 OA
ATOM     44  H   UNL     1     -17.830 -25.755 -33.397  1.00  0.00     0.293 HD
ENDBRANCH  42  43
ENDBRANCH  32  37
ENDBRANCH  23  24
ENDBRANCH   6  23
BRANCH   3  45
ATOM     45  O   UNL     1     -11.700 -29.125 -44.623  1.00  0.00    -0.387 OA
ATOM     46  H   UNL     1     -12.086 -29.744 -43.948  1.00  0.00     0.211 HD
ENDBRANCH   3  45
BRANCH   4  47
ATOM     47  C   UNL     1      -9.199 -27.990 -43.799  1.00  0.00     0.191 C 
BRANCH  47  48
ATOM     48  O   UNL     1      -8.163 -27.280 -43.187  1.00  0.00    -0.394 OA
ATOM     49  H   UNL     1      -8.512 -26.974 -42.310  1.00  0.00     0.210 HD
ENDBRANCH  47  48
ENDBRANCH   4  47
TORSDOF 14
ENDMDL
MODEL 5
REMARK VINA RESULT:    -4.201      3.596      6.927
REMARK INTER + INTRA:          -8.539
REMARK INTER:                  -6.677
REMARK INTRA:                  -1.863
REMARK UNBOUND:                -1.882
REMARK SMILES C[C@@H]1O[C@H](O[C@@H]2[C@@H](Oc3cc(O)c4c(c3)O[C@H](c3ccc(O)cc3)CC4=O)O[C@@H](CO)[C@@H](O)[C@H]2O)[C@@H](O)[C@H](O)[C@@H]1O
REMARK SMILES IDX 6 1 34 2 32 3 29 4 28 5 7 6 5 7 4 8 1 9 2 10 40 11 3 12
REMARK SMILES IDX 38 13 36 14 41 15 39 17 37 19 35 21 8 23 9 24 10 25 15 26
REMARK SMILES IDX 11 27 14 28 13 29 16 30 26 31 17 32 27 33 25 34 12 35 18 37
REMARK SMILES IDX 19 38 24 39 20 40 23 41 21 42 22 43 33 45 30 47 31 48
REMARK H PARENT 41 16 39 18 37 20 35 22 12 36 22 44 33 46 31 49
REMARK Flexibility Score: inf
ROOT
ATOM      1  C   UNL     1     -13.674 -26.036 -43.145  1.00  0.00     0.221 C 
ATOM      2  C   UNL     1     -13.546 -24.688 -43.864  1.00  0.00     0.181 C 
ATOM      3  C   UNL     1     -14.921 -24.234 -44.387  1.00  0.00     0.177 C 
ATOM      4  C   UNL     1     -16.066 -24.398 -43.342  1.00  0.00     0.179 C 
ATOM      5  O   UNL     1     -16.043 -25.634 -42.633  1.00  0.00    -0.332 OA
ATOM      6  C   UNL     1     -14.782 -25.966 -42.075  1.00  0.00     0.339 C 
ENDROOT
BRANCH   1   7
ATOM      7  O   UNL     1     -14.013 -27.031 -44.103  1.00  0.00    -0.337 OA
BRANCH   7   8
ATOM      8  C   UNL     1     -13.079 -28.099 -44.161  1.00  0.00     0.282 C 
ATOM      9  C   UNL     1     -14.719 -27.946 -46.860  1.00  0.00     0.041 C 
ATOM     10  C   UNL     1     -13.501 -28.781 -46.424  1.00  0.00     0.150 C 
ATOM     11  C   UNL     1     -12.127 -28.259 -46.915  1.00  0.00     0.174 C 
ATOM     12  O   UNL     1     -13.528 -29.123 -45.041  1.00  0.00    -0.344 OA
ATOM     13  C   UNL     1     -11.510 -27.191 -45.996  1.00  0.00     0.179 C 
ATOM     14  C   UNL     1     -11.669 -27.566 -44.509  1.00  0.00     0.202 C 
BRANCH  11  15
ATOM     15  O   UNL     1     -12.221 -27.785 -48.235  1.00  0.00    -0.388 OA
ATOM     16  H   UNL     1     -11.423 -28.123 -48.721  1.00  0.00     0.211 HD
ENDBRANCH  11  15
BRANCH  13  17
ATOM     17  O   UNL     1     -11.991 -25.897 -46.281  1.00  0.00    -0.387 OA
ATOM     18  H   UNL     1     -11.333 -25.236 -45.953  1.00  0.00     0.211 HD
ENDBRANCH  13  17
BRANCH  14  19
ATOM     19  O   UNL     1     -10.681 -28.497 -44.133  1.00  0.00    -0.385 OA
ATOM     20  H   UNL     1     -10.694 -29.239 -44.794  1.00  0.00     0.211 HD
ENDBRANCH  14  19
ENDBRANCH   7   8
ENDBRANCH   1   7
BRANCH   2  21
ATOM     21  O   UNL     1     -12.983 -23.735 -42.997  1.00  0.00    -0.387 OA
ATOM     22  H   UNL     1     -12.200 -23.342 -43.462  1.00  0.00     0.211 HD
ENDBRANCH   2  21
BRANCH   6  23
ATOM     23  O   UNL     1     -14.449 -25.068 -41.012  1.00  0.00    -0.462 OA
BRANCH  23  24
ATOM     24  C   UNL     1     -14.947 -25.122 -39.699  1.00  0.00     0.130 A 
ATOM     25  C   UNL     1     -15.168 -26.330 -39.014  1.00  0.00     0.093 A 
ATOM     26  C   UNL     1     -15.225 -23.915 -39.056  1.00  0.00     0.094 A 
ATOM     27  C   UNL     1     -15.638 -26.334 -37.694  1.00  0.00     0.133 A 
ATOM     28  C   UNL     1     -15.724 -23.898 -37.753  1.00  0.00     0.138 A 
ATOM     29  C   UNL     1     -15.951 -25.104 -37.059  1.00  0.00     0.102 A 
ATOM     30  O   UNL     1     -15.985 -22.663 -37.143  1.00  0.00    -0.484 OA
ATOM     31  C   UNL     1     -16.505 -24.991 -35.688  1.00  0.00     0.174 C 
ATOM     32  C   UNL     1     -16.749 -22.542 -35.940  1.00  0.00     0.211 C 
ATOM     33  O   UNL     1     -17.125 -25.940 -35.140  1.00  0.00    -0.294 OA
ATOM     34  C   UNL     1     -16.380 -23.680 -34.969  1.00  0.00     0.131 C 
BRANCH  27  35
ATOM     35  O   UNL     1     -15.740 -27.572 -37.055  1.00  0.00    -0.507 OA
ATOM     36  H   UNL     1     -15.493 -27.732 -36.089  1.00  0.00     0.293 HD
ENDBRANCH  27  35
BRANCH  32  37
ATOM     37  C   UNL     1     -16.583 -21.138 -35.387  1.00  0.00    -0.007 A 
ATOM     38  C   UNL     1     -15.846 -20.210 -36.146  1.00  0.00     0.011 A 
ATOM     39  C   UNL     1     -17.125 -20.718 -34.152  1.00  0.00     0.011 A 
ATOM     40  C   UNL     1     -15.646 -18.905 -35.685  1.00  0.00     0.046 A 
ATOM     41  C   UNL     1     -16.924 -19.412 -33.696  1.00  0.00     0.046 A 
ATOM     42  C   UNL     1     -16.184 -18.503 -34.457  1.00  0.00     0.115 A 
BRANCH  42  43
ATOM     43  O   UNL     1     -15.987 -17.208 -33.986  1.00  0.00    -0.508 OA
ATOM     44  H   UNL     1     -15.448 -17.027 -33.145  1.00  0.00     0.293 HD
ENDBRANCH  42  43
ENDBRANCH  32  37
ENDBRANCH  23  24
ENDBRANCH   6  23
BRANCH   3  45
ATOM     45  O   UNL     1     -14.845 -22.912 -44.855  1.00  0.00    -0.387 OA
ATOM     46  H   UNL     1     -14.510 -22.360 -44.100  1.00  0.00     0.211 HD
ENDBRANCH   3  45
BRANCH   4  47
ATOM     47  C   UNL     1     -16.331 -23.186 -42.419  1.00  0.00     0.191 C 
BRANCH  47  48
ATOM     48  O   UNL     1     -15.187 -22.408 -42.223  1.00  0.00    -0.394 OA
ATOM     49  H   UNL     1     -15.060 -22.339 -41.241  1.00  0.00     0.210 HD
ENDBRANCH  47  48
ENDBRANCH   4  47
TORSDOF 14
ENDMDL
MODEL 6
REMARK VINA RESULT:    -4.041      4.089      9.327
REMARK INTER + INTRA:          -8.285
REMARK INTER:                  -6.733
REMARK INTRA:                  -1.553
REMARK UNBOUND:                -1.882
REMARK SMILES C[C@@H]1O[C@H](O[C@@H]2[C@@H](Oc3cc(O)c4c(c3)O[C@H](c3ccc(O)cc3)CC4=O)O[C@@H](CO)[C@@H](O)[C@H]2O)[C@@H](O)[C@H](O)[C@@H]1O
REMARK SMILES IDX 6 1 34 2 32 3 29 4 28 5 7 6 5 7 4 8 1 9 2 10 40 11 3 12
REMARK SMILES IDX 38 13 36 14 41 15 39 17 37 19 35 21 8 23 9 24 10 25 15 26
REMARK SMILES IDX 11 27 14 28 13 29 16 30 26 31 17 32 27 33 25 34 12 35 18 37
REMARK SMILES IDX 19 38 24 39 20 40 23 41 21 42 22 43 33 45 30 47 31 48
REMARK H PARENT 41 16 39 18 37 20 35 22 12 36 22 44 33 46 31 49
REMARK Flexibility Score: inf
ROOT
ATOM      1  C   UNL     1     -14.342 -27.031 -45.517  1.00  0.00     0.221 C 
ATOM      2  C   UNL     1     -15.028 -25.824 -44.866  1.00  0.00     0.181 C 
ATOM      3  C   UNL     1     -16.536 -26.095 -44.706  1.00  0.00     0.177 C 
ATOM      4  C   UNL     1     -16.852 -27.511 -44.136  1.00  0.00     0.179 C 
ATOM      5  O   UNL     1     -16.086 -28.563 -44.713  1.00  0.00    -0.332 OA
ATOM      6  C   UNL     1     -14.688 -28.321 -44.747  1.00  0.00     0.339 C 
ENDROOT
BRANCH   1   7
ATOM      7  O   UNL     1     -14.806 -27.148 -46.857  1.00  0.00    -0.337 OA
BRANCH   7   8
ATOM      8  C   UNL     1     -14.679 -25.948 -47.605  1.00  0.00     0.282 C 
ATOM      9  C   UNL     1     -13.062 -28.275 -49.007  1.00  0.00     0.041 C 
ATOM     10  C   UNL     1     -13.403 -26.836 -49.434  1.00  0.00     0.150 C 
ATOM     11  C   UNL     1     -14.588 -26.698 -50.423  1.00  0.00     0.174 C 
ATOM     12  O   UNL     1     -13.458 -25.929 -48.336  1.00  0.00    -0.344 OA
ATOM     13  C   UNL     1     -15.961 -26.638 -49.734  1.00  0.00     0.179 C 
ATOM     14  C   UNL     1     -15.929 -25.727 -48.490  1.00  0.00     0.202 C 
BRANCH  11  15
ATOM     15  O   UNL     1     -14.556 -27.729 -51.379  1.00  0.00    -0.388 OA
ATOM     16  H   UNL     1     -13.713 -28.233 -51.233  1.00  0.00     0.211 HD
ENDBRANCH  11  15
BRANCH  13  17
ATOM     17  O   UNL     1     -16.476 -27.919 -49.452  1.00  0.00    -0.387 OA
ATOM     18  H   UNL     1     -16.716 -27.959 -48.494  1.00  0.00     0.211 HD
ENDBRANCH  13  17
BRANCH  14  19
ATOM     19  O   UNL     1     -16.032 -24.376 -48.873  1.00  0.00    -0.385 OA
ATOM     20  H   UNL     1     -16.883 -24.019 -48.504  1.00  0.00     0.211 HD
ENDBRANCH  14  19
ENDBRANCH   7   8
ENDBRANCH   1   7
BRANCH   2  21
ATOM     21  O   UNL     1     -14.420 -25.537 -43.632  1.00  0.00    -0.387 OA
ATOM     22  H   UNL     1     -14.459 -26.365 -43.086  1.00  0.00     0.211 HD
ENDBRANCH   2  21
BRANCH   6  23
ATOM     23  O   UNL     1     -14.145 -28.320 -43.424  1.00  0.00    -0.462 OA
BRANCH  23  24
ATOM     24  C   UNL     1     -12.806 -28.070 -43.081  1.00  0.00     0.130 A 
ATOM     25  C   UNL     1     -11.766 -28.046 -44.027  1.00  0.00     0.093 A 
ATOM     26  C   UNL     1     -12.509 -27.831 -41.738  1.00  0.00     0.094 A 
ATOM     27  C   UNL     1     -10.449 -27.763 -43.643  1.00  0.00     0.133 A 
ATOM     28  C   UNL     1     -11.199 -27.579 -41.330  1.00  0.00     0.138 A 
ATOM     29  C   UNL     1     -10.149 -27.555 -42.272  1.00  0.00     0.102 A 
ATOM     30  O   UNL     1     -10.946 -27.339 -39.973  1.00  0.00    -0.484 OA
ATOM     31  C   UNL     1      -8.785 -27.303 -41.744  1.00  0.00     0.174 C 
ATOM     32  C   UNL     1      -9.626 -27.351 -39.419  1.00  0.00     0.211 C 
ATOM     33  O   UNL     1      -7.753 -27.657 -42.373  1.00  0.00    -0.294 OA
ATOM     34  C   UNL     1      -8.644 -26.671 -40.392  1.00  0.00     0.131 C 
BRANCH  27  35
ATOM     35  O   UNL     1      -9.493 -27.665 -44.657  1.00  0.00    -0.507 OA
ATOM     36  H   UNL     1      -9.691 -27.340 -45.592  1.00  0.00     0.293 HD
ENDBRANCH  27  35
BRANCH  32  37
ATOM     37  C   UNL     1      -9.670 -26.759 -38.021  1.00  0.00    -0.007 A 
ATOM     38  C   UNL     1      -8.552 -26.029 -37.576  1.00  0.00     0.011 A 
ATOM     39  C   UNL     1     -10.770 -26.907 -37.147  1.00  0.00     0.011 A 
ATOM     40  C   UNL     1      -8.526 -25.469 -36.295  1.00  0.00     0.046 A 
ATOM     41  C   UNL     1     -10.740 -26.344 -35.868  1.00  0.00     0.046 A 
ATOM     42  C   UNL     1      -9.620 -25.628 -35.436  1.00  0.00     0.115 A 
BRANCH  42  43
ATOM     43  O   UNL     1      -9.602 -25.081 -34.156  1.00  0.00    -0.508 OA
ATOM     44  H   UNL     1      -8.947 -25.402 -33.452  1.00  0.00     0.293 HD
ENDBRANCH  42  43
ENDBRANCH  32  37
ENDBRANCH  23  24
ENDBRANCH   6  23
BRANCH   3  45
ATOM     45  O   UNL     1     -17.125 -25.088 -43.924  1.00  0.00    -0.387 OA
ATOM     46  H   UNL     1     -18.107 -25.231 -43.966  1.00  0.00     0.211 HD
ENDBRANCH   3  45
BRANCH   4  47
ATOM     47  C   UNL     1     -16.955 -27.623 -42.596  1.00  0.00     0.191 C 
BRANCH  47  48
ATOM     48  O   UNL     1     -16.150 -26.687 -41.942  1.00  0.00    -0.394 OA
ATOM     49  H   UNL     1     -15.470 -27.206 -41.438  1.00  0.00     0.210 HD
ENDBRANCH  47  48
ENDBRANCH   4  47
TORSDOF 14
ENDMDL
MODEL 7
REMARK VINA RESULT:    -3.994      2.556      9.360
REMARK INTER + INTRA:          -8.212
REMARK INTER:                  -6.041
REMARK INTRA:                  -2.171
REMARK UNBOUND:                -1.882
REMARK SMILES C[C@@H]1O[C@H](O[C@@H]2[C@@H](Oc3cc(O)c4c(c3)O[C@H](c3ccc(O)cc3)CC4=O)O[C@@H](CO)[C@@H](O)[C@H]2O)[C@@H](O)[C@H](O)[C@@H]1O
REMARK SMILES IDX 6 1 34 2 32 3 29 4 28 5 7 6 5 7 4 8 1 9 2 10 40 11 3 12
REMARK SMILES IDX 38 13 36 14 41 15 39 17 37 19 35 21 8 23 9 24 10 25 15 26
REMARK SMILES IDX 11 27 14 28 13 29 16 30 26 31 17 32 27 33 25 34 12 35 18 37
REMARK SMILES IDX 19 38 24 39 20 40 23 41 21 42 22 43 33 45 30 47 31 48
REMARK H PARENT 41 16 39 18 37 20 35 22 12 36 22 44 33 46 31 49
REMARK Flexibility Score: inf
ROOT
ATOM      1  C   UNL     1     -14.906 -24.879 -42.487  1.00  0.00     0.221 C 
ATOM      2  C   UNL     1     -15.002 -23.373 -42.217  1.00  0.00     0.181 C 
ATOM      3  C   UNL     1     -16.453 -22.988 -41.873  1.00  0.00     0.177 C 
ATOM      4  C   UNL     1     -17.125 -23.958 -40.854  1.00  0.00     0.179 C 
ATOM      5  O   UNL     1     -16.888 -25.338 -41.111  1.00  0.00    -0.332 OA
ATOM      6  C   UNL     1     -15.524 -25.671 -41.318  1.00  0.00     0.339 C 
ENDROOT
BRANCH   1   7
ATOM      7  O   UNL     1     -15.623 -25.172 -43.681  1.00  0.00    -0.337 OA
BRANCH   7   8
ATOM      8  C   UNL     1     -15.560 -26.542 -44.053  1.00  0.00     0.282 C 
ATOM      9  C   UNL     1     -15.961 -24.738 -46.619  1.00  0.00     0.041 C 
ATOM     10  C   UNL     1     -15.678 -26.240 -46.431  1.00  0.00     0.150 C 
ATOM     11  C   UNL     1     -14.202 -26.669 -46.633  1.00  0.00     0.174 C 
ATOM     12  O   UNL     1     -16.281 -26.777 -45.257  1.00  0.00    -0.344 OA
ATOM     13  C   UNL     1     -13.341 -26.522 -45.368  1.00  0.00     0.179 C 
ATOM     14  C   UNL     1     -14.089 -27.018 -44.114  1.00  0.00     0.202 C 
BRANCH  11  15
ATOM     15  O   UNL     1     -13.627 -25.972 -47.709  1.00  0.00    -0.388 OA
ATOM     16  H   UNL     1     -13.984 -25.045 -47.677  1.00  0.00     0.211 HD
ENDBRANCH  11  15
BRANCH  13  17
ATOM     17  O   UNL     1     -12.835 -25.216 -45.212  1.00  0.00    -0.387 OA
ATOM     18  H   UNL     1     -12.300 -24.987 -46.011  1.00  0.00     0.211 HD
ENDBRANCH  13  17
BRANCH  14  19
ATOM     19  O   UNL     1     -14.021 -28.422 -44.030  1.00  0.00    -0.385 OA
ATOM     20  H   UNL     1     -14.780 -28.797 -44.550  1.00  0.00     0.211 HD
ENDBRANCH  14  19
ENDBRANCH   7   8
ENDBRANCH   1   7
BRANCH   2  21
ATOM     21  O   UNL     1     -14.115 -23.014 -41.188  1.00  0.00    -0.387 OA
ATOM     22  H   UNL     1     -13.243 -23.443 -41.390  1.00  0.00     0.211 HD
ENDBRANCH   2  21
BRANCH   6  23
ATOM     23  O   UNL     1     -14.778 -25.515 -40.108  1.00  0.00    -0.462 OA
BRANCH  23  24
ATOM     24  C   UNL     1     -13.622 -26.230 -39.753  1.00  0.00     0.130 A 
ATOM     25  C   UNL     1     -13.449 -26.826 -38.490  1.00  0.00     0.093 A 
ATOM     26  C   UNL     1     -12.610 -26.352 -40.707  1.00  0.00     0.094 A 
ATOM     27  C   UNL     1     -12.291 -27.555 -38.190  1.00  0.00     0.133 A 
ATOM     28  C   UNL     1     -11.436 -27.047 -40.417  1.00  0.00     0.138 A 
ATOM     29  C   UNL     1     -11.252 -27.645 -39.153  1.00  0.00     0.102 A 
ATOM     30  O   UNL     1     -10.447 -27.149 -41.405  1.00  0.00    -0.484 OA
ATOM     31  C   UNL     1      -9.962 -28.342 -38.926  1.00  0.00     0.174 C 
ATOM     32  C   UNL     1      -9.114 -27.587 -41.123  1.00  0.00     0.211 C 
ATOM     33  O   UNL     1      -9.510 -28.544 -37.768  1.00  0.00    -0.294 OA
ATOM     34  C   UNL     1      -9.149 -28.753 -40.117  1.00  0.00     0.131 C 
BRANCH  27  35
ATOM     35  O   UNL     1     -12.239 -28.193 -36.949  1.00  0.00    -0.507 OA
ATOM     36  H   UNL     1     -11.712 -29.035 -36.767  1.00  0.00     0.293 HD
ENDBRANCH  27  35
BRANCH  32  37
ATOM     37  C   UNL     1      -8.401 -27.879 -42.432  1.00  0.00    -0.007 A 
ATOM     38  C   UNL     1      -9.137 -28.490 -43.464  1.00  0.00     0.011 A 
ATOM     39  C   UNL     1      -7.042 -27.573 -42.663  1.00  0.00     0.011 A 
ATOM     40  C   UNL     1      -8.534 -28.797 -44.688  1.00  0.00     0.046 A 
ATOM     41  C   UNL     1      -6.444 -27.880 -43.889  1.00  0.00     0.046 A 
ATOM     42  C   UNL     1      -7.185 -28.494 -44.903  1.00  0.00     0.115 A 
BRANCH  42  43
ATOM     43  O   UNL     1      -6.573 -28.800 -46.115  1.00  0.00    -0.508 OA
ATOM     44  H   UNL     1      -5.588 -28.613 -46.273  1.00  0.00     0.293 HD
ENDBRANCH  42  43
ENDBRANCH  32  37
ENDBRANCH  23  24
ENDBRANCH   6  23
BRANCH   3  45
ATOM     45  O   UNL     1     -16.505 -21.659 -41.422  1.00  0.00    -0.387 OA
ATOM     46  H   UNL     1     -16.773 -21.103 -42.201  1.00  0.00     0.211 HD
ENDBRANCH   3  45
BRANCH   4  47
ATOM     47  C   UNL     1     -16.971 -23.594 -39.358  1.00  0.00     0.191 C 
BRANCH  47  48
ATOM     48  O   UNL     1     -15.781 -22.911 -39.098  1.00  0.00    -0.394 OA
ATOM     49  H   UNL     1     -15.665 -22.915 -38.113  1.00  0.00     0.210 HD
ENDBRANCH  47  48
ENDBRANCH   4  47
TORSDOF 14
ENDMDL
MODEL 8
REMARK VINA RESULT:    -3.993      2.834      4.900
REMARK INTER + INTRA:          -8.210
REMARK INTER:                  -5.886
REMARK INTRA:                  -2.324
REMARK UNBOUND:                -1.882
REMARK SMILES C[C@@H]1O[C@H](O[C@@H]2[C@@H](Oc3cc(O)c4c(c3)O[C@H](c3ccc(O)cc3)CC4=O)O[C@@H](CO)[C@@H](O)[C@H]2O)[C@@H](O)[C@H](O)[C@@H]1O
REMARK SMILES IDX 6 1 34 2 32 3 29 4 28 5 7 6 5 7 4 8 1 9 2 10 40 11 3 12
REMARK SMILES IDX 38 13 36 14 41 15 39 17 37 19 35 21 8 23 9 24 10 25 15 26
REMARK SMILES IDX 11 27 14 28 13 29 16 30 26 31 17 32 27 33 25 34 12 35 18 37
REMARK SMILES IDX 19 38 24 39 20 40 23 41 21 42 22 43 33 45 30 47 31 48
REMARK H PARENT 41 16 39 18 37 20 35 22 12 36 22 44 33 46 31 49
REMARK Flexibility Score: inf
ROOT
ATOM      1  C   UNL     1     -12.184 -26.253 -43.074  1.00  0.00     0.221 C 
ATOM      2  C   UNL     1     -11.816 -25.506 -44.361  1.00  0.00     0.181 C 
ATOM      3  C   UNL     1     -11.851 -26.469 -45.561  1.00  0.00     0.177 C 
ATOM      4  C   UNL     1     -13.112 -27.385 -45.583  1.00  0.00     0.179 C 
ATOM      5  O   UNL     1     -13.453 -27.947 -44.320  1.00  0.00    -0.332 OA
ATOM      6  C   UNL     1     -13.515 -27.009 -43.257  1.00  0.00     0.339 C 
ENDROOT
BRANCH   1   7
ATOM      7  O   UNL     1     -11.152 -27.189 -42.782  1.00  0.00    -0.337 OA
BRANCH   7   8
ATOM      8  C   UNL     1     -11.054 -27.508 -41.402  1.00  0.00     0.282 C 
ATOM      9  C   UNL     1      -8.192 -27.606 -42.743  1.00  0.00     0.041 C 
ATOM     10  C   UNL     1      -8.665 -27.708 -41.281  1.00  0.00     0.150 C 
ATOM     11  C   UNL     1      -8.525 -26.410 -40.445  1.00  0.00     0.174 C 
ATOM     12  O   UNL     1      -9.933 -28.346 -41.150  1.00  0.00    -0.344 OA
ATOM     13  C   UNL     1      -9.722 -25.455 -40.587  1.00  0.00     0.179 C 
ATOM     14  C   UNL     1     -11.061 -26.217 -40.547  1.00  0.00     0.202 C 
BRANCH  11  15
ATOM     15  O   UNL     1      -7.323 -25.750 -40.753  1.00  0.00    -0.388 OA
ATOM     16  H   UNL     1      -7.264 -25.705 -41.744  1.00  0.00     0.211 HD
ENDBRANCH  11  15
BRANCH  13  17
ATOM     17  O   UNL     1      -9.609 -24.620 -41.716  1.00  0.00    -0.387 OA
ATOM     18  H   UNL     1     -10.098 -25.036 -42.467  1.00  0.00     0.211 HD
ENDBRANCH  13  17
BRANCH  14  19
ATOM     19  O   UNL     1     -11.417 -26.508 -39.216  1.00  0.00    -0.385 OA
ATOM     20  H   UNL     1     -10.917 -27.319 -38.936  1.00  0.00     0.211 HD
ENDBRANCH  14  19
ENDBRANCH   7   8
ENDBRANCH   1   7
BRANCH   2  21
ATOM     21  O   UNL     1     -12.686 -24.417 -44.546  1.00  0.00    -0.387 OA
ATOM     22  H   UNL     1     -13.068 -24.500 -45.459  1.00  0.00     0.211 HD
ENDBRANCH   2  21
BRANCH   6  23
ATOM     23  O   UNL     1     -14.620 -26.118 -43.435  1.00  0.00    -0.462 OA
BRANCH  23  24
ATOM     24  C   UNL     1     -15.164 -25.272 -42.455  1.00  0.00     0.130 A 
ATOM     25  C   UNL     1     -15.838 -24.077 -42.765  1.00  0.00     0.093 A 
ATOM     26  C   UNL     1     -15.029 -25.648 -41.118  1.00  0.00     0.094 A 
ATOM     27  C   UNL     1     -16.391 -23.278 -41.756  1.00  0.00     0.133 A 
ATOM     28  C   UNL     1     -15.544 -24.851 -40.095  1.00  0.00     0.138 A 
ATOM     29  C   UNL     1     -16.219 -23.649 -40.397  1.00  0.00     0.102 A 
ATOM     30  O   UNL     1     -15.389 -25.268 -38.767  1.00  0.00    -0.484 OA
ATOM     31  C   UNL     1     -16.712 -22.854 -39.245  1.00  0.00     0.174 C 
ATOM     32  C   UNL     1     -15.626 -24.403 -37.652  1.00  0.00     0.211 C 
ATOM     33  O   UNL     1     -16.943 -21.620 -39.340  1.00  0.00    -0.294 OA
ATOM     34  C   UNL     1     -16.870 -23.535 -37.918  1.00  0.00     0.131 C 
BRANCH  27  35
ATOM     35  O   UNL     1     -17.125 -22.159 -42.154  1.00  0.00    -0.507 OA
ATOM     36  H   UNL     1     -17.562 -22.061 -43.059  1.00  0.00     0.293 HD
ENDBRANCH  27  35
BRANCH  32  37
ATOM     37  C   UNL     1     -15.673 -25.233 -36.382  1.00  0.00    -0.007 A 
ATOM     38  C   UNL     1     -15.684 -26.635 -36.507  1.00  0.00     0.011 A 
ATOM     39  C   UNL     1     -15.711 -24.672 -35.086  1.00  0.00     0.011 A 
ATOM     40  C   UNL     1     -15.740 -27.455 -35.375  1.00  0.00     0.046 A 
ATOM     41  C   UNL     1     -15.765 -25.496 -33.957  1.00  0.00     0.046 A 
ATOM     42  C   UNL     1     -15.783 -26.886 -34.097  1.00  0.00     0.115 A 
BRANCH  42  43
ATOM     43  O   UNL     1     -15.845 -27.692 -32.964  1.00  0.00    -0.508 OA
ATOM     44  H   UNL     1     -16.722 -28.087 -32.642  1.00  0.00     0.293 HD
ENDBRANCH  42  43
ENDBRANCH  32  37
ENDBRANCH  23  24
ENDBRANCH   6  23
BRANCH   3  45
ATOM     45  O   UNL     1     -11.724 -25.749 -46.761  1.00  0.00    -0.387 OA
ATOM     46  H   UNL     1     -10.817 -25.343 -46.755  1.00  0.00     0.211 HD
ENDBRANCH   3  45
BRANCH   4  47
ATOM     47  C   UNL     1     -14.343 -26.840 -46.345  1.00  0.00     0.191 C 
BRANCH  47  48
ATOM     48  O   UNL     1     -14.470 -25.454 -46.224  1.00  0.00    -0.394 OA
ATOM     49  H   UNL     1     -15.066 -25.294 -45.447  1.00  0.00     0.210 HD
ENDBRANCH  47  48
ENDBRANCH   4  47
TORSDOF 14
ENDMDL
MODEL 9
REMARK VINA RESULT:    -3.803      4.384      8.533
REMARK INTER + INTRA:          -7.908
REMARK INTER:                  -6.058
REMARK INTRA:                  -1.850
REMARK UNBOUND:                -1.882
REMARK SMILES C[C@@H]1O[C@H](O[C@@H]2[C@@H](Oc3cc(O)c4c(c3)O[C@H](c3ccc(O)cc3)CC4=O)O[C@@H](CO)[C@@H](O)[C@H]2O)[C@@H](O)[C@H](O)[C@@H]1O
REMARK SMILES IDX 6 1 34 2 32 3 29 4 28 5 7 6 5 7 4 8 1 9 2 10 40 11 3 12
REMARK SMILES IDX 38 13 36 14 41 15 39 17 37 19 35 21 8 23 9 24 10 25 15 26
REMARK SMILES IDX 11 27 14 28 13 29 16 30 26 31 17 32 27 33 25 34 12 35 18 37
REMARK SMILES IDX 19 38 24 39 20 40 23 41 21 42 22 43 33 45 30 47 31 48
REMARK H PARENT 41 16 39 18 37 20 35 22 12 36 22 44 33 46 31 49
REMARK Flexibility Score: inf
ROOT
ATOM      1  C   UNL     1     -14.536 -27.398 -46.679  1.00  0.00     0.221 C 
ATOM      2  C   UNL     1     -13.148 -27.938 -47.041  1.00  0.00     0.181 C 
ATOM      3  C   UNL     1     -12.145 -26.777 -47.169  1.00  0.00     0.177 C 
ATOM      4  C   UNL     1     -12.246 -25.741 -46.009  1.00  0.00     0.179 C 
ATOM      5  O   UNL     1     -13.577 -25.381 -45.655  1.00  0.00    -0.332 OA
ATOM      6  C   UNL     1     -14.446 -26.482 -45.441  1.00  0.00     0.339 C 
ENDROOT
BRANCH   1   7
ATOM      7  O   UNL     1     -15.032 -26.646 -47.781  1.00  0.00    -0.337 OA
BRANCH   7   8
ATOM      8  C   UNL     1     -15.940 -27.373 -48.596  1.00  0.00     0.282 C 
ATOM      9  C   UNL     1     -16.389 -24.267 -48.978  1.00  0.00     0.041 C 
ATOM     10  C   UNL     1     -16.960 -25.502 -49.699  1.00  0.00     0.150 C 
ATOM     11  C   UNL     1     -16.297 -25.846 -51.056  1.00  0.00     0.174 C 
ATOM     12  O   UNL     1     -17.125 -26.623 -48.835  1.00  0.00    -0.344 OA
ATOM     13  C   UNL     1     -15.037 -26.718 -50.922  1.00  0.00     0.179 C 
ATOM     14  C   UNL     1     -15.241 -27.848 -49.892  1.00  0.00     0.202 C 
BRANCH  11  15
ATOM     15  O   UNL     1     -16.014 -24.674 -51.780  1.00  0.00    -0.388 OA
ATOM     16  H   UNL     1     -15.141 -24.334 -51.450  1.00  0.00     0.211 HD
ENDBRANCH  11  15
BRANCH  13  17
ATOM     17  O   UNL     1     -13.882 -25.955 -50.664  1.00  0.00    -0.387 OA
ATOM     18  H   UNL     1     -13.309 -25.966 -51.469  1.00  0.00     0.211 HD
ENDBRANCH  13  17
BRANCH  14  19
ATOM     19  O   UNL     1     -15.950 -28.915 -50.475  1.00  0.00    -0.385 OA
ATOM     20  H   UNL     1     -16.452 -29.378 -49.752  1.00  0.00     0.211 HD
ENDBRANCH  14  19
ENDBRANCH   7   8
ENDBRANCH   1   7
BRANCH   2  21
ATOM     21  O   UNL     1     -12.734 -28.875 -46.079  1.00  0.00    -0.387 OA
ATOM     22  H   UNL     1     -13.530 -29.414 -45.832  1.00  0.00     0.211 HD
ENDBRANCH   2  21
BRANCH   6  23
ATOM     23  O   UNL     1     -14.067 -27.202 -44.265  1.00  0.00    -0.462 OA
BRANCH  23  24
ATOM     24  C   UNL     1     -14.501 -26.932 -42.956  1.00  0.00     0.130 A 
ATOM     25  C   UNL     1     -14.740 -27.942 -42.007  1.00  0.00     0.093 A 
ATOM     26  C   UNL     1     -14.696 -25.598 -42.594  1.00  0.00     0.094 A 
ATOM     27  C   UNL     1     -15.143 -27.625 -40.703  1.00  0.00     0.133 A 
ATOM     28  C   UNL     1     -15.129 -25.263 -41.311  1.00  0.00     0.138 A 
ATOM     29  C   UNL     1     -15.373 -26.269 -40.353  1.00  0.00     0.102 A 
ATOM     30  O   UNL     1     -15.307 -23.911 -40.988  1.00  0.00    -0.484 OA
ATOM     31  C   UNL     1     -15.853 -25.820 -39.022  1.00  0.00     0.174 C 
ATOM     32  C   UNL     1     -16.005 -23.482 -39.814  1.00  0.00     0.211 C 
ATOM     33  O   UNL     1     -16.485 -26.589 -38.250  1.00  0.00    -0.294 OA
ATOM     34  C   UNL     1     -15.637 -24.391 -38.626  1.00  0.00     0.131 C 
BRANCH  27  35
ATOM     35  O   UNL     1     -15.266 -28.679 -39.796  1.00  0.00    -0.507 OA
ATOM     36  H   UNL     1     -15.923 -28.693 -39.029  1.00  0.00     0.293 HD
ENDBRANCH  27  35
BRANCH  32  37
ATOM     37  C   UNL     1     -15.753 -22.000 -39.601  1.00  0.00    -0.007 A 
ATOM     38  C   UNL     1     -16.831 -21.113 -39.780  1.00  0.00     0.011 A 
ATOM     39  C   UNL     1     -14.496 -21.469 -39.239  1.00  0.00     0.011 A 
ATOM     40  C   UNL     1     -16.659 -19.735 -39.612  1.00  0.00     0.046 A 
ATOM     41  C   UNL     1     -14.330 -20.090 -39.069  1.00  0.00     0.046 A 
ATOM     42  C   UNL     1     -15.407 -19.220 -39.258  1.00  0.00     0.115 A 
BRANCH  42  43
ATOM     43  O   UNL     1     -15.224 -17.850 -39.093  1.00  0.00    -0.508 OA
ATOM     44  H   UNL     1     -15.293 -17.413 -38.180  1.00  0.00     0.293 HD
ENDBRANCH  42  43
ENDBRANCH  32  37
ENDBRANCH  23  24
ENDBRANCH   6  23
BRANCH   3  45
ATOM     45  O   UNL     1     -10.839 -27.280 -47.291  1.00  0.00    -0.387 OA
ATOM     46  H   UNL     1     -10.223 -26.514 -47.143  1.00  0.00     0.211 HD
ENDBRANCH   3  45
BRANCH   4  47
ATOM     47  C   UNL     1     -11.352 -26.005 -44.774  1.00  0.00     0.191 C 
BRANCH  47  48
ATOM     48  O   UNL     1     -11.110 -27.367 -44.577  1.00  0.00    -0.394 OA
ATOM     49  H   UNL     1     -11.943 -27.840 -44.835  1.00  0.00     0.210 HD
ENDBRANCH  47  48
ENDBRANCH   4  47
TORSDOF 14
ENDMDL
