MODEL 1
REMARK VINA RESULT:    -5.861      0.000      0.000
REMARK INTER + INTRA:          -7.331
REMARK INTER:                  -7.061
REMARK INTRA:                  -0.271
REMARK UNBOUND:                -0.271
REMARK SMILES O=c1c(O)c(-c2ccc(O)c(O)c2)oc2cc(O)cc(O)c12
REMARK SMILES IDX 5 1 3 2 2 3 1 4 22 5 20 6 19 7 17 8 16 9 15 10 14 11 6 12
REMARK SMILES IDX 7 13 8 14 9 15 13 16 11 17 10 18 12 20 4 22 21 24 18 26
REMARK H PARENT 10 19 12 21 4 23 21 25 18 27
REMARK Flexibility Score: inf
ROOT
ATOM      1  C   UNL     1      18.982  22.153  15.383  1.00  0.00     0.180 A 
ATOM      2  C   UNL     1      17.678  21.644  15.521  1.00  0.00     0.208 A 
ATOM      3  C   UNL     1      17.253  21.196  16.783  1.00  0.00     0.238 A 
ATOM      4  O   UNL     1      16.104  20.692  16.888  1.00  0.00    -0.285 OA
ATOM      5  C   UNL     1      18.128  21.277  17.892  1.00  0.00     0.111 A 
ATOM      6  C   UNL     1      17.788  20.890  19.223  1.00  0.00     0.134 A 
ATOM      7  C   UNL     1      18.775  20.892  20.216  1.00  0.00     0.093 A 
ATOM      8  C   UNL     1      20.071  21.328  19.944  1.00  0.00     0.123 A 
ATOM      9  C   UNL     1      20.400  21.765  18.659  1.00  0.00     0.094 A 
ATOM     10  C   UNL     1      19.446  21.741  17.638  1.00  0.00     0.146 A 
ATOM     11  O   UNL     1      19.801  22.155  16.428  1.00  0.00    -0.452 OA
ENDROOT
BRANCH   1  12
ATOM     12  C   UNL     1      19.494  22.666  14.092  1.00  0.00     0.025 A 
ATOM     13  C   UNL     1      19.885  21.794  13.061  1.00  0.00     0.016 A 
ATOM     14  C   UNL     1      20.342  22.301  11.843  1.00  0.00     0.051 A 
ATOM     15  C   UNL     1      20.404  23.682  11.629  1.00  0.00     0.157 A 
ATOM     16  C   UNL     1      19.537  24.051  13.867  1.00  0.00     0.062 A 
ATOM     17  C   UNL     1      19.997  24.563  12.645  1.00  0.00     0.158 A 
BRANCH  15  18
ATOM     18  O   UNL     1      20.866  24.158  10.402  1.00  0.00    -0.504 OA
ATOM     19  H   UNL     1      21.624  24.827  10.336  1.00  0.00     0.293 HD
ENDBRANCH  15  18
BRANCH  17  20
ATOM     20  O   UNL     1      20.048  25.940  12.436  1.00  0.00    -0.504 OA
ATOM     21  H   UNL     1      20.419  26.334  11.580  1.00  0.00     0.293 HD
ENDBRANCH  17  20
ENDBRANCH   1  12
BRANCH   2  22
ATOM     22  O   UNL     1      16.838  21.552  14.409  1.00  0.00    -0.502 OA
ATOM     23  H   UNL     1      15.843  21.377  14.491  1.00  0.00     0.293 HD
ENDBRANCH   2  22
BRANCH   6  24
ATOM     24  O   UNL     1      16.500  20.525  19.625  1.00  0.00    -0.507 OA
ATOM     25  H   UNL     1      15.772  21.176  19.880  1.00  0.00     0.293 HD
ENDBRANCH   6  24
BRANCH   8  26
ATOM     26  O   UNL     1      21.024  21.331  20.960  1.00  0.00    -0.508 OA
ATOM     27  H   UNL     1      21.747  22.039  21.006  1.00  0.00     0.293 HD
ENDBRANCH   8  26
TORSDOF 6
ENDMDL
MODEL 2
REMARK VINA RESULT:    -5.098      1.432      2.836
REMARK INTER + INTRA:          -6.412
REMARK INTER:                  -6.179
REMARK INTRA:                  -0.233
REMARK UNBOUND:                -0.271
REMARK SMILES O=c1c(O)c(-c2ccc(O)c(O)c2)oc2cc(O)cc(O)c12
REMARK SMILES IDX 5 1 3 2 2 3 1 4 22 5 20 6 19 7 17 8 16 9 15 10 14 11 6 12
REMARK SMILES IDX 7 13 8 14 9 15 13 16 11 17 10 18 12 20 4 22 21 24 18 26
REMARK H PARENT 10 19 12 21 4 23 21 25 18 27
REMARK Flexibility Score: inf
ROOT
ATOM      1  C   UNL     1      19.655  22.897  15.398  1.00  0.00     0.180 A 
ATOM      2  C   UNL     1      20.220  23.515  16.528  1.00  0.00     0.208 A 
ATOM      3  C   UNL     1      19.834  23.079  17.806  1.00  0.00     0.238 A 
ATOM      4  O   UNL     1      20.302  23.673  18.813  1.00  0.00    -0.285 OA
ATOM      5  C   UNL     1      18.903  22.022  17.940  1.00  0.00     0.111 A 
ATOM      6  C   UNL     1      18.472  21.473  19.185  1.00  0.00     0.134 A 
ATOM      7  C   UNL     1      17.449  20.518  19.201  1.00  0.00     0.093 A 
ATOM      8  C   UNL     1      16.888  20.042  18.017  1.00  0.00     0.123 A 
ATOM      9  C   UNL     1      17.343  20.528  16.790  1.00  0.00     0.094 A 
ATOM     10  C   UNL     1      18.337  21.509  16.743  1.00  0.00     0.146 A 
ATOM     11  O   UNL     1      18.735  21.952  15.556  1.00  0.00    -0.452 OA
ENDROOT
BRANCH   1  12
ATOM     12  C   UNL     1      20.029  23.284  14.019  1.00  0.00     0.025 A 
ATOM     13  C   UNL     1      20.794  22.433  13.202  1.00  0.00     0.016 A 
ATOM     14  C   UNL     1      21.114  22.808  11.896  1.00  0.00     0.051 A 
ATOM     15  C   UNL     1      20.668  24.028  11.380  1.00  0.00     0.157 A 
ATOM     16  C   UNL     1      19.563  24.499  13.491  1.00  0.00     0.062 A 
ATOM     17  C   UNL     1      19.885  24.878  12.180  1.00  0.00     0.158 A 
BRANCH  15  18
ATOM     18  O   UNL     1      21.005  24.376  10.072  1.00  0.00    -0.504 OA
ATOM     19  H   UNL     1      21.957  24.595   9.802  1.00  0.00     0.293 HD
ENDBRANCH  15  18
BRANCH  17  20
ATOM     20  O   UNL     1      19.429  26.093  11.670  1.00  0.00    -0.504 OA
ATOM     21  H   UNL     1      20.065  26.850  11.451  1.00  0.00     0.293 HD
ENDBRANCH  17  20
ENDBRANCH   1  12
BRANCH   2  22
ATOM     22  O   UNL     1      21.120  24.572  16.374  1.00  0.00    -0.502 OA
ATOM     23  H   UNL     1      21.723  24.659  15.563  1.00  0.00     0.293 HD
ENDBRANCH   2  22
BRANCH   6  24
ATOM     24  O   UNL     1      19.030  21.811  20.421  1.00  0.00    -0.507 OA
ATOM     25  H   UNL     1      18.876  22.685  20.901  1.00  0.00     0.293 HD
ENDBRANCH   6  24
BRANCH   8  26
ATOM     26  O   UNL     1      15.883  19.078  18.070  1.00  0.00    -0.508 OA
ATOM     27  H   UNL     1      15.438  18.730  17.229  1.00  0.00     0.293 HD
ENDBRANCH   8  26
TORSDOF 6
ENDMDL
MODEL 3
REMARK VINA RESULT:    -5.081      1.788      7.489
REMARK INTER + INTRA:          -6.392
REMARK INTER:                  -6.121
REMARK INTRA:                  -0.270
REMARK UNBOUND:                -0.271
REMARK SMILES O=c1c(O)c(-c2ccc(O)c(O)c2)oc2cc(O)cc(O)c12
REMARK SMILES IDX 5 1 3 2 2 3 1 4 22 5 20 6 19 7 17 8 16 9 15 10 14 11 6 12
REMARK SMILES IDX 7 13 8 14 9 15 13 16 11 17 10 18 12 20 4 22 21 24 18 26
REMARK H PARENT 10 19 12 21 4 23 21 25 18 27
REMARK Flexibility Score: inf
ROOT
ATOM      1  C   UNL     1      19.338  22.284  13.811  1.00  0.00     0.180 A 
ATOM      2  C   UNL     1      19.723  23.619  13.590  1.00  0.00     0.208 A 
ATOM      3  C   UNL     1      20.250  23.976  12.339  1.00  0.00     0.238 A 
ATOM      4  O   UNL     1      20.644  25.160  12.166  1.00  0.00    -0.285 OA
ATOM      5  C   UNL     1      20.371  23.002  11.320  1.00  0.00     0.111 A 
ATOM      6  C   UNL     1      20.854  23.263  10.002  1.00  0.00     0.134 A 
ATOM      7  C   UNL     1      21.053  22.197   9.117  1.00  0.00     0.093 A 
ATOM      8  C   UNL     1      20.725  20.890   9.476  1.00  0.00     0.123 A 
ATOM      9  C   UNL     1      20.197  20.631  10.742  1.00  0.00     0.094 A 
ATOM     10  C   UNL     1      20.021  21.669  11.660  1.00  0.00     0.146 A 
ATOM     11  O   UNL     1      19.525  21.380  12.858  1.00  0.00    -0.452 OA
ENDROOT
BRANCH   1  12
ATOM     12  C   UNL     1      18.752  21.836  15.095  1.00  0.00     0.025 A 
ATOM     13  C   UNL     1      19.550  21.640  16.235  1.00  0.00     0.016 A 
ATOM     14  C   UNL     1      18.972  21.240  17.442  1.00  0.00     0.051 A 
ATOM     15  C   UNL     1      17.591  21.044  17.534  1.00  0.00     0.157 A 
ATOM     16  C   UNL     1      17.363  21.659  15.196  1.00  0.00     0.062 A 
ATOM     17  C   UNL     1      16.780  21.257  16.406  1.00  0.00     0.158 A 
BRANCH  15  18
ATOM     18  O   UNL     1      17.042  20.644  18.752  1.00  0.00    -0.504 OA
ATOM     19  H   UNL     1      17.258  21.117  19.621  1.00  0.00     0.293 HD
ENDBRANCH  15  18
BRANCH  17  20
ATOM     20  O   UNL     1      15.401  21.071  16.493  1.00  0.00    -0.504 OA
ATOM     21  H   UNL     1      15.001  20.275  16.976  1.00  0.00     0.293 HD
ENDBRANCH  17  20
ENDBRANCH   1  12
BRANCH   2  22
ATOM     22  O   UNL     1      19.616  24.560  14.617  1.00  0.00    -0.502 OA
ATOM     23  H   UNL     1      18.895  25.272  14.630  1.00  0.00     0.293 HD
ENDBRANCH   2  22
BRANCH   6  24
ATOM     24  O   UNL     1      21.125  24.542   9.509  1.00  0.00    -0.507 OA
ATOM     25  H   UNL     1      21.935  24.786   8.959  1.00  0.00     0.293 HD
ENDBRANCH   6  24
BRANCH   8  26
ATOM     26  O   UNL     1      20.922  19.855   8.564  1.00  0.00    -0.508 OA
ATOM     27  H   UNL     1      21.468  19.988   7.721  1.00  0.00     0.293 HD
ENDBRANCH   8  26
TORSDOF 6
ENDMDL
MODEL 4
REMARK VINA RESULT:    -5.061      8.822     11.126
REMARK INTER + INTRA:          -6.367
REMARK INTER:                  -6.321
REMARK INTRA:                  -0.046
REMARK UNBOUND:                -0.271
REMARK SMILES O=c1c(O)c(-c2ccc(O)c(O)c2)oc2cc(O)cc(O)c12
REMARK SMILES IDX 5 1 3 2 2 3 1 4 22 5 20 6 19 7 17 8 16 9 15 10 14 11 6 12
REMARK SMILES IDX 7 13 8 14 9 15 13 16 11 17 10 18 12 20 4 22 21 24 18 26
REMARK H PARENT 10 19 12 21 4 23 21 25 18 27
REMARK Flexibility Score: inf
ROOT
ATOM      1  C   UNL     1      16.493  19.181   6.434  1.00  0.00     0.180 A 
ATOM      2  C   UNL     1      17.000  19.462   7.715  1.00  0.00     0.208 A 
ATOM      3  C   UNL     1      17.478  18.404   8.505  1.00  0.00     0.238 A 
ATOM      4  O   UNL     1      17.880  18.655   9.672  1.00  0.00    -0.285 OA
ATOM      5  C   UNL     1      17.460  17.082   7.999  1.00  0.00     0.111 A 
ATOM      6  C   UNL     1      17.958  15.940   8.697  1.00  0.00     0.134 A 
ATOM      7  C   UNL     1      17.769  14.664   8.153  1.00  0.00     0.093 A 
ATOM      8  C   UNL     1      17.163  14.492   6.910  1.00  0.00     0.123 A 
ATOM      9  C   UNL     1      16.726  15.606   6.191  1.00  0.00     0.094 A 
ATOM     10  C   UNL     1      16.867  16.890   6.724  1.00  0.00     0.146 A 
ATOM     11  O   UNL     1      16.430  17.923   6.013  1.00  0.00    -0.452 OA
ENDROOT
BRANCH   1  12
ATOM     12  C   UNL     1      15.994  20.245   5.533  1.00  0.00     0.025 A 
ATOM     13  C   UNL     1      16.772  21.377   5.237  1.00  0.00     0.016 A 
ATOM     14  C   UNL     1      16.290  22.357   4.365  1.00  0.00     0.051 A 
ATOM     15  C   UNL     1      15.034  22.216   3.767  1.00  0.00     0.157 A 
ATOM     16  C   UNL     1      14.742  20.096   4.915  1.00  0.00     0.062 A 
ATOM     17  C   UNL     1      14.256  21.079   4.040  1.00  0.00     0.158 A 
BRANCH  15  18
ATOM     18  O   UNL     1      14.580  23.211   2.902  1.00  0.00    -0.504 OA
ATOM     19  H   UNL     1      14.260  24.112   3.239  1.00  0.00     0.293 HD
ENDBRANCH  15  18
BRANCH  17  20
ATOM     20  O   UNL     1      13.006  20.927   3.441  1.00  0.00    -0.504 OA
ATOM     21  H   UNL     1      12.868  20.312   2.648  1.00  0.00     0.293 HD
ENDBRANCH  17  20
ENDBRANCH   1  12
BRANCH   2  22
ATOM     22  O   UNL     1      16.988  20.771   8.204  1.00  0.00    -0.502 OA
ATOM     23  H   UNL     1      17.435  21.030   9.076  1.00  0.00     0.293 HD
ENDBRANCH   2  22
BRANCH   6  24
ATOM     24  O   UNL     1      18.661  16.008   9.902  1.00  0.00    -0.507 OA
ATOM     25  H   UNL     1      18.684  15.274  10.596  1.00  0.00     0.293 HD
ENDBRANCH   6  24
BRANCH   8  26
ATOM     26  O   UNL     1      17.007  13.207   6.392  1.00  0.00    -0.508 OA
ATOM     27  H   UNL     1      16.331  13.009   5.664  1.00  0.00     0.293 HD
ENDBRANCH   8  26
TORSDOF 6
ENDMDL
MODEL 5
REMARK VINA RESULT:    -5.041      1.622      7.126
REMARK INTER + INTRA:          -6.343
REMARK INTER:                  -6.121
REMARK INTRA:                  -0.222
REMARK UNBOUND:                -0.271
REMARK SMILES O=c1c(O)c(-c2ccc(O)c(O)c2)oc2cc(O)cc(O)c12
REMARK SMILES IDX 5 1 3 2 2 3 1 4 22 5 20 6 19 7 17 8 16 9 15 10 14 11 6 12
REMARK SMILES IDX 7 13 8 14 9 15 13 16 11 17 10 18 12 20 4 22 21 24 18 26
REMARK H PARENT 10 19 12 21 4 23 21 25 18 27
REMARK Flexibility Score: inf
ROOT
ATOM      1  C   UNL     1      19.797  22.253  16.605  1.00  0.00     0.180 A 
ATOM      2  C   UNL     1      20.181  23.580  16.343  1.00  0.00     0.208 A 
ATOM      3  C   UNL     1      20.414  23.971  15.014  1.00  0.00     0.238 A 
ATOM      4  O   UNL     1      20.810  25.145  14.791  1.00  0.00    -0.285 OA
ATOM      5  C   UNL     1      20.245  23.038  13.964  1.00  0.00     0.111 A 
ATOM      6  C   UNL     1      20.414  23.336  12.578  1.00  0.00     0.134 A 
ATOM      7  C   UNL     1      20.348  22.302  11.637  1.00  0.00     0.093 A 
ATOM      8  C   UNL     1      20.054  20.995  12.021  1.00  0.00     0.123 A 
ATOM      9  C   UNL     1      19.828  20.702  13.366  1.00  0.00     0.094 A 
ATOM     10  C   UNL     1      19.922  21.706  14.334  1.00  0.00     0.146 A 
ATOM     11  O   UNL     1      19.710  21.384  15.605  1.00  0.00    -0.452 OA
ENDROOT
BRANCH   1  12
ATOM     12  C   UNL     1      19.510  21.772  17.976  1.00  0.00     0.025 A 
ATOM     13  C   UNL     1      20.535  21.608  18.923  1.00  0.00     0.016 A 
ATOM     14  C   UNL     1      20.238  21.177  20.218  1.00  0.00     0.051 A 
ATOM     15  C   UNL     1      18.916  20.916  20.591  1.00  0.00     0.157 A 
ATOM     16  C   UNL     1      18.181  21.531  18.359  1.00  0.00     0.062 A 
ATOM     17  C   UNL     1      17.880  21.097  19.659  1.00  0.00     0.158 A 
BRANCH  15  18
ATOM     18  O   UNL     1      18.650  20.486  21.891  1.00  0.00    -0.504 OA
ATOM     19  H   UNL     1      19.359  20.051  22.469  1.00  0.00     0.293 HD
ENDBRANCH  15  18
BRANCH  17  20
ATOM     20  O   UNL     1      16.559  20.847  20.026  1.00  0.00    -0.504 OA
ATOM     21  H   UNL     1      15.887  21.598  20.135  1.00  0.00     0.293 HD
ENDBRANCH  17  20
ENDBRANCH   1  12
BRANCH   2  22
ATOM     22  O   UNL     1      20.364  24.479  17.396  1.00  0.00    -0.502 OA
ATOM     23  H   UNL     1      19.708  25.227  17.593  1.00  0.00     0.293 HD
ENDBRANCH   2  22
BRANCH   6  24
ATOM     24  O   UNL     1      20.621  24.624  12.077  1.00  0.00    -0.507 OA
ATOM     25  H   UNL     1      20.079  25.047  11.338  1.00  0.00     0.293 HD
ENDBRANCH   6  24
BRANCH   8  26
ATOM     26  O   UNL     1      19.980  19.993  11.054  1.00  0.00    -0.508 OA
ATOM     27  H   UNL     1      19.106  19.530  10.837  1.00  0.00     0.293 HD
ENDBRANCH   8  26
TORSDOF 6
ENDMDL
MODEL 6
REMARK VINA RESULT:    -4.882     10.386     12.472
REMARK INTER + INTRA:          -6.151
REMARK INTER:                  -5.930
REMARK INTRA:                  -0.221
REMARK UNBOUND:                -0.271
REMARK SMILES O=c1c(O)c(-c2ccc(O)c(O)c2)oc2cc(O)cc(O)c12
REMARK SMILES IDX 5 1 3 2 2 3 1 4 22 5 20 6 19 7 17 8 16 9 15 10 14 11 6 12
REMARK SMILES IDX 7 13 8 14 9 15 13 16 11 17 10 18 12 20 4 22 21 24 18 26
REMARK H PARENT 10 19 12 21 4 23 21 25 18 27
REMARK Flexibility Score: inf
ROOT
ATOM      1  C   UNL     1      15.193  18.918   4.665  1.00  0.00     0.180 A 
ATOM      2  C   UNL     1      14.752  17.814   3.914  1.00  0.00     0.208 A 
ATOM      3  C   UNL     1      15.041  16.519   4.375  1.00  0.00     0.238 A 
ATOM      4  O   UNL     1      14.691  15.536   3.670  1.00  0.00    -0.285 OA
ATOM      5  C   UNL     1      15.750  16.343   5.587  1.00  0.00     0.111 A 
ATOM      6  C   UNL     1      16.061  15.077   6.168  1.00  0.00     0.134 A 
ATOM      7  C   UNL     1      16.880  15.021   7.302  1.00  0.00     0.093 A 
ATOM      8  C   UNL     1      17.344  16.184   7.915  1.00  0.00     0.123 A 
ATOM      9  C   UNL     1      16.997  17.430   7.389  1.00  0.00     0.094 A 
ATOM     10  C   UNL     1      16.211  17.518   6.237  1.00  0.00     0.146 A 
ATOM     11  O   UNL     1      15.912  18.722   5.763  1.00  0.00    -0.452 OA
ENDROOT
BRANCH   1  12
ATOM     12  C   UNL     1      14.906  20.313   4.257  1.00  0.00     0.025 A 
ATOM     13  C   UNL     1      15.916  21.148   3.748  1.00  0.00     0.016 A 
ATOM     14  C   UNL     1      15.617  22.452   3.347  1.00  0.00     0.051 A 
ATOM     15  C   UNL     1      14.309  22.938   3.434  1.00  0.00     0.157 A 
ATOM     16  C   UNL     1      13.590  20.796   4.324  1.00  0.00     0.062 A 
ATOM     17  C   UNL     1      13.288  22.105   3.923  1.00  0.00     0.158 A 
BRANCH  15  18
ATOM     18  O   UNL     1      14.042  24.245   3.027  1.00  0.00    -0.504 OA
ATOM     19  H   UNL     1      14.781  24.920   2.867  1.00  0.00     0.293 HD
ENDBRANCH  15  18
BRANCH  17  20
ATOM     20  O   UNL     1      11.980  22.580   4.005  1.00  0.00    -0.504 OA
ATOM     21  H   UNL     1      11.731  23.350   4.615  1.00  0.00     0.293 HD
ENDBRANCH  17  20
ENDBRANCH   1  12
BRANCH   2  22
ATOM     22  O   UNL     1      14.073  18.010   2.709  1.00  0.00    -0.502 OA
ATOM     23  H   UNL     1      14.093  18.893   2.211  1.00  0.00     0.293 HD
ENDBRANCH   2  22
BRANCH   6  24
ATOM     24  O   UNL     1      15.573  13.858   5.690  1.00  0.00    -0.507 OA
ATOM     25  H   UNL     1      16.120  13.180   5.181  1.00  0.00     0.293 HD
ENDBRANCH   6  24
BRANCH   8  26
ATOM     26  O   UNL     1      18.144  16.091   9.052  1.00  0.00    -0.508 OA
ATOM     27  H   UNL     1      18.692  16.878   9.379  1.00  0.00     0.293 HD
ENDBRANCH   8  26
TORSDOF 6
ENDMDL
MODEL 7
REMARK VINA RESULT:    -4.752      9.970     12.160
REMARK INTER + INTRA:          -5.994
REMARK INTER:                  -5.933
REMARK INTRA:                  -0.061
REMARK UNBOUND:                -0.271
REMARK SMILES O=c1c(O)c(-c2ccc(O)c(O)c2)oc2cc(O)cc(O)c12
REMARK SMILES IDX 5 1 3 2 2 3 1 4 22 5 20 6 19 7 17 8 16 9 15 10 14 11 6 12
REMARK SMILES IDX 7 13 8 14 9 15 13 16 11 17 10 18 12 20 4 22 21 24 18 26
REMARK H PARENT 10 19 12 21 4 23 21 25 18 27
REMARK Flexibility Score: inf
ROOT
ATOM      1  C   UNL     1      15.890  18.983   5.689  1.00  0.00     0.180 A 
ATOM      2  C   UNL     1      16.512  18.970   6.951  1.00  0.00     0.208 A 
ATOM      3  C   UNL     1      16.884  17.738   7.513  1.00  0.00     0.238 A 
ATOM      4  O   UNL     1      17.391  17.730   8.666  1.00  0.00    -0.285 OA
ATOM      5  C   UNL     1      16.644  16.538   6.804  1.00  0.00     0.111 A 
ATOM      6  C   UNL     1      17.016  15.237   7.261  1.00  0.00     0.134 A 
ATOM      7  C   UNL     1      16.612  14.110   6.537  1.00  0.00     0.093 A 
ATOM      8  C   UNL     1      15.910  14.235   5.339  1.00  0.00     0.123 A 
ATOM      9  C   UNL     1      15.592  15.504   4.852  1.00  0.00     0.094 A 
ATOM     10  C   UNL     1      15.949  16.647   5.571  1.00  0.00     0.146 A 
ATOM     11  O   UNL     1      15.620  17.836   5.078  1.00  0.00    -0.452 OA
ENDROOT
BRANCH   1  12
ATOM     12  C   UNL     1      15.492  20.242   5.020  1.00  0.00     0.025 A 
ATOM     13  C   UNL     1      16.409  21.289   4.827  1.00  0.00     0.016 A 
ATOM     14  C   UNL     1      16.018  22.459   4.171  1.00  0.00     0.051 A 
ATOM     15  C   UNL     1      14.713  22.597   3.688  1.00  0.00     0.157 A 
ATOM     16  C   UNL     1      14.188  20.375   4.515  1.00  0.00     0.062 A 
ATOM     17  C   UNL     1      13.793  21.548   3.857  1.00  0.00     0.158 A 
BRANCH  15  18
ATOM     18  O   UNL     1      14.351  23.777   3.038  1.00  0.00    -0.504 OA
ATOM     19  H   UNL     1      13.436  24.195   3.154  1.00  0.00     0.293 HD
ENDBRANCH  15  18
BRANCH  17  20
ATOM     20  O   UNL     1      12.492  21.675   3.371  1.00  0.00    -0.504 OA
ATOM     21  H   UNL     1      12.031  20.915   2.886  1.00  0.00     0.293 HD
ENDBRANCH  17  20
ENDBRANCH   1  12
BRANCH   2  22
ATOM     22  O   UNL     1      16.719  20.165   7.644  1.00  0.00    -0.502 OA
ATOM     23  H   UNL     1      17.578  20.361   8.145  1.00  0.00     0.293 HD
ENDBRANCH   2  22
BRANCH   6  24
ATOM     24  O   UNL     1      17.797  15.003   8.396  1.00  0.00    -0.507 OA
ATOM     25  H   UNL     1      17.802  15.586   9.220  1.00  0.00     0.293 HD
ENDBRANCH   6  24
BRANCH   8  26
ATOM     26  O   UNL     1      15.538  13.091   4.636  1.00  0.00    -0.508 OA
ATOM     27  H   UNL     1      16.088  12.242   4.677  1.00  0.00     0.293 HD
ENDBRANCH   8  26
TORSDOF 6
ENDMDL
MODEL 8
REMARK VINA RESULT:    -4.653      8.773     12.476
REMARK INTER + INTRA:          -5.876
REMARK INTER:                  -5.556
REMARK INTRA:                  -0.320
REMARK UNBOUND:                -0.271
REMARK SMILES O=c1c(O)c(-c2ccc(O)c(O)c2)oc2cc(O)cc(O)c12
REMARK SMILES IDX 5 1 3 2 2 3 1 4 22 5 20 6 19 7 17 8 16 9 15 10 14 11 6 12
REMARK SMILES IDX 7 13 8 14 9 15 13 16 11 17 10 18 12 20 4 22 21 24 18 26
REMARK H PARENT 10 19 12 21 4 23 21 25 18 27
REMARK Flexibility Score: inf
ROOT
ATOM      1  C   UNL     1      16.226  19.094   6.362  1.00  0.00     0.180 A 
ATOM      2  C   UNL     1      16.061  17.764   5.936  1.00  0.00     0.208 A 
ATOM      3  C   UNL     1      15.286  17.507   4.793  1.00  0.00     0.238 A 
ATOM      4  O   UNL     1      15.098  16.310   4.448  1.00  0.00    -0.285 OA
ATOM      5  C   UNL     1      14.701  18.581   4.081  1.00  0.00     0.111 A 
ATOM      6  C   UNL     1      13.931  18.439   2.888  1.00  0.00     0.134 A 
ATOM      7  C   UNL     1      13.291  19.558   2.342  1.00  0.00     0.093 A 
ATOM      8  C   UNL     1      13.446  20.824   2.906  1.00  0.00     0.123 A 
ATOM      9  C   UNL     1      14.244  20.984   4.039  1.00  0.00     0.094 A 
ATOM     10  C   UNL     1      14.867  19.880   4.628  1.00  0.00     0.146 A 
ATOM     11  O   UNL     1      15.610  20.074   5.711  1.00  0.00    -0.452 OA
ENDROOT
BRANCH   1  12
ATOM     12  C   UNL     1      17.047  19.447   7.543  1.00  0.00     0.025 A 
ATOM     13  C   UNL     1      18.394  19.826   7.409  1.00  0.00     0.016 A 
ATOM     14  C   UNL     1      19.142  20.179   8.535  1.00  0.00     0.051 A 
ATOM     15  C   UNL     1      18.558  20.170   9.805  1.00  0.00     0.157 A 
ATOM     16  C   UNL     1      16.457  19.460   8.816  1.00  0.00     0.062 A 
ATOM     17  C   UNL     1      17.207  19.812   9.948  1.00  0.00     0.158 A 
BRANCH  15  18
ATOM     18  O   UNL     1      19.331  20.525  10.910  1.00  0.00    -0.504 OA
ATOM     19  H   UNL     1      20.197  20.050  11.136  1.00  0.00     0.293 HD
ENDBRANCH  15  18
BRANCH  17  20
ATOM     20  O   UNL     1      16.615  19.809  11.210  1.00  0.00    -0.504 OA
ATOM     21  H   UNL     1      15.608  19.781  11.324  1.00  0.00     0.293 HD
ENDBRANCH  17  20
ENDBRANCH   1  12
BRANCH   2  22
ATOM     22  O   UNL     1      16.629  16.717   6.665  1.00  0.00    -0.502 OA
ATOM     23  H   UNL     1      16.124  15.863   6.875  1.00  0.00     0.293 HD
ENDBRANCH   2  22
BRANCH   6  24
ATOM     24  O   UNL     1      13.787  17.237   2.190  1.00  0.00    -0.507 OA
ATOM     25  H   UNL     1      14.546  16.616   1.953  1.00  0.00     0.293 HD
ENDBRANCH   6  24
BRANCH   8  26
ATOM     26  O   UNL     1      12.807  21.919   2.327  1.00  0.00    -0.508 OA
ATOM     27  H   UNL     1      11.804  22.041   2.391  1.00  0.00     0.293 HD
ENDBRANCH   8  26
TORSDOF 6
ENDMDL
MODEL 9
REMARK VINA RESULT:    -4.648      3.004      7.747
REMARK INTER + INTRA:          -5.869
REMARK INTER:                  -5.614
REMARK INTRA:                  -0.255
REMARK UNBOUND:                -0.271
REMARK SMILES O=c1c(O)c(-c2ccc(O)c(O)c2)oc2cc(O)cc(O)c12
REMARK SMILES IDX 5 1 3 2 2 3 1 4 22 5 20 6 19 7 17 8 16 9 15 10 14 11 6 12
REMARK SMILES IDX 7 13 8 14 9 15 13 16 11 17 10 18 12 20 4 22 21 24 18 26
REMARK H PARENT 10 19 12 21 4 23 21 25 18 27
REMARK Flexibility Score: inf
ROOT
ATOM      1  C   UNL     1      19.411  21.356  12.800  1.00  0.00     0.180 A 
ATOM      2  C   UNL     1      20.274  22.148  12.022  1.00  0.00     0.208 A 
ATOM      3  C   UNL     1      20.293  21.966  10.629  1.00  0.00     0.238 A 
ATOM      4  O   UNL     1      21.107  22.640   9.944  1.00  0.00    -0.285 OA
ATOM      5  C   UNL     1      19.439  21.010  10.031  1.00  0.00     0.111 A 
ATOM      6  C   UNL     1      19.346  20.771   8.626  1.00  0.00     0.134 A 
ATOM      7  C   UNL     1      18.562  19.711   8.157  1.00  0.00     0.093 A 
ATOM      8  C   UNL     1      17.817  18.922   9.032  1.00  0.00     0.123 A 
ATOM      9  C   UNL     1      17.853  19.184  10.402  1.00  0.00     0.094 A 
ATOM     10  C   UNL     1      18.654  20.212  10.905  1.00  0.00     0.146 A 
ATOM     11  O   UNL     1      18.669  20.423  12.216  1.00  0.00    -0.452 OA
ENDROOT
BRANCH   1  12
ATOM     12  C   UNL     1      19.316  21.506  14.270  1.00  0.00     0.025 A 
ATOM     13  C   UNL     1      20.328  21.028  15.120  1.00  0.00     0.016 A 
ATOM     14  C   UNL     1      20.229  21.202  16.503  1.00  0.00     0.051 A 
ATOM     15  C   UNL     1      19.130  21.865  17.056  1.00  0.00     0.157 A 
ATOM     16  C   UNL     1      18.224  22.190  14.827  1.00  0.00     0.062 A 
ATOM     17  C   UNL     1      18.122  22.365  16.214  1.00  0.00     0.158 A 
BRANCH  15  18
ATOM     18  O   UNL     1      19.058  22.022  18.440  1.00  0.00    -0.504 OA
ATOM     19  H   UNL     1      19.594  22.729  18.929  1.00  0.00     0.293 HD
ENDBRANCH  15  18
BRANCH  17  20
ATOM     20  O   UNL     1      17.026  23.034  16.758  1.00  0.00    -0.504 OA
ATOM     21  H   UNL     1      17.003  23.312  17.732  1.00  0.00     0.293 HD
ENDBRANCH  17  20
ENDBRANCH   1  12
BRANCH   2  22
ATOM     22  O   UNL     1      21.125  23.070  12.635  1.00  0.00    -0.502 OA
ATOM     23  H   UNL     1      21.284  23.998  12.258  1.00  0.00     0.293 HD
ENDBRANCH   2  22
BRANCH   6  24
ATOM     24  O   UNL     1      19.977  21.557   7.658  1.00  0.00    -0.507 OA
ATOM     25  H   UNL     1      19.523  21.933   6.839  1.00  0.00     0.293 HD
ENDBRANCH   6  24
BRANCH   8  26
ATOM     26  O   UNL     1      17.035  17.884   8.528  1.00  0.00    -0.508 OA
ATOM     27  H   UNL     1      17.361  16.926   8.533  1.00  0.00     0.293 HD
ENDBRANCH   8  26
TORSDOF 6
ENDMDL
