MODEL 1
REMARK VINA RESULT:    -3.537      0.000      0.000
REMARK INTER + INTRA:          -7.529
REMARK INTER:                  -6.018
REMARK INTRA:                  -1.512
REMARK UNBOUND:                -1.512
REMARK SMILES CCCCCCCCCCCCCC(=O)[O-]
REMARK SMILES IDX 8 1 9 2 10 3 11 4 12 5 13 6 14 7 15 8 16 9 7 10 6 11 5 12
REMARK SMILES IDX 4 13 3 14 2 15 1 16
REMARK H PARENT
REMARK Flexibility Score: inf
ROOT
ATOM      1  C   UNL     1     -94.665 147.640 241.191  1.00  0.00     0.000 C 
ENDROOT
BRANCH   1   2
ATOM      2  C   UNL     1     -96.091 148.159 241.410  1.00  0.00     0.000 C 
BRANCH   2   3
ATOM      3  C   UNL     1     -96.140 149.692 241.319  1.00  0.00     0.000 C 
BRANCH   3   4
ATOM      4  C   UNL     1     -97.575 150.247 241.298  1.00  0.00     0.000 C 
BRANCH   4   5
ATOM      5  C   UNL     1     -98.673 149.223 241.637  1.00  0.00     0.006 C 
BRANCH   5   6
ATOM      6  C   UNL     1     -99.465 149.590 242.898  1.00  0.00     0.053 C 
BRANCH   6   7
ATOM      7  C   UNL     1     -98.601 149.462 244.112  1.00  0.00     0.041 C 
ATOM      8  O   UNL     1     -98.010 148.379 244.359  1.00  0.00    -0.550 OA
ATOM      9  O   UNL     1     -98.409 150.557 244.946  1.00  0.00    -0.550 OA
ENDBRANCH   6   7
ENDBRANCH   5   6
ENDBRANCH   4   5
ENDBRANCH   3   4
ENDBRANCH   2   3
ENDBRANCH   1   2
BRANCH   1  10
ATOM     10  C   UNL     1     -94.676 146.162 240.775  1.00  0.00     0.000 C 
BRANCH  10  11
ATOM     11  C   UNL     1     -93.441 145.769 239.949  1.00  0.00    -0.000 C 
BRANCH  11  12
ATOM     12  C   UNL     1     -93.059 146.834 238.909  1.00  0.00    -0.000 C 
BRANCH  12  13
ATOM     13  C   UNL     1     -93.471 146.395 237.496  1.00  0.00    -0.000 C 
BRANCH  13  14
ATOM     14  C   UNL     1     -94.272 147.473 236.750  1.00  0.00    -0.000 C 
BRANCH  14  15
ATOM     15  C   UNL     1     -94.850 148.540 237.692  1.00  0.00    -0.003 C 
ATOM     16  C   UNL     1     -96.371 148.440 237.767  1.00  0.00     0.004 C 
ENDBRANCH  14  15
ENDBRANCH  13  14
ENDBRANCH  12  13
ENDBRANCH  11  12
ENDBRANCH  10  11
ENDBRANCH   1  10
TORSDOF 12
ENDMDL
MODEL 2
REMARK VINA RESULT:    -3.532      1.524      2.418
REMARK INTER + INTRA:          -7.521
REMARK INTER:                  -6.321
REMARK INTRA:                  -1.199
REMARK UNBOUND:                -1.512
REMARK SMILES CCCCCCCCCCCCCC(=O)[O-]
REMARK SMILES IDX 8 1 9 2 10 3 11 4 12 5 13 6 14 7 15 8 16 9 7 10 6 11 5 12
REMARK SMILES IDX 4 13 3 14 2 15 1 16
REMARK H PARENT
REMARK Flexibility Score: inf
ROOT
ATOM      1  C   UNL     1     -93.557 147.934 239.353  1.00  0.00     0.000 C 
ENDROOT
BRANCH   1   2
ATOM      2  C   UNL     1     -94.619 148.606 238.473  1.00  0.00     0.000 C 
BRANCH   2   3
ATOM      3  C   UNL     1     -95.980 148.642 239.184  1.00  0.00     0.000 C 
BRANCH   3   4
ATOM      4  C   UNL     1     -95.860 148.570 240.716  1.00  0.00     0.000 C 
BRANCH   4   5
ATOM      5  C   UNL     1     -96.330 149.831 241.465  1.00  0.00     0.006 C 
BRANCH   5   6
ATOM      6  C   UNL     1     -97.818 150.134 241.252  1.00  0.00     0.053 C 
BRANCH   6   7
ATOM      7  C   UNL     1     -98.586 149.889 242.512  1.00  0.00     0.041 C 
ATOM      8  O   UNL     1     -97.986 149.544 243.563  1.00  0.00    -0.550 OA
ATOM      9  O   UNL     1     -99.961 150.091 242.538  1.00  0.00    -0.550 OA
ENDBRANCH   6   7
ENDBRANCH   5   6
ENDBRANCH   4   5
ENDBRANCH   3   4
ENDBRANCH   2   3
ENDBRANCH   1   2
BRANCH   1  10
ATOM     10  C   UNL     1     -93.419 146.444 239.007  1.00  0.00     0.000 C 
BRANCH  10  11
ATOM     11  C   UNL     1     -91.955 146.012 238.823  1.00  0.00    -0.000 C 
BRANCH  11  12
ATOM     12  C   UNL     1     -91.633 145.612 237.375  1.00  0.00    -0.000 C 
BRANCH  12  13
ATOM     13  C   UNL     1     -92.896 145.649 236.501  1.00  0.00    -0.000 C 
BRANCH  13  14
ATOM     14  C   UNL     1     -92.726 146.528 235.252  1.00  0.00    -0.000 C 
BRANCH  14  15
ATOM     15  C   UNL     1     -93.992 147.329 234.914  1.00  0.00    -0.003 C 
ATOM     16  C   UNL     1     -95.238 146.645 235.470  1.00  0.00     0.004 C 
ENDBRANCH  14  15
ENDBRANCH  13  14
ENDBRANCH  12  13
ENDBRANCH  11  12
ENDBRANCH  10  11
ENDBRANCH   1  10
TORSDOF 12
ENDMDL
MODEL 3
REMARK VINA RESULT:    -3.508      1.502      3.174
REMARK INTER + INTRA:          -7.481
REMARK INTER:                  -5.917
REMARK INTRA:                  -1.565
REMARK UNBOUND:                -1.512
REMARK SMILES CCCCCCCCCCCCCC(=O)[O-]
REMARK SMILES IDX 8 1 9 2 10 3 11 4 12 5 13 6 14 7 15 8 16 9 7 10 6 11 5 12
REMARK SMILES IDX 4 13 3 14 2 15 1 16
REMARK H PARENT
REMARK Flexibility Score: inf
ROOT
ATOM      1  C   UNL     1     -92.107 146.049 238.729  1.00  0.00     0.000 C 
ENDROOT
BRANCH   1   2
ATOM      2  C   UNL     1     -93.528 146.463 239.131  1.00  0.00     0.000 C 
BRANCH   2   3
ATOM      3  C   UNL     1     -93.590 147.959 239.472  1.00  0.00     0.000 C 
BRANCH   3   4
ATOM      4  C   UNL     1     -94.242 148.237 240.838  1.00  0.00     0.000 C 
BRANCH   4   5
ATOM      5  C   UNL     1     -95.475 149.158 240.795  1.00  0.00     0.006 C 
BRANCH   5   6
ATOM      6  C   UNL     1     -96.672 148.593 241.569  1.00  0.00     0.053 C 
BRANCH   6   7
ATOM      7  C   UNL     1     -97.573 149.699 242.018  1.00  0.00     0.041 C 
ATOM      8  O   UNL     1     -97.961 150.572 241.199  1.00  0.00    -0.550 OA
ATOM      9  O   UNL     1     -98.025 149.737 243.332  1.00  0.00    -0.550 OA
ENDBRANCH   6   7
ENDBRANCH   5   6
ENDBRANCH   4   5
ENDBRANCH   3   4
ENDBRANCH   2   3
ENDBRANCH   1   2
BRANCH   1  10
ATOM     10  C   UNL     1     -92.003 145.839 237.211  1.00  0.00     0.000 C 
BRANCH  10  11
ATOM     11  C   UNL     1     -93.375 145.821 236.519  1.00  0.00    -0.000 C 
BRANCH  11  12
ATOM     12  C   UNL     1     -93.545 146.967 235.509  1.00  0.00    -0.000 C 
BRANCH  12  13
ATOM     13  C   UNL     1     -94.991 147.485 235.506  1.00  0.00    -0.000 C 
BRANCH  13  14
ATOM     14  C   UNL     1     -95.164 148.763 236.341  1.00  0.00    -0.000 C 
BRANCH  14  15
ATOM     15  C   UNL     1     -96.437 148.741 237.201  1.00  0.00    -0.003 C 
ATOM     16  C   UNL     1     -96.812 147.314 237.589  1.00  0.00     0.004 C 
ENDBRANCH  14  15
ENDBRANCH  13  14
ENDBRANCH  12  13
ENDBRANCH  11  12
ENDBRANCH  10  11
ENDBRANCH   1  10
TORSDOF 12
ENDMDL
MODEL 4
REMARK VINA RESULT:    -3.505      1.251      1.828
REMARK INTER + INTRA:          -7.476
REMARK INTER:                  -5.837
REMARK INTRA:                  -1.639
REMARK UNBOUND:                -1.512
REMARK SMILES CCCCCCCCCCCCCC(=O)[O-]
REMARK SMILES IDX 8 1 9 2 10 3 11 4 12 5 13 6 14 7 15 8 16 9 7 10 6 11 5 12
REMARK SMILES IDX 4 13 3 14 2 15 1 16
REMARK H PARENT
REMARK Flexibility Score: inf
ROOT
ATOM      1  C   UNL     1     -96.155 148.023 241.540  1.00  0.00     0.000 C 
ENDROOT
BRANCH   1   2
ATOM      2  C   UNL     1     -96.063 149.541 241.345  1.00  0.00     0.000 C 
BRANCH   2   3
ATOM      3  C   UNL     1     -97.441 150.201 241.498  1.00  0.00     0.000 C 
BRANCH   3   4
ATOM      4  C   UNL     1     -98.550 149.199 241.866  1.00  0.00     0.000 C 
BRANCH   4   5
ATOM      5  C   UNL     1     -99.282 149.495 243.188  1.00  0.00     0.006 C 
BRANCH   5   6
ATOM      6  C   UNL     1     -98.334 149.584 244.390  1.00  0.00     0.053 C 
BRANCH   6   7
ATOM      7  C   UNL     1     -98.838 150.585 245.380  1.00  0.00     0.041 C 
ATOM      8  O   UNL     1     -98.036 151.169 246.155  1.00  0.00    -0.550 OA
ATOM      9  O   UNL     1    -100.188 150.911 245.413  1.00  0.00    -0.550 OA
ENDBRANCH   6   7
ENDBRANCH   5   6
ENDBRANCH   4   5
ENDBRANCH   3   4
ENDBRANCH   2   3
ENDBRANCH   1   2
BRANCH   1  10
ATOM     10  C   UNL     1     -94.857 147.331 241.098  1.00  0.00     0.000 C 
BRANCH  10  11
ATOM     11  C   UNL     1     -93.958 148.244 240.248  1.00  0.00    -0.000 C 
BRANCH  11  12
ATOM     12  C   UNL     1     -93.494 147.573 238.946  1.00  0.00    -0.000 C 
BRANCH  12  13
ATOM     13  C   UNL     1     -94.661 147.427 237.958  1.00  0.00    -0.000 C 
BRANCH  13  14
ATOM     14  C   UNL     1     -95.294 148.776 237.585  1.00  0.00    -0.000 C 
BRANCH  14  15
ATOM     15  C   UNL     1     -96.798 148.831 237.891  1.00  0.00    -0.003 C 
ATOM     16  C   UNL     1     -97.401 147.430 237.932  1.00  0.00     0.004 C 
ENDBRANCH  14  15
ENDBRANCH  13  14
ENDBRANCH  12  13
ENDBRANCH  11  12
ENDBRANCH  10  11
ENDBRANCH   1  10
TORSDOF 12
ENDMDL
MODEL 5
REMARK VINA RESULT:    -3.459      0.921      1.668
REMARK INTER + INTRA:          -7.397
REMARK INTER:                  -5.665
REMARK INTRA:                  -1.732
REMARK UNBOUND:                -1.512
REMARK SMILES CCCCCCCCCCCCCC(=O)[O-]
REMARK SMILES IDX 8 1 9 2 10 3 11 4 12 5 13 6 14 7 15 8 16 9 7 10 6 11 5 12
REMARK SMILES IDX 4 13 3 14 2 15 1 16
REMARK H PARENT
REMARK Flexibility Score: inf
ROOT
ATOM      1  C   UNL     1     -94.538 146.941 241.275  1.00  0.00     0.000 C 
ENDROOT
BRANCH   1   2
ATOM      2  C   UNL     1     -96.003 146.534 241.473  1.00  0.00     0.000 C 
BRANCH   2   3
ATOM      3  C   UNL     1     -96.951 147.668 241.055  1.00  0.00     0.000 C 
BRANCH   3   4
ATOM      4  C   UNL     1     -96.300 149.060 241.147  1.00  0.00     0.000 C 
BRANCH   4   5
ATOM      5  C   UNL     1     -97.222 150.175 241.674  1.00  0.00     0.006 C 
BRANCH   5   6
ATOM      6  C   UNL     1     -98.502 149.637 242.324  1.00  0.00     0.053 C 
BRANCH   6   7
ATOM      7  C   UNL     1     -98.320 149.504 243.803  1.00  0.00     0.041 C 
ATOM      8  O   UNL     1     -98.494 150.499 244.555  1.00  0.00    -0.550 OA
ATOM      9  O   UNL     1     -98.007 148.269 244.356  1.00  0.00    -0.550 OA
ENDBRANCH   6   7
ENDBRANCH   5   6
ENDBRANCH   4   5
ENDBRANCH   3   4
ENDBRANCH   2   3
ENDBRANCH   1   2
BRANCH   1  10
ATOM     10  C   UNL     1     -93.837 146.008 240.277  1.00  0.00     0.000 C 
BRANCH  10  11
ATOM     11  C   UNL     1     -93.026 146.772 239.219  1.00  0.00    -0.000 C 
BRANCH  11  12
ATOM     12  C   UNL     1     -93.741 148.038 238.723  1.00  0.00    -0.000 C 
BRANCH  12  13
ATOM     13  C   UNL     1     -94.467 147.773 237.395  1.00  0.00    -0.000 C 
BRANCH  13  14
ATOM     14  C   UNL     1     -95.987 147.629 237.569  1.00  0.00    -0.000 C 
BRANCH  14  15
ATOM     15  C   UNL     1     -96.731 148.962 237.402  1.00  0.00    -0.003 C 
ATOM     16  C   UNL     1     -98.208 148.812 237.753  1.00  0.00     0.004 C 
ENDBRANCH  14  15
ENDBRANCH  13  14
ENDBRANCH  12  13
ENDBRANCH  11  12
ENDBRANCH  10  11
ENDBRANCH   1  10
TORSDOF 12
ENDMDL
MODEL 6
REMARK VINA RESULT:    -3.446      2.043      3.010
REMARK INTER + INTRA:          -7.375
REMARK INTER:                  -5.167
REMARK INTRA:                  -2.208
REMARK UNBOUND:                -1.512
REMARK SMILES CCCCCCCCCCCCCC(=O)[O-]
REMARK SMILES IDX 8 1 9 2 10 3 11 4 12 5 13 6 14 7 15 8 16 9 7 10 6 11 5 12
REMARK SMILES IDX 4 13 3 14 2 15 1 16
REMARK H PARENT
REMARK Flexibility Score: inf
ROOT
ATOM      1  C   UNL     1     -93.875 146.036 240.378  1.00  0.00     0.000 C 
ENDROOT
BRANCH   1   2
ATOM      2  C   UNL     1     -94.592 147.069 241.255  1.00  0.00     0.000 C 
BRANCH   2   3
ATOM      3  C   UNL     1     -95.993 146.576 241.652  1.00  0.00     0.000 C 
BRANCH   3   4
ATOM      4  C   UNL     1     -97.042 147.702 241.668  1.00  0.00     0.000 C 
BRANCH   4   5
ATOM      5  C   UNL     1     -96.486 149.114 241.405  1.00  0.00     0.006 C 
BRANCH   5   6
ATOM      6  C   UNL     1     -97.436 150.226 241.866  1.00  0.00     0.053 C 
BRANCH   6   7
ATOM      7  C   UNL     1     -98.712 150.179 241.088  1.00  0.00     0.041 C 
ATOM      8  O   UNL     1     -99.817 150.115 241.687  1.00  0.00    -0.550 OA
ATOM      9  O   UNL     1     -98.684 150.257 239.701  1.00  0.00    -0.550 OA
ENDBRANCH   6   7
ENDBRANCH   5   6
ENDBRANCH   4   5
ENDBRANCH   3   4
ENDBRANCH   2   3
ENDBRANCH   1   2
BRANCH   1  10
ATOM     10  C   UNL     1     -93.126 146.719 239.224  1.00  0.00     0.000 C 
BRANCH  10  11
ATOM     11  C   UNL     1     -93.715 148.093 238.866  1.00  0.00    -0.000 C 
BRANCH  11  12
ATOM     12  C   UNL     1     -94.614 148.047 237.621  1.00  0.00    -0.000 C 
BRANCH  12  13
ATOM     13  C   UNL     1     -95.997 148.646 237.922  1.00  0.00    -0.000 C 
BRANCH  13  14
ATOM     14  C   UNL     1     -97.105 147.583 237.973  1.00  0.00    -0.000 C 
BRANCH  14  15
ATOM     15  C   UNL     1     -96.568 146.158 237.772  1.00  0.00    -0.003 C 
ATOM     16  C   UNL     1     -97.415 145.141 238.532  1.00  0.00     0.004 C 
ENDBRANCH  14  15
ENDBRANCH  13  14
ENDBRANCH  12  13
ENDBRANCH  11  12
ENDBRANCH  10  11
ENDBRANCH   1  10
TORSDOF 12
ENDMDL
MODEL 7
REMARK VINA RESULT:    -3.445      2.520      4.826
REMARK INTER + INTRA:          -7.374
REMARK INTER:                  -6.142
REMARK INTRA:                  -1.232
REMARK UNBOUND:                -1.512
REMARK SMILES CCCCCCCCCCCCCC(=O)[O-]
REMARK SMILES IDX 8 1 9 2 10 3 11 4 12 5 13 6 14 7 15 8 16 9 7 10 6 11 5 12
REMARK SMILES IDX 4 13 3 14 2 15 1 16
REMARK H PARENT
REMARK Flexibility Score: inf
ROOT
ATOM      1  C   UNL     1     -92.533 145.994 236.651  1.00  0.00     0.000 C 
ENDROOT
BRANCH   1   2
ATOM      2  C   UNL     1     -91.632 145.635 237.838  1.00  0.00     0.000 C 
BRANCH   2   3
ATOM      3  C   UNL     1     -92.247 146.114 239.162  1.00  0.00     0.000 C 
BRANCH   3   4
ATOM      4  C   UNL     1     -93.343 147.176 238.965  1.00  0.00     0.000 C 
BRANCH   4   5
ATOM      5  C   UNL     1     -94.369 147.271 240.110  1.00  0.00     0.006 C 
BRANCH   5   6
ATOM      6  C   UNL     1     -94.562 148.704 240.623  1.00  0.00     0.053 C 
BRANCH   6   7
ATOM      7  C   UNL     1     -96.014 149.061 240.640  1.00  0.00     0.041 C 
ATOM      8  O   UNL     1     -96.745 148.792 239.651  1.00  0.00    -0.550 OA
ATOM      9  O   UNL     1     -96.572 149.647 241.770  1.00  0.00    -0.550 OA
ENDBRANCH   6   7
ENDBRANCH   5   6
ENDBRANCH   4   5
ENDBRANCH   3   4
ENDBRANCH   2   3
ENDBRANCH   1   2
BRANCH   1  10
ATOM     10  C   UNL     1     -92.420 144.944 235.536  1.00  0.00     0.000 C 
BRANCH  10  11
ATOM     11  C   UNL     1     -92.418 145.567 234.132  1.00  0.00    -0.000 C 
BRANCH  11  12
ATOM     12  C   UNL     1     -92.423 147.104 234.164  1.00  0.00    -0.000 C 
BRANCH  12  13
ATOM     13  C   UNL     1     -93.595 147.666 233.346  1.00  0.00    -0.000 C 
BRANCH  13  14
ATOM     14  C   UNL     1     -94.421 148.700 234.126  1.00  0.00    -0.000 C 
BRANCH  14  15
ATOM     15  C   UNL     1     -95.198 148.078 235.296  1.00  0.00    -0.003 C 
ATOM     16  C   UNL     1     -95.313 149.057 236.460  1.00  0.00     0.004 C 
ENDBRANCH  14  15
ENDBRANCH  13  14
ENDBRANCH  12  13
ENDBRANCH  11  12
ENDBRANCH  10  11
ENDBRANCH   1  10
TORSDOF 12
ENDMDL
MODEL 8
REMARK VINA RESULT:    -3.439      4.637      5.938
REMARK INTER + INTRA:          -7.363
REMARK INTER:                  -6.089
REMARK INTRA:                  -1.274
REMARK UNBOUND:                -1.512
REMARK SMILES CCCCCCCCCCCCCC(=O)[O-]
REMARK SMILES IDX 8 1 9 2 10 3 11 4 12 5 13 6 14 7 15 8 16 9 7 10 6 11 5 12
REMARK SMILES IDX 4 13 3 14 2 15 1 16
REMARK H PARENT
REMARK Flexibility Score: inf
ROOT
ATOM      1  C   UNL     1     -93.616 146.466 239.273  1.00  0.00     0.000 C 
ENDROOT
BRANCH   1   2
ATOM      2  C   UNL     1     -93.747 147.928 239.717  1.00  0.00     0.000 C 
BRANCH   2   3
ATOM      3  C   UNL     1     -94.956 148.601 239.049  1.00  0.00     0.000 C 
BRANCH   3   4
ATOM      4  C   UNL     1     -94.681 149.025 237.596  1.00  0.00     0.000 C 
BRANCH   4   5
ATOM      5  C   UNL     1     -95.784 148.651 236.589  1.00  0.00     0.006 C 
BRANCH   5   6
ATOM      6  C   UNL     1     -96.593 149.862 236.109  1.00  0.00     0.053 C 
BRANCH   6   7
ATOM      7  C   UNL     1     -95.798 150.665 235.129  1.00  0.00     0.041 C 
ATOM      8  O   UNL     1     -95.690 151.911 235.270  1.00  0.00    -0.550 OA
ATOM      9  O   UNL     1     -95.135 150.030 234.086  1.00  0.00    -0.550 OA
ENDBRANCH   6   7
ENDBRANCH   5   6
ENDBRANCH   4   5
ENDBRANCH   3   4
ENDBRANCH   2   3
ENDBRANCH   1   2
BRANCH   1  10
ATOM     10  C   UNL     1     -92.140 146.063 239.137  1.00  0.00     0.000 C 
BRANCH  10  11
ATOM     11  C   UNL     1     -91.736 145.773 237.682  1.00  0.00    -0.000 C 
BRANCH  11  12
ATOM     12  C   UNL     1     -92.909 145.919 236.700  1.00  0.00    -0.000 C 
BRANCH  12  13
ATOM     13  C   UNL     1     -92.401 146.167 235.272  1.00  0.00    -0.000 C 
BRANCH  13  14
ATOM     14  C   UNL     1     -93.434 146.887 234.392  1.00  0.00    -0.000 C 
BRANCH  14  15
ATOM     15  C   UNL     1     -92.800 147.574 233.174  1.00  0.00    -0.003 C 
ATOM     16  C   UNL     1     -91.319 147.226 233.057  1.00  0.00     0.004 C 
ENDBRANCH  14  15
ENDBRANCH  13  14
ENDBRANCH  12  13
ENDBRANCH  11  12
ENDBRANCH  10  11
ENDBRANCH   1  10
TORSDOF 12
ENDMDL
MODEL 9
REMARK VINA RESULT:    -3.360      2.975      3.440
REMARK INTER + INTRA:          -7.229
REMARK INTER:                  -5.190
REMARK INTRA:                  -2.039
REMARK UNBOUND:                -1.512
REMARK SMILES CCCCCCCCCCCCCC(=O)[O-]
REMARK SMILES IDX 8 1 9 2 10 3 11 4 12 5 13 6 14 7 15 8 16 9 7 10 6 11 5 12
REMARK SMILES IDX 4 13 3 14 2 15 1 16
REMARK H PARENT
REMARK Flexibility Score: inf
ROOT
ATOM      1  C   UNL     1     -95.956 147.875 241.427  1.00  0.00     0.000 C 
ENDROOT
BRANCH   1   2
ATOM      2  C   UNL     1     -95.870 149.378 241.136  1.00  0.00     0.000 C 
BRANCH   2   3
ATOM      3  C   UNL     1     -97.209 150.073 241.427  1.00  0.00     0.000 C 
BRANCH   3   4
ATOM      4  C   UNL     1     -98.410 149.113 241.361  1.00  0.00     0.000 C 
BRANCH   4   5
ATOM      5  C   UNL     1     -99.435 149.430 240.256  1.00  0.00     0.006 C 
BRANCH   5   6
ATOM      6  C   UNL     1     -99.168 150.769 239.558  1.00  0.00     0.053 C 
BRANCH   6   7
ATOM      7  C   UNL     1     -99.555 150.693 238.115  1.00  0.00     0.041 C 
ATOM      8  O   UNL     1    -100.343 149.796 237.717  1.00  0.00    -0.550 OA
ATOM      9  O   UNL     1     -99.083 151.643 237.218  1.00  0.00    -0.550 OA
ENDBRANCH   6   7
ENDBRANCH   5   6
ENDBRANCH   4   5
ENDBRANCH   3   4
ENDBRANCH   2   3
ENDBRANCH   1   2
BRANCH   1  10
ATOM     10  C   UNL     1     -94.703 147.145 240.922  1.00  0.00     0.000 C 
BRANCH  10  11
ATOM     11  C   UNL     1     -93.858 148.005 239.969  1.00  0.00    -0.000 C 
BRANCH  11  12
ATOM     12  C   UNL     1     -93.409 147.237 238.716  1.00  0.00    -0.000 C 
BRANCH  12  13
ATOM     13  C   UNL     1     -94.360 147.502 237.540  1.00  0.00    -0.000 C 
BRANCH  13  14
ATOM     14  C   UNL     1     -95.016 148.890 237.610  1.00  0.00    -0.000 C 
BRANCH  14  15
ATOM     15  C   UNL     1     -96.525 148.847 237.324  1.00  0.00    -0.003 C 
ATOM     16  C   UNL     1     -97.165 147.608 237.943  1.00  0.00     0.004 C 
ENDBRANCH  14  15
ENDBRANCH  13  14
ENDBRANCH  12  13
ENDBRANCH  11  12
ENDBRANCH  10  11
ENDBRANCH   1  10
TORSDOF 12
ENDMDL
