MODEL 1
REMARK VINA RESULT:    -4.013      0.000      0.000
REMARK INTER + INTRA:         -15.584
REMARK INTER:                 -10.465
REMARK INTRA:                  -5.119
REMARK UNBOUND:                -5.119
REMARK SMILES CCCCCCCCCCCCCCCCCCCCCCCCCCCCCO
REMARK SMILES IDX 16 1 15 2 14 3 13 4 12 5 11 6 10 7 9 8 8 9 7 10 6 11 5 12
REMARK SMILES IDX 4 13 3 14 2 15 1 16 17 17 18 18 19 19 20 20 21 21 22 22
REMARK SMILES IDX 23 23 24 24 25 25 26 26 27 27 28 28 29 29 30 30
REMARK H PARENT 30 31
REMARK Flexibility Score: inf
ROOT
ATOM      1  C   UNL     1      27.834  -2.056  21.864  1.00  0.00     0.000 C 
ENDROOT
BRANCH   1   2
ATOM      2  C   UNL     1      26.344  -1.697  21.725  1.00  0.00     0.000 C 
BRANCH   2   3
ATOM      3  C   UNL     1      26.028  -0.630  20.657  1.00  0.00     0.000 C 
BRANCH   3   4
ATOM      4  C   UNL     1      27.258  -0.037  19.945  1.00  0.00     0.000 C 
BRANCH   4   5
ATOM      5  C   UNL     1      27.032   0.173  18.440  1.00  0.00     0.000 C 
BRANCH   5   6
ATOM      6  C   UNL     1      25.962  -0.784  17.902  1.00  0.00     0.000 C 
BRANCH   6   7
ATOM      7  C   UNL     1      26.598  -1.897  17.055  1.00  0.00     0.000 C 
BRANCH   7   8
ATOM      8  C   UNL     1      26.985  -3.133  17.883  1.00  0.00    -0.000 C 
BRANCH   8   9
ATOM      9  C   UNL     1      26.681  -4.453  17.154  1.00  0.00    -0.000 C 
BRANCH   9  10
ATOM     10  C   UNL     1      25.816  -4.250  15.899  1.00  0.00    -0.000 C 
BRANCH  10  11
ATOM     11  C   UNL     1      24.375  -4.762  16.083  1.00  0.00    -0.000 C 
BRANCH  11  12
ATOM     12  C   UNL     1      23.402  -3.635  16.472  1.00  0.00    -0.000 C 
BRANCH  12  13
ATOM     13  C   UNL     1      22.207  -4.125  17.321  1.00  0.00    -0.000 C 
BRANCH  13  14
ATOM     14  C   UNL     1      22.142  -3.489  18.724  1.00  0.00    -0.000 C 
BRANCH  14  15
ATOM     15  C   UNL     1      23.509  -3.084  19.303  1.00  0.00    -0.003 C 
ATOM     16  C   UNL     1      24.195  -4.221  20.059  1.00  0.00     0.004 C 
ENDBRANCH  14  15
ENDBRANCH  13  14
ENDBRANCH  12  13
ENDBRANCH  11  12
ENDBRANCH  10  11
ENDBRANCH   9  10
ENDBRANCH   8   9
ENDBRANCH   7   8
ENDBRANCH   6   7
ENDBRANCH   5   6
ENDBRANCH   4   5
ENDBRANCH   3   4
ENDBRANCH   2   3
ENDBRANCH   1   2
BRANCH   1  17
ATOM     17  C   UNL     1      28.177  -2.656  23.235  1.00  0.00     0.000 C 
BRANCH  17  18
ATOM     18  C   UNL     1      29.592  -2.247  23.672  1.00  0.00     0.000 C 
BRANCH  18  19
ATOM     19  C   UNL     1      30.189  -1.138  22.792  1.00  0.00     0.000 C 
BRANCH  19  20
ATOM     20  C   UNL     1      31.160  -0.231  23.564  1.00  0.00     0.000 C 
BRANCH  20  21
ATOM     21  C   UNL     1      30.608   1.199  23.673  1.00  0.00     0.000 C 
BRANCH  21  22
ATOM     22  C   UNL     1      29.296   1.394  22.895  1.00  0.00     0.000 C 
BRANCH  22  23
ATOM     23  C   UNL     1      28.035   1.540  23.771  1.00  0.00     0.000 C 
BRANCH  23  24
ATOM     24  C   UNL     1      28.199   0.982  25.202  1.00  0.00     0.000 C 
BRANCH  24  25
ATOM     25  C   UNL     1      27.075   0.006  25.583  1.00  0.00     0.000 C 
BRANCH  25  26
ATOM     26  C   UNL     1      25.815   0.263  24.747  1.00  0.00     0.000 C 
BRANCH  26  27
ATOM     27  C   UNL     1      24.552  -0.167  25.510  1.00  0.00     0.002 C 
BRANCH  27  28
ATOM     28  C   UNL     1      24.162  -1.627  25.235  1.00  0.00     0.028 C 
BRANCH  28  29
ATOM     29  C   UNL     1      23.018  -1.758  24.226  1.00  0.00     0.156 C 
BRANCH  29  30
ATOM     30  O   UNL     1      22.513  -0.487  23.928  1.00  0.00    -0.396 OA
ATOM     31  H   UNL     1      21.532  -0.599  23.820  1.00  0.00     0.210 HD
ENDBRANCH  29  30
ENDBRANCH  28  29
ENDBRANCH  27  28
ENDBRANCH  26  27
ENDBRANCH  25  26
ENDBRANCH  24  25
ENDBRANCH  23  24
ENDBRANCH  22  23
ENDBRANCH  21  22
ENDBRANCH  20  21
ENDBRANCH  19  20
ENDBRANCH  18  19
ENDBRANCH  17  18
ENDBRANCH   1  17
TORSDOF 28
ENDMDL
MODEL 2
REMARK VINA RESULT:    -3.948      2.423      8.594
REMARK INTER + INTRA:         -15.413
REMARK INTER:                  -9.758
REMARK INTRA:                  -5.655
REMARK UNBOUND:                -5.119
REMARK SMILES CCCCCCCCCCCCCCCCCCCCCCCCCCCCCO
REMARK SMILES IDX 16 1 15 2 14 3 13 4 12 5 11 6 10 7 9 8 8 9 7 10 6 11 5 12
REMARK SMILES IDX 4 13 3 14 2 15 1 16 17 17 18 18 19 19 20 20 21 21 22 22
REMARK SMILES IDX 23 23 24 24 25 25 26 26 27 27 28 28 29 29 30 30
REMARK H PARENT 30 31
REMARK Flexibility Score: inf
ROOT
ATOM      1  C   UNL     1      28.300  -0.711  21.347  1.00  0.00     0.000 C 
ENDROOT
BRANCH   1   2
ATOM      2  C   UNL     1      28.881  -1.574  22.482  1.00  0.00     0.000 C 
BRANCH   2   3
ATOM      3  C   UNL     1      28.103  -2.873  22.774  1.00  0.00     0.000 C 
BRANCH   3   4
ATOM      4  C   UNL     1      27.926  -3.205  24.267  1.00  0.00     0.000 C 
BRANCH   4   5
ATOM      5  C   UNL     1      26.464  -3.487  24.646  1.00  0.00     0.000 C 
BRANCH   5   6
ATOM      6  C   UNL     1      25.555  -3.454  23.411  1.00  0.00     0.000 C 
BRANCH   6   7
ATOM      7  C   UNL     1      24.431  -2.422  23.584  1.00  0.00     0.000 C 
BRANCH   7   8
ATOM      8  C   UNL     1      24.873  -1.181  24.375  1.00  0.00    -0.000 C 
BRANCH   8   9
ATOM      9  C   UNL     1      25.491  -0.096  23.477  1.00  0.00    -0.000 C 
BRANCH   9  10
ATOM     10  C   UNL     1      26.369   0.892  24.263  1.00  0.00    -0.000 C 
BRANCH  10  11
ATOM     11  C   UNL     1      27.187   0.204  25.373  1.00  0.00    -0.000 C 
BRANCH  11  12
ATOM     12  C   UNL     1      28.591   0.816  25.524  1.00  0.00    -0.000 C 
BRANCH  12  13
ATOM     13  C   UNL     1      28.935   1.842  24.420  1.00  0.00    -0.000 C 
BRANCH  13  14
ATOM     14  C   UNL     1      30.221   1.503  23.640  1.00  0.00    -0.000 C 
BRANCH  14  15
ATOM     15  C   UNL     1      31.186   0.561  24.380  1.00  0.00    -0.003 C 
ATOM     16  C   UNL     1      32.542   0.436  23.688  1.00  0.00     0.004 C 
ENDBRANCH  14  15
ENDBRANCH  13  14
ENDBRANCH  12  13
ENDBRANCH  11  12
ENDBRANCH  10  11
ENDBRANCH   9  10
ENDBRANCH   8   9
ENDBRANCH   7   8
ENDBRANCH   6   7
ENDBRANCH   5   6
ENDBRANCH   4   5
ENDBRANCH   3   4
ENDBRANCH   2   3
ENDBRANCH   1   2
BRANCH   1  17
ATOM     17  C   UNL     1      27.401  -1.510  20.392  1.00  0.00     0.000 C 
BRANCH  17  18
ATOM     18  C   UNL     1      26.147  -0.705  20.021  1.00  0.00     0.000 C 
BRANCH  18  19
ATOM     19  C   UNL     1      24.975  -1.596  19.582  1.00  0.00     0.000 C 
BRANCH  19  20
ATOM     20  C   UNL     1      25.224  -3.084  19.874  1.00  0.00     0.000 C 
BRANCH  20  21
ATOM     21  C   UNL     1      23.899  -3.857  19.961  1.00  0.00     0.000 C 
BRANCH  21  22
ATOM     22  C   UNL     1      23.544  -4.585  18.653  1.00  0.00     0.000 C 
BRANCH  22  23
ATOM     23  C   UNL     1      22.574  -3.824  17.727  1.00  0.00     0.000 C 
BRANCH  23  24
ATOM     24  C   UNL     1      23.083  -3.672  16.277  1.00  0.00     0.000 C 
BRANCH  24  25
ATOM     25  C   UNL     1      24.571  -4.028  16.137  1.00  0.00     0.000 C 
BRANCH  25  26
ATOM     26  C   UNL     1      25.423  -2.768  15.946  1.00  0.00     0.000 C 
BRANCH  26  27
ATOM     27  C   UNL     1      26.808  -2.938  16.591  1.00  0.00     0.002 C 
BRANCH  27  28
ATOM     28  C   UNL     1      27.063  -4.373  17.077  1.00  0.00     0.028 C 
BRANCH  28  29
ATOM     29  C   UNL     1      28.409  -4.931  16.606  1.00  0.00     0.156 C 
BRANCH  29  30
ATOM     30  O   UNL     1      28.804  -4.268  15.438  1.00  0.00    -0.396 OA
ATOM     31  H   UNL     1      28.008  -4.260  14.844  1.00  0.00     0.210 HD
ENDBRANCH  29  30
ENDBRANCH  28  29
ENDBRANCH  27  28
ENDBRANCH  26  27
ENDBRANCH  25  26
ENDBRANCH  24  25
ENDBRANCH  23  24
ENDBRANCH  22  23
ENDBRANCH  21  22
ENDBRANCH  20  21
ENDBRANCH  19  20
ENDBRANCH  18  19
ENDBRANCH  17  18
ENDBRANCH   1  17
TORSDOF 28
ENDMDL
MODEL 3
REMARK VINA RESULT:    -3.899      2.601      8.367
REMARK INTER + INTRA:         -15.285
REMARK INTER:                 -11.277
REMARK INTRA:                  -4.008
REMARK UNBOUND:                -5.119
REMARK SMILES CCCCCCCCCCCCCCCCCCCCCCCCCCCCCO
REMARK SMILES IDX 16 1 15 2 14 3 13 4 12 5 11 6 10 7 9 8 8 9 7 10 6 11 5 12
REMARK SMILES IDX 4 13 3 14 2 15 1 16 17 17 18 18 19 19 20 20 21 21 22 22
REMARK SMILES IDX 23 23 24 24 25 25 26 26 27 27 28 28 29 29 30 30
REMARK H PARENT 30 31
REMARK Flexibility Score: inf
ROOT
ATOM      1  C   UNL     1      26.365  -0.818  20.459  1.00  0.00     0.000 C 
ENDROOT
BRANCH   1   2
ATOM      2  C   UNL     1      26.858  -2.009  21.300  1.00  0.00     0.000 C 
BRANCH   2   3
ATOM      3  C   UNL     1      26.815  -3.374  20.583  1.00  0.00     0.000 C 
BRANCH   3   4
ATOM      4  C   UNL     1      25.452  -3.745  19.971  1.00  0.00     0.000 C 
BRANCH   4   5
ATOM      5  C   UNL     1      24.586  -4.596  20.912  1.00  0.00     0.000 C 
BRANCH   5   6
ATOM      6  C   UNL     1      23.178  -4.006  21.052  1.00  0.00     0.000 C 
BRANCH   6   7
ATOM      7  C   UNL     1      23.234  -2.569  21.590  1.00  0.00     0.000 C 
BRANCH   7   8
ATOM      8  C   UNL     1      23.024  -2.489  23.110  1.00  0.00    -0.000 C 
BRANCH   8   9
ATOM      9  C   UNL     1      24.228  -1.871  23.842  1.00  0.00    -0.000 C 
BRANCH   9  10
ATOM     10  C   UNL     1      23.859  -0.593  24.612  1.00  0.00    -0.000 C 
BRANCH  10  11
ATOM     11  C   UNL     1      25.077   0.065  25.287  1.00  0.00    -0.000 C 
BRANCH  11  12
ATOM     12  C   UNL     1      25.786   1.067  24.359  1.00  0.00    -0.000 C 
BRANCH  12  13
ATOM     13  C   UNL     1      27.140   0.550  23.820  1.00  0.00    -0.000 C 
BRANCH  13  14
ATOM     14  C   UNL     1      28.208   1.650  23.673  1.00  0.00    -0.000 C 
BRANCH  14  15
ATOM     15  C   UNL     1      29.391   1.273  22.764  1.00  0.00    -0.003 C 
ATOM     16  C   UNL     1      29.768  -0.205  22.862  1.00  0.00     0.004 C 
ENDBRANCH  14  15
ENDBRANCH  13  14
ENDBRANCH  12  13
ENDBRANCH  11  12
ENDBRANCH  10  11
ENDBRANCH   9  10
ENDBRANCH   8   9
ENDBRANCH   7   8
ENDBRANCH   6   7
ENDBRANCH   5   6
ENDBRANCH   4   5
ENDBRANCH   3   4
ENDBRANCH   2   3
ENDBRANCH   1   2
BRANCH   1  17
ATOM     17  C   UNL     1      27.486  -0.167  19.634  1.00  0.00     0.000 C 
BRANCH  17  18
ATOM     18  C   UNL     1      27.043   0.040  18.178  1.00  0.00     0.000 C 
BRANCH  18  19
ATOM     19  C   UNL     1      25.904  -0.905  17.762  1.00  0.00     0.000 C 
BRANCH  19  20
ATOM     20  C   UNL     1      26.370  -1.998  16.789  1.00  0.00     0.000 C 
BRANCH  20  21
ATOM     21  C   UNL     1      25.195  -2.531  15.956  1.00  0.00     0.000 C 
BRANCH  21  22
ATOM     22  C   UNL     1      25.192  -4.065  15.838  1.00  0.00     0.000 C 
BRANCH  22  23
ATOM     23  C   UNL     1      24.002  -4.768  16.521  1.00  0.00     0.000 C 
BRANCH  23  24
ATOM     24  C   UNL     1      23.057  -3.809  17.276  1.00  0.00     0.000 C 
BRANCH  24  25
ATOM     25  C   UNL     1      21.680  -3.693  16.605  1.00  0.00     0.000 C 
BRANCH  25  26
ATOM     26  C   UNL     1      20.593  -3.354  17.632  1.00  0.00     0.000 C 
BRANCH  26  27
ATOM     27  C   UNL     1      19.212  -3.822  17.145  1.00  0.00     0.002 C 
BRANCH  27  28
ATOM     28  C   UNL     1      19.147  -3.988  15.619  1.00  0.00     0.028 C 
BRANCH  28  29
ATOM     29  C   UNL     1      17.795  -3.571  15.032  1.00  0.00     0.156 C 
BRANCH  29  30
ATOM     30  O   UNL     1      17.997  -2.595  14.049  1.00  0.00    -0.396 OA
ATOM     31  H   UNL     1      18.005  -3.076  13.181  1.00  0.00     0.210 HD
ENDBRANCH  29  30
ENDBRANCH  28  29
ENDBRANCH  27  28
ENDBRANCH  26  27
ENDBRANCH  25  26
ENDBRANCH  24  25
ENDBRANCH  23  24
ENDBRANCH  22  23
ENDBRANCH  21  22
ENDBRANCH  20  21
ENDBRANCH  19  20
ENDBRANCH  18  19
ENDBRANCH  17  18
ENDBRANCH   1  17
TORSDOF 28
ENDMDL
MODEL 4
REMARK VINA RESULT:    -3.877      2.955      5.290
REMARK INTER + INTRA:         -15.229
REMARK INTER:                 -12.244
REMARK INTRA:                  -2.986
REMARK UNBOUND:                -5.119
REMARK SMILES CCCCCCCCCCCCCCCCCCCCCCCCCCCCCO
REMARK SMILES IDX 16 1 15 2 14 3 13 4 12 5 11 6 10 7 9 8 8 9 7 10 6 11 5 12
REMARK SMILES IDX 4 13 3 14 2 15 1 16 17 17 18 18 19 19 20 20 21 21 22 22
REMARK SMILES IDX 23 23 24 24 25 25 26 26 27 27 28 28 29 29 30 30
REMARK H PARENT 30 31
REMARK Flexibility Score: inf
ROOT
ATOM      1  C   UNL     1      27.508   0.008  19.622  1.00  0.00     0.000 C 
ENDROOT
BRANCH   1   2
ATOM      2  C   UNL     1      26.880   0.153  18.225  1.00  0.00     0.000 C 
BRANCH   2   3
ATOM      3  C   UNL     1      25.924  -0.988  17.819  1.00  0.00     0.000 C 
BRANCH   3   4
ATOM      4  C   UNL     1      26.569  -2.113  16.990  1.00  0.00     0.000 C 
BRANCH   4   5
ATOM      5  C   UNL     1      26.863  -3.372  17.820  1.00  0.00     0.000 C 
BRANCH   5   6
ATOM      6  C   UNL     1      26.608  -4.645  17.004  1.00  0.00     0.000 C 
BRANCH   6   7
ATOM      7  C   UNL     1      25.615  -4.377  15.863  1.00  0.00     0.000 C 
BRANCH   7   8
ATOM      8  C   UNL     1      24.171  -4.758  16.224  1.00  0.00    -0.000 C 
BRANCH   8   9
ATOM      9  C   UNL     1      23.263  -3.530  16.412  1.00  0.00    -0.000 C 
BRANCH   9  10
ATOM     10  C   UNL     1      21.951  -3.870  17.138  1.00  0.00    -0.000 C 
BRANCH  10  11
ATOM     11  C   UNL     1      20.898  -4.489  16.201  1.00  0.00    -0.000 C 
BRANCH  11  12
ATOM     12  C   UNL     1      19.526  -3.804  16.332  1.00  0.00    -0.000 C 
BRANCH  12  13
ATOM     13  C   UNL     1      18.676  -3.883  15.043  1.00  0.00    -0.000 C 
BRANCH  13  14
ATOM     14  C   UNL     1      17.158  -3.910  15.304  1.00  0.00    -0.000 C 
BRANCH  14  15
ATOM     15  C   UNL     1      16.292  -3.871  14.034  1.00  0.00    -0.003 C 
ATOM     16  C   UNL     1      15.168  -4.906  14.048  1.00  0.00     0.004 C 
ENDBRANCH  14  15
ENDBRANCH  13  14
ENDBRANCH  12  13
ENDBRANCH  11  12
ENDBRANCH  10  11
ENDBRANCH   9  10
ENDBRANCH   8   9
ENDBRANCH   7   8
ENDBRANCH   6   7
ENDBRANCH   5   6
ENDBRANCH   4   5
ENDBRANCH   3   4
ENDBRANCH   2   3
ENDBRANCH   1   2
BRANCH   1  17
ATOM     17  C   UNL     1      26.537  -0.588  20.652  1.00  0.00     0.000 C 
BRANCH  17  18
ATOM     18  C   UNL     1      27.127  -1.855  21.290  1.00  0.00     0.000 C 
BRANCH  18  19
ATOM     19  C   UNL     1      26.051  -2.788  21.866  1.00  0.00     0.000 C 
BRANCH  19  20
ATOM     20  C   UNL     1      24.646  -2.471  21.329  1.00  0.00     0.000 C 
BRANCH  20  21
ATOM     21  C   UNL     1      23.709  -2.033  22.464  1.00  0.00     0.000 C 
BRANCH  21  22
ATOM     22  C   UNL     1      24.440  -1.841  23.804  1.00  0.00     0.000 C 
BRANCH  22  23
ATOM     23  C   UNL     1      23.946  -0.650  24.650  1.00  0.00     0.000 C 
BRANCH  23  24
ATOM     24  C   UNL     1      25.078   0.132  25.351  1.00  0.00     0.000 C 
BRANCH  24  25
ATOM     25  C   UNL     1      26.449  -0.112  24.702  1.00  0.00     0.000 C 
BRANCH  25  26
ATOM     26  C   UNL     1      26.858   1.072  23.817  1.00  0.00     0.000 C 
BRANCH  26  27
ATOM     27  C   UNL     1      28.379   1.291  23.860  1.00  0.00     0.002 C 
BRANCH  27  28
ATOM     28  C   UNL     1      28.780   2.731  23.505  1.00  0.00     0.028 C 
BRANCH  28  29
ATOM     29  C   UNL     1      29.335   3.507  24.703  1.00  0.00     0.156 C 
BRANCH  29  30
ATOM     30  O   UNL     1      29.022   4.864  24.562  1.00  0.00    -0.396 OA
ATOM     31  H   UNL     1      29.080   5.061  23.590  1.00  0.00     0.210 HD
ENDBRANCH  29  30
ENDBRANCH  28  29
ENDBRANCH  27  28
ENDBRANCH  26  27
ENDBRANCH  25  26
ENDBRANCH  24  25
ENDBRANCH  23  24
ENDBRANCH  22  23
ENDBRANCH  21  22
ENDBRANCH  20  21
ENDBRANCH  19  20
ENDBRANCH  18  19
ENDBRANCH  17  18
ENDBRANCH   1  17
TORSDOF 28
ENDMDL
MODEL 5
REMARK VINA RESULT:    -3.835      1.966      3.980
REMARK INTER + INTRA:         -15.120
REMARK INTER:                  -9.931
REMARK INTRA:                  -5.189
REMARK UNBOUND:                -5.119
REMARK SMILES CCCCCCCCCCCCCCCCCCCCCCCCCCCCCO
REMARK SMILES IDX 16 1 15 2 14 3 13 4 12 5 11 6 10 7 9 8 8 9 7 10 6 11 5 12
REMARK SMILES IDX 4 13 3 14 2 15 1 16 17 17 18 18 19 19 20 20 21 21 22 22
REMARK SMILES IDX 23 23 24 24 25 25 26 26 27 27 28 28 29 29 30 30
REMARK H PARENT 30 31
REMARK Flexibility Score: inf
ROOT
ATOM      1  C   UNL     1      26.074  -0.619  21.599  1.00  0.00     0.000 C 
ENDROOT
BRANCH   1   2
ATOM      2  C   UNL     1      27.517  -1.019  21.244  1.00  0.00     0.000 C 
BRANCH   2   3
ATOM      3  C   UNL     1      28.142  -0.229  20.076  1.00  0.00     0.000 C 
BRANCH   3   4
ATOM      4  C   UNL     1      27.132   0.398  19.098  1.00  0.00     0.000 C 
BRANCH   4   5
ATOM      5  C   UNL     1      27.010  -0.385  17.782  1.00  0.00     0.000 C 
BRANCH   5   6
ATOM      6  C   UNL     1      25.836  -1.370  17.831  1.00  0.00     0.000 C 
BRANCH   6   7
ATOM      7  C   UNL     1      26.310  -2.770  18.248  1.00  0.00     0.000 C 
BRANCH   7   8
ATOM      8  C   UNL     1      26.759  -3.631  17.057  1.00  0.00    -0.000 C 
BRANCH   8   9
ATOM      9  C   UNL     1      25.771  -3.572  15.879  1.00  0.00    -0.000 C 
BRANCH   9  10
ATOM     10  C   UNL     1      24.429  -4.251  16.198  1.00  0.00    -0.000 C 
BRANCH  10  11
ATOM     11  C   UNL     1      23.230  -3.298  16.040  1.00  0.00    -0.000 C 
BRANCH  11  12
ATOM     12  C   UNL     1      21.910  -3.940  16.503  1.00  0.00    -0.000 C 
BRANCH  12  13
ATOM     13  C   UNL     1      22.022  -4.646  17.874  1.00  0.00    -0.000 C 
BRANCH  13  14
ATOM     14  C   UNL     1      21.833  -3.700  19.075  1.00  0.00    -0.000 C 
BRANCH  14  15
ATOM     15  C   UNL     1      22.850  -3.901  20.211  1.00  0.00    -0.003 C 
ATOM     16  C   UNL     1      23.887  -4.977  19.897  1.00  0.00     0.004 C 
ENDBRANCH  14  15
ENDBRANCH  13  14
ENDBRANCH  12  13
ENDBRANCH  11  12
ENDBRANCH  10  11
ENDBRANCH   9  10
ENDBRANCH   8   9
ENDBRANCH   7   8
ENDBRANCH   6   7
ENDBRANCH   5   6
ENDBRANCH   4   5
ENDBRANCH   3   4
ENDBRANCH   2   3
ENDBRANCH   1   2
BRANCH   1  17
ATOM     17  C   UNL     1      25.187  -1.826  21.938  1.00  0.00     0.000 C 
BRANCH  17  18
ATOM     18  C   UNL     1      26.038  -3.015  22.405  1.00  0.00     0.000 C 
BRANCH  18  19
ATOM     19  C   UNL     1      25.718  -3.448  23.845  1.00  0.00     0.000 C 
BRANCH  19  20
ATOM     20  C   UNL     1      24.263  -3.912  24.011  1.00  0.00     0.000 C 
BRANCH  20  21
ATOM     21  C   UNL     1      23.553  -3.114  25.115  1.00  0.00     0.000 C 
BRANCH  21  22
ATOM     22  C   UNL     1      22.610  -2.033  24.559  1.00  0.00     0.000 C 
BRANCH  22  23
ATOM     23  C   UNL     1      23.096  -0.583  24.755  1.00  0.00     0.000 C 
BRANCH  23  24
ATOM     24  C   UNL     1      24.307  -0.450  25.703  1.00  0.00     0.000 C 
BRANCH  24  25
ATOM     25  C   UNL     1      25.493   0.270  25.043  1.00  0.00     0.000 C 
BRANCH  25  26
ATOM     26  C   UNL     1      26.826  -0.326  25.509  1.00  0.00     0.000 C 
BRANCH  26  27
ATOM     27  C   UNL     1      27.997   0.240  24.690  1.00  0.00     0.002 C 
BRANCH  27  28
ATOM     28  C   UNL     1      27.709   1.645  24.138  1.00  0.00     0.028 C 
BRANCH  28  29
ATOM     29  C   UNL     1      28.951   2.319  23.546  1.00  0.00     0.156 C 
BRANCH  29  30
ATOM     30  O   UNL     1      28.875   3.701  23.756  1.00  0.00    -0.396 OA
ATOM     31  H   UNL     1      28.786   4.111  22.857  1.00  0.00     0.210 HD
ENDBRANCH  29  30
ENDBRANCH  28  29
ENDBRANCH  27  28
ENDBRANCH  26  27
ENDBRANCH  25  26
ENDBRANCH  24  25
ENDBRANCH  23  24
ENDBRANCH  22  23
ENDBRANCH  21  22
ENDBRANCH  20  21
ENDBRANCH  19  20
ENDBRANCH  18  19
ENDBRANCH  17  18
ENDBRANCH   1  17
TORSDOF 28
ENDMDL
MODEL 6
REMARK VINA RESULT:    -3.825      2.017      4.515
REMARK INTER + INTRA:         -15.093
REMARK INTER:                  -9.701
REMARK INTRA:                  -5.392
REMARK UNBOUND:                -5.119
REMARK SMILES CCCCCCCCCCCCCCCCCCCCCCCCCCCCCO
REMARK SMILES IDX 16 1 15 2 14 3 13 4 12 5 11 6 10 7 9 8 8 9 7 10 6 11 5 12
REMARK SMILES IDX 4 13 3 14 2 15 1 16 17 17 18 18 19 19 20 20 21 21 22 22
REMARK SMILES IDX 23 23 24 24 25 25 26 26 27 27 28 28 29 29 30 30
REMARK H PARENT 30 31
REMARK Flexibility Score: inf
ROOT
ATOM      1  C   UNL     1      23.196  -1.141  23.773  1.00  0.00     0.000 C 
ENDROOT
BRANCH   1   2
ATOM      2  C   UNL     1      23.394  -2.277  22.754  1.00  0.00     0.000 C 
BRANCH   2   3
ATOM      3  C   UNL     1      24.017  -3.565  23.329  1.00  0.00     0.000 C 
BRANCH   3   4
ATOM      4  C   UNL     1      25.069  -4.238  22.428  1.00  0.00     0.000 C 
BRANCH   4   5
ATOM      5  C   UNL     1      25.219  -3.545  21.065  1.00  0.00     0.000 C 
BRANCH   5   6
ATOM      6  C   UNL     1      26.681  -3.542  20.604  1.00  0.00     0.000 C 
BRANCH   6   7
ATOM      7  C   UNL     1      26.937  -2.411  19.597  1.00  0.00     0.000 C 
BRANCH   7   8
ATOM      8  C   UNL     1      25.679  -1.583  19.294  1.00  0.00    -0.000 C 
BRANCH   8   9
ATOM      9  C   UNL     1      25.681  -1.000  17.870  1.00  0.00    -0.000 C 
BRANCH   9  10
ATOM     10  C   UNL     1      26.292  -1.963  16.839  1.00  0.00    -0.000 C 
BRANCH  10  11
ATOM     11  C   UNL     1      25.226  -2.648  15.963  1.00  0.00    -0.000 C 
BRANCH  11  12
ATOM     12  C   UNL     1      25.163  -4.166  16.204  1.00  0.00    -0.000 C 
BRANCH  12  13
ATOM     13  C   UNL     1      24.293  -4.558  17.420  1.00  0.00    -0.000 C 
BRANCH  13  14
ATOM     14  C   UNL     1      22.924  -3.851  17.455  1.00  0.00    -0.000 C 
BRANCH  14  15
ATOM     15  C   UNL     1      22.458  -3.432  18.859  1.00  0.00    -0.003 C 
ATOM     16  C   UNL     1      21.959  -4.609  19.696  1.00  0.00     0.004 C 
ENDBRANCH  14  15
ENDBRANCH  13  14
ENDBRANCH  12  13
ENDBRANCH  11  12
ENDBRANCH  10  11
ENDBRANCH   9  10
ENDBRANCH   8   9
ENDBRANCH   7   8
ENDBRANCH   6   7
ENDBRANCH   5   6
ENDBRANCH   4   5
ENDBRANCH   3   4
ENDBRANCH   2   3
ENDBRANCH   1   2
BRANCH   1  17
ATOM     17  C   UNL     1      23.102  -1.648  25.220  1.00  0.00     0.000 C 
BRANCH  17  18
ATOM     18  C   UNL     1      24.149  -0.960  26.109  1.00  0.00     0.000 C 
BRANCH  18  19
ATOM     19  C   UNL     1      24.797   0.258  25.432  1.00  0.00     0.000 C 
BRANCH  19  20
ATOM     20  C   UNL     1      26.326   0.141  25.346  1.00  0.00     0.000 C 
BRANCH  20  21
ATOM     21  C   UNL     1      26.765  -1.331  25.311  1.00  0.00     0.000 C 
BRANCH  21  22
ATOM     22  C   UNL     1      27.261  -1.774  23.924  1.00  0.00     0.000 C 
BRANCH  22  23
ATOM     23  C   UNL     1      27.363  -0.646  22.878  1.00  0.00     0.000 C 
BRANCH  23  24
ATOM     24  C   UNL     1      28.772  -0.482  22.269  1.00  0.00     0.000 C 
BRANCH  24  25
ATOM     25  C   UNL     1      29.887  -0.684  23.306  1.00  0.00     0.000 C 
BRANCH  25  26
ATOM     26  C   UNL     1      30.802   0.544  23.378  1.00  0.00     0.000 C 
BRANCH  26  27
ATOM     27  C   UNL     1      30.728   1.205  24.764  1.00  0.00     0.002 C 
BRANCH  27  28
ATOM     28  C   UNL     1      29.396   1.933  25.004  1.00  0.00     0.028 C 
BRANCH  28  29
ATOM     29  C   UNL     1      29.030   2.894  23.868  1.00  0.00     0.156 C 
BRANCH  29  30
ATOM     30  O   UNL     1      29.048   4.208  24.348  1.00  0.00    -0.396 OA
ATOM     31  H   UNL     1      28.388   4.710  23.803  1.00  0.00     0.210 HD
ENDBRANCH  29  30
ENDBRANCH  28  29
ENDBRANCH  27  28
ENDBRANCH  26  27
ENDBRANCH  25  26
ENDBRANCH  24  25
ENDBRANCH  23  24
ENDBRANCH  22  23
ENDBRANCH  21  22
ENDBRANCH  20  21
ENDBRANCH  19  20
ENDBRANCH  18  19
ENDBRANCH  17  18
ENDBRANCH   1  17
TORSDOF 28
ENDMDL
MODEL 7
REMARK VINA RESULT:    -3.808      1.395      8.095
REMARK INTER + INTRA:         -15.049
REMARK INTER:                  -9.942
REMARK INTRA:                  -5.108
REMARK UNBOUND:                -5.119
REMARK SMILES CCCCCCCCCCCCCCCCCCCCCCCCCCCCCO
REMARK SMILES IDX 16 1 15 2 14 3 13 4 12 5 11 6 10 7 9 8 8 9 7 10 6 11 5 12
REMARK SMILES IDX 4 13 3 14 2 15 1 16 17 17 18 18 19 19 20 20 21 21 22 22
REMARK SMILES IDX 23 23 24 24 25 25 26 26 27 27 28 28 29 29 30 30
REMARK H PARENT 30 31
REMARK Flexibility Score: inf
ROOT
ATOM      1  C   UNL     1      26.423  -2.213  21.663  1.00  0.00     0.000 C 
ENDROOT
BRANCH   1   2
ATOM      2  C   UNL     1      27.869  -2.559  22.057  1.00  0.00     0.000 C 
BRANCH   2   3
ATOM      3  C   UNL     1      28.025  -3.233  23.435  1.00  0.00     0.000 C 
BRANCH   3   4
ATOM      4  C   UNL     1      26.709  -3.462  24.201  1.00  0.00     0.000 C 
BRANCH   4   5
ATOM      5  C   UNL     1      26.788  -3.022  25.670  1.00  0.00     0.000 C 
BRANCH   5   6
ATOM      6  C   UNL     1      25.613  -2.109  26.039  1.00  0.00     0.000 C 
BRANCH   6   7
ATOM      7  C   UNL     1      24.580  -2.058  24.903  1.00  0.00     0.000 C 
BRANCH   7   8
ATOM      8  C   UNL     1      24.451  -0.664  24.272  1.00  0.00    -0.000 C 
BRANCH   8   9
ATOM      9  C   UNL     1      25.183   0.422  25.079  1.00  0.00    -0.000 C 
BRANCH   9  10
ATOM     10  C   UNL     1      26.209   1.196  24.236  1.00  0.00    -0.000 C 
BRANCH  10  11
ATOM     11  C   UNL     1      27.555   0.456  24.114  1.00  0.00    -0.000 C 
BRANCH  11  12
ATOM     12  C   UNL     1      28.275   0.331  25.468  1.00  0.00    -0.000 C 
BRANCH  12  13
ATOM     13  C   UNL     1      29.604  -0.455  25.384  1.00  0.00    -0.000 C 
BRANCH  13  14
ATOM     14  C   UNL     1      30.314  -0.326  24.022  1.00  0.00    -0.000 C 
BRANCH  14  15
ATOM     15  C   UNL     1      31.299   0.851  23.925  1.00  0.00    -0.003 C 
ATOM     16  C   UNL     1      32.717   0.411  23.565  1.00  0.00     0.004 C 
ENDBRANCH  14  15
ENDBRANCH  13  14
ENDBRANCH  12  13
ENDBRANCH  11  12
ENDBRANCH  10  11
ENDBRANCH   9  10
ENDBRANCH   8   9
ENDBRANCH   7   8
ENDBRANCH   6   7
ENDBRANCH   5   6
ENDBRANCH   4   5
ENDBRANCH   3   4
ENDBRANCH   2   3
ENDBRANCH   1   2
BRANCH   1  17
ATOM     17  C   UNL     1      26.294  -0.816  21.038  1.00  0.00     0.000 C 
BRANCH  17  18
ATOM     18  C   UNL     1      27.634  -0.357  20.445  1.00  0.00     0.000 C 
BRANCH  18  19
ATOM     19  C   UNL     1      27.678  -0.473  18.914  1.00  0.00     0.000 C 
BRANCH  19  20
ATOM     20  C   UNL     1      26.288  -0.343  18.272  1.00  0.00     0.000 C 
BRANCH  20  21
ATOM     21  C   UNL     1      25.946  -1.590  17.441  1.00  0.00     0.000 C 
BRANCH  21  22
ATOM     22  C   UNL     1      26.786  -2.818  17.833  1.00  0.00     0.000 C 
BRANCH  22  23
ATOM     23  C   UNL     1      27.149  -3.757  16.665  1.00  0.00     0.000 C 
BRANCH  23  24
ATOM     24  C   UNL     1      26.049  -3.869  15.587  1.00  0.00     0.000 C 
BRANCH  24  25
ATOM     25  C   UNL     1      25.055  -5.003  15.877  1.00  0.00     0.000 C 
BRANCH  25  26
ATOM     26  C   UNL     1      23.720  -4.448  16.388  1.00  0.00     0.000 C 
BRANCH  26  27
ATOM     27  C   UNL     1      23.607  -4.602  17.913  1.00  0.00     0.002 C 
BRANCH  27  28
ATOM     28  C   UNL     1      22.657  -3.573  18.544  1.00  0.00     0.028 C 
BRANCH  28  29
ATOM     29  C   UNL     1      23.229  -2.935  19.814  1.00  0.00     0.156 C 
BRANCH  29  30
ATOM     30  O   UNL     1      23.166  -1.541  19.702  1.00  0.00    -0.396 OA
ATOM     31  H   UNL     1      22.485  -1.243  20.359  1.00  0.00     0.210 HD
ENDBRANCH  29  30
ENDBRANCH  28  29
ENDBRANCH  27  28
ENDBRANCH  26  27
ENDBRANCH  25  26
ENDBRANCH  24  25
ENDBRANCH  23  24
ENDBRANCH  22  23
ENDBRANCH  21  22
ENDBRANCH  20  21
ENDBRANCH  19  20
ENDBRANCH  18  19
ENDBRANCH  17  18
ENDBRANCH   1  17
TORSDOF 28
ENDMDL
MODEL 8
REMARK VINA RESULT:    -3.801      1.193      7.548
REMARK INTER + INTRA:         -15.031
REMARK INTER:                 -10.011
REMARK INTRA:                  -5.019
REMARK UNBOUND:                -5.119
REMARK SMILES CCCCCCCCCCCCCCCCCCCCCCCCCCCCCO
REMARK SMILES IDX 16 1 15 2 14 3 13 4 12 5 11 6 10 7 9 8 8 9 7 10 6 11 5 12
REMARK SMILES IDX 4 13 3 14 2 15 1 16 17 17 18 18 19 19 20 20 21 21 22 22
REMARK SMILES IDX 23 23 24 24 25 25 26 26 27 27 28 28 29 29 30 30
REMARK H PARENT 30 31
REMARK Flexibility Score: inf
ROOT
ATOM      1  C   UNL     1      26.995  -1.041  20.980  1.00  0.00     0.000 C 
ENDROOT
BRANCH   1   2
ATOM      2  C   UNL     1      27.095  -2.560  20.752  1.00  0.00     0.000 C 
BRANCH   2   3
ATOM      3  C   UNL     1      27.245  -3.402  22.036  1.00  0.00     0.000 C 
BRANCH   3   4
ATOM      4  C   UNL     1      26.759  -2.715  23.326  1.00  0.00     0.000 C 
BRANCH   4   5
ATOM      5  C   UNL     1      27.818  -2.721  24.439  1.00  0.00     0.000 C 
BRANCH   5   6
ATOM      6  C   UNL     1      29.211  -3.029  23.877  1.00  0.00     0.000 C 
BRANCH   6   7
ATOM      7  C   UNL     1      30.162  -1.841  24.084  1.00  0.00     0.000 C 
BRANCH   7   8
ATOM      8  C   UNL     1      30.242  -0.917  22.858  1.00  0.00    -0.000 C 
BRANCH   8   9
ATOM      9  C   UNL     1      29.752   0.509  23.159  1.00  0.00    -0.000 C 
BRANCH   9  10
ATOM     10  C   UNL     1      29.623   0.785  24.666  1.00  0.00    -0.000 C 
BRANCH  10  11
ATOM     11  C   UNL     1      28.202   1.222  25.069  1.00  0.00    -0.000 C 
BRANCH  11  12
ATOM     12  C   UNL     1      27.222   1.182  23.883  1.00  0.00    -0.000 C 
BRANCH  12  13
ATOM     13  C   UNL     1      25.797   0.735  24.281  1.00  0.00    -0.000 C 
BRANCH  13  14
ATOM     14  C   UNL     1      25.722   0.071  25.669  1.00  0.00    -0.000 C 
BRANCH  14  15
ATOM     15  C   UNL     1      24.540  -0.896  25.850  1.00  0.00    -0.003 C 
ATOM     16  C   UNL     1      23.402  -0.635  24.864  1.00  0.00     0.004 C 
ENDBRANCH  14  15
ENDBRANCH  13  14
ENDBRANCH  12  13
ENDBRANCH  11  12
ENDBRANCH  10  11
ENDBRANCH   9  10
ENDBRANCH   8   9
ENDBRANCH   7   8
ENDBRANCH   6   7
ENDBRANCH   5   6
ENDBRANCH   4   5
ENDBRANCH   3   4
ENDBRANCH   2   3
ENDBRANCH   1   2
BRANCH   1  17
ATOM     17  C   UNL     1      27.913  -0.237  20.048  1.00  0.00     0.000 C 
BRANCH  17  18
ATOM     18  C   UNL     1      27.094   0.512  18.987  1.00  0.00     0.000 C 
BRANCH  18  19
ATOM     19  C   UNL     1      27.084  -0.202  17.627  1.00  0.00     0.000 C 
BRANCH  19  20
ATOM     20  C   UNL     1      25.893  -1.160  17.473  1.00  0.00     0.000 C 
BRANCH  20  21
ATOM     21  C   UNL     1      26.362  -2.557  17.040  1.00  0.00     0.000 C 
BRANCH  21  22
ATOM     22  C   UNL     1      25.690  -3.038  15.742  1.00  0.00     0.000 C 
BRANCH  22  23
ATOM     23  C   UNL     1      24.607  -4.120  15.933  1.00  0.00     0.000 C 
BRANCH  23  24
ATOM     24  C   UNL     1      23.222  -3.558  16.318  1.00  0.00     0.000 C 
BRANCH  24  25
ATOM     25  C   UNL     1      22.474  -4.465  17.306  1.00  0.00     0.000 C 
BRANCH  25  26
ATOM     26  C   UNL     1      21.868  -3.648  18.453  1.00  0.00     0.000 C 
BRANCH  26  27
ATOM     27  C   UNL     1      22.746  -3.732  19.712  1.00  0.00     0.002 C 
BRANCH  27  28
ATOM     28  C   UNL     1      23.430  -2.397  20.047  1.00  0.00     0.028 C 
BRANCH  28  29
ATOM     29  C   UNL     1      23.545  -2.149  21.554  1.00  0.00     0.156 C 
BRANCH  29  30
ATOM     30  O   UNL     1      23.209  -3.319  22.245  1.00  0.00    -0.396 OA
ATOM     31  H   UNL     1      24.017  -3.574  22.763  1.00  0.00     0.210 HD
ENDBRANCH  29  30
ENDBRANCH  28  29
ENDBRANCH  27  28
ENDBRANCH  26  27
ENDBRANCH  25  26
ENDBRANCH  24  25
ENDBRANCH  23  24
ENDBRANCH  22  23
ENDBRANCH  21  22
ENDBRANCH  20  21
ENDBRANCH  19  20
ENDBRANCH  18  19
ENDBRANCH  17  18
ENDBRANCH   1  17
TORSDOF 28
ENDMDL
MODEL 9
REMARK VINA RESULT:    -3.792      1.643      7.303
REMARK INTER + INTRA:         -15.008
REMARK INTER:                  -9.367
REMARK INTRA:                  -5.641
REMARK UNBOUND:                -5.119
REMARK SMILES CCCCCCCCCCCCCCCCCCCCCCCCCCCCCO
REMARK SMILES IDX 16 1 15 2 14 3 13 4 12 5 11 6 10 7 9 8 8 9 7 10 6 11 5 12
REMARK SMILES IDX 4 13 3 14 2 15 1 16 17 17 18 18 19 19 20 20 21 21 22 22
REMARK SMILES IDX 23 23 24 24 25 25 26 26 27 27 28 28 29 29 30 30
REMARK H PARENT 30 31
REMARK Flexibility Score: inf
ROOT
ATOM      1  C   UNL     1      27.055  -1.631  20.804  1.00  0.00     0.000 C 
ENDROOT
BRANCH   1   2
ATOM      2  C   UNL     1      26.854  -2.157  22.235  1.00  0.00     0.000 C 
BRANCH   2   3
ATOM      3  C   UNL     1      27.939  -3.137  22.726  1.00  0.00     0.000 C 
BRANCH   3   4
ATOM      4  C   UNL     1      29.058  -2.500  23.571  1.00  0.00     0.000 C 
BRANCH   4   5
ATOM      5  C   UNL     1      29.836  -1.415  22.811  1.00  0.00     0.000 C 
BRANCH   5   6
ATOM      6  C   UNL     1      30.587  -0.492  23.778  1.00  0.00     0.000 C 
BRANCH   6   7
ATOM      7  C   UNL     1      30.325   0.984  23.444  1.00  0.00     0.000 C 
BRANCH   7   8
ATOM      8  C   UNL     1      28.886   1.245  22.972  1.00  0.00    -0.000 C 
BRANCH   8   9
ATOM      9  C   UNL     1      27.929   1.557  24.135  1.00  0.00    -0.000 C 
BRANCH   9  10
ATOM     10  C   UNL     1      26.488   1.100  23.854  1.00  0.00    -0.000 C 
BRANCH  10  11
ATOM     11  C   UNL     1      25.831   0.427  25.075  1.00  0.00    -0.000 C 
BRANCH  11  12
ATOM     12  C   UNL     1      26.746  -0.630  25.718  1.00  0.00    -0.000 C 
BRANCH  12  13
ATOM     13  C   UNL     1      26.081  -2.020  25.842  1.00  0.00    -0.000 C 
BRANCH  13  14
ATOM     14  C   UNL     1      24.545  -1.985  25.721  1.00  0.00    -0.000 C 
BRANCH  14  15
ATOM     15  C   UNL     1      23.988  -2.679  24.466  1.00  0.00    -0.003 C 
ATOM     16  C   UNL     1      23.324  -1.705  23.494  1.00  0.00     0.004 C 
ENDBRANCH  14  15
ENDBRANCH  13  14
ENDBRANCH  12  13
ENDBRANCH  11  12
ENDBRANCH  10  11
ENDBRANCH   9  10
ENDBRANCH   8   9
ENDBRANCH   7   8
ENDBRANCH   6   7
ENDBRANCH   5   6
ENDBRANCH   4   5
ENDBRANCH   3   4
ENDBRANCH   2   3
ENDBRANCH   1   2
BRANCH   1  17
ATOM     17  C   UNL     1      25.969  -0.631  20.378  1.00  0.00     0.000 C 
BRANCH  17  18
ATOM     18  C   UNL     1      25.485  -0.925  18.950  1.00  0.00     0.000 C 
BRANCH  18  19
ATOM     19  C   UNL     1      26.489  -0.473  17.877  1.00  0.00     0.000 C 
BRANCH  19  20
ATOM     20  C   UNL     1      26.720  -1.543  16.799  1.00  0.00     0.000 C 
BRANCH  20  21
ATOM     21  C   UNL     1      25.423  -2.308  16.495  1.00  0.00     0.000 C 
BRANCH  21  22
ATOM     22  C   UNL     1      25.591  -3.834  16.594  1.00  0.00     0.000 C 
BRANCH  22  23
ATOM     23  C   UNL     1      26.743  -4.303  17.506  1.00  0.00     0.000 C 
BRANCH  23  24
ATOM     24  C   UNL     1      26.311  -4.596  18.960  1.00  0.00     0.000 C 
BRANCH  24  25
ATOM     25  C   UNL     1      24.802  -4.854  19.082  1.00  0.00     0.000 C 
BRANCH  25  26
ATOM     26  C   UNL     1      24.277  -4.411  20.453  1.00  0.00     0.000 C 
BRANCH  26  27
ATOM     27  C   UNL     1      23.096  -3.439  20.302  1.00  0.00     0.002 C 
BRANCH  27  28
ATOM     28  C   UNL     1      22.705  -3.206  18.834  1.00  0.00     0.028 C 
BRANCH  28  29
ATOM     29  C   UNL     1      21.207  -3.400  18.578  1.00  0.00     0.156 C 
BRANCH  29  30
ATOM     30  O   UNL     1      20.902  -2.994  17.274  1.00  0.00    -0.396 OA
ATOM     31  H   UNL     1      20.105  -2.408  17.347  1.00  0.00     0.210 HD
ENDBRANCH  29  30
ENDBRANCH  28  29
ENDBRANCH  27  28
ENDBRANCH  26  27
ENDBRANCH  25  26
ENDBRANCH  24  25
ENDBRANCH  23  24
ENDBRANCH  22  23
ENDBRANCH  21  22
ENDBRANCH  20  21
ENDBRANCH  19  20
ENDBRANCH  18  19
ENDBRANCH  17  18
ENDBRANCH   1  17
TORSDOF 28
ENDMDL
