MODEL 1
REMARK VINA RESULT:    -6.489      0.000      0.000
REMARK INTER + INTRA:          -8.023
REMARK INTER:                  -7.816
REMARK INTRA:                  -0.206
REMARK UNBOUND:                -0.206
REMARK SMILES O=c1c(O)c(-c2ccc(O)c(O)c2)oc2cc(O)cc(O)c12
REMARK SMILES IDX 5 1 3 2 2 3 1 4 22 5 20 6 19 7 17 8 16 9 15 10 14 11 6 12
REMARK SMILES IDX 7 13 8 14 9 15 13 16 11 17 10 18 12 20 4 22 21 24 18 26
REMARK H PARENT 10 19 12 21 4 23 21 25 18 27
REMARK Flexibility Score: inf
ROOT
ATOM      1  C   UNL     1     -14.515 -33.321 -13.099  1.00  0.00     0.180 A 
ATOM      2  C   UNL     1     -13.479 -33.528 -14.027  1.00  0.00     0.208 A 
ATOM      3  C   UNL     1     -13.689 -34.416 -15.094  1.00  0.00     0.238 A 
ATOM      4  O   UNL     1     -12.739 -34.639 -15.890  1.00  0.00    -0.285 OA
ATOM      5  C   UNL     1     -14.936 -35.073 -15.230  1.00  0.00     0.111 A 
ATOM      6  C   UNL     1     -15.271 -35.962 -16.296  1.00  0.00     0.134 A 
ATOM      7  C   UNL     1     -16.487 -36.655 -16.260  1.00  0.00     0.093 A 
ATOM      8  C   UNL     1     -17.407 -36.442 -15.230  1.00  0.00     0.123 A 
ATOM      9  C   UNL     1     -17.113 -35.532 -14.217  1.00  0.00     0.094 A 
ATOM     10  C   UNL     1     -15.894 -34.852 -14.207  1.00  0.00     0.146 A 
ATOM     11  O   UNL     1     -15.649 -34.001 -13.218  1.00  0.00    -0.452 OA
ENDROOT
BRANCH   1  12
ATOM     12  C   UNL     1     -14.378 -32.383 -11.962  1.00  0.00     0.025 A 
ATOM     13  C   UNL     1     -13.515 -32.656 -10.887  1.00  0.00     0.016 A 
ATOM     14  C   UNL     1     -13.384 -31.743  -9.837  1.00  0.00     0.051 A 
ATOM     15  C   UNL     1     -14.102 -30.541  -9.852  1.00  0.00     0.157 A 
ATOM     16  C   UNL     1     -15.080 -31.165 -11.982  1.00  0.00     0.062 A 
ATOM     17  C   UNL     1     -14.950 -30.251 -10.928  1.00  0.00     0.158 A 
BRANCH  15  18
ATOM     18  O   UNL     1     -13.975 -29.629  -8.805  1.00  0.00    -0.504 OA
ATOM     19  H   UNL     1     -13.349 -29.800  -8.027  1.00  0.00     0.293 HD
ENDBRANCH  15  18
BRANCH  17  20
ATOM     20  O   UNL     1     -15.658 -29.050 -10.944  1.00  0.00    -0.504 OA
ATOM     21  H   UNL     1     -15.279 -28.206 -10.531  1.00  0.00     0.293 HD
ENDBRANCH  17  20
ENDBRANCH   1  12
BRANCH   2  22
ATOM     22  O   UNL     1     -12.248 -32.888 -13.860  1.00  0.00    -0.502 OA
ATOM     23  H   UNL     1     -12.067 -31.957 -14.215  1.00  0.00     0.293 HD
ENDBRANCH   2  22
BRANCH   6  24
ATOM     24  O   UNL     1     -14.464 -36.176 -17.417  1.00  0.00    -0.507 OA
ATOM     25  H   UNL     1     -14.487 -35.616 -18.256  1.00  0.00     0.293 HD
ENDBRANCH   6  24
BRANCH   8  26
ATOM     26  O   UNL     1     -18.621 -37.125 -15.209  1.00  0.00    -0.508 OA
ATOM     27  H   UNL     1     -19.194 -37.213 -16.041  1.00  0.00     0.293 HD
ENDBRANCH   8  26
TORSDOF 6
ENDMDL
MODEL 2
REMARK VINA RESULT:    -6.349      2.315      6.127
REMARK INTER + INTRA:          -7.855
REMARK INTER:                  -7.552
REMARK INTRA:                  -0.302
REMARK UNBOUND:                -0.206
REMARK SMILES O=c1c(O)c(-c2ccc(O)c(O)c2)oc2cc(O)cc(O)c12
REMARK SMILES IDX 5 1 3 2 2 3 1 4 22 5 20 6 19 7 17 8 16 9 15 10 14 11 6 12
REMARK SMILES IDX 7 13 8 14 9 15 13 16 11 17 10 18 12 20 4 22 21 24 18 26
REMARK H PARENT 10 19 12 21 4 23 21 25 18 27
REMARK Flexibility Score: inf
ROOT
ATOM      1  C   UNL     1     -16.966 -35.492 -14.390  1.00  0.00     0.180 A 
ATOM      2  C   UNL     1     -16.324 -36.176 -15.437  1.00  0.00     0.208 A 
ATOM      3  C   UNL     1     -14.983 -35.877 -15.725  1.00  0.00     0.238 A 
ATOM      4  O   UNL     1     -14.431 -36.453 -16.698  1.00  0.00    -0.285 OA
ATOM      5  C   UNL     1     -14.295 -34.910 -14.952  1.00  0.00     0.111 A 
ATOM      6  C   UNL     1     -12.923 -34.558 -15.130  1.00  0.00     0.134 A 
ATOM      7  C   UNL     1     -12.382 -33.496 -14.394  1.00  0.00     0.093 A 
ATOM      8  C   UNL     1     -13.146 -32.817 -13.441  1.00  0.00     0.123 A 
ATOM      9  C   UNL     1     -14.470 -33.193 -13.219  1.00  0.00     0.094 A 
ATOM     10  C   UNL     1     -15.047 -34.225 -13.962  1.00  0.00     0.146 A 
ATOM     11  O   UNL     1     -16.314 -34.545 -13.726  1.00  0.00    -0.452 OA
ENDROOT
BRANCH   1  12
ATOM     12  C   UNL     1     -18.370 -35.770 -14.011  1.00  0.00     0.025 A 
ATOM     13  C   UNL     1     -18.712 -36.896 -13.243  1.00  0.00     0.016 A 
ATOM     14  C   UNL     1     -20.041 -37.125 -12.876  1.00  0.00     0.051 A 
ATOM     15  C   UNL     1     -21.044 -36.226 -13.261  1.00  0.00     0.157 A 
ATOM     16  C   UNL     1     -19.378 -34.860 -14.375  1.00  0.00     0.062 A 
ATOM     17  C   UNL     1     -20.711 -35.091 -14.009  1.00  0.00     0.158 A 
BRANCH  15  18
ATOM     18  O   UNL     1     -22.371 -36.452 -12.898  1.00  0.00    -0.504 OA
ATOM     19  H   UNL     1     -22.980 -35.694 -12.615  1.00  0.00     0.293 HD
ENDBRANCH  15  18
BRANCH  17  20
ATOM     20  O   UNL     1     -21.711 -34.194 -14.384  1.00  0.00    -0.504 OA
ATOM     21  H   UNL     1     -21.771 -33.268 -13.978  1.00  0.00     0.293 HD
ENDBRANCH  17  20
ENDBRANCH   1  12
BRANCH   2  22
ATOM     22  O   UNL     1     -17.029 -37.109 -16.202  1.00  0.00    -0.502 OA
ATOM     23  H   UNL     1     -17.408 -36.890 -17.115  1.00  0.00     0.293 HD
ENDBRANCH   2  22
BRANCH   6  24
ATOM     24  O   UNL     1     -12.049 -35.231 -15.988  1.00  0.00    -0.507 OA
ATOM     25  H   UNL     1     -11.623 -36.123 -15.789  1.00  0.00     0.293 HD
ENDBRANCH   6  24
BRANCH   8  26
ATOM     26  O   UNL     1     -12.597 -31.771 -12.703  1.00  0.00    -0.508 OA
ATOM     27  H   UNL     1     -11.593 -31.648 -12.625  1.00  0.00     0.293 HD
ENDBRANCH   8  26
TORSDOF 6
ENDMDL
