MODEL 1
REMARK VINA RESULT:    -4.266      0.000      0.000
REMARK INTER + INTRA:          -4.764
REMARK INTER:                  -4.764
REMARK INTRA:                   0.000
REMARK UNBOUND:                 0.000
REMARK SMILES Oc1cc(O)c2c(c1)CCc1cc(O)c(O)cc1-2
REMARK SMILES IDX 10 1 9 2 7 3 6 4 18 5 17 6 15 7 13 8 12 9 11 10 4 11 3 12
REMARK SMILES IDX 2 13 8 14 14 15 5 17 1 19 16 21
REMARK H PARENT 14 16 5 18 1 20 16 22
REMARK Flexibility Score: inf
ROOT
ATOM      1  C   UNL     1     113.875 129.051 109.039  1.00  0.00     0.041 C 
ATOM      2  C   UNL     1     113.935 127.984 110.137  1.00  0.00     0.041 C 
ATOM      3  C   UNL     1     114.696 126.771 109.657  1.00  0.00    -0.032 A 
ATOM      4  C   UNL     1     115.807 126.928 108.794  1.00  0.00     0.027 A 
ATOM      5  C   UNL     1     116.211 128.319 108.410  1.00  0.00    -0.007 A 
ATOM      6  C   UNL     1     117.527 128.650 108.032  1.00  0.00     0.059 A 
ATOM      7  C   UNL     1     117.863 129.963 107.674  1.00  0.00     0.158 A 
ATOM      8  C   UNL     1     116.887 130.971 107.720  1.00  0.00     0.157 A 
ATOM      9  C   UNL     1     115.595 130.666 108.150  1.00  0.00     0.054 A 
ATOM     10  C   UNL     1     115.260 129.358 108.528  1.00  0.00    -0.036 A 
ATOM     11  C   UNL     1     116.436 125.767 108.279  1.00  0.00     0.127 A 
ATOM     12  C   UNL     1     116.038 124.499 108.726  1.00  0.00     0.093 A 
ATOM     13  C   UNL     1     114.992 124.361 109.639  1.00  0.00     0.119 A 
ATOM     14  C   UNL     1     114.317 125.495 110.098  1.00  0.00     0.050 A 
ENDROOT
BRANCH   8  15
ATOM     15  O   UNL     1     117.188 132.283 107.353  1.00  0.00    -0.504 OA
ATOM     16  H   UNL     1     117.932 132.503 106.702  1.00  0.00     0.293 HD
ENDBRANCH   8  15
BRANCH  11  17
ATOM     17  O   UNL     1     117.422 125.858 107.298  1.00  0.00    -0.507 OA
ATOM     18  H   UNL     1     117.533 125.146 106.585  1.00  0.00     0.293 HD
ENDBRANCH  11  17
BRANCH  13  19
ATOM     19  O   UNL     1     114.622 123.090 110.073  1.00  0.00    -0.508 OA
ATOM     20  H   UNL     1     115.099 122.258 109.745  1.00  0.00     0.293 HD
ENDBRANCH  13  19
BRANCH   7  21
ATOM     21  O   UNL     1     119.165 130.272 107.283  1.00  0.00    -0.504 OA
ATOM     22  H   UNL     1     119.365 131.065 106.684  1.00  0.00     0.293 HD
ENDBRANCH   7  21
TORSDOF 4
ENDMDL
MODEL 2
REMARK VINA RESULT:    -4.243     10.585     13.540
REMARK INTER + INTRA:          -4.739
REMARK INTER:                  -4.739
REMARK INTRA:                   0.000
REMARK UNBOUND:                 0.000
REMARK SMILES Oc1cc(O)c2c(c1)CCc1cc(O)c(O)cc1-2
REMARK SMILES IDX 10 1 9 2 7 3 6 4 18 5 17 6 15 7 13 8 12 9 11 10 4 11 3 12
REMARK SMILES IDX 2 13 8 14 14 15 5 17 1 19 16 21
REMARK H PARENT 14 16 5 18 1 20 16 22
REMARK Flexibility Score: inf
ROOT
ATOM      1  C   UNL     1     119.905 113.875 108.933  1.00  0.00     0.041 C 
ATOM      2  C   UNL     1     120.961 113.894 110.044  1.00  0.00     0.041 C 
ATOM      3  C   UNL     1     122.193 114.641 109.593  1.00  0.00    -0.032 A 
ATOM      4  C   UNL     1     122.067 115.771 108.749  1.00  0.00     0.027 A 
ATOM      5  C   UNL     1     120.688 116.208 108.358  1.00  0.00    -0.007 A 
ATOM      6  C   UNL     1     120.386 117.538 108.001  1.00  0.00     0.059 A 
ATOM      7  C   UNL     1     119.083 117.904 107.636  1.00  0.00     0.158 A 
ATOM      8  C   UNL     1     118.057 116.947 107.651  1.00  0.00     0.157 A 
ATOM      9  C   UNL     1     118.333 115.641 108.060  1.00  0.00     0.054 A 
ATOM     10  C   UNL     1     119.630 115.275 108.446  1.00  0.00    -0.036 A 
ATOM     11  C   UNL     1     123.245 116.388 108.260  1.00  0.00     0.127 A 
ATOM     12  C   UNL     1     124.500 115.958 108.713  1.00  0.00     0.093 A 
ATOM     13  C   UNL     1     124.608 114.893 109.607  1.00  0.00     0.119 A 
ATOM     14  C   UNL     1     123.457 114.231 110.040  1.00  0.00     0.050 A 
ENDROOT
BRANCH   8  15
ATOM     15  O   UNL     1     116.755 117.280 107.276  1.00  0.00    -0.504 OA
ATOM     16  H   UNL     1     116.043 117.517 107.955  1.00  0.00     0.293 HD
ENDBRANCH   8  15
BRANCH  11  17
ATOM     17  O   UNL     1     123.183 117.395 107.297  1.00  0.00    -0.507 OA
ATOM     18  H   UNL     1     122.727 117.251 106.403  1.00  0.00     0.293 HD
ENDBRANCH  11  17
BRANCH  13  19
ATOM     19  O   UNL     1     125.867 114.491 110.048  1.00  0.00    -0.508 OA
ATOM     20  H   UNL     1     126.193 114.701 110.984  1.00  0.00     0.293 HD
ENDBRANCH  13  19
BRANCH   7  21
ATOM     21  O   UNL     1     118.803 119.220 107.266  1.00  0.00    -0.504 OA
ATOM     22  H   UNL     1     117.850 119.555 107.179  1.00  0.00     0.293 HD
ENDBRANCH   7  21
TORSDOF 4
ENDMDL
MODEL 3
REMARK VINA RESULT:    -3.982      9.246     10.845
REMARK INTER + INTRA:          -4.448
REMARK INTER:                  -4.448
REMARK INTRA:                   0.000
REMARK UNBOUND:                 0.000
REMARK SMILES Oc1cc(O)c2c(c1)CCc1cc(O)c(O)cc1-2
REMARK SMILES IDX 10 1 9 2 7 3 6 4 18 5 17 6 15 7 13 8 12 9 11 10 4 11 3 12
REMARK SMILES IDX 2 13 8 14 14 15 5 17 1 19 16 21
REMARK H PARENT 14 16 5 18 1 20 16 22
REMARK Flexibility Score: inf
ROOT
ATOM      1  C   UNL     1     125.945 122.632 108.954  1.00  0.00     0.041 C 
ATOM      2  C   UNL     1     124.879 121.878 108.151  1.00  0.00     0.041 C 
ATOM      3  C   UNL     1     123.995 122.846 107.402  1.00  0.00    -0.032 A 
ATOM      4  C   UNL     1     124.545 124.034 106.862  1.00  0.00     0.027 A 
ATOM      5  C   UNL     1     126.015 124.271 107.031  1.00  0.00    -0.007 A 
ATOM      6  C   UNL     1     126.761 125.073 106.145  1.00  0.00     0.059 A 
ATOM      7  C   UNL     1     128.134 125.274 106.342  1.00  0.00     0.158 A 
ATOM      8  C   UNL     1     128.785 124.649 107.417  1.00  0.00     0.157 A 
ATOM      9  C   UNL     1     128.067 123.805 108.266  1.00  0.00     0.054 A 
ATOM     10  C   UNL     1     126.698 123.585 108.061  1.00  0.00    -0.036 A 
ATOM     11  C   UNL     1     123.673 124.971 106.254  1.00  0.00     0.127 A 
ATOM     12  C   UNL     1     122.317 124.656 106.083  1.00  0.00     0.093 A 
ATOM     13  C   UNL     1     121.802 123.446 106.549  1.00  0.00     0.119 A 
ATOM     14  C   UNL     1     122.638 122.547 107.214  1.00  0.00     0.050 A 
ENDROOT
BRANCH   8  15
ATOM     15  O   UNL     1     130.147 124.845 107.647  1.00  0.00    -0.504 OA
ATOM     16  H   UNL     1     130.718 125.424 107.044  1.00  0.00     0.293 HD
ENDBRANCH   8  15
BRANCH  11  17
ATOM     17  O   UNL     1     124.129 126.228 105.858  1.00  0.00    -0.507 OA
ATOM     18  H   UNL     1     123.493 126.953 105.547  1.00  0.00     0.293 HD
ENDBRANCH  11  17
BRANCH  13  19
ATOM     19  O   UNL     1     120.453 123.155 106.359  1.00  0.00    -0.508 OA
ATOM     20  H   UNL     1     119.801 123.856 106.027  1.00  0.00     0.293 HD
ENDBRANCH  13  19
BRANCH   7  21
ATOM     21  O   UNL     1     128.856 126.087 105.469  1.00  0.00    -0.504 OA
ATOM     22  H   UNL     1     128.737 127.093 105.459  1.00  0.00     0.293 HD
ENDBRANCH   7  21
TORSDOF 4
ENDMDL
MODEL 4
REMARK VINA RESULT:    -3.966      7.298      9.561
REMARK INTER + INTRA:          -4.430
REMARK INTER:                  -4.430
REMARK INTRA:                   0.000
REMARK UNBOUND:                 0.000
REMARK SMILES Oc1cc(O)c2c(c1)CCc1cc(O)c(O)cc1-2
REMARK SMILES IDX 10 1 9 2 7 3 6 4 18 5 17 6 15 7 13 8 12 9 11 10 4 11 3 12
REMARK SMILES IDX 2 13 8 14 14 15 5 17 1 19 16 21
REMARK H PARENT 14 16 5 18 1 20 16 22
REMARK Flexibility Score: inf
ROOT
ATOM      1  C   UNL     1     122.982 126.368 108.974  1.00  0.00     0.041 C 
ATOM      2  C   UNL     1     124.042 127.125 108.166  1.00  0.00     0.041 C 
ATOM      3  C   UNL     1     124.933 126.160 107.422  1.00  0.00    -0.032 A 
ATOM      4  C   UNL     1     124.392 124.964 106.890  1.00  0.00     0.027 A 
ATOM      5  C   UNL     1     122.924 124.716 107.062  1.00  0.00    -0.007 A 
ATOM      6  C   UNL     1     122.184 123.903 106.181  1.00  0.00     0.059 A 
ATOM      7  C   UNL     1     120.813 123.692 106.380  1.00  0.00     0.158 A 
ATOM      8  C   UNL     1     120.157 124.319 107.452  1.00  0.00     0.157 A 
ATOM      9  C   UNL     1     120.869 125.174 108.295  1.00  0.00     0.054 A 
ATOM     10  C   UNL     1     122.236 125.404 108.087  1.00  0.00    -0.036 A 
ATOM     11  C   UNL     1     125.271 124.031 106.287  1.00  0.00     0.127 A 
ATOM     12  C   UNL     1     126.624 124.355 106.113  1.00  0.00     0.093 A 
ATOM     13  C   UNL     1     127.130 125.572 106.571  1.00  0.00     0.119 A 
ATOM     14  C   UNL     1     126.287 126.469 107.232  1.00  0.00     0.050 A 
ENDROOT
BRANCH   8  15
ATOM     15  O   UNL     1     118.797 124.114 107.684  1.00  0.00    -0.504 OA
ATOM     16  H   UNL     1     118.447 123.775 108.572  1.00  0.00     0.293 HD
ENDBRANCH   8  15
BRANCH  11  17
ATOM     17  O   UNL     1     124.825 122.768 105.899  1.00  0.00    -0.507 OA
ATOM     18  H   UNL     1     125.451 122.082 105.494  1.00  0.00     0.293 HD
ENDBRANCH  11  17
BRANCH  13  19
ATOM     19  O   UNL     1     128.476 125.873 106.378  1.00  0.00    -0.508 OA
ATOM     20  H   UNL     1     129.061 125.317 105.766  1.00  0.00     0.293 HD
ENDBRANCH  13  19
BRANCH   7  21
ATOM     21  O   UNL     1     120.096 122.869 105.512  1.00  0.00    -0.504 OA
ATOM     22  H   UNL     1     119.085 122.908 105.456  1.00  0.00     0.293 HD
ENDBRANCH   7  21
TORSDOF 4
ENDMDL
MODEL 5
REMARK VINA RESULT:    -3.900      8.358      9.719
REMARK INTER + INTRA:          -4.355
REMARK INTER:                  -4.355
REMARK INTRA:                   0.000
REMARK UNBOUND:                 0.000
REMARK SMILES Oc1cc(O)c2c(c1)CCc1cc(O)c(O)cc1-2
REMARK SMILES IDX 10 1 9 2 7 3 6 4 18 5 17 6 15 7 13 8 12 9 11 10 4 11 3 12
REMARK SMILES IDX 2 13 8 14 14 15 5 17 1 19 16 21
REMARK H PARENT 14 16 5 18 1 20 16 22
REMARK Flexibility Score: inf
ROOT
ATOM      1  C   UNL     1     126.252 125.999 109.084  1.00  0.00     0.041 C 
ATOM      2  C   UNL     1     127.042 124.936 108.312  1.00  0.00     0.041 C 
ATOM      3  C   UNL     1     126.110 124.058 107.513  1.00  0.00    -0.032 A 
ATOM      4  C   UNL     1     124.950 124.612 106.919  1.00  0.00     0.027 A 
ATOM      5  C   UNL     1     124.706 126.081 107.086  1.00  0.00    -0.007 A 
ATOM      6  C   UNL     1     123.948 126.834 106.166  1.00  0.00     0.059 A 
ATOM      7  C   UNL     1     123.740 128.206 106.361  1.00  0.00     0.158 A 
ATOM      8  C   UNL     1     124.314 128.850 107.468  1.00  0.00     0.157 A 
ATOM      9  C   UNL     1     125.116 128.126 108.353  1.00  0.00     0.054 A 
ATOM     10  C   UNL     1     125.344 126.758 108.151  1.00  0.00    -0.036 A 
ATOM     11  C   UNL     1     124.042 123.745 106.263  1.00  0.00     0.127 A 
ATOM     12  C   UNL     1     124.364 122.389 106.099  1.00  0.00     0.093 A 
ATOM     13  C   UNL     1     125.550 121.870 106.620  1.00  0.00     0.119 A 
ATOM     14  C   UNL     1     126.417 122.702 107.332  1.00  0.00     0.050 A 
ENDROOT
BRANCH   8  15
ATOM     15  O   UNL     1     124.108 130.211 107.697  1.00  0.00    -0.504 OA
ATOM     16  H   UNL     1     124.315 130.912 106.997  1.00  0.00     0.293 HD
ENDBRANCH   8  15
BRANCH  11  17
ATOM     17  O   UNL     1     122.807 124.204 105.809  1.00  0.00    -0.507 OA
ATOM     18  H   UNL     1     122.292 124.926 106.301  1.00  0.00     0.293 HD
ENDBRANCH  11  17
BRANCH  13  19
ATOM     19  O   UNL     1     125.849 120.522 106.436  1.00  0.00    -0.508 OA
ATOM     20  H   UNL     1     125.272 119.792 106.837  1.00  0.00     0.293 HD
ENDBRANCH  13  19
BRANCH   7  21
ATOM     21  O   UNL     1     122.971 128.934 105.454  1.00  0.00    -0.504 OA
ATOM     22  H   UNL     1     123.048 128.786 104.454  1.00  0.00     0.293 HD
ENDBRANCH   7  21
TORSDOF 4
ENDMDL
MODEL 6
REMARK VINA RESULT:    -3.844      8.623     10.889
REMARK INTER + INTRA:          -4.294
REMARK INTER:                  -4.294
REMARK INTRA:                   0.000
REMARK UNBOUND:                 0.000
REMARK SMILES Oc1cc(O)c2c(c1)CCc1cc(O)c(O)cc1-2
REMARK SMILES IDX 10 1 9 2 7 3 6 4 18 5 17 6 15 7 13 8 12 9 11 10 4 11 3 12
REMARK SMILES IDX 2 13 8 14 14 15 5 17 1 19 16 21
REMARK H PARENT 14 16 5 18 1 20 16 22
REMARK Flexibility Score: inf
ROOT
ATOM      1  C   UNL     1     123.678 125.792 105.933  1.00  0.00     0.041 C 
ATOM      2  C   UNL     1     125.051 125.532 105.305  1.00  0.00     0.041 C 
ATOM      3  C   UNL     1     126.007 124.971 106.330  1.00  0.00    -0.032 A 
ATOM      4  C   UNL     1     125.534 124.087 107.330  1.00  0.00     0.027 A 
ATOM      5  C   UNL     1     124.083 123.711 107.310  1.00  0.00    -0.007 A 
ATOM      6  C   UNL     1     123.605 122.504 107.858  1.00  0.00     0.059 A 
ATOM      7  C   UNL     1     122.239 122.193 107.823  1.00  0.00     0.158 A 
ATOM      8  C   UNL     1     121.335 123.076 107.211  1.00  0.00     0.157 A 
ATOM      9  C   UNL     1     121.807 124.245 106.612  1.00  0.00     0.054 A 
ATOM     10  C   UNL     1     123.175 124.551 106.627  1.00  0.00    -0.036 A 
ATOM     11  C   UNL     1     126.432 123.659 108.338  1.00  0.00     0.127 A 
ATOM     12  C   UNL     1     127.788 124.007 108.262  1.00  0.00     0.093 A 
ATOM     13  C   UNL     1     128.259 124.815 107.226  1.00  0.00     0.119 A 
ATOM     14  C   UNL     1     127.368 125.303 106.267  1.00  0.00     0.050 A 
ENDROOT
BRANCH   8  15
ATOM     15  O   UNL     1     119.968 122.799 107.177  1.00  0.00    -0.504 OA
ATOM     16  H   UNL     1     119.343 123.083 107.920  1.00  0.00     0.293 HD
ENDBRANCH   8  15
BRANCH  11  17
ATOM     17  O   UNL     1     125.985 122.927 109.438  1.00  0.00    -0.507 OA
ATOM     18  H   UNL     1     125.147 122.360 109.396  1.00  0.00     0.293 HD
ENDBRANCH  11  17
BRANCH  13  19
ATOM     19  O   UNL     1     129.612 125.141 107.168  1.00  0.00    -0.508 OA
ATOM     20  H   UNL     1     130.331 124.458 107.380  1.00  0.00     0.293 HD
ENDBRANCH  13  19
BRANCH   7  21
ATOM     21  O   UNL     1     121.776 121.004 108.387  1.00  0.00    -0.504 OA
ATOM     22  H   UNL     1     120.984 120.990 109.020  1.00  0.00     0.293 HD
ENDBRANCH   7  21
TORSDOF 4
ENDMDL
MODEL 7
REMARK VINA RESULT:    -3.838      8.618     11.090
REMARK INTER + INTRA:          -4.286
REMARK INTER:                  -4.286
REMARK INTRA:                   0.000
REMARK UNBOUND:                 0.000
REMARK SMILES Oc1cc(O)c2c(c1)CCc1cc(O)c(O)cc1-2
REMARK SMILES IDX 10 1 9 2 7 3 6 4 18 5 17 6 15 7 13 8 12 9 11 10 4 11 3 12
REMARK SMILES IDX 2 13 8 14 14 15 5 17 1 19 16 21
REMARK H PARENT 14 16 5 18 1 20 16 22
REMARK Flexibility Score: inf
ROOT
ATOM      1  C   UNL     1     123.151 123.746 106.014  1.00  0.00     0.041 C 
ATOM      2  C   UNL     1     123.377 125.115 105.364  1.00  0.00     0.041 C 
ATOM      3  C   UNL     1     123.975 126.082 106.358  1.00  0.00    -0.032 A 
ATOM      4  C   UNL     1     124.902 125.621 107.324  1.00  0.00     0.027 A 
ATOM      5  C   UNL     1     125.284 124.172 107.300  1.00  0.00    -0.007 A 
ATOM      6  C   UNL     1     126.514 123.704 107.803  1.00  0.00     0.059 A 
ATOM      7  C   UNL     1     126.831 122.339 107.766  1.00  0.00     0.158 A 
ATOM      8  C   UNL     1     125.928 121.427 107.198  1.00  0.00     0.157 A 
ATOM      9  C   UNL     1     124.733 121.888 106.644  1.00  0.00     0.054 A 
ATOM     10  C   UNL     1     124.421 123.254 106.660  1.00  0.00    -0.036 A 
ATOM     11  C   UNL     1     125.366 126.530 108.307  1.00  0.00     0.127 A 
ATOM     12  C   UNL     1     125.007 127.884 108.234  1.00  0.00     0.093 A 
ATOM     13  C   UNL     1     124.155 128.342 107.228  1.00  0.00     0.119 A 
ATOM     14  C   UNL     1     123.634 127.440 106.297  1.00  0.00     0.050 A 
ENDROOT
BRANCH   8  15
ATOM     15  O   UNL     1     126.210 120.061 107.164  1.00  0.00    -0.504 OA
ATOM     16  H   UNL     1     126.190 119.528 106.303  1.00  0.00     0.293 HD
ENDBRANCH   8  15
BRANCH  11  17
ATOM     17  O   UNL     1     126.144 126.096 109.379  1.00  0.00    -0.507 OA
ATOM     18  H   UNL     1     125.757 125.984 110.310  1.00  0.00     0.293 HD
ENDBRANCH  11  17
BRANCH  13  19
ATOM     19  O   UNL     1     123.821 129.693 107.173  1.00  0.00    -0.508 OA
ATOM     20  H   UNL     1     124.449 130.409 107.521  1.00  0.00     0.293 HD
ENDBRANCH  13  19
BRANCH   7  21
ATOM     21  O   UNL     1     128.044 121.887 108.285  1.00  0.00    -0.504 OA
ATOM     22  H   UNL     1     128.110 121.013 108.794  1.00  0.00     0.293 HD
ENDBRANCH   7  21
TORSDOF 4
ENDMDL
MODEL 8
REMARK VINA RESULT:    -3.798      8.547      9.974
REMARK INTER + INTRA:          -4.242
REMARK INTER:                  -4.242
REMARK INTRA:                   0.000
REMARK UNBOUND:                 0.000
REMARK SMILES Oc1cc(O)c2c(c1)CCc1cc(O)c(O)cc1-2
REMARK SMILES IDX 10 1 9 2 7 3 6 4 18 5 17 6 15 7 13 8 12 9 11 10 4 11 3 12
REMARK SMILES IDX 2 13 8 14 14 15 5 17 1 19 16 21
REMARK H PARENT 14 16 5 18 1 20 16 22
REMARK Flexibility Score: inf
ROOT
ATOM      1  C   UNL     1     124.306 124.749 104.995  1.00  0.00     0.041 C 
ATOM      2  C   UNL     1     124.118 123.306 105.476  1.00  0.00     0.041 C 
ATOM      3  C   UNL     1     125.056 123.000 106.618  1.00  0.00    -0.032 A 
ATOM      4  C   UNL     1     125.366 124.002 107.569  1.00  0.00     0.027 A 
ATOM      5  C   UNL     1     124.711 125.342 107.418  1.00  0.00    -0.007 A 
ATOM      6  C   UNL     1     124.501 126.211 108.508  1.00  0.00     0.059 A 
ATOM      7  C   UNL     1     123.890 127.458 108.323  1.00  0.00     0.158 A 
ATOM      8  C   UNL     1     123.454 127.841 107.046  1.00  0.00     0.157 A 
ATOM      9  C   UNL     1     123.603 126.964 105.970  1.00  0.00     0.054 A 
ATOM     10  C   UNL     1     124.196 125.707 106.154  1.00  0.00    -0.036 A 
ATOM     11  C   UNL     1     126.328 123.717 108.568  1.00  0.00     0.127 A 
ATOM     12  C   UNL     1     126.858 122.424 108.681  1.00  0.00     0.093 A 
ATOM     13  C   UNL     1     126.485 121.420 107.786  1.00  0.00     0.119 A 
ATOM     14  C   UNL     1     125.592 121.711 106.751  1.00  0.00     0.050 A 
ENDROOT
BRANCH   8  15
ATOM     15  O   UNL     1     122.858 129.084 106.830  1.00  0.00    -0.504 OA
ATOM     16  H   UNL     1     122.691 129.447 105.900  1.00  0.00     0.293 HD
ENDBRANCH   8  15
BRANCH  11  17
ATOM     17  O   UNL     1     126.795 124.714 109.424  1.00  0.00    -0.507 OA
ATOM     18  H   UNL     1     126.314 125.600 109.525  1.00  0.00     0.293 HD
ENDBRANCH  11  17
BRANCH  13  19
ATOM     19  O   UNL     1     127.020 120.142 107.924  1.00  0.00    -0.508 OA
ATOM     20  H   UNL     1     126.564 119.435 108.490  1.00  0.00     0.293 HD
ENDBRANCH  13  19
BRANCH   7  21
ATOM     21  O   UNL     1     123.706 128.316 109.407  1.00  0.00    -0.504 OA
ATOM     22  H   UNL     1     123.192 129.185 109.316  1.00  0.00     0.293 HD
ENDBRANCH   7  21
TORSDOF 4
ENDMDL
MODEL 9
REMARK VINA RESULT:    -3.798      8.740     10.215
REMARK INTER + INTRA:          -4.242
REMARK INTER:                  -4.242
REMARK INTRA:                   0.000
REMARK UNBOUND:                 0.000
REMARK SMILES Oc1cc(O)c2c(c1)CCc1cc(O)c(O)cc1-2
REMARK SMILES IDX 10 1 9 2 7 3 6 4 18 5 17 6 15 7 13 8 12 9 11 10 4 11 3 12
REMARK SMILES IDX 2 13 8 14 14 15 5 17 1 19 16 21
REMARK H PARENT 14 16 5 18 1 20 16 22
REMARK Flexibility Score: inf
ROOT
ATOM      1  C   UNL     1     124.687 124.758 105.067  1.00  0.00     0.041 C 
ATOM      2  C   UNL     1     123.305 125.054 105.660  1.00  0.00     0.041 C 
ATOM      3  C   UNL     1     122.897 123.966 106.624  1.00  0.00    -0.032 A 
ATOM      4  C   UNL     1     123.871 123.340 107.439  1.00  0.00     0.027 A 
ATOM      5  C   UNL     1     125.289 123.813 107.333  1.00  0.00    -0.007 A 
ATOM      6  C   UNL     1     126.213 123.684 108.389  1.00  0.00     0.059 A 
ATOM      7  C   UNL     1     127.532 124.135 108.247  1.00  0.00     0.158 A 
ATOM      8  C   UNL     1     127.936 124.750 107.051  1.00  0.00     0.157 A 
ATOM      9  C   UNL     1     127.013 124.937 106.021  1.00  0.00     0.054 A 
ATOM     10  C   UNL     1     125.687 124.505 106.166  1.00  0.00    -0.036 A 
ATOM     11  C   UNL     1     123.475 122.253 108.257  1.00  0.00     0.127 A 
ATOM     12  C   UNL     1     122.120 121.902 108.347  1.00  0.00     0.093 A 
ATOM     13  C   UNL     1     121.157 122.579 107.598  1.00  0.00     0.119 A 
ATOM     14  C   UNL     1     121.547 123.604 106.733  1.00  0.00     0.050 A 
ENDROOT
BRANCH   8  15
ATOM     15  O   UNL     1     129.247 125.193 106.876  1.00  0.00    -0.504 OA
ATOM     16  H   UNL     1     129.953 124.622 106.428  1.00  0.00     0.293 HD
ENDBRANCH   8  15
BRANCH  11  17
ATOM     17  O   UNL     1     124.416 121.493 108.950  1.00  0.00    -0.507 OA
ATOM     18  H   UNL     1     125.064 120.878 108.470  1.00  0.00     0.293 HD
ENDBRANCH  11  17
BRANCH  13  19
ATOM     19  O   UNL     1     119.817 122.215 107.711  1.00  0.00    -0.508 OA
ATOM     20  H   UNL     1     119.480 121.324 107.368  1.00  0.00     0.293 HD
ENDBRANCH  13  19
BRANCH   7  21
ATOM     21  O   UNL     1     128.442 123.982 109.293  1.00  0.00    -0.504 OA
ATOM     22  H   UNL     1     129.433 123.855 109.120  1.00  0.00     0.293 HD
ENDBRANCH   7  21
TORSDOF 4
ENDMDL
