MODEL 1
REMARK VINA RESULT:    -4.305      0.000      0.000
REMARK INTER + INTRA:          -9.409
REMARK INTER:                  -7.576
REMARK INTRA:                  -1.833
REMARK UNBOUND:                -1.833
REMARK SMILES CCCCCCCCCCCCCCC(=O)[O-]
REMARK SMILES IDX 9 1 10 2 11 3 12 4 13 5 14 6 15 7 16 8 17 9 8 10 7 11 6 12
REMARK SMILES IDX 5 13 4 14 3 15 2 16 1 17
REMARK H PARENT
REMARK Flexibility Score: inf
ROOT
ATOM      1  C   UNL     1      24.659   5.830   6.250  1.00  0.00     0.000 C 
ENDROOT
BRANCH   1   2
ATOM      2  C   UNL     1      25.542   4.661   6.731  1.00  0.00     0.000 C 
BRANCH   2   3
ATOM      3  C   UNL     1      24.893   3.749   7.788  1.00  0.00     0.000 C 
BRANCH   3   4
ATOM      4  C   UNL     1      25.921   3.073   8.706  1.00  0.00     0.000 C 
BRANCH   4   5
ATOM      5  C   UNL     1      27.258   2.876   7.983  1.00  0.00     0.006 C 
BRANCH   5   6
ATOM      6  C   UNL     1      27.357   1.469   7.384  1.00  0.00     0.053 C 
BRANCH   6   7
ATOM      7  C   UNL     1      27.484   0.446   8.468  1.00  0.00     0.041 C 
ATOM      8  O   UNL     1      28.474   0.466   9.245  1.00  0.00    -0.550 OA
ATOM      9  O   UNL     1      26.533  -0.559   8.589  1.00  0.00    -0.550 OA
ENDBRANCH   6   7
ENDBRANCH   5   6
ENDBRANCH   4   5
ENDBRANCH   3   4
ENDBRANCH   2   3
ENDBRANCH   1   2
BRANCH   1  10
ATOM     10  C   UNL     1      25.417   7.136   5.945  1.00  0.00     0.000 C 
BRANCH  10  11
ATOM     11  C   UNL     1      26.491   7.527   6.981  1.00  0.00    -0.000 C 
BRANCH  11  12
ATOM     12  C   UNL     1      25.949   8.100   8.303  1.00  0.00    -0.000 C 
BRANCH  12  13
ATOM     13  C   UNL     1      25.940   7.069   9.443  1.00  0.00    -0.000 C 
BRANCH  13  14
ATOM     14  C   UNL     1      27.283   6.332   9.599  1.00  0.00    -0.000 C 
BRANCH  14  15
ATOM     15  C   UNL     1      27.451   5.544  10.911  1.00  0.00    -0.000 C 
BRANCH  15  16
ATOM     16  C   UNL     1      28.830   4.883  11.042  1.00  0.00    -0.003 C 
ATOM     17  C   UNL     1      28.699   3.403  11.392  1.00  0.00     0.004 C 
ENDBRANCH  15  16
ENDBRANCH  14  15
ENDBRANCH  13  14
ENDBRANCH  12  13
ENDBRANCH  11  12
ENDBRANCH  10  11
ENDBRANCH   1  10
TORSDOF 13
ENDMDL
MODEL 2
REMARK VINA RESULT:    -4.231      1.447      2.139
REMARK INTER + INTRA:          -9.280
REMARK INTER:                  -7.298
REMARK INTRA:                  -1.982
REMARK UNBOUND:                -1.833
REMARK SMILES CCCCCCCCCCCCCCC(=O)[O-]
REMARK SMILES IDX 9 1 10 2 11 3 12 4 13 5 14 6 15 7 16 8 17 9 8 10 7 11 6 12
REMARK SMILES IDX 5 13 4 14 3 15 2 16 1 17
REMARK H PARENT
REMARK Flexibility Score: inf
ROOT
ATOM      1  C   UNL     1      24.795   4.270   6.976  1.00  0.00     0.000 C 
ENDROOT
BRANCH   1   2
ATOM      2  C   UNL     1      26.166   3.565   6.999  1.00  0.00     0.000 C 
BRANCH   2   3
ATOM      3  C   UNL     1      26.279   2.396   7.996  1.00  0.00     0.000 C 
BRANCH   3   4
ATOM      4  C   UNL     1      27.692   2.236   8.572  1.00  0.00     0.000 C 
BRANCH   4   5
ATOM      5  C   UNL     1      28.219   0.814   8.345  1.00  0.00     0.006 C 
BRANCH   5   6
ATOM      6  C   UNL     1      27.123  -0.226   8.600  1.00  0.00     0.053 C 
BRANCH   6   7
ATOM      7  C   UNL     1      27.633  -1.317   9.487  1.00  0.00     0.041 C 
ATOM      8  O   UNL     1      28.049  -1.050  10.645  1.00  0.00    -0.550 OA
ATOM      9  O   UNL     1      27.694  -2.623   9.017  1.00  0.00    -0.550 OA
ENDBRANCH   6   7
ENDBRANCH   5   6
ENDBRANCH   4   5
ENDBRANCH   3   4
ENDBRANCH   2   3
ENDBRANCH   1   2
BRANCH   1  10
ATOM     10  C   UNL     1      24.833   5.755   6.566  1.00  0.00     0.000 C 
BRANCH  10  11
ATOM     11  C   UNL     1      26.242   6.379   6.502  1.00  0.00    -0.000 C 
BRANCH  11  12
ATOM     12  C   UNL     1      26.433   7.655   7.341  1.00  0.00    -0.000 C 
BRANCH  12  13
ATOM     13  C   UNL     1      26.306   7.402   8.853  1.00  0.00    -0.000 C 
BRANCH  13  14
ATOM     14  C   UNL     1      27.256   6.301   9.360  1.00  0.00    -0.000 C 
BRANCH  14  15
ATOM     15  C   UNL     1      26.630   5.299  10.347  1.00  0.00    -0.000 C 
BRANCH  15  16
ATOM     16  C   UNL     1      25.121   5.511  10.541  1.00  0.00    -0.003 C 
ATOM     17  C   UNL     1      24.390   4.177  10.670  1.00  0.00     0.004 C 
ENDBRANCH  15  16
ENDBRANCH  14  15
ENDBRANCH  13  14
ENDBRANCH  12  13
ENDBRANCH  11  12
ENDBRANCH  10  11
ENDBRANCH   1  10
TORSDOF 13
ENDMDL
MODEL 3
REMARK VINA RESULT:    -4.176      2.559      4.567
REMARK INTER + INTRA:          -9.183
REMARK INTER:                  -7.118
REMARK INTRA:                  -2.065
REMARK UNBOUND:                -1.833
REMARK SMILES CCCCCCCCCCCCCCC(=O)[O-]
REMARK SMILES IDX 9 1 10 2 11 3 12 4 13 5 14 6 15 7 16 8 17 9 8 10 7 11 6 12
REMARK SMILES IDX 5 13 4 14 3 15 2 16 1 17
REMARK H PARENT
REMARK Flexibility Score: inf
ROOT
ATOM      1  C   UNL     1      23.235   6.230   8.809  1.00  0.00     0.000 C 
ENDROOT
BRANCH   1   2
ATOM      2  C   UNL     1      22.837   5.959  10.274  1.00  0.00     0.000 C 
BRANCH   2   3
ATOM      3  C   UNL     1      23.878   5.178  11.097  1.00  0.00     0.000 C 
BRANCH   3   4
ATOM      4  C   UNL     1      25.310   5.690  10.891  1.00  0.00     0.000 C 
BRANCH   4   5
ATOM      5  C   UNL     1      26.275   4.530  10.621  1.00  0.00     0.006 C 
BRANCH   5   6
ATOM      6  C   UNL     1      27.691   5.046  10.342  1.00  0.00     0.053 C 
BRANCH   6   7
ATOM      7  C   UNL     1      28.582   4.792  11.517  1.00  0.00     0.041 C 
ATOM      8  O   UNL     1      28.878   5.730  12.303  1.00  0.00    -0.550 OA
ATOM      9  O   UNL     1      29.125   3.529  11.716  1.00  0.00    -0.550 OA
ENDBRANCH   6   7
ENDBRANCH   5   6
ENDBRANCH   4   5
ENDBRANCH   3   4
ENDBRANCH   2   3
ENDBRANCH   1   2
BRANCH   1  10
ATOM     10  C   UNL     1      22.995   5.055   7.841  1.00  0.00     0.000 C 
BRANCH  10  11
ATOM     11  C   UNL     1      24.142   4.026   7.764  1.00  0.00    -0.000 C 
BRANCH  11  12
ATOM     12  C   UNL     1      25.125   4.226   6.598  1.00  0.00    -0.000 C 
BRANCH  12  13
ATOM     13  C   UNL     1      26.233   5.244   6.916  1.00  0.00    -0.000 C 
BRANCH  13  14
ATOM     14  C   UNL     1      26.217   6.463   5.975  1.00  0.00    -0.000 C 
BRANCH  14  15
ATOM     15  C   UNL     1      26.067   7.828   6.673  1.00  0.00    -0.000 C 
BRANCH  15  16
ATOM     16  C   UNL     1      26.473   7.792   8.154  1.00  0.00    -0.003 C 
ATOM     17  C   UNL     1      25.619   8.749   8.981  1.00  0.00     0.004 C 
ENDBRANCH  15  16
ENDBRANCH  14  15
ENDBRANCH  13  14
ENDBRANCH  12  13
ENDBRANCH  11  12
ENDBRANCH  10  11
ENDBRANCH   1  10
TORSDOF 13
ENDMDL
MODEL 4
REMARK VINA RESULT:    -4.161      1.292      3.551
REMARK INTER + INTRA:          -9.156
REMARK INTER:                  -7.143
REMARK INTRA:                  -2.013
REMARK UNBOUND:                -1.833
REMARK SMILES CCCCCCCCCCCCCCC(=O)[O-]
REMARK SMILES IDX 9 1 10 2 11 3 12 4 13 5 14 6 15 7 16 8 17 9 8 10 7 11 6 12
REMARK SMILES IDX 5 13 4 14 3 15 2 16 1 17
REMARK H PARENT
REMARK Flexibility Score: inf
ROOT
ATOM      1  C   UNL     1      26.780   5.019  10.347  1.00  0.00     0.000 C 
ENDROOT
BRANCH   1   2
ATOM      2  C   UNL     1      27.599   3.761   9.996  1.00  0.00     0.000 C 
BRANCH   2   3
ATOM      3  C   UNL     1      28.004   3.643   8.515  1.00  0.00     0.000 C 
BRANCH   3   4
ATOM      4  C   UNL     1      27.760   2.241   7.938  1.00  0.00     0.000 C 
BRANCH   4   5
ATOM      5  C   UNL     1      28.150   1.156   8.949  1.00  0.00     0.006 C 
BRANCH   5   6
ATOM      6  C   UNL     1      28.205  -0.222   8.282  1.00  0.00     0.053 C 
BRANCH   6   7
ATOM      7  C   UNL     1      27.073  -1.079   8.755  1.00  0.00     0.041 C 
ATOM      8  O   UNL     1      25.908  -0.888   8.316  1.00  0.00    -0.550 OA
ATOM      9  O   UNL     1      27.296  -2.055   9.717  1.00  0.00    -0.550 OA
ENDBRANCH   6   7
ENDBRANCH   5   6
ENDBRANCH   4   5
ENDBRANCH   3   4
ENDBRANCH   2   3
ENDBRANCH   1   2
BRANCH   1  10
ATOM     10  C   UNL     1      27.258   6.318   9.670  1.00  0.00     0.000 C 
BRANCH  10  11
ATOM     11  C   UNL     1      26.174   7.081   8.881  1.00  0.00    -0.000 C 
BRANCH  11  12
ATOM     12  C   UNL     1      26.570   7.492   7.451  1.00  0.00    -0.000 C 
BRANCH  12  13
ATOM     13  C   UNL     1      26.226   6.420   6.404  1.00  0.00    -0.000 C 
BRANCH  13  14
ATOM     14  C   UNL     1      24.828   5.808   6.607  1.00  0.00    -0.000 C 
BRANCH  14  15
ATOM     15  C   UNL     1      24.808   4.288   6.853  1.00  0.00    -0.000 C 
BRANCH  15  16
ATOM     16  C   UNL     1      24.041   3.895   8.125  1.00  0.00    -0.003 C 
ATOM     17  C   UNL     1      24.129   2.393   8.378  1.00  0.00     0.004 C 
ENDBRANCH  15  16
ENDBRANCH  14  15
ENDBRANCH  13  14
ENDBRANCH  12  13
ENDBRANCH  11  12
ENDBRANCH  10  11
ENDBRANCH   1  10
TORSDOF 13
ENDMDL
MODEL 5
REMARK VINA RESULT:    -4.156      1.377      3.847
REMARK INTER + INTRA:          -9.147
REMARK INTER:                  -7.424
REMARK INTRA:                  -1.723
REMARK UNBOUND:                -1.833
REMARK SMILES CCCCCCCCCCCCCCC(=O)[O-]
REMARK SMILES IDX 9 1 10 2 11 3 12 4 13 5 14 6 15 7 16 8 17 9 8 10 7 11 6 12
REMARK SMILES IDX 5 13 4 14 3 15 2 16 1 17
REMARK H PARENT
REMARK Flexibility Score: inf
ROOT
ATOM      1  C   UNL     1      27.993   5.243  10.544  1.00  0.00     0.000 C 
ENDROOT
BRANCH   1   2
ATOM      2  C   UNL     1      28.499   4.234   9.494  1.00  0.00     0.000 C 
BRANCH   2   3
ATOM      3  C   UNL     1      27.639   2.964   9.346  1.00  0.00     0.000 C 
BRANCH   3   4
ATOM      4  C   UNL     1      27.698   2.364   7.935  1.00  0.00     0.000 C 
BRANCH   4   5
ATOM      5  C   UNL     1      27.433   0.855   7.969  1.00  0.00     0.006 C 
BRANCH   5   6
ATOM      6  C   UNL     1      28.518   0.124   8.767  1.00  0.00     0.053 C 
BRANCH   6   7
ATOM      7  C   UNL     1      27.947  -1.082   9.444  1.00  0.00     0.041 C 
ATOM      8  O   UNL     1      27.888  -1.134  10.701  1.00  0.00    -0.550 OA
ATOM      9  O   UNL     1      27.525  -2.169   8.689  1.00  0.00    -0.550 OA
ENDBRANCH   6   7
ENDBRANCH   5   6
ENDBRANCH   4   5
ENDBRANCH   3   4
ENDBRANCH   2   3
ENDBRANCH   1   2
BRANCH   1  10
ATOM     10  C   UNL     1      26.834   6.144  10.076  1.00  0.00     0.000 C 
BRANCH  10  11
ATOM     11  C   UNL     1      25.425   5.651  10.463  1.00  0.00    -0.000 C 
BRANCH  11  12
ATOM     12  C   UNL     1      24.384   5.685   9.330  1.00  0.00    -0.000 C 
BRANCH  12  13
ATOM     13  C   UNL     1      24.591   4.568   8.293  1.00  0.00    -0.000 C 
BRANCH  13  14
ATOM     14  C   UNL     1      24.854   5.107   6.874  1.00  0.00    -0.000 C 
BRANCH  14  15
ATOM     15  C   UNL     1      26.325   5.438   6.561  1.00  0.00    -0.000 C 
BRANCH  15  16
ATOM     16  C   UNL     1      26.515   6.856   6.002  1.00  0.00    -0.003 C 
ATOM     17  C   UNL     1      26.418   7.901   7.109  1.00  0.00     0.004 C 
ENDBRANCH  15  16
ENDBRANCH  14  15
ENDBRANCH  13  14
ENDBRANCH  12  13
ENDBRANCH  11  12
ENDBRANCH  10  11
ENDBRANCH   1  10
TORSDOF 13
ENDMDL
MODEL 6
REMARK VINA RESULT:    -4.104      2.431      4.272
REMARK INTER + INTRA:          -9.055
REMARK INTER:                  -6.946
REMARK INTRA:                  -2.109
REMARK UNBOUND:                -1.833
REMARK SMILES CCCCCCCCCCCCCCC(=O)[O-]
REMARK SMILES IDX 9 1 10 2 11 3 12 4 13 5 14 6 15 7 16 8 17 9 8 10 7 11 6 12
REMARK SMILES IDX 5 13 4 14 3 15 2 16 1 17
REMARK H PARENT
REMARK Flexibility Score: inf
ROOT
ATOM      1  C   UNL     1      25.281   5.354   6.741  1.00  0.00     0.000 C 
ENDROOT
BRANCH   1   2
ATOM      2  C   UNL     1      25.924   3.975   6.995  1.00  0.00     0.000 C 
BRANCH   2   3
ATOM      3  C   UNL     1      26.190   3.646   8.475  1.00  0.00     0.000 C 
BRANCH   3   4
ATOM      4  C   UNL     1      25.354   4.499   9.438  1.00  0.00     0.000 C 
BRANCH   4   5
ATOM      5  C   UNL     1      26.116   4.763  10.741  1.00  0.00     0.006 C 
BRANCH   5   6
ATOM      6  C   UNL     1      27.493   5.373  10.459  1.00  0.00     0.053 C 
BRANCH   6   7
ATOM      7  C   UNL     1      28.504   4.854  11.433  1.00  0.00     0.041 C 
ATOM      8  O   UNL     1      29.097   5.646  12.213  1.00  0.00    -0.550 OA
ATOM      9  O   UNL     1      28.827   3.503  11.447  1.00  0.00    -0.550 OA
ENDBRANCH   6   7
ENDBRANCH   5   6
ENDBRANCH   4   5
ENDBRANCH   3   4
ENDBRANCH   2   3
ENDBRANCH   1   2
BRANCH   1  10
ATOM     10  C   UNL     1      26.280   6.506   6.511  1.00  0.00     0.000 C 
BRANCH  10  11
ATOM     11  C   UNL     1      25.799   7.893   6.984  1.00  0.00    -0.000 C 
BRANCH  11  12
ATOM     12  C   UNL     1      25.916   8.147   8.497  1.00  0.00    -0.000 C 
BRANCH  12  13
ATOM     13  C   UNL     1      24.618   8.692   9.116  1.00  0.00    -0.000 C 
BRANCH  13  14
ATOM     14  C   UNL     1      24.036   7.768  10.202  1.00  0.00    -0.000 C 
BRANCH  14  15
ATOM     15  C   UNL     1      22.688   7.112   9.852  1.00  0.00    -0.000 C 
BRANCH  15  16
ATOM     16  C   UNL     1      22.158   7.531   8.472  1.00  0.00    -0.003 C 
ATOM     17  C   UNL     1      22.091   6.336   7.524  1.00  0.00     0.004 C 
ENDBRANCH  15  16
ENDBRANCH  14  15
ENDBRANCH  13  14
ENDBRANCH  12  13
ENDBRANCH  11  12
ENDBRANCH  10  11
ENDBRANCH   1  10
TORSDOF 13
ENDMDL
MODEL 7
REMARK VINA RESULT:    -4.079      3.241      5.781
REMARK INTER + INTRA:          -9.013
REMARK INTER:                  -7.071
REMARK INTRA:                  -1.942
REMARK UNBOUND:                -1.833
REMARK SMILES CCCCCCCCCCCCCCC(=O)[O-]
REMARK SMILES IDX 9 1 10 2 11 3 12 4 13 5 14 6 15 7 16 8 17 9 8 10 7 11 6 12
REMARK SMILES IDX 5 13 4 14 3 15 2 16 1 17
REMARK H PARENT
REMARK Flexibility Score: inf
ROOT
ATOM      1  C   UNL     1      26.869   5.947  10.131  1.00  0.00     0.000 C 
ENDROOT
BRANCH   1   2
ATOM      2  C   UNL     1      25.401   5.533  10.360  1.00  0.00     0.000 C 
BRANCH   2   3
ATOM      3  C   UNL     1      24.776   4.699   9.227  1.00  0.00     0.000 C 
BRANCH   3   4
ATOM      4  C   UNL     1      24.252   5.561   8.070  1.00  0.00     0.000 C 
BRANCH   4   5
ATOM      5  C   UNL     1      24.869   5.125   6.736  1.00  0.00     0.006 C 
BRANCH   5   6
ATOM      6  C   UNL     1      26.244   5.769   6.530  1.00  0.00     0.053 C 
BRANCH   6   7
ATOM      7  C   UNL     1      26.113   7.256   6.414  1.00  0.00     0.041 C 
ATOM      8  O   UNL     1      25.494   7.763   5.442  1.00  0.00    -0.550 OA
ATOM      9  O   UNL     1      26.717   8.081   7.353  1.00  0.00    -0.550 OA
ENDBRANCH   6   7
ENDBRANCH   5   6
ENDBRANCH   4   5
ENDBRANCH   3   4
ENDBRANCH   2   3
ENDBRANCH   1   2
BRANCH   1  10
ATOM     10  C   UNL     1      27.898   5.212  11.012  1.00  0.00     0.000 C 
BRANCH  10  11
ATOM     11  C   UNL     1      28.330   3.825  10.495  1.00  0.00    -0.000 C 
BRANCH  11  12
ATOM     12  C   UNL     1      28.192   3.619   8.976  1.00  0.00    -0.000 C 
BRANCH  12  13
ATOM     13  C   UNL     1      27.697   2.211   8.606  1.00  0.00    -0.000 C 
BRANCH  13  14
ATOM     14  C   UNL     1      27.136   2.128   7.174  1.00  0.00    -0.000 C 
BRANCH  14  15
ATOM     15  C   UNL     1      25.681   1.635   7.068  1.00  0.00    -0.000 C 
BRANCH  15  16
ATOM     16  C   UNL     1      25.284   1.243   5.637  1.00  0.00    -0.003 C 
ATOM     17  C   UNL     1      26.490   1.278   4.702  1.00  0.00     0.004 C 
ENDBRANCH  15  16
ENDBRANCH  14  15
ENDBRANCH  13  14
ENDBRANCH  12  13
ENDBRANCH  11  12
ENDBRANCH  10  11
ENDBRANCH   1  10
TORSDOF 13
ENDMDL
MODEL 8
REMARK VINA RESULT:    -4.075      1.795      2.635
REMARK INTER + INTRA:          -9.004
REMARK INTER:                  -7.397
REMARK INTRA:                  -1.607
REMARK UNBOUND:                -1.833
REMARK SMILES CCCCCCCCCCCCCCC(=O)[O-]
REMARK SMILES IDX 9 1 10 2 11 3 12 4 13 5 14 6 15 7 16 8 17 9 8 10 7 11 6 12
REMARK SMILES IDX 5 13 4 14 3 15 2 16 1 17
REMARK H PARENT
REMARK Flexibility Score: inf
ROOT
ATOM      1  C   UNL     1      24.227   2.536   7.408  1.00  0.00     0.000 C 
ENDROOT
BRANCH   1   2
ATOM      2  C   UNL     1      25.070   3.587   6.659  1.00  0.00     0.000 C 
BRANCH   2   3
ATOM      3  C   UNL     1      26.576   3.557   6.974  1.00  0.00     0.000 C 
BRANCH   3   4
ATOM      4  C   UNL     1      27.178   2.148   6.883  1.00  0.00     0.000 C 
BRANCH   4   5
ATOM      5  C   UNL     1      27.764   1.713   8.231  1.00  0.00     0.006 C 
BRANCH   5   6
ATOM      6  C   UNL     1      28.078   0.214   8.237  1.00  0.00     0.053 C 
BRANCH   6   7
ATOM      7  C   UNL     1      28.238  -0.283   9.639  1.00  0.00     0.041 C 
ATOM      8  O   UNL     1      28.798   0.438  10.506  1.00  0.00    -0.550 OA
ATOM      9  O   UNL     1      27.813  -1.561   9.976  1.00  0.00    -0.550 OA
ENDBRANCH   6   7
ENDBRANCH   5   6
ENDBRANCH   4   5
ENDBRANCH   3   4
ENDBRANCH   2   3
ENDBRANCH   1   2
BRANCH   1  10
ATOM     10  C   UNL     1      24.199   2.696   8.941  1.00  0.00     0.000 C 
BRANCH  10  11
ATOM     11  C   UNL     1      24.125   4.152   9.445  1.00  0.00    -0.000 C 
BRANCH  11  12
ATOM     12  C   UNL     1      24.747   4.399  10.831  1.00  0.00    -0.000 C 
BRANCH  12  13
ATOM     13  C   UNL     1      25.581   5.689  10.892  1.00  0.00    -0.000 C 
BRANCH  13  14
ATOM     14  C   UNL     1      26.479   5.884   9.655  1.00  0.00    -0.000 C 
BRANCH  14  15
ATOM     15  C   UNL     1      27.955   5.491   9.848  1.00  0.00    -0.000 C 
BRANCH  15  16
ATOM     16  C   UNL     1      28.319   5.231  11.317  1.00  0.00    -0.003 C 
ATOM     17  C   UNL     1      28.850   3.813  11.509  1.00  0.00     0.004 C 
ENDBRANCH  15  16
ENDBRANCH  14  15
ENDBRANCH  13  14
ENDBRANCH  12  13
ENDBRANCH  11  12
ENDBRANCH  10  11
ENDBRANCH   1  10
TORSDOF 13
ENDMDL
MODEL 9
REMARK VINA RESULT:    -4.053      3.511      5.092
REMARK INTER + INTRA:          -8.965
REMARK INTER:                  -6.933
REMARK INTRA:                  -2.032
REMARK UNBOUND:                -1.833
REMARK SMILES CCCCCCCCCCCCCCC(=O)[O-]
REMARK SMILES IDX 9 1 10 2 11 3 12 4 13 5 14 6 15 7 16 8 17 9 8 10 7 11 6 12
REMARK SMILES IDX 5 13 4 14 3 15 2 16 1 17
REMARK H PARENT
REMARK Flexibility Score: inf
ROOT
ATOM      1  C   UNL     1      26.297   7.871   8.130  1.00  0.00     0.000 C 
ENDROOT
BRANCH   1   2
ATOM      2  C   UNL     1      25.004   8.359   8.814  1.00  0.00     0.000 C 
BRANCH   2   3
ATOM      3  C   UNL     1      24.565   7.533  10.038  1.00  0.00     0.000 C 
BRANCH   3   4
ATOM      4  C   UNL     1      23.396   6.587   9.733  1.00  0.00     0.000 C 
BRANCH   4   5
ATOM      5  C   UNL     1      22.670   7.007   8.450  1.00  0.00     0.006 C 
BRANCH   5   6
ATOM      6  C   UNL     1      22.353   5.790   7.574  1.00  0.00     0.053 C 
BRANCH   6   7
ATOM      7  C   UNL     1      21.934   6.226   6.205  1.00  0.00     0.041 C 
ATOM      8  O   UNL     1      20.832   5.848   5.729  1.00  0.00    -0.550 OA
ATOM      9  O   UNL     1      22.785   7.009   5.435  1.00  0.00    -0.550 OA
ENDBRANCH   6   7
ENDBRANCH   5   6
ENDBRANCH   4   5
ENDBRANCH   3   4
ENDBRANCH   2   3
ENDBRANCH   1   2
BRANCH   1  10
ATOM     10  C   UNL     1      26.138   7.466   6.651  1.00  0.00     0.000 C 
BRANCH  10  11
ATOM     11  C   UNL     1      26.186   5.949   6.379  1.00  0.00    -0.000 C 
BRANCH  11  12
ATOM     12  C   UNL     1      26.011   5.054   7.619  1.00  0.00    -0.000 C 
BRANCH  12  13
ATOM     13  C   UNL     1      27.080   3.954   7.720  1.00  0.00    -0.000 C 
BRANCH  13  14
ATOM     14  C   UNL     1      27.594   3.745   9.157  1.00  0.00    -0.000 C 
BRANCH  14  15
ATOM     15  C   UNL     1      26.962   4.663  10.219  1.00  0.00    -0.000 C 
BRANCH  15  16
ATOM     16  C   UNL     1      27.957   5.677  10.804  1.00  0.00    -0.003 C 
ATOM     17  C   UNL     1      28.926   4.999  11.770  1.00  0.00     0.004 C 
ENDBRANCH  15  16
ENDBRANCH  14  15
ENDBRANCH  13  14
ENDBRANCH  12  13
ENDBRANCH  11  12
ENDBRANCH  10  11
ENDBRANCH   1  10
TORSDOF 13
ENDMDL
