MODEL 1
REMARK VINA RESULT:    -4.091      0.000      0.000
REMARK INTER + INTRA:         -10.084
REMARK INTER:                  -7.679
REMARK INTRA:                  -2.406
REMARK UNBOUND:                -2.406
REMARK SMILES CCCCCCCCC=CCCCCCCCC(=O)[O-]
REMARK SMILES IDX 10 1 9 2 11 3 12 4 13 5 14 6 15 7 16 8 17 9 18 10 19 11
REMARK SMILES IDX 20 12 8 13 7 14 6 15 5 16 4 17 3 18 2 19 1 20
REMARK H PARENT
REMARK Flexibility Score: inf
ROOT
ATOM      1  C   UNL     1      -3.434  -2.542  -4.278  1.00  0.00    -0.031 C 
ATOM      2  C   UNL     1      -2.620  -1.777  -5.028  1.00  0.00    -0.031 C 
ENDROOT
BRANCH   1   3
ATOM      3  C   UNL     1      -4.671  -3.236  -4.791  1.00  0.00     0.027 C 
BRANCH   3   4
ATOM      4  C   UNL     1      -4.432  -4.745  -4.913  1.00  0.00     0.004 C 
BRANCH   4   5
ATOM      5  C   UNL     1      -3.950  -5.113  -6.321  1.00  0.00     0.000 C 
BRANCH   5   6
ATOM      6  C   UNL     1      -2.620  -5.880  -6.268  1.00  0.00     0.000 C 
BRANCH   6   7
ATOM      7  C   UNL     1      -1.399  -4.936  -6.254  1.00  0.00     0.000 C 
BRANCH   7   8
ATOM      8  C   UNL     1      -0.542  -5.056  -4.981  1.00  0.00     0.006 C 
BRANCH   8   9
ATOM      9  C   UNL     1      -1.165  -5.936  -3.887  1.00  0.00     0.053 C 
BRANCH   9  10
ATOM     10  C   UNL     1      -0.204  -6.207  -2.770  1.00  0.00     0.041 C 
ATOM     11  O   UNL     1       1.038  -6.156  -2.976  1.00  0.00    -0.550 OA
ATOM     12  O   UNL     1      -0.677  -6.527  -1.503  1.00  0.00    -0.550 OA
ENDBRANCH   9  10
ENDBRANCH   8   9
ENDBRANCH   7   8
ENDBRANCH   6   7
ENDBRANCH   5   6
ENDBRANCH   4   5
ENDBRANCH   3   4
ENDBRANCH   1   3
BRANCH   2  13
ATOM     13  C   UNL     1      -2.871  -1.412  -6.471  1.00  0.00     0.027 C 
BRANCH  13  14
ATOM     14  C   UNL     1      -3.276   0.064  -6.636  1.00  0.00     0.004 C 
BRANCH  14  15
ATOM     15  C   UNL     1      -4.787   0.326  -6.489  1.00  0.00     0.000 C 
BRANCH  15  16
ATOM     16  C   UNL     1      -5.097   1.706  -5.893  1.00  0.00     0.000 C 
BRANCH  16  17
ATOM     17  C   UNL     1      -5.958   1.579  -4.627  1.00  0.00    -0.000 C 
BRANCH  17  18
ATOM     18  C   UNL     1      -5.843   0.182  -3.981  1.00  0.00    -0.000 C 
BRANCH  18  19
ATOM     19  C   UNL     1      -7.202  -0.478  -3.696  1.00  0.00    -0.003 C 
ATOM     20  C   UNL     1      -8.298  -0.033  -4.662  1.00  0.00     0.004 C 
ENDBRANCH  18  19
ENDBRANCH  17  18
ENDBRANCH  16  17
ENDBRANCH  15  16
ENDBRANCH  14  15
ENDBRANCH  13  14
ENDBRANCH   2  13
TORSDOF 15
ENDMDL
MODEL 2
REMARK VINA RESULT:    -4.059      3.616      7.468
REMARK INTER + INTRA:         -10.023
REMARK INTER:                  -7.546
REMARK INTRA:                  -2.477
REMARK UNBOUND:                -2.406
REMARK SMILES CCCCCCCCC=CCCCCCCCC(=O)[O-]
REMARK SMILES IDX 10 1 9 2 11 3 12 4 13 5 14 6 15 7 16 8 17 9 18 10 19 11
REMARK SMILES IDX 20 12 8 13 7 14 6 15 5 16 4 17 3 18 2 19 1 20
REMARK H PARENT
REMARK Flexibility Score: inf
ROOT
ATOM      1  C   UNL     1      -2.869  -2.906  -4.450  1.00  0.00    -0.031 C 
ATOM      2  C   UNL     1      -4.032  -3.511  -4.147  1.00  0.00    -0.031 C 
ENDROOT
BRANCH   1   3
ATOM      3  C   UNL     1      -2.096  -3.126  -5.727  1.00  0.00     0.027 C 
BRANCH   3   4
ATOM      4  C   UNL     1      -2.720  -2.332  -6.880  1.00  0.00     0.004 C 
BRANCH   4   5
ATOM      5  C   UNL     1      -2.755  -0.833  -6.561  1.00  0.00     0.000 C 
BRANCH   5   6
ATOM      6  C   UNL     1      -4.115  -0.221  -6.925  1.00  0.00     0.000 C 
BRANCH   6   7
ATOM      7  C   UNL     1      -5.278  -1.219  -6.733  1.00  0.00     0.000 C 
BRANCH   7   8
ATOM      8  C   UNL     1      -6.183  -0.886  -5.532  1.00  0.00     0.006 C 
BRANCH   8   9
ATOM      9  C   UNL     1      -5.504  -0.025  -4.456  1.00  0.00     0.053 C 
BRANCH   9  10
ATOM     10  C   UNL     1      -6.184   1.300  -4.288  1.00  0.00     0.041 C 
ATOM     11  O   UNL     1      -5.529   2.368  -4.418  1.00  0.00    -0.550 OA
ATOM     12  O   UNL     1      -7.536   1.357  -3.974  1.00  0.00    -0.550 OA
ENDBRANCH   9  10
ENDBRANCH   8   9
ENDBRANCH   7   8
ENDBRANCH   6   7
ENDBRANCH   5   6
ENDBRANCH   4   5
ENDBRANCH   3   4
ENDBRANCH   1   3
BRANCH   2  13
ATOM     13  C   UNL     1      -4.692  -4.578  -4.987  1.00  0.00     0.027 C 
BRANCH  13  14
ATOM     14  C   UNL     1      -4.315  -5.997  -4.527  1.00  0.00     0.004 C 
BRANCH  14  15
ATOM     15  C   UNL     1      -3.486  -6.795  -5.550  1.00  0.00     0.000 C 
BRANCH  15  16
ATOM     16  C   UNL     1      -2.001  -6.887  -5.173  1.00  0.00     0.000 C 
BRANCH  16  17
ATOM     17  C   UNL     1      -1.802  -6.689  -3.662  1.00  0.00    -0.000 C 
BRANCH  17  18
ATOM     18  C   UNL     1      -0.686  -5.669  -3.351  1.00  0.00    -0.000 C 
BRANCH  18  19
ATOM     19  C   UNL     1       0.528  -6.285  -2.636  1.00  0.00    -0.003 C 
ATOM     20  C   UNL     1       0.201  -7.594  -1.921  1.00  0.00     0.004 C 
ENDBRANCH  18  19
ENDBRANCH  17  18
ENDBRANCH  16  17
ENDBRANCH  15  16
ENDBRANCH  14  15
ENDBRANCH  13  14
ENDBRANCH   2  13
TORSDOF 15
ENDMDL
MODEL 3
REMARK VINA RESULT:    -3.893      1.070      1.736
REMARK INTER + INTRA:          -9.713
REMARK INTER:                  -7.554
REMARK INTRA:                  -2.159
REMARK UNBOUND:                -2.406
REMARK SMILES CCCCCCCCC=CCCCCCCCC(=O)[O-]
REMARK SMILES IDX 10 1 9 2 11 3 12 4 13 5 14 6 15 7 16 8 17 9 18 10 19 11
REMARK SMILES IDX 20 12 8 13 7 14 6 15 5 16 4 17 3 18 2 19 1 20
REMARK H PARENT
REMARK Flexibility Score: inf
ROOT
ATOM      1  C   UNL     1      -3.711  -1.163  -4.825  1.00  0.00    -0.031 C 
ATOM      2  C   UNL     1      -3.798  -0.385  -5.920  1.00  0.00    -0.031 C 
ENDROOT
BRANCH   1   3
ATOM      3  C   UNL     1      -4.745  -2.182  -4.416  1.00  0.00     0.027 C 
BRANCH   3   4
ATOM      4  C   UNL     1      -4.262  -3.601  -4.735  1.00  0.00     0.004 C 
BRANCH   4   5
ATOM      5  C   UNL     1      -2.780  -3.771  -4.382  1.00  0.00     0.000 C 
BRANCH   5   6
ATOM      6  C   UNL     1      -2.034  -4.542  -5.480  1.00  0.00     0.000 C 
BRANCH   6   7
ATOM      7  C   UNL     1      -2.337  -6.056  -5.443  1.00  0.00     0.000 C 
BRANCH   7   8
ATOM      8  C   UNL     1      -1.775  -6.766  -4.197  1.00  0.00     0.006 C 
BRANCH   8   9
ATOM      9  C   UNL     1      -0.277  -6.527  -3.963  1.00  0.00     0.053 C 
BRANCH   9  10
ATOM     10  C   UNL     1       0.046  -6.373  -2.507  1.00  0.00     0.041 C 
ATOM     11  O   UNL     1       1.140  -5.859  -2.152  1.00  0.00    -0.550 OA
ATOM     12  O   UNL     1      -0.854  -6.809  -1.543  1.00  0.00    -0.550 OA
ENDBRANCH   9  10
ENDBRANCH   8   9
ENDBRANCH   7   8
ENDBRANCH   6   7
ENDBRANCH   5   6
ENDBRANCH   4   5
ENDBRANCH   3   4
ENDBRANCH   1   3
BRANCH   2  13
ATOM     13  C   UNL     1      -4.985  -0.337  -6.850  1.00  0.00     0.027 C 
BRANCH  13  14
ATOM     14  C   UNL     1      -5.552   1.086  -6.998  1.00  0.00     0.004 C 
BRANCH  14  15
ATOM     15  C   UNL     1      -5.496   1.927  -5.708  1.00  0.00     0.000 C 
BRANCH  15  16
ATOM     16  C   UNL     1      -6.794   1.854  -4.892  1.00  0.00     0.000 C 
BRANCH  16  17
ATOM     17  C   UNL     1      -6.617   0.964  -3.653  1.00  0.00    -0.000 C 
BRANCH  17  18
ATOM     18  C   UNL     1      -7.510  -0.294  -3.705  1.00  0.00    -0.000 C 
BRANCH  18  19
ATOM     19  C   UNL     1      -8.347  -0.400  -4.991  1.00  0.00    -0.003 C 
ATOM     20  C   UNL     1      -8.316  -1.795  -5.612  1.00  0.00     0.004 C 
ENDBRANCH  18  19
ENDBRANCH  17  18
ENDBRANCH  16  17
ENDBRANCH  15  16
ENDBRANCH  14  15
ENDBRANCH  13  14
ENDBRANCH   2  13
TORSDOF 15
ENDMDL
MODEL 4
REMARK VINA RESULT:    -3.879      3.572      7.516
REMARK INTER + INTRA:          -9.687
REMARK INTER:                  -7.396
REMARK INTRA:                  -2.291
REMARK UNBOUND:                -2.406
REMARK SMILES CCCCCCCCC=CCCCCCCCC(=O)[O-]
REMARK SMILES IDX 10 1 9 2 11 3 12 4 13 5 14 6 15 7 16 8 17 9 18 10 19 11
REMARK SMILES IDX 20 12 8 13 7 14 6 15 5 16 4 17 3 18 2 19 1 20
REMARK H PARENT
REMARK Flexibility Score: inf
ROOT
ATOM      1  C   UNL     1      -4.002  -3.400  -4.164  1.00  0.00    -0.031 C 
ATOM      2  C   UNL     1      -2.756  -3.037  -4.517  1.00  0.00    -0.031 C 
ENDROOT
BRANCH   1   3
ATOM      3  C   UNL     1      -4.824  -4.446  -4.875  1.00  0.00     0.027 C 
BRANCH   3   4
ATOM      4  C   UNL     1      -6.046  -3.810  -5.546  1.00  0.00     0.004 C 
BRANCH   4   5
ATOM      5  C   UNL     1      -6.182  -2.333  -5.155  1.00  0.00     0.000 C 
BRANCH   5   6
ATOM      6  C   UNL     1      -6.297  -1.440  -6.399  1.00  0.00     0.000 C 
BRANCH   6   7
ATOM      7  C   UNL     1      -4.952  -0.781  -6.774  1.00  0.00     0.000 C 
BRANCH   7   8
ATOM      8  C   UNL     1      -4.354   0.082  -5.647  1.00  0.00     0.006 C 
BRANCH   8   9
ATOM      9  C   UNL     1      -4.855   1.533  -5.636  1.00  0.00     0.053 C 
BRANCH   9  10
ATOM     10  C   UNL     1      -5.924   1.750  -4.609  1.00  0.00     0.041 C 
ATOM     11  O   UNL     1      -5.915   1.089  -3.536  1.00  0.00    -0.550 OA
ATOM     12  O   UNL     1      -6.938   2.672  -4.839  1.00  0.00    -0.550 OA
ENDBRANCH   9  10
ENDBRANCH   8   9
ENDBRANCH   7   8
ENDBRANCH   6   7
ENDBRANCH   5   6
ENDBRANCH   4   5
ENDBRANCH   3   4
ENDBRANCH   1   3
BRANCH   2  13
ATOM     13  C   UNL     1      -2.024  -3.544  -5.736  1.00  0.00     0.027 C 
BRANCH  13  14
ATOM     14  C   UNL     1      -1.057  -4.692  -5.399  1.00  0.00     0.004 C 
BRANCH  14  15
ATOM     15  C   UNL     1      -1.586  -6.093  -5.762  1.00  0.00     0.000 C 
BRANCH  15  16
ATOM     16  C   UNL     1      -1.926  -6.941  -4.529  1.00  0.00     0.000 C 
BRANCH  16  17
ATOM     17  C   UNL     1      -1.483  -6.237  -3.237  1.00  0.00    -0.000 C 
BRANCH  17  18
ATOM     18  C   UNL     1      -0.465  -7.075  -2.435  1.00  0.00    -0.000 C 
BRANCH  18  19
ATOM     19  C   UNL     1       0.977  -6.550  -2.534  1.00  0.00    -0.003 C 
ATOM     20  C   UNL     1       1.690  -6.993  -3.810  1.00  0.00     0.004 C 
ENDBRANCH  18  19
ENDBRANCH  17  18
ENDBRANCH  16  17
ENDBRANCH  15  16
ENDBRANCH  14  15
ENDBRANCH  13  14
ENDBRANCH   2  13
TORSDOF 15
ENDMDL
MODEL 5
REMARK VINA RESULT:    -3.877      1.300      2.318
REMARK INTER + INTRA:          -9.683
REMARK INTER:                  -7.551
REMARK INTRA:                  -2.132
REMARK UNBOUND:                -2.406
REMARK SMILES CCCCCCCCC=CCCCCCCCC(=O)[O-]
REMARK SMILES IDX 10 1 9 2 11 3 12 4 13 5 14 6 15 7 16 8 17 9 18 10 19 11
REMARK SMILES IDX 20 12 8 13 7 14 6 15 5 16 4 17 3 18 2 19 1 20
REMARK H PARENT
REMARK Flexibility Score: inf
ROOT
ATOM      1  C   UNL     1      -2.884  -1.270  -5.106  1.00  0.00    -0.031 C 
ATOM      2  C   UNL     1      -3.827  -0.694  -5.874  1.00  0.00    -0.031 C 
ENDROOT
BRANCH   1   3
ATOM      3  C   UNL     1      -2.412  -2.695  -5.253  1.00  0.00     0.027 C 
BRANCH   3   4
ATOM      4  C   UNL     1      -2.944  -3.563  -4.108  1.00  0.00     0.004 C 
BRANCH   4   5
ATOM      5  C   UNL     1      -4.012  -4.542  -4.610  1.00  0.00     0.000 C 
BRANCH   5   6
ATOM      6  C   UNL     1      -3.606  -5.996  -4.327  1.00  0.00     0.000 C 
BRANCH   6   7
ATOM      7  C   UNL     1      -2.579  -6.528  -5.350  1.00  0.00     0.000 C 
BRANCH   7   8
ATOM      8  C   UNL     1      -1.389  -7.260  -4.703  1.00  0.00     0.006 C 
BRANCH   8   9
ATOM      9  C   UNL     1      -1.373  -7.196  -3.169  1.00  0.00     0.053 C 
BRANCH   9  10
ATOM     10  C   UNL     1      -0.160  -6.485  -2.650  1.00  0.00     0.041 C 
ATOM     11  O   UNL     1       0.486  -5.706  -3.400  1.00  0.00    -0.550 OA
ATOM     12  O   UNL     1       0.265  -6.690  -1.344  1.00  0.00    -0.550 OA
ENDBRANCH   9  10
ENDBRANCH   8   9
ENDBRANCH   7   8
ENDBRANCH   6   7
ENDBRANCH   5   6
ENDBRANCH   4   5
ENDBRANCH   3   4
ENDBRANCH   1   3
BRANCH   2  13
ATOM     13  C   UNL     1      -4.630  -1.410  -6.933  1.00  0.00     0.027 C 
BRANCH  13  14
ATOM     14  C   UNL     1      -6.123  -1.496  -6.571  1.00  0.00     0.004 C 
BRANCH  14  15
ATOM     15  C   UNL     1      -6.399  -1.856  -5.100  1.00  0.00     0.000 C 
BRANCH  15  16
ATOM     16  C   UNL     1      -7.402  -0.906  -4.430  1.00  0.00     0.000 C 
BRANCH  16  17
ATOM     17  C   UNL     1      -6.678   0.242  -3.711  1.00  0.00    -0.000 C 
BRANCH  17  18
ATOM     18  C   UNL     1      -7.142   1.627  -4.210  1.00  0.00    -0.000 C 
BRANCH  18  19
ATOM     19  C   UNL     1      -6.026   2.442  -4.886  1.00  0.00    -0.003 C 
ATOM     20  C   UNL     1      -5.984   2.256  -6.401  1.00  0.00     0.004 C 
ENDBRANCH  18  19
ENDBRANCH  17  18
ENDBRANCH  16  17
ENDBRANCH  15  16
ENDBRANCH  14  15
ENDBRANCH  13  14
ENDBRANCH   2  13
TORSDOF 15
ENDMDL
MODEL 6
REMARK VINA RESULT:    -3.833      1.264      2.576
REMARK INTER + INTRA:          -9.601
REMARK INTER:                  -7.548
REMARK INTRA:                  -2.053
REMARK UNBOUND:                -2.406
REMARK SMILES CCCCCCCCC=CCCCCCCCC(=O)[O-]
REMARK SMILES IDX 10 1 9 2 11 3 12 4 13 5 14 6 15 7 16 8 17 9 18 10 19 11
REMARK SMILES IDX 20 12 8 13 7 14 6 15 5 16 4 17 3 18 2 19 1 20
REMARK H PARENT
REMARK Flexibility Score: inf
ROOT
ATOM      1  C   UNL     1      -4.381  -5.183  -4.981  1.00  0.00    -0.031 C 
ATOM      2  C   UNL     1      -4.518  -3.850  -4.860  1.00  0.00    -0.031 C 
ENDROOT
BRANCH   1   3
ATOM      3  C   UNL     1      -3.355  -6.008  -4.246  1.00  0.00     0.027 C 
BRANCH   3   4
ATOM      4  C   UNL     1      -2.387  -6.671  -5.233  1.00  0.00     0.004 C 
BRANCH   4   5
ATOM      5  C   UNL     1      -1.646  -5.620  -6.067  1.00  0.00     0.000 C 
BRANCH   5   6
ATOM      6  C   UNL     1      -0.489  -4.997  -5.271  1.00  0.00     0.000 C 
BRANCH   6   7
ATOM      7  C   UNL     1       0.660  -5.998  -5.027  1.00  0.00     0.000 C 
BRANCH   7   8
ATOM      8  C   UNL     1       0.885  -6.326  -3.539  1.00  0.00     0.006 C 
BRANCH   8   9
ATOM      9  C   UNL     1       0.442  -7.739  -3.135  1.00  0.00     0.053 C 
BRANCH   9  10
ATOM     10  C   UNL     1       0.362  -7.899  -1.647  1.00  0.00     0.041 C 
ATOM     11  O   UNL     1      -0.290  -8.854  -1.147  1.00  0.00    -0.550 OA
ATOM     12  O   UNL     1       0.996  -6.988  -0.812  1.00  0.00    -0.550 OA
ENDBRANCH   9  10
ENDBRANCH   8   9
ENDBRANCH   7   8
ENDBRANCH   6   7
ENDBRANCH   5   6
ENDBRANCH   4   5
ENDBRANCH   3   4
ENDBRANCH   1   3
BRANCH   2  13
ATOM     13  C   UNL     1      -3.604  -2.960  -4.051  1.00  0.00     0.027 C 
BRANCH  13  14
ATOM     14  C   UNL     1      -2.625  -2.172  -4.938  1.00  0.00     0.004 C 
BRANCH  14  15
ATOM     15  C   UNL     1      -3.189  -1.788  -6.319  1.00  0.00     0.000 C 
BRANCH  15  16
ATOM     16  C   UNL     1      -3.156  -0.275  -6.578  1.00  0.00     0.000 C 
BRANCH  16  17
ATOM     17  C   UNL     1      -4.196   0.454  -5.713  1.00  0.00    -0.000 C 
BRANCH  17  18
ATOM     18  C   UNL     1      -5.580  -0.228  -5.765  1.00  0.00    -0.000 C 
BRANCH  18  19
ATOM     19  C   UNL     1      -6.241  -0.383  -4.385  1.00  0.00    -0.003 C 
ATOM     20  C   UNL     1      -6.576   0.954  -3.729  1.00  0.00     0.004 C 
ENDBRANCH  18  19
ENDBRANCH  17  18
ENDBRANCH  16  17
ENDBRANCH  15  16
ENDBRANCH  14  15
ENDBRANCH  13  14
ENDBRANCH   2  13
TORSDOF 15
ENDMDL
MODEL 7
REMARK VINA RESULT:    -3.802     11.262     13.394
REMARK INTER + INTRA:          -9.543
REMARK INTER:                  -7.509
REMARK INTRA:                  -2.034
REMARK UNBOUND:                -2.406
REMARK SMILES CCCCCCCCC=CCCCCCCCC(=O)[O-]
REMARK SMILES IDX 10 1 9 2 11 3 12 4 13 5 14 6 15 7 16 8 17 9 18 10 19 11
REMARK SMILES IDX 20 12 8 13 7 14 6 15 5 16 4 17 3 18 2 19 1 20
REMARK H PARENT
REMARK Flexibility Score: inf
ROOT
ATOM      1  C   UNL     1       0.914   8.349  -5.248  1.00  0.00    -0.031 C 
ATOM      2  C   UNL     1       0.558   8.479  -3.957  1.00  0.00    -0.031 C 
ENDROOT
BRANCH   1   3
ATOM      3  C   UNL     1       2.054   9.089  -5.901  1.00  0.00     0.027 C 
BRANCH   3   4
ATOM      4  C   UNL     1       2.860   8.152  -6.808  1.00  0.00     0.004 C 
BRANCH   4   5
ATOM      5  C   UNL     1       3.562   7.063  -5.988  1.00  0.00     0.000 C 
BRANCH   5   6
ATOM      6  C   UNL     1       4.980   6.801  -6.517  1.00  0.00     0.000 C 
BRANCH   6   7
ATOM      7  C   UNL     1       5.760   5.802  -5.636  1.00  0.00     0.000 C 
BRANCH   7   8
ATOM      8  C   UNL     1       5.558   4.332  -6.045  1.00  0.00     0.006 C 
BRANCH   8   9
ATOM      9  C   UNL     1       6.698   3.399  -5.613  1.00  0.00     0.053 C 
BRANCH   9  10
ATOM     10  C   UNL     1       6.481   2.847  -4.236  1.00  0.00     0.041 C 
ATOM     11  O   UNL     1       5.970   1.705  -4.086  1.00  0.00    -0.550 OA
ATOM     12  O   UNL     1       6.829   3.596  -3.120  1.00  0.00    -0.550 OA
ENDBRANCH   9  10
ENDBRANCH   8   9
ENDBRANCH   7   8
ENDBRANCH   6   7
ENDBRANCH   5   6
ENDBRANCH   4   5
ENDBRANCH   3   4
ENDBRANCH   1   3
BRANCH   2  13
ATOM     13  C   UNL     1       1.176   9.457  -2.988  1.00  0.00     0.027 C 
BRANCH  13  14
ATOM     14  C   UNL     1       2.443   8.895  -2.321  1.00  0.00     0.004 C 
BRANCH  14  15
ATOM     15  C   UNL     1       3.193   9.905  -1.432  1.00  0.00     0.000 C 
BRANCH  15  16
ATOM     16  C   UNL     1       4.571  10.284  -1.991  1.00  0.00     0.000 C 
BRANCH  16  17
ATOM     17  C   UNL     1       4.462  10.768  -3.445  1.00  0.00    -0.000 C 
BRANCH  17  18
ATOM     18  C   UNL     1       5.404   9.992  -4.390  1.00  0.00    -0.000 C 
BRANCH  18  19
ATOM     19  C   UNL     1       6.271   8.945  -3.670  1.00  0.00    -0.003 C 
ATOM     20  C   UNL     1       7.730   8.964  -4.121  1.00  0.00     0.004 C 
ENDBRANCH  18  19
ENDBRANCH  17  18
ENDBRANCH  16  17
ENDBRANCH  15  16
ENDBRANCH  14  15
ENDBRANCH  13  14
ENDBRANCH   2  13
TORSDOF 15
ENDMDL
MODEL 8
REMARK VINA RESULT:    -3.789      1.441      2.758
REMARK INTER + INTRA:          -9.518
REMARK INTER:                  -6.960
REMARK INTRA:                  -2.558
REMARK UNBOUND:                -2.406
REMARK SMILES CCCCCCCCC=CCCCCCCCC(=O)[O-]
REMARK SMILES IDX 10 1 9 2 11 3 12 4 13 5 14 6 15 7 16 8 17 9 18 10 19 11
REMARK SMILES IDX 20 12 8 13 7 14 6 15 5 16 4 17 3 18 2 19 1 20
REMARK H PARENT
REMARK Flexibility Score: inf
ROOT
ATOM      1  C   UNL     1      -2.880  -2.753  -4.586  1.00  0.00    -0.031 C 
ATOM      2  C   UNL     1      -4.027  -3.311  -4.155  1.00  0.00    -0.031 C 
ENDROOT
BRANCH   1   3
ATOM      3  C   UNL     1      -2.354  -2.860  -5.995  1.00  0.00     0.027 C 
BRANCH   3   4
ATOM      4  C   UNL     1      -1.245  -3.915  -6.080  1.00  0.00     0.004 C 
BRANCH   4   5
ATOM      5  C   UNL     1      -1.804  -5.264  -6.548  1.00  0.00     0.000 C 
BRANCH   5   6
ATOM      6  C   UNL     1      -1.278  -6.413  -5.676  1.00  0.00     0.000 C 
BRANCH   6   7
ATOM      7  C   UNL     1      -2.033  -6.525  -4.334  1.00  0.00     0.000 C 
BRANCH   7   8
ATOM      8  C   UNL     1      -1.266  -5.920  -3.144  1.00  0.00     0.006 C 
BRANCH   8   9
ATOM      9  C   UNL     1      -0.498  -6.951  -2.305  1.00  0.00     0.053 C 
BRANCH   9  10
ATOM     10  C   UNL     1       0.986  -6.756  -2.396  1.00  0.00     0.041 C 
ATOM     11  O   UNL     1       1.563  -6.807  -3.515  1.00  0.00    -0.550 OA
ATOM     12  O   UNL     1       1.733  -6.529  -1.247  1.00  0.00    -0.550 OA
ENDBRANCH   9  10
ENDBRANCH   8   9
ENDBRANCH   7   8
ENDBRANCH   6   7
ENDBRANCH   5   6
ENDBRANCH   4   5
ENDBRANCH   3   4
ENDBRANCH   1   3
BRANCH   2  13
ATOM     13  C   UNL     1      -4.911  -4.212  -4.982  1.00  0.00     0.027 C 
BRANCH  13  14
ATOM     14  C   UNL     1      -6.182  -3.494  -5.467  1.00  0.00     0.004 C 
BRANCH  14  15
ATOM     15  C   UNL     1      -6.002  -2.700  -6.775  1.00  0.00     0.000 C 
BRANCH  15  16
ATOM     16  C   UNL     1      -7.134  -1.694  -7.023  1.00  0.00     0.000 C 
BRANCH  16  17
ATOM     17  C   UNL     1      -6.676  -0.261  -6.711  1.00  0.00    -0.000 C 
BRANCH  17  18
ATOM     18  C   UNL     1      -5.140  -0.150  -6.605  1.00  0.00    -0.000 C 
BRANCH  18  19
ATOM     19  C   UNL     1      -4.648   0.274  -5.211  1.00  0.00    -0.003 C 
ATOM     20  C   UNL     1      -5.749   0.242  -4.153  1.00  0.00     0.004 C 
ENDBRANCH  18  19
ENDBRANCH  17  18
ENDBRANCH  16  17
ENDBRANCH  15  16
ENDBRANCH  14  15
ENDBRANCH  13  14
ENDBRANCH   2  13
TORSDOF 15
ENDMDL
MODEL 9
REMARK VINA RESULT:    -3.748      1.572      3.732
REMARK INTER + INTRA:          -9.440
REMARK INTER:                  -7.160
REMARK INTRA:                  -2.280
REMARK UNBOUND:                -2.406
REMARK SMILES CCCCCCCCC=CCCCCCCCC(=O)[O-]
REMARK SMILES IDX 10 1 9 2 11 3 12 4 13 5 14 6 15 7 16 8 17 9 18 10 19 11
REMARK SMILES IDX 20 12 8 13 7 14 6 15 5 16 4 17 3 18 2 19 1 20
REMARK H PARENT
REMARK Flexibility Score: inf
ROOT
ATOM      1  C   UNL     1      -4.951   0.808  -5.410  1.00  0.00    -0.031 C 
ATOM      2  C   UNL     1      -5.657   0.395  -4.341  1.00  0.00    -0.031 C 
ENDROOT
BRANCH   1   3
ATOM      3  C   UNL     1      -4.582  -0.067  -6.581  1.00  0.00     0.027 C 
BRANCH   3   4
ATOM      4  C   UNL     1      -3.082  -0.382  -6.569  1.00  0.00     0.004 C 
BRANCH   4   5
ATOM      5  C   UNL     1      -2.835  -1.873  -6.309  1.00  0.00     0.000 C 
BRANCH   5   6
ATOM      6  C   UNL     1      -2.533  -2.133  -4.826  1.00  0.00     0.000 C 
BRANCH   6   7
ATOM      7  C   UNL     1      -3.359  -3.306  -4.256  1.00  0.00     0.000 C 
BRANCH   7   8
ATOM      8  C   UNL     1      -3.136  -4.635  -5.001  1.00  0.00     0.006 C 
BRANCH   8   9
ATOM      9  C   UNL     1      -2.541  -5.750  -4.129  1.00  0.00     0.053 C 
BRANCH   9  10
ATOM     10  C   UNL     1      -1.104  -5.491  -3.790  1.00  0.00     0.041 C 
ATOM     11  O   UNL     1      -0.714  -5.557  -2.594  1.00  0.00    -0.550 OA
ATOM     12  O   UNL     1      -0.198  -5.164  -4.791  1.00  0.00    -0.550 OA
ENDBRANCH   9  10
ENDBRANCH   8   9
ENDBRANCH   7   8
ENDBRANCH   6   7
ENDBRANCH   5   6
ENDBRANCH   4   5
ENDBRANCH   3   4
ENDBRANCH   1   3
BRANCH   2  13
ATOM     13  C   UNL     1      -6.099  -1.027  -4.098  1.00  0.00     0.027 C 
BRANCH  13  14
ATOM     14  C   UNL     1      -7.559  -1.264  -4.524  1.00  0.00     0.004 C 
BRANCH  14  15
ATOM     15  C   UNL     1      -8.477  -0.040  -4.345  1.00  0.00     0.000 C 
BRANCH  15  16
ATOM     16  C   UNL     1      -9.059   0.469  -5.671  1.00  0.00     0.000 C 
BRANCH  16  17
ATOM     17  C   UNL     1      -8.927   1.995  -5.781  1.00  0.00    -0.000 C 
BRANCH  17  18
ATOM     18  C   UNL     1      -7.869   2.415  -6.824  1.00  0.00    -0.000 C 
BRANCH  18  19
ATOM     19  C   UNL     1      -7.120   3.707  -6.456  1.00  0.00    -0.003 C 
ATOM     20  C   UNL     1      -7.006   3.923  -4.948  1.00  0.00     0.004 C 
ENDBRANCH  18  19
ENDBRANCH  17  18
ENDBRANCH  16  17
ENDBRANCH  15  16
ENDBRANCH  14  15
ENDBRANCH  13  14
ENDBRANCH   2  13
TORSDOF 15
ENDMDL
