MODEL 1
REMARK VINA RESULT:    -3.419      0.000      0.000
REMARK INTER + INTRA:          -8.529
REMARK INTER:                  -6.217
REMARK INTRA:                  -2.311
REMARK UNBOUND:                -2.311
REMARK SMILES CCCCCCCCCCCCCC[C@@H](C)C(=O)[O-]
REMARK SMILES IDX 9 1 10 2 11 3 12 4 13 5 14 6 15 7 16 8 17 9 18 10 19 11 8 12
REMARK SMILES IDX 7 13 6 14 5 15 4 16 3 17 2 18 1 19
REMARK H PARENT
REMARK Flexibility Score: inf
ROOT
ATOM      1  C   UNL     1      56.708  27.207  52.025  1.00  0.00     0.000 C 
ENDROOT
BRANCH   1   2
ATOM      2  C   UNL     1      56.735  28.386  51.040  1.00  0.00     0.000 C 
BRANCH   2   3
ATOM      3  C   UNL     1      58.140  28.988  50.880  1.00  0.00     0.000 C 
BRANCH   3   4
ATOM      4  C   UNL     1      58.645  28.934  49.426  1.00  0.00     0.000 C 
BRANCH   4   5
ATOM      5  C   UNL     1      59.852  27.998  49.251  1.00  0.00     0.001 C 
BRANCH   5   6
ATOM      6  C   UNL     1      59.459  26.510  49.308  1.00  0.00     0.009 C 
BRANCH   6   7
ATOM      7  C   UNL     1      59.944  25.816  50.599  1.00  0.00     0.032 C 
ATOM      8  C   UNL     1      59.641  24.311  50.604  1.00  0.00     0.014 C 
BRANCH   7   9
ATOM      9  C   UNL     1      61.422  26.035  50.776  1.00  0.00     0.044 C 
ATOM     10  O   UNL     1      62.236  25.649  49.893  1.00  0.00    -0.550 OA
ATOM     11  O   UNL     1      61.899  26.665  51.918  1.00  0.00    -0.550 OA
ENDBRANCH   7   9
ENDBRANCH   6   7
ENDBRANCH   5   6
ENDBRANCH   4   5
ENDBRANCH   3   4
ENDBRANCH   2   3
ENDBRANCH   1   2
BRANCH   1  12
ATOM     12  C   UNL     1      56.259  25.918  51.325  1.00  0.00     0.000 C 
BRANCH  12  13
ATOM     13  C   UNL     1      55.834  26.198  49.876  1.00  0.00    -0.000 C 
BRANCH  13  14
ATOM     14  C   UNL     1      54.570  25.424  49.469  1.00  0.00    -0.000 C 
BRANCH  14  15
ATOM     15  C   UNL     1      53.311  25.922  50.196  1.00  0.00    -0.000 C 
BRANCH  15  16
ATOM     16  C   UNL     1      52.925  27.330  49.724  1.00  0.00    -0.000 C 
BRANCH  16  17
ATOM     17  C   UNL     1      52.980  28.333  50.885  1.00  0.00    -0.000 C 
BRANCH  17  18
ATOM     18  C   UNL     1      53.406  29.738  50.431  1.00  0.00    -0.003 C 
ATOM     19  C   UNL     1      53.687  30.679  51.602  1.00  0.00     0.004 C 
ENDBRANCH  17  18
ENDBRANCH  16  17
ENDBRANCH  15  16
ENDBRANCH  14  15
ENDBRANCH  13  14
ENDBRANCH  12  13
ENDBRANCH   1  12
TORSDOF 14
ENDMDL
MODEL 2
REMARK VINA RESULT:    -3.370     11.159     13.364
REMARK INTER + INTRA:          -8.440
REMARK INTER:                  -5.846
REMARK INTRA:                  -2.594
REMARK UNBOUND:                -2.311
REMARK SMILES CCCCCCCCCCCCCC[C@@H](C)C(=O)[O-]
REMARK SMILES IDX 9 1 10 2 11 3 12 4 13 5 14 6 15 7 16 8 17 9 18 10 19 11 8 12
REMARK SMILES IDX 7 13 6 14 5 15 4 16 3 17 2 18 1 19
REMARK H PARENT
REMARK Flexibility Score: inf
ROOT
ATOM      1  C   UNL     1      60.839  34.554  59.217  1.00  0.00     0.000 C 
ENDROOT
BRANCH   1   2
ATOM      2  C   UNL     1      60.847  33.334  60.152  1.00  0.00     0.000 C 
BRANCH   2   3
ATOM      3  C   UNL     1      60.457  32.035  59.429  1.00  0.00     0.000 C 
BRANCH   3   4
ATOM      4  C   UNL     1      60.486  30.809  60.361  1.00  0.00     0.000 C 
BRANCH   4   5
ATOM      5  C   UNL     1      61.085  31.126  61.741  1.00  0.00     0.001 C 
BRANCH   5   6
ATOM      6  C   UNL     1      62.261  30.200  62.101  1.00  0.00     0.009 C 
BRANCH   6   7
ATOM      7  C   UNL     1      62.587  29.189  60.981  1.00  0.00     0.032 C 
ATOM      8  C   UNL     1      63.967  29.433  60.355  1.00  0.00     0.014 C 
BRANCH   7   9
ATOM      9  C   UNL     1      62.516  27.785  61.518  1.00  0.00     0.044 C 
ATOM     10  O   UNL     1      61.453  27.353  62.039  1.00  0.00    -0.550 OA
ATOM     11  O   UNL     1      63.628  26.956  61.442  1.00  0.00    -0.550 OA
ENDBRANCH   7   9
ENDBRANCH   6   7
ENDBRANCH   5   6
ENDBRANCH   4   5
ENDBRANCH   3   4
ENDBRANCH   2   3
ENDBRANCH   1   2
BRANCH   1  12
ATOM     12  C   UNL     1      61.426  35.786  59.917  1.00  0.00     0.000 C 
BRANCH  12  13
ATOM     13  C   UNL     1      62.188  35.384  61.190  1.00  0.00    -0.000 C 
BRANCH  13  14
ATOM     14  C   UNL     1      63.701  35.628  61.076  1.00  0.00    -0.000 C 
BRANCH  14  15
ATOM     15  C   UNL     1      64.532  34.441  61.587  1.00  0.00    -0.000 C 
BRANCH  15  16
ATOM     16  C   UNL     1      64.105  33.136  60.901  1.00  0.00    -0.000 C 
BRANCH  16  17
ATOM     17  C   UNL     1      64.899  32.911  59.606  1.00  0.00    -0.000 C 
BRANCH  17  18
ATOM     18  C   UNL     1      64.055  33.164  58.346  1.00  0.00    -0.003 C 
ATOM     19  C   UNL     1      63.650  31.873  57.636  1.00  0.00     0.004 C 
ENDBRANCH  17  18
ENDBRANCH  16  17
ENDBRANCH  15  16
ENDBRANCH  14  15
ENDBRANCH  13  14
ENDBRANCH  12  13
ENDBRANCH   1  12
TORSDOF 14
ENDMDL
MODEL 3
REMARK VINA RESULT:    -3.285     10.943     12.948
REMARK INTER + INTRA:          -8.285
REMARK INTER:                  -5.647
REMARK INTRA:                  -2.638
REMARK UNBOUND:                -2.311
REMARK SMILES CCCCCCCCCCCCCC[C@@H](C)C(=O)[O-]
REMARK SMILES IDX 9 1 10 2 11 3 12 4 13 5 14 6 15 7 16 8 17 9 18 10 19 11 8 12
REMARK SMILES IDX 7 13 6 14 5 15 4 16 3 17 2 18 1 19
REMARK H PARENT
REMARK Flexibility Score: inf
ROOT
ATOM      1  C   UNL     1      61.749  30.257  57.818  1.00  0.00     0.000 C 
ENDROOT
BRANCH   1   2
ATOM      2  C   UNL     1      60.521  30.323  58.739  1.00  0.00     0.000 C 
BRANCH   2   3
ATOM      3  C   UNL     1      60.813  31.055  60.059  1.00  0.00     0.000 C 
BRANCH   3   4
ATOM      4  C   UNL     1      60.866  30.100  61.266  1.00  0.00     0.000 C 
BRANCH   4   5
ATOM      5  C   UNL     1      62.178  30.217  62.059  1.00  0.00     0.001 C 
BRANCH   5   6
ATOM      6  C   UNL     1      63.234  29.192  61.608  1.00  0.00     0.009 C 
BRANCH   6   7
ATOM      7  C   UNL     1      62.611  27.966  60.906  1.00  0.00     0.032 C 
ATOM      8  C   UNL     1      63.384  27.559  59.643  1.00  0.00     0.014 C 
BRANCH   7   9
ATOM      9  C   UNL     1      62.551  26.803  61.859  1.00  0.00     0.044 C 
ATOM     10  O   UNL     1      61.697  26.780  62.787  1.00  0.00    -0.550 OA
ATOM     11  O   UNL     1      63.440  25.745  61.721  1.00  0.00    -0.550 OA
ENDBRANCH   7   9
ENDBRANCH   6   7
ENDBRANCH   5   6
ENDBRANCH   4   5
ENDBRANCH   3   4
ENDBRANCH   2   3
ENDBRANCH   1   2
BRANCH   1  12
ATOM     12  C   UNL     1      62.716  31.411  58.108  1.00  0.00     0.000 C 
BRANCH  12  13
ATOM     13  C   UNL     1      64.153  30.894  58.282  1.00  0.00    -0.000 C 
BRANCH  13  14
ATOM     14  C   UNL     1      64.907  31.611  59.412  1.00  0.00    -0.000 C 
BRANCH  14  15
ATOM     15  C   UNL     1      64.439  33.061  59.610  1.00  0.00    -0.000 C 
BRANCH  15  16
ATOM     16  C   UNL     1      63.965  33.292  61.051  1.00  0.00    -0.000 C 
BRANCH  16  17
ATOM     17  C   UNL     1      62.948  34.442  61.117  1.00  0.00    -0.000 C 
BRANCH  17  18
ATOM     18  C   UNL     1      63.621  35.816  61.262  1.00  0.00    -0.003 C 
ATOM     19  C   UNL     1      64.924  35.756  62.060  1.00  0.00     0.004 C 
ENDBRANCH  17  18
ENDBRANCH  16  17
ENDBRANCH  15  16
ENDBRANCH  14  15
ENDBRANCH  13  14
ENDBRANCH  12  13
ENDBRANCH   1  12
TORSDOF 14
ENDMDL
MODEL 4
REMARK VINA RESULT:    -3.232      1.533      3.171
REMARK INTER + INTRA:          -8.189
REMARK INTER:                  -5.951
REMARK INTRA:                  -2.237
REMARK UNBOUND:                -2.311
REMARK SMILES CCCCCCCCCCCCCC[C@@H](C)C(=O)[O-]
REMARK SMILES IDX 9 1 10 2 11 3 12 4 13 5 14 6 15 7 16 8 17 9 18 10 19 11 8 12
REMARK SMILES IDX 7 13 6 14 5 15 4 16 3 17 2 18 1 19
REMARK H PARENT
REMARK Flexibility Score: inf
ROOT
ATOM      1  C   UNL     1      58.941  29.158  49.286  1.00  0.00     0.000 C 
ENDROOT
BRANCH   1   2
ATOM      2  C   UNL     1      59.639  27.833  48.941  1.00  0.00     0.000 C 
BRANCH   2   3
ATOM      3  C   UNL     1      61.085  27.775  49.458  1.00  0.00     0.000 C 
BRANCH   3   4
ATOM      4  C   UNL     1      61.476  26.374  49.962  1.00  0.00     0.000 C 
BRANCH   4   5
ATOM      5  C   UNL     1      60.323  25.362  49.861  1.00  0.00     0.001 C 
BRANCH   5   6
ATOM      6  C   UNL     1      60.512  24.156  50.799  1.00  0.00     0.009 C 
BRANCH   6   7
ATOM      7  C   UNL     1      59.477  24.126  51.945  1.00  0.00     0.032 C 
ATOM      8  C   UNL     1      59.082  22.696  52.340  1.00  0.00     0.014 C 
BRANCH   7   9
ATOM      9  C   UNL     1      60.021  24.851  53.147  1.00  0.00     0.044 C 
ATOM     10  O   UNL     1      59.345  25.756  53.708  1.00  0.00    -0.550 OA
ATOM     11  O   UNL     1      61.276  24.525  53.645  1.00  0.00    -0.550 OA
ENDBRANCH   7   9
ENDBRANCH   6   7
ENDBRANCH   5   6
ENDBRANCH   4   5
ENDBRANCH   3   4
ENDBRANCH   2   3
ENDBRANCH   1   2
BRANCH   1  12
ATOM     12  C   UNL     1      57.673  28.912  50.112  1.00  0.00     0.000 C 
BRANCH  12  13
ATOM     13  C   UNL     1      57.945  27.922  51.255  1.00  0.00    -0.000 C 
BRANCH  13  14
ATOM     14  C   UNL     1      56.839  26.866  51.400  1.00  0.00    -0.000 C 
BRANCH  14  15
ATOM     15  C   UNL     1      56.719  25.961  50.164  1.00  0.00    -0.000 C 
BRANCH  15  16
ATOM     16  C   UNL     1      55.285  25.965  49.618  1.00  0.00    -0.000 C 
BRANCH  16  17
ATOM     17  C   UNL     1      54.287  26.404  50.699  1.00  0.00    -0.000 C 
BRANCH  17  18
ATOM     18  C   UNL     1      53.341  27.514  50.213  1.00  0.00    -0.003 C 
ATOM     19  C   UNL     1      54.002  28.892  50.202  1.00  0.00     0.004 C 
ENDBRANCH  17  18
ENDBRANCH  16  17
ENDBRANCH  15  16
ENDBRANCH  14  15
ENDBRANCH  13  14
ENDBRANCH  12  13
ENDBRANCH   1  12
TORSDOF 14
ENDMDL
MODEL 5
REMARK VINA RESULT:    -3.224     11.453     13.859
REMARK INTER + INTRA:          -8.174
REMARK INTER:                  -5.585
REMARK INTRA:                  -2.589
REMARK UNBOUND:                -2.311
REMARK SMILES CCCCCCCCCCCCCC[C@@H](C)C(=O)[O-]
REMARK SMILES IDX 9 1 10 2 11 3 12 4 13 5 14 6 15 7 16 8 17 9 18 10 19 11 8 12
REMARK SMILES IDX 7 13 6 14 5 15 4 16 3 17 2 18 1 19
REMARK H PARENT
REMARK Flexibility Score: inf
ROOT
ATOM      1  C   UNL     1      61.441  31.033  61.746  1.00  0.00     0.000 C 
ENDROOT
BRANCH   1   2
ATOM      2  C   UNL     1      60.411  30.744  60.644  1.00  0.00     0.000 C 
BRANCH   2   3
ATOM      3  C   UNL     1      60.545  31.696  59.445  1.00  0.00     0.000 C 
BRANCH   3   4
ATOM      4  C   UNL     1      61.198  33.038  59.826  1.00  0.00     0.000 C 
BRANCH   4   5
ATOM      5  C   UNL     1      62.305  33.460  58.846  1.00  0.00     0.001 C 
BRANCH   5   6
ATOM      6  C   UNL     1      63.203  34.574  59.414  1.00  0.00     0.009 C 
BRANCH   6   7
ATOM      7  C   UNL     1      63.099  34.697  60.950  1.00  0.00     0.032 C 
ATOM      8  C   UNL     1      64.440  34.437  61.650  1.00  0.00     0.014 C 
BRANCH   7   9
ATOM      9  C   UNL     1      62.589  36.063  61.322  1.00  0.00     0.044 C 
ATOM     10  O   UNL     1      63.368  36.923  61.816  1.00  0.00    -0.550 OA
ATOM     11  O   UNL     1      61.252  36.383  61.124  1.00  0.00    -0.550 OA
ENDBRANCH   7   9
ENDBRANCH   6   7
ENDBRANCH   5   6
ENDBRANCH   4   5
ENDBRANCH   3   4
ENDBRANCH   2   3
ENDBRANCH   1   2
BRANCH   1  12
ATOM     12  C   UNL     1      62.476  29.905  61.839  1.00  0.00     0.000 C 
BRANCH  12  13
ATOM     13  C   UNL     1      63.905  30.469  61.840  1.00  0.00    -0.000 C 
BRANCH  13  14
ATOM     14  C   UNL     1      64.349  30.958  60.452  1.00  0.00    -0.000 C 
BRANCH  14  15
ATOM     15  C   UNL     1      63.958  29.986  59.329  1.00  0.00    -0.000 C 
BRANCH  15  16
ATOM     16  C   UNL     1      64.677  30.341  58.020  1.00  0.00    -0.000 C 
BRANCH  16  17
ATOM     17  C   UNL     1      65.451  31.660  58.159  1.00  0.00    -0.000 C 
BRANCH  17  18
ATOM     18  C   UNL     1      66.933  31.516  57.781  1.00  0.00    -0.003 C 
ATOM     19  C   UNL     1      67.668  30.490  58.644  1.00  0.00     0.004 C 
ENDBRANCH  17  18
ENDBRANCH  16  17
ENDBRANCH  15  16
ENDBRANCH  14  15
ENDBRANCH  13  14
ENDBRANCH  12  13
ENDBRANCH   1  12
TORSDOF 14
ENDMDL
MODEL 6
REMARK VINA RESULT:    -3.220      1.662      3.029
REMARK INTER + INTRA:          -8.168
REMARK INTER:                  -5.854
REMARK INTRA:                  -2.313
REMARK UNBOUND:                -2.311
REMARK SMILES CCCCCCCCCCCCCC[C@@H](C)C(=O)[O-]
REMARK SMILES IDX 9 1 10 2 11 3 12 4 13 5 14 6 15 7 16 8 17 9 18 10 19 11 8 12
REMARK SMILES IDX 7 13 6 14 5 15 4 16 3 17 2 18 1 19
REMARK H PARENT
REMARK Flexibility Score: inf
ROOT
ATOM      1  C   UNL     1      58.074  28.124  52.592  1.00  0.00     0.000 C 
ENDROOT
BRANCH   1   2
ATOM      2  C   UNL     1      58.080  29.309  51.614  1.00  0.00     0.000 C 
BRANCH   2   3
ATOM      3  C   UNL     1      57.777  28.883  50.169  1.00  0.00     0.000 C 
BRANCH   3   4
ATOM      4  C   UNL     1      58.908  29.258  49.193  1.00  0.00     0.000 C 
BRANCH   4   5
ATOM      5  C   UNL     1      59.912  28.113  48.978  1.00  0.00     0.001 C 
BRANCH   5   6
ATOM      6  C   UNL     1      59.304  26.731  49.280  1.00  0.00     0.009 C 
BRANCH   6   7
ATOM      7  C   UNL     1      60.333  25.747  49.878  1.00  0.00     0.032 C 
ATOM      8  C   UNL     1      61.218  26.403  50.947  1.00  0.00     0.014 C 
BRANCH   7   9
ATOM      9  C   UNL     1      59.625  24.558  50.468  1.00  0.00     0.044 C 
ATOM     10  O   UNL     1      60.115  23.401  50.357  1.00  0.00    -0.550 OA
ATOM     11  O   UNL     1      58.421  24.729  51.140  1.00  0.00    -0.550 OA
ENDBRANCH   7   9
ENDBRANCH   6   7
ENDBRANCH   5   6
ENDBRANCH   4   5
ENDBRANCH   3   4
ENDBRANCH   2   3
ENDBRANCH   1   2
BRANCH   1  12
ATOM     12  C   UNL     1      56.777  28.092  53.409  1.00  0.00     0.000 C 
BRANCH  12  13
ATOM     13  C   UNL     1      56.148  29.492  53.498  1.00  0.00    -0.000 C 
BRANCH  13  14
ATOM     14  C   UNL     1      54.646  29.488  53.173  1.00  0.00    -0.000 C 
BRANCH  14  15
ATOM     15  C   UNL     1      54.347  29.988  51.752  1.00  0.00    -0.000 C 
BRANCH  15  16
ATOM     16  C   UNL     1      53.360  29.054  51.038  1.00  0.00    -0.000 C 
BRANCH  16  17
ATOM     17  C   UNL     1      54.078  28.200  49.983  1.00  0.00    -0.000 C 
BRANCH  17  18
ATOM     18  C   UNL     1      54.285  26.748  50.442  1.00  0.00    -0.003 C 
ATOM     19  C   UNL     1      55.508  26.093  49.799  1.00  0.00     0.004 C 
ENDBRANCH  17  18
ENDBRANCH  16  17
ENDBRANCH  15  16
ENDBRANCH  14  15
ENDBRANCH  13  14
ENDBRANCH  12  13
ENDBRANCH   1  12
TORSDOF 14
ENDMDL
MODEL 7
REMARK VINA RESULT:    -3.180      1.374      2.015
REMARK INTER + INTRA:          -8.095
REMARK INTER:                  -5.812
REMARK INTRA:                  -2.283
REMARK UNBOUND:                -2.311
REMARK SMILES CCCCCCCCCCCCCC[C@@H](C)C(=O)[O-]
REMARK SMILES IDX 9 1 10 2 11 3 12 4 13 5 14 6 15 7 16 8 17 9 18 10 19 11 8 12
REMARK SMILES IDX 7 13 6 14 5 15 4 16 3 17 2 18 1 19
REMARK H PARENT
REMARK Flexibility Score: inf
ROOT
ATOM      1  C   UNL     1      56.877  26.619  51.309  1.00  0.00     0.000 C 
ENDROOT
BRANCH   1   2
ATOM      2  C   UNL     1      57.273  27.348  50.016  1.00  0.00     0.000 C 
BRANCH   2   3
ATOM      3  C   UNL     1      57.780  28.775  50.275  1.00  0.00     0.000 C 
BRANCH   3   4
ATOM      4  C   UNL     1      58.881  29.200  49.285  1.00  0.00     0.000 C 
BRANCH   4   5
ATOM      5  C   UNL     1      60.297  28.978  49.841  1.00  0.00     0.001 C 
BRANCH   5   6
ATOM      6  C   UNL     1      60.942  27.683  49.313  1.00  0.00     0.009 C 
BRANCH   6   7
ATOM      7  C   UNL     1      61.409  26.746  50.448  1.00  0.00     0.032 C 
ATOM      8  C   UNL     1      60.829  27.144  51.812  1.00  0.00     0.014 C 
BRANCH   7   9
ATOM      9  C   UNL     1      61.029  25.325  50.131  1.00  0.00     0.044 C 
ATOM     10  O   UNL     1      59.832  25.027  49.869  1.00  0.00    -0.550 OA
ATOM     11  O   UNL     1      61.999  24.331  50.126  1.00  0.00    -0.550 OA
ENDBRANCH   7   9
ENDBRANCH   6   7
ENDBRANCH   5   6
ENDBRANCH   4   5
ENDBRANCH   3   4
ENDBRANCH   2   3
ENDBRANCH   1   2
BRANCH   1  12
ATOM     12  C   UNL     1      55.482  25.996  51.183  1.00  0.00     0.000 C 
BRANCH  12  13
ATOM     13  C   UNL     1      54.730  26.571  49.972  1.00  0.00    -0.000 C 
BRANCH  13  14
ATOM     14  C   UNL     1      53.274  26.935  50.298  1.00  0.00    -0.000 C 
BRANCH  14  15
ATOM     15  C   UNL     1      52.940  28.397  49.961  1.00  0.00    -0.000 C 
BRANCH  15  16
ATOM     16  C   UNL     1      54.112  29.323  50.313  1.00  0.00    -0.000 C 
BRANCH  16  17
ATOM     17  C   UNL     1      53.911  29.961  51.696  1.00  0.00    -0.000 C 
BRANCH  17  18
ATOM     18  C   UNL     1      54.897  29.421  52.743  1.00  0.00    -0.003 C 
ATOM     19  C   UNL     1      56.019  30.408  53.066  1.00  0.00     0.004 C 
ENDBRANCH  17  18
ENDBRANCH  16  17
ENDBRANCH  15  16
ENDBRANCH  14  15
ENDBRANCH  13  14
ENDBRANCH  12  13
ENDBRANCH   1  12
TORSDOF 14
ENDMDL
MODEL 8
REMARK VINA RESULT:    -3.160     10.931     13.011
REMARK INTER + INTRA:          -8.057
REMARK INTER:                  -5.478
REMARK INTRA:                  -2.579
REMARK UNBOUND:                -2.311
REMARK SMILES CCCCCCCCCCCCCC[C@@H](C)C(=O)[O-]
REMARK SMILES IDX 9 1 10 2 11 3 12 4 13 5 14 6 15 7 16 8 17 9 18 10 19 11 8 12
REMARK SMILES IDX 7 13 6 14 5 15 4 16 3 17 2 18 1 19
REMARK H PARENT
REMARK Flexibility Score: inf
ROOT
ATOM      1  C   UNL     1      63.888  30.774  58.732  1.00  0.00     0.000 C 
ENDROOT
BRANCH   1   2
ATOM      2  C   UNL     1      64.049  29.735  59.852  1.00  0.00     0.000 C 
BRANCH   2   3
ATOM      3  C   UNL     1      64.219  30.382  61.236  1.00  0.00     0.000 C 
BRANCH   3   4
ATOM      4  C   UNL     1      62.895  30.463  62.017  1.00  0.00     0.000 C 
BRANCH   4   5
ATOM      5  C   UNL     1      61.950  29.290  61.710  1.00  0.00     0.001 C 
BRANCH   5   6
ATOM      6  C   UNL     1      60.557  29.757  61.252  1.00  0.00     0.009 C 
BRANCH   6   7
ATOM      7  C   UNL     1      59.805  28.680  60.442  1.00  0.00     0.032 C 
ATOM      8  C   UNL     1      60.752  27.810  59.603  1.00  0.00     0.014 C 
BRANCH   7   9
ATOM      9  C   UNL     1      59.003  27.806  61.368  1.00  0.00     0.044 C 
ATOM     10  O   UNL     1      59.476  26.715  61.788  1.00  0.00    -0.550 OA
ATOM     11  O   UNL     1      57.732  28.200  61.767  1.00  0.00    -0.550 OA
ENDBRANCH   7   9
ENDBRANCH   6   7
ENDBRANCH   5   6
ENDBRANCH   4   5
ENDBRANCH   3   4
ENDBRANCH   2   3
ENDBRANCH   1   2
BRANCH   1  12
ATOM     12  C   UNL     1      62.532  30.621  58.033  1.00  0.00     0.000 C 
BRANCH  12  13
ATOM     13  C   UNL     1      61.596  31.788  58.386  1.00  0.00    -0.000 C 
BRANCH  13  14
ATOM     14  C   UNL     1      62.340  32.970  59.028  1.00  0.00    -0.000 C 
BRANCH  14  15
ATOM     15  C   UNL     1      61.662  33.466  60.315  1.00  0.00    -0.000 C 
BRANCH  15  16
ATOM     16  C   UNL     1      62.501  34.558  60.991  1.00  0.00    -0.000 C 
BRANCH  16  17
ATOM     17  C   UNL     1      63.915  34.046  61.307  1.00  0.00    -0.000 C 
BRANCH  17  18
ATOM     18  C   UNL     1      64.858  35.168  61.769  1.00  0.00    -0.003 C 
ATOM     19  C   UNL     1      65.133  36.199  60.675  1.00  0.00     0.004 C 
ENDBRANCH  17  18
ENDBRANCH  16  17
ENDBRANCH  15  16
ENDBRANCH  14  15
ENDBRANCH  13  14
ENDBRANCH  12  13
ENDBRANCH   1  12
TORSDOF 14
ENDMDL
MODEL 9
REMARK VINA RESULT:    -3.153     10.267     12.283
REMARK INTER + INTRA:          -8.045
REMARK INTER:                  -5.781
REMARK INTRA:                  -2.264
REMARK UNBOUND:                -2.311
REMARK SMILES CCCCCCCCCCCCCC[C@@H](C)C(=O)[O-]
REMARK SMILES IDX 9 1 10 2 11 3 12 4 13 5 14 6 15 7 16 8 17 9 18 10 19 11 8 12
REMARK SMILES IDX 7 13 6 14 5 15 4 16 3 17 2 18 1 19
REMARK H PARENT
REMARK Flexibility Score: inf
ROOT
ATOM      1  C   UNL     1      63.268  28.001  61.234  1.00  0.00     0.000 C 
ENDROOT
BRANCH   1   2
ATOM      2  C   UNL     1      63.730  28.849  60.039  1.00  0.00     0.000 C 
BRANCH   2   3
ATOM      3  C   UNL     1      62.969  28.513  58.747  1.00  0.00     0.000 C 
BRANCH   3   4
ATOM      4  C   UNL     1      62.339  29.756  58.091  1.00  0.00     0.000 C 
BRANCH   4   5
ATOM      5  C   UNL     1      60.818  29.625  57.909  1.00  0.00     0.001 C 
BRANCH   5   6
ATOM      6  C   UNL     1      60.196  28.592  58.866  1.00  0.00     0.009 C 
BRANCH   6   7
ATOM      7  C   UNL     1      58.938  29.128  59.584  1.00  0.00     0.032 C 
ATOM      8  C   UNL     1      57.896  29.684  58.602  1.00  0.00     0.014 C 
BRANCH   7   9
ATOM      9  C   UNL     1      58.318  28.039  60.417  1.00  0.00     0.044 C 
ATOM     10  O   UNL     1      59.043  27.255  61.087  1.00  0.00    -0.550 OA
ATOM     11  O   UNL     1      56.937  27.891  60.451  1.00  0.00    -0.550 OA
ENDBRANCH   7   9
ENDBRANCH   6   7
ENDBRANCH   5   6
ENDBRANCH   4   5
ENDBRANCH   3   4
ENDBRANCH   2   3
ENDBRANCH   1   2
BRANCH   1  12
ATOM     12  C   UNL     1      62.127  28.693  61.990  1.00  0.00     0.000 C 
BRANCH  12  13
ATOM     13  C   UNL     1      62.322  30.217  62.004  1.00  0.00    -0.000 C 
BRANCH  13  14
ATOM     14  C   UNL     1      60.999  30.985  61.859  1.00  0.00    -0.000 C 
BRANCH  14  15
ATOM     15  C   UNL     1      61.047  32.042  60.745  1.00  0.00    -0.000 C 
BRANCH  15  16
ATOM     16  C   UNL     1      62.304  32.913  60.868  1.00  0.00    -0.000 C 
BRANCH  16  17
ATOM     17  C   UNL     1      61.940  34.405  60.865  1.00  0.00    -0.000 C 
BRANCH  17  18
ATOM     18  C   UNL     1      63.144  35.306  61.184  1.00  0.00    -0.003 C 
ATOM     19  C   UNL     1      64.383  34.513  61.601  1.00  0.00     0.004 C 
ENDBRANCH  17  18
ENDBRANCH  16  17
ENDBRANCH  15  16
ENDBRANCH  14  15
ENDBRANCH  13  14
ENDBRANCH  12  13
ENDBRANCH   1  12
TORSDOF 14
ENDMDL
