MODEL 1
REMARK VINA RESULT:    -3.006      0.000      0.000
REMARK INTER + INTRA:          -8.033
REMARK INTER:                  -5.466
REMARK INTRA:                  -2.568
REMARK UNBOUND:                -2.568
REMARK SMILES CCCCCCCCCCCCCC[C@@H](C)C(=O)[O-]
REMARK SMILES IDX 9 1 10 2 11 3 12 4 13 5 14 6 15 7 16 8 17 9 18 10 19 11 8 12
REMARK SMILES IDX 7 13 6 14 5 15 4 16 3 17 2 18 1 19
REMARK H PARENT
REMARK Flexibility Score: inf
ROOT
ATOM      1  C   UNL     1      63.728  31.837  58.724  1.00  0.00     0.000 C 
ENDROOT
BRANCH   1   2
ATOM      2  C   UNL     1      62.278  32.118  58.280  1.00  0.00     0.000 C 
BRANCH   2   3
ATOM      3  C   UNL     1      61.215  31.201  58.911  1.00  0.00     0.000 C 
BRANCH   3   4
ATOM      4  C   UNL     1      60.577  31.804  60.171  1.00  0.00     0.000 C 
BRANCH   4   5
ATOM      5  C   UNL     1      60.629  30.811  61.341  1.00  0.00     0.001 C 
BRANCH   5   6
ATOM      6  C   UNL     1      62.061  30.567  61.856  1.00  0.00     0.009 C 
BRANCH   6   7
ATOM      7  C   UNL     1      62.538  29.102  61.740  1.00  0.00     0.032 C 
ATOM      8  C   UNL     1      61.417  28.216  61.187  1.00  0.00     0.014 C 
BRANCH   7   9
ATOM      9  C   UNL     1      63.762  28.983  60.873  1.00  0.00     0.044 C 
ATOM     10  O   UNL     1      64.842  29.538  61.208  1.00  0.00    -0.550 OA
ATOM     11  O   UNL     1      63.707  28.247  59.696  1.00  0.00    -0.550 OA
ENDBRANCH   7   9
ENDBRANCH   6   7
ENDBRANCH   5   6
ENDBRANCH   4   5
ENDBRANCH   3   4
ENDBRANCH   2   3
ENDBRANCH   1   2
BRANCH   1  12
ATOM     12  C   UNL     1      64.453  33.025  59.388  1.00  0.00     0.000 C 
BRANCH  12  13
ATOM     13  C   UNL     1      63.888  33.449  60.756  1.00  0.00    -0.000 C 
BRANCH  13  14
ATOM     14  C   UNL     1      64.232  34.905  61.117  1.00  0.00    -0.000 C 
BRANCH  14  15
ATOM     15  C   UNL     1      62.980  35.783  61.272  1.00  0.00    -0.000 C 
BRANCH  15  16
ATOM     16  C   UNL     1      61.726  35.136  60.660  1.00  0.00    -0.000 C 
BRANCH  16  17
ATOM     17  C   UNL     1      61.110  35.977  59.527  1.00  0.00    -0.000 C 
BRANCH  17  18
ATOM     18  C   UNL     1      62.129  36.646  58.587  1.00  0.00    -0.003 C 
ATOM     19  C   UNL     1      62.656  35.703  57.506  1.00  0.00     0.004 C 
ENDBRANCH  17  18
ENDBRANCH  16  17
ENDBRANCH  15  16
ENDBRANCH  14  15
ENDBRANCH  13  14
ENDBRANCH  12  13
ENDBRANCH   1  12
TORSDOF 14
ENDMDL
MODEL 2
REMARK VINA RESULT:    -3.004      2.238      4.358
REMARK INTER + INTRA:          -8.030
REMARK INTER:                  -5.202
REMARK INTRA:                  -2.827
REMARK UNBOUND:                -2.568
REMARK SMILES CCCCCCCCCCCCCC[C@@H](C)C(=O)[O-]
REMARK SMILES IDX 9 1 10 2 11 3 12 4 13 5 14 6 15 7 16 8 17 9 18 10 19 11 8 12
REMARK SMILES IDX 7 13 6 14 5 15 4 16 3 17 2 18 1 19
REMARK H PARENT
REMARK Flexibility Score: inf
ROOT
ATOM      1  C   UNL     1      60.894  30.412  60.562  1.00  0.00     0.000 C 
ENDROOT
BRANCH   1   2
ATOM      2  C   UNL     1      61.792  30.373  61.815  1.00  0.00     0.000 C 
BRANCH   2   3
ATOM      3  C   UNL     1      63.199  29.792  61.591  1.00  0.00     0.000 C 
BRANCH   3   4
ATOM      4  C   UNL     1      63.190  28.524  60.724  1.00  0.00     0.000 C 
BRANCH   4   5
ATOM      5  C   UNL     1      64.620  28.097  60.363  1.00  0.00     0.001 C 
BRANCH   5   6
ATOM      6  C   UNL     1      65.687  29.087  60.871  1.00  0.00     0.009 C 
BRANCH   6   7
ATOM      7  C   UNL     1      67.022  29.039  60.093  1.00  0.00     0.032 C 
ATOM      8  C   UNL     1      67.031  30.093  58.981  1.00  0.00     0.014 C 
BRANCH   7   9
ATOM      9  C   UNL     1      68.203  29.242  61.003  1.00  0.00     0.044 C 
ATOM     10  O   UNL     1      69.295  29.676  60.549  1.00  0.00    -0.550 OA
ATOM     11  O   UNL     1      68.090  28.959  62.358  1.00  0.00    -0.550 OA
ENDBRANCH   7   9
ENDBRANCH   6   7
ENDBRANCH   5   6
ENDBRANCH   4   5
ENDBRANCH   3   4
ENDBRANCH   2   3
ENDBRANCH   1   2
BRANCH   1  12
ATOM     12  C   UNL     1      60.547  31.823  60.047  1.00  0.00     0.000 C 
BRANCH  12  13
ATOM     13  C   UNL     1      61.091  32.981  60.903  1.00  0.00    -0.000 C 
BRANCH  13  14
ATOM     14  C   UNL     1      62.183  33.791  60.184  1.00  0.00    -0.000 C 
BRANCH  14  15
ATOM     15  C   UNL     1      63.578  33.567  60.792  1.00  0.00    -0.000 C 
BRANCH  15  16
ATOM     16  C   UNL     1      64.440  32.610  59.951  1.00  0.00    -0.000 C 
BRANCH  16  17
ATOM     17  C   UNL     1      63.930  32.458  58.505  1.00  0.00    -0.000 C 
BRANCH  17  18
ATOM     18  C   UNL     1      63.673  31.009  58.057  1.00  0.00    -0.003 C 
ATOM     19  C   UNL     1      62.496  30.882  57.090  1.00  0.00     0.004 C 
ENDBRANCH  17  18
ENDBRANCH  16  17
ENDBRANCH  15  16
ENDBRANCH  14  15
ENDBRANCH  13  14
ENDBRANCH  12  13
ENDBRANCH   1  12
TORSDOF 14
ENDMDL
MODEL 3
REMARK VINA RESULT:    -2.989     10.476     12.581
REMARK INTER + INTRA:          -8.003
REMARK INTER:                  -5.747
REMARK INTRA:                  -2.255
REMARK UNBOUND:                -2.568
REMARK SMILES CCCCCCCCCCCCCC[C@@H](C)C(=O)[O-]
REMARK SMILES IDX 9 1 10 2 11 3 12 4 13 5 14 6 15 7 16 8 17 9 18 10 19 11 8 12
REMARK SMILES IDX 7 13 6 14 5 15 4 16 3 17 2 18 1 19
REMARK H PARENT
REMARK Flexibility Score: inf
ROOT
ATOM      1  C   UNL     1      57.824  29.422  51.324  1.00  0.00     0.000 C 
ENDROOT
BRANCH   1   2
ATOM      2  C   UNL     1      57.719  29.224  49.798  1.00  0.00     0.000 C 
BRANCH   2   3
ATOM      3  C   UNL     1      59.040  28.866  49.096  1.00  0.00     0.000 C 
BRANCH   3   4
ATOM      4  C   UNL     1      59.547  27.462  49.455  1.00  0.00     0.000 C 
BRANCH   4   5
ATOM      5  C   UNL     1      61.082  27.416  49.454  1.00  0.00     0.001 C 
BRANCH   5   6
ATOM      6  C   UNL     1      61.708  28.297  50.553  1.00  0.00     0.009 C 
BRANCH   6   7
ATOM      7  C   UNL     1      62.871  29.191  50.066  1.00  0.00     0.032 C 
ATOM      8  C   UNL     1      63.479  28.624  48.778  1.00  0.00     0.014 C 
BRANCH   7   9
ATOM      9  C   UNL     1      62.425  30.610  49.841  1.00  0.00     0.044 C 
ATOM     10  O   UNL     1      61.394  31.056  50.411  1.00  0.00    -0.550 OA
ATOM     11  O   UNL     1      63.160  31.442  49.006  1.00  0.00    -0.550 OA
ENDBRANCH   7   9
ENDBRANCH   6   7
ENDBRANCH   5   6
ENDBRANCH   4   5
ENDBRANCH   3   4
ENDBRANCH   2   3
ENDBRANCH   1   2
BRANCH   1  12
ATOM     12  C   UNL     1      56.476  29.495  52.071  1.00  0.00     0.000 C 
BRANCH  12  13
ATOM     13  C   UNL     1      55.240  29.658  51.168  1.00  0.00    -0.000 C 
BRANCH  13  14
ATOM     14  C   UNL     1      54.326  28.420  51.180  1.00  0.00    -0.000 C 
BRANCH  14  15
ATOM     15  C   UNL     1      54.237  27.740  49.804  1.00  0.00    -0.000 C 
BRANCH  15  16
ATOM     16  C   UNL     1      55.051  26.437  49.737  1.00  0.00    -0.000 C 
BRANCH  16  17
ATOM     17  C   UNL     1      55.545  25.967  51.117  1.00  0.00    -0.000 C 
BRANCH  17  18
ATOM     18  C   UNL     1      57.065  25.753  51.224  1.00  0.00    -0.003 C 
ATOM     19  C   UNL     1      57.595  25.923  52.647  1.00  0.00     0.004 C 
ENDBRANCH  17  18
ENDBRANCH  16  17
ENDBRANCH  15  16
ENDBRANCH  14  15
ENDBRANCH  13  14
ENDBRANCH  12  13
ENDBRANCH   1  12
TORSDOF 14
ENDMDL
MODEL 4
REMARK VINA RESULT:    -2.981     10.179     12.366
REMARK INTER + INTRA:          -7.988
REMARK INTER:                  -5.240
REMARK INTRA:                  -2.748
REMARK UNBOUND:                -2.568
REMARK SMILES CCCCCCCCCCCCCC[C@@H](C)C(=O)[O-]
REMARK SMILES IDX 9 1 10 2 11 3 12 4 13 5 14 6 15 7 16 8 17 9 18 10 19 11 8 12
REMARK SMILES IDX 7 13 6 14 5 15 4 16 3 17 2 18 1 19
REMARK H PARENT
REMARK Flexibility Score: inf
ROOT
ATOM      1  C   UNL     1      57.412  28.614  52.606  1.00  0.00     0.000 C 
ENDROOT
BRANCH   1   2
ATOM      2  C   UNL     1      57.676  29.625  51.472  1.00  0.00     0.000 C 
BRANCH   2   3
ATOM      3  C   UNL     1      57.788  29.011  50.065  1.00  0.00     0.000 C 
BRANCH   3   4
ATOM      4  C   UNL     1      59.044  28.144  49.891  1.00  0.00     0.000 C 
BRANCH   4   5
ATOM      5  C   UNL     1      58.674  26.734  49.409  1.00  0.00     0.001 C 
BRANCH   5   6
ATOM      6  C   UNL     1      59.044  25.637  50.427  1.00  0.00     0.009 C 
BRANCH   6   7
ATOM      7  C   UNL     1      60.060  26.084  51.502  1.00  0.00     0.032 C 
ATOM      8  C   UNL     1      59.601  25.635  52.893  1.00  0.00     0.014 C 
BRANCH   7   9
ATOM      9  C   UNL     1      61.439  25.551  51.220  1.00  0.00     0.044 C 
ATOM     10  O   UNL     1      62.352  25.648  52.082  1.00  0.00    -0.550 OA
ATOM     11  O   UNL     1      61.708  24.937  50.004  1.00  0.00    -0.550 OA
ENDBRANCH   7   9
ENDBRANCH   6   7
ENDBRANCH   5   6
ENDBRANCH   4   5
ENDBRANCH   3   4
ENDBRANCH   2   3
ENDBRANCH   1   2
BRANCH   1  12
ATOM     12  C   UNL     1      56.023  27.944  52.578  1.00  0.00     0.000 C 
BRANCH  12  13
ATOM     13  C   UNL     1      56.043  26.409  52.459  1.00  0.00    -0.000 C 
BRANCH  13  14
ATOM     14  C   UNL     1      55.000  25.875  51.461  1.00  0.00    -0.000 C 
BRANCH  14  15
ATOM     15  C   UNL     1      55.111  26.544  50.081  1.00  0.00    -0.000 C 
BRANCH  15  16
ATOM     16  C   UNL     1      53.737  26.811  49.444  1.00  0.00    -0.000 C 
BRANCH  16  17
ATOM     17  C   UNL     1      53.081  28.107  49.954  1.00  0.00    -0.000 C 
BRANCH  17  18
ATOM     18  C   UNL     1      54.045  29.292  50.142  1.00  0.00    -0.003 C 
ATOM     19  C   UNL     1      53.466  30.402  51.018  1.00  0.00     0.004 C 
ENDBRANCH  17  18
ENDBRANCH  16  17
ENDBRANCH  15  16
ENDBRANCH  14  15
ENDBRANCH  13  14
ENDBRANCH  12  13
ENDBRANCH   1  12
TORSDOF 14
ENDMDL
MODEL 5
REMARK VINA RESULT:    -2.936      3.303      5.713
REMARK INTER + INTRA:          -7.906
REMARK INTER:                  -5.135
REMARK INTRA:                  -2.772
REMARK UNBOUND:                -2.568
REMARK SMILES CCCCCCCCCCCCCC[C@@H](C)C(=O)[O-]
REMARK SMILES IDX 9 1 10 2 11 3 12 4 13 5 14 6 15 7 16 8 17 9 18 10 19 11 8 12
REMARK SMILES IDX 7 13 6 14 5 15 4 16 3 17 2 18 1 19
REMARK H PARENT
REMARK Flexibility Score: inf
ROOT
ATOM      1  C   UNL     1      61.090  29.925  61.195  1.00  0.00     0.000 C 
ENDROOT
BRANCH   1   2
ATOM      2  C   UNL     1      61.041  31.330  61.829  1.00  0.00     0.000 C 
BRANCH   2   3
ATOM      3  C   UNL     1      60.714  32.474  60.854  1.00  0.00     0.000 C 
BRANCH   3   4
ATOM      4  C   UNL     1      60.478  31.985  59.417  1.00  0.00     0.000 C 
BRANCH   4   5
ATOM      5  C   UNL     1      60.900  33.054  58.398  1.00  0.00     0.001 C 
BRANCH   5   6
ATOM      6  C   UNL     1      60.398  34.464  58.767  1.00  0.00     0.009 C 
BRANCH   6   7
ATOM      7  C   UNL     1      60.928  35.589  57.849  1.00  0.00     0.032 C 
ATOM      8  C   UNL     1      62.329  35.243  57.334  1.00  0.00     0.014 C 
BRANCH   7   9
ATOM      9  C   UNL     1      60.003  35.843  56.690  1.00  0.00     0.044 C 
ATOM     10  O   UNL     1      58.821  35.409  56.706  1.00  0.00    -0.550 OA
ATOM     11  O   UNL     1      60.450  36.571  55.595  1.00  0.00    -0.550 OA
ENDBRANCH   7   9
ENDBRANCH   6   7
ENDBRANCH   5   6
ENDBRANCH   4   5
ENDBRANCH   3   4
ENDBRANCH   2   3
ENDBRANCH   1   2
BRANCH   1  12
ATOM     12  C   UNL     1      62.318  29.074  61.578  1.00  0.00     0.000 C 
BRANCH  12  13
ATOM     13  C   UNL     1      63.680  29.723  61.274  1.00  0.00    -0.000 C 
BRANCH  13  14
ATOM     14  C   UNL     1      63.958  29.844  59.765  1.00  0.00    -0.000 C 
BRANCH  14  15
ATOM     15  C   UNL     1      64.099  31.306  59.309  1.00  0.00    -0.000 C 
BRANCH  15  16
ATOM     16  C   UNL     1      64.402  32.261  60.476  1.00  0.00    -0.000 C 
BRANCH  16  17
ATOM     17  C   UNL     1      64.096  33.732  60.141  1.00  0.00    -0.000 C 
BRANCH  17  18
ATOM     18  C   UNL     1      63.935  34.656  61.362  1.00  0.00    -0.003 C 
ATOM     19  C   UNL     1      62.904  35.762  61.145  1.00  0.00     0.004 C 
ENDBRANCH  17  18
ENDBRANCH  16  17
ENDBRANCH  15  16
ENDBRANCH  14  15
ENDBRANCH  13  14
ENDBRANCH  12  13
ENDBRANCH   1  12
TORSDOF 14
ENDMDL
MODEL 6
REMARK VINA RESULT:    -2.931     10.316     12.595
REMARK INTER + INTRA:          -7.897
REMARK INTER:                  -5.970
REMARK INTRA:                  -1.927
REMARK UNBOUND:                -2.568
REMARK SMILES CCCCCCCCCCCCCC[C@@H](C)C(=O)[O-]
REMARK SMILES IDX 9 1 10 2 11 3 12 4 13 5 14 6 15 7 16 8 17 9 18 10 19 11 8 12
REMARK SMILES IDX 7 13 6 14 5 15 4 16 3 17 2 18 1 19
REMARK H PARENT
REMARK Flexibility Score: inf
ROOT
ATOM      1  C   UNL     1      57.823  28.505  52.351  1.00  0.00     0.000 C 
ENDROOT
BRANCH   1   2
ATOM      2  C   UNL     1      57.778  29.629  51.296  1.00  0.00     0.000 C 
BRANCH   2   3
ATOM      3  C   UNL     1      57.608  29.152  49.843  1.00  0.00     0.000 C 
BRANCH   3   4
ATOM      4  C   UNL     1      58.909  29.237  49.030  1.00  0.00     0.000 C 
BRANCH   4   5
ATOM      5  C   UNL     1      59.721  27.940  49.157  1.00  0.00     0.001 C 
BRANCH   5   6
ATOM      6  C   UNL     1      61.062  28.142  49.890  1.00  0.00     0.009 C 
BRANCH   6   7
ATOM      7  C   UNL     1      62.217  27.266  49.354  1.00  0.00     0.032 C 
ATOM      8  C   UNL     1      63.458  28.123  49.084  1.00  0.00     0.014 C 
BRANCH   7   9
ATOM      9  C   UNL     1      62.560  26.154  50.309  1.00  0.00     0.044 C 
ATOM     10  O   UNL     1      62.199  24.971  50.070  1.00  0.00    -0.550 OA
ATOM     11  O   UNL     1      63.288  26.429  51.459  1.00  0.00    -0.550 OA
ENDBRANCH   7   9
ENDBRANCH   6   7
ENDBRANCH   5   6
ENDBRANCH   4   5
ENDBRANCH   3   4
ENDBRANCH   2   3
ENDBRANCH   1   2
BRANCH   1  12
ATOM     12  C   UNL     1      57.234  27.154  51.896  1.00  0.00     0.000 C 
BRANCH  12  13
ATOM     13  C   UNL     1      55.849  26.819  52.478  1.00  0.00    -0.000 C 
BRANCH  13  14
ATOM     14  C   UNL     1      54.996  25.959  51.529  1.00  0.00    -0.000 C 
BRANCH  14  15
ATOM     15  C   UNL     1      55.200  26.334  50.052  1.00  0.00    -0.000 C 
BRANCH  15  16
ATOM     16  C   UNL     1      53.906  26.832  49.387  1.00  0.00    -0.000 C 
BRANCH  16  17
ATOM     17  C   UNL     1      53.247  27.993  50.154  1.00  0.00    -0.000 C 
BRANCH  17  18
ATOM     18  C   UNL     1      54.069  29.294  50.195  1.00  0.00    -0.003 C 
ATOM     19  C   UNL     1      53.752  30.164  51.411  1.00  0.00     0.004 C 
ENDBRANCH  17  18
ENDBRANCH  16  17
ENDBRANCH  15  16
ENDBRANCH  14  15
ENDBRANCH  13  14
ENDBRANCH  12  13
ENDBRANCH   1  12
TORSDOF 14
ENDMDL
MODEL 7
REMARK VINA RESULT:    -2.899     10.698     12.820
REMARK INTER + INTRA:          -7.839
REMARK INTER:                  -6.285
REMARK INTRA:                  -1.554
REMARK UNBOUND:                -2.568
REMARK SMILES CCCCCCCCCCCCCC[C@@H](C)C(=O)[O-]
REMARK SMILES IDX 9 1 10 2 11 3 12 4 13 5 14 6 15 7 16 8 17 9 18 10 19 11 8 12
REMARK SMILES IDX 7 13 6 14 5 15 4 16 3 17 2 18 1 19
REMARK H PARENT
REMARK Flexibility Score: inf
ROOT
ATOM      1  C   UNL     1      58.040  29.158  51.956  1.00  0.00     0.000 C 
ENDROOT
BRANCH   1   2
ATOM      2  C   UNL     1      59.099  29.648  50.948  1.00  0.00     0.000 C 
BRANCH   2   3
ATOM      3  C   UNL     1      58.827  29.269  49.482  1.00  0.00     0.000 C 
BRANCH   3   4
ATOM      4  C   UNL     1      59.681  28.087  49.002  1.00  0.00     0.000 C 
BRANCH   4   5
ATOM      5  C   UNL     1      59.024  26.749  49.374  1.00  0.00     0.001 C 
BRANCH   5   6
ATOM      6  C   UNL     1      59.801  25.982  50.461  1.00  0.00     0.009 C 
BRANCH   6   7
ATOM      7  C   UNL     1      60.809  24.947  49.911  1.00  0.00     0.032 C 
ATOM      8  C   UNL     1      62.203  25.191  50.500  1.00  0.00     0.014 C 
BRANCH   7   9
ATOM      9  C   UNL     1      60.371  23.536  50.199  1.00  0.00     0.044 C 
ATOM     10  O   UNL     1      60.528  22.628  49.340  1.00  0.00    -0.550 OA
ATOM     11  O   UNL     1      59.795  23.227  51.424  1.00  0.00    -0.550 OA
ENDBRANCH   7   9
ENDBRANCH   6   7
ENDBRANCH   5   6
ENDBRANCH   4   5
ENDBRANCH   3   4
ENDBRANCH   2   3
ENDBRANCH   1   2
BRANCH   1  12
ATOM     12  C   UNL     1      56.583  29.212  51.455  1.00  0.00     0.000 C 
BRANCH  12  13
ATOM     13  C   UNL     1      55.535  29.540  52.534  1.00  0.00    -0.000 C 
BRANCH  13  14
ATOM     14  C   UNL     1      54.093  29.296  52.058  1.00  0.00    -0.000 C 
BRANCH  14  15
ATOM     15  C   UNL     1      53.861  29.771  50.614  1.00  0.00    -0.000 C 
BRANCH  15  16
ATOM     16  C   UNL     1      53.157  28.711  49.750  1.00  0.00    -0.000 C 
BRANCH  16  17
ATOM     17  C   UNL     1      53.185  27.308  50.383  1.00  0.00    -0.000 C 
BRANCH  17  18
ATOM     18  C   UNL     1      53.913  26.236  49.553  1.00  0.00    -0.003 C 
ATOM     19  C   UNL     1      55.428  26.250  49.753  1.00  0.00     0.004 C 
ENDBRANCH  17  18
ENDBRANCH  16  17
ENDBRANCH  15  16
ENDBRANCH  14  15
ENDBRANCH  13  14
ENDBRANCH  12  13
ENDBRANCH   1  12
TORSDOF 14
ENDMDL
MODEL 8
REMARK VINA RESULT:    -2.875      9.790     11.815
REMARK INTER + INTRA:          -7.795
REMARK INTER:                  -5.211
REMARK INTRA:                  -2.584
REMARK UNBOUND:                -2.568
REMARK SMILES CCCCCCCCCCCCCC[C@@H](C)C(=O)[O-]
REMARK SMILES IDX 9 1 10 2 11 3 12 4 13 5 14 6 15 7 16 8 17 9 18 10 19 11 8 12
REMARK SMILES IDX 7 13 6 14 5 15 4 16 3 17 2 18 1 19
REMARK H PARENT
REMARK Flexibility Score: inf
ROOT
ATOM      1  C   UNL     1      54.535  29.536  53.050  1.00  0.00     0.000 C 
ENDROOT
BRANCH   1   2
ATOM      2  C   UNL     1      53.474  29.570  51.931  1.00  0.00     0.000 C 
BRANCH   2   3
ATOM      3  C   UNL     1      54.034  29.488  50.500  1.00  0.00     0.000 C 
BRANCH   3   4
ATOM      4  C   UNL     1      53.501  28.279  49.718  1.00  0.00     0.000 C 
BRANCH   4   5
ATOM      5  C   UNL     1      54.479  27.099  49.798  1.00  0.00     0.001 C 
BRANCH   5   6
ATOM      6  C   UNL     1      55.902  27.527  50.210  1.00  0.00     0.009 C 
BRANCH   6   7
ATOM      7  C   UNL     1      56.451  26.795  51.455  1.00  0.00     0.032 C 
ATOM      8  C   UNL     1      55.356  25.941  52.101  1.00  0.00     0.014 C 
BRANCH   7   9
ATOM      9  C   UNL     1      57.639  25.936  51.116  1.00  0.00     0.044 C 
ATOM     10  O   UNL     1      57.955  25.724  49.915  1.00  0.00    -0.550 OA
ATOM     11  O   UNL     1      58.402  25.377  52.133  1.00  0.00    -0.550 OA
ENDBRANCH   7   9
ENDBRANCH   6   7
ENDBRANCH   5   6
ENDBRANCH   4   5
ENDBRANCH   3   4
ENDBRANCH   2   3
ENDBRANCH   1   2
BRANCH   1  12
ATOM     12  C   UNL     1      55.530  30.714  53.047  1.00  0.00     0.000 C 
BRANCH  12  13
ATOM     13  C   UNL     1      56.942  30.372  52.537  1.00  0.00    -0.000 C 
BRANCH  13  14
ATOM     14  C   UNL     1      57.796  29.645  53.590  1.00  0.00    -0.000 C 
BRANCH  14  15
ATOM     15  C   UNL     1      58.965  28.867  52.965  1.00  0.00    -0.000 C 
BRANCH  15  16
ATOM     16  C   UNL     1      59.477  29.515  51.667  1.00  0.00    -0.000 C 
BRANCH  16  17
ATOM     17  C   UNL     1      60.277  28.539  50.785  1.00  0.00    -0.000 C 
BRANCH  17  18
ATOM     18  C   UNL     1      59.854  28.506  49.306  1.00  0.00    -0.003 C 
ATOM     19  C   UNL     1      58.715  29.473  48.987  1.00  0.00     0.004 C 
ENDBRANCH  17  18
ENDBRANCH  16  17
ENDBRANCH  15  16
ENDBRANCH  14  15
ENDBRANCH  13  14
ENDBRANCH  12  13
ENDBRANCH   1  12
TORSDOF 14
ENDMDL
MODEL 9
REMARK VINA RESULT:    -2.813     10.523     12.579
REMARK INTER + INTRA:          -7.683
REMARK INTER:                  -5.361
REMARK INTRA:                  -2.322
REMARK UNBOUND:                -2.568
REMARK SMILES CCCCCCCCCCCCCC[C@@H](C)C(=O)[O-]
REMARK SMILES IDX 9 1 10 2 11 3 12 4 13 5 14 6 15 7 16 8 17 9 18 10 19 11 8 12
REMARK SMILES IDX 7 13 6 14 5 15 4 16 3 17 2 18 1 19
REMARK H PARENT
REMARK Flexibility Score: inf
ROOT
ATOM      1  C   UNL     1      59.887  25.660  51.596  1.00  0.00     0.000 C 
ENDROOT
BRANCH   1   2
ATOM      2  C   UNL     1      58.684  25.979  52.507  1.00  0.00     0.000 C 
BRANCH   2   3
ATOM      3  C   UNL     1      57.383  25.238  52.150  1.00  0.00     0.000 C 
BRANCH   3   4
ATOM      4  C   UNL     1      56.184  26.182  51.983  1.00  0.00     0.000 C 
BRANCH   4   5
ATOM      5  C   UNL     1      55.761  26.276  50.510  1.00  0.00     0.001 C 
BRANCH   5   6
ATOM      6  C   UNL     1      55.401  27.711  50.080  1.00  0.00     0.009 C 
BRANCH   6   7
ATOM      7  C   UNL     1      53.916  27.907  49.696  1.00  0.00     0.032 C 
ATOM      8  C   UNL     1      53.207  26.553  49.591  1.00  0.00     0.014 C 
BRANCH   7   9
ATOM      9  C   UNL     1      53.198  28.787  50.682  1.00  0.00     0.044 C 
ATOM     10  O   UNL     1      52.875  29.965  50.375  1.00  0.00    -0.550 OA
ATOM     11  O   UNL     1      52.877  28.297  51.942  1.00  0.00    -0.550 OA
ENDBRANCH   7   9
ENDBRANCH   6   7
ENDBRANCH   5   6
ENDBRANCH   4   5
ENDBRANCH   3   4
ENDBRANCH   2   3
ENDBRANCH   1   2
BRANCH   1  12
ATOM     12  C   UNL     1      59.557  25.529  50.095  1.00  0.00     0.000 C 
BRANCH  12  13
ATOM     13  C   UNL     1      59.260  26.857  49.376  1.00  0.00    -0.000 C 
BRANCH  13  14
ATOM     14  C   UNL     1      60.453  27.828  49.401  1.00  0.00    -0.000 C 
BRANCH  14  15
ATOM     15  C   UNL     1      60.027  29.276  49.693  1.00  0.00    -0.000 C 
BRANCH  15  16
ATOM     16  C   UNL     1      58.514  29.407  49.936  1.00  0.00    -0.000 C 
BRANCH  16  17
ATOM     17  C   UNL     1      58.167  29.712  51.405  1.00  0.00    -0.000 C 
BRANCH  17  18
ATOM     18  C   UNL     1      59.324  30.294  52.237  1.00  0.00    -0.003 C 
ATOM     19  C   UNL     1      59.684  29.433  53.447  1.00  0.00     0.004 C 
ENDBRANCH  17  18
ENDBRANCH  16  17
ENDBRANCH  15  16
ENDBRANCH  14  15
ENDBRANCH  13  14
ENDBRANCH  12  13
ENDBRANCH   1  12
TORSDOF 14
ENDMDL
