MODEL 1
REMARK VINA RESULT:    -5.732      0.000      0.000
REMARK INTER + INTRA:          -6.235
REMARK INTER:                  -6.235
REMARK INTRA:                   0.000
REMARK UNBOUND:                 0.000
REMARK SMILES Oc1cccc(O)c1O
REMARK SMILES IDX 4 1 5 2 6 3 8 4 2 5 3 6 7 7 1 9 9 11
REMARK H PARENT 7 8 1 10 9 12
REMARK Flexibility Score: inf
ROOT
ATOM      1  C   UNL     1     -20.301  -7.246  12.419  1.00  0.00     0.008 A 
ATOM      2  C   UNL     1     -19.230  -6.872  11.608  1.00  0.00     0.050 A 
ATOM      3  C   UNL     1     -18.375  -7.837  11.064  1.00  0.00     0.161 A 
ATOM      4  C   UNL     1     -18.603  -9.208  11.343  1.00  0.00     0.200 A 
ATOM      5  C   UNL     1     -19.686  -9.576  12.165  1.00  0.00     0.161 A 
ATOM      6  C   UNL     1     -20.527  -8.594  12.698  1.00  0.00     0.050 A 
ENDROOT
BRANCH   3   7
ATOM      7  O   UNL     1     -17.323  -7.394  10.259  1.00  0.00    -0.504 OA
ATOM      8  H   UNL     1     -17.445  -6.850   9.417  1.00  0.00     0.293 HD
ENDBRANCH   3   7
BRANCH   5   9
ATOM      9  O   UNL     1     -19.944 -10.914  12.465  1.00  0.00    -0.504 OA
ATOM     10  H   UNL     1     -20.749 -11.405  12.093  1.00  0.00     0.293 HD
ENDBRANCH   5   9
BRANCH   4  11
ATOM     11  O   UNL     1     -17.785 -10.219  10.831  1.00  0.00    -0.502 OA
ATOM     12  H   UNL     1     -17.785 -10.513   9.865  1.00  0.00     0.293 HD
ENDBRANCH   4  11
TORSDOF 3
ENDMDL
MODEL 2
REMARK VINA RESULT:    -5.691      0.045      2.826
REMARK INTER + INTRA:          -6.190
REMARK INTER:                  -6.190
REMARK INTRA:                   0.000
REMARK UNBOUND:                 0.000
REMARK SMILES Oc1cccc(O)c1O
REMARK SMILES IDX 4 1 5 2 6 3 8 4 2 5 3 6 7 7 1 9 9 11
REMARK H PARENT 7 8 1 10 9 12
REMARK Flexibility Score: inf
ROOT
ATOM      1  C   UNL     1     -20.309  -7.262  12.399  1.00  0.00     0.008 A 
ATOM      2  C   UNL     1     -20.526  -8.611  12.679  1.00  0.00     0.050 A 
ATOM      3  C   UNL     1     -19.678  -9.594  12.157  1.00  0.00     0.161 A 
ATOM      4  C   UNL     1     -18.587  -9.211  11.336  1.00  0.00     0.200 A 
ATOM      5  C   UNL     1     -18.377  -7.846  11.059  1.00  0.00     0.161 A 
ATOM      6  C   UNL     1     -19.238  -6.881  11.591  1.00  0.00     0.050 A 
ENDROOT
BRANCH   3   7
ATOM      7  O   UNL     1     -19.952 -10.926  12.478  1.00  0.00    -0.504 OA
ATOM      8  H   UNL     1     -20.535 -11.534  11.921  1.00  0.00     0.293 HD
ENDBRANCH   3   7
BRANCH   5   9
ATOM      9  O   UNL     1     -17.316  -7.427  10.255  1.00  0.00    -0.504 OA
ATOM     10  H   UNL     1     -17.162  -6.451  10.030  1.00  0.00     0.293 HD
ENDBRANCH   5   9
BRANCH   4  11
ATOM     11  O   UNL     1     -17.705 -10.144  10.785  1.00  0.00    -0.502 OA
ATOM     12  H   UNL     1     -17.263 -10.043   9.883  1.00  0.00     0.293 HD
ENDBRANCH   4  11
TORSDOF 3
ENDMDL
MODEL 3
REMARK VINA RESULT:    -5.529      2.236      3.132
REMARK INTER + INTRA:          -6.014
REMARK INTER:                  -6.014
REMARK INTRA:                   0.000
REMARK UNBOUND:                 0.000
REMARK SMILES Oc1cccc(O)c1O
REMARK SMILES IDX 4 1 5 2 6 3 8 4 2 5 3 6 7 7 1 9 9 11
REMARK H PARENT 7 8 1 10 9 12
REMARK Flexibility Score: inf
ROOT
ATOM      1  C   UNL     1     -20.116 -10.984  11.949  1.00  0.00     0.008 A 
ATOM      2  C   UNL     1     -20.601 -10.656  10.683  1.00  0.00     0.050 A 
ATOM      3  C   UNL     1     -20.454  -9.360  10.177  1.00  0.00     0.161 A 
ATOM      4  C   UNL     1     -19.805  -8.373  10.961  1.00  0.00     0.200 A 
ATOM      5  C   UNL     1     -19.319  -8.715  12.238  1.00  0.00     0.161 A 
ATOM      6  C   UNL     1     -19.478 -10.016  12.724  1.00  0.00     0.050 A 
ENDROOT
BRANCH   3   7
ATOM      7  O   UNL     1     -20.962  -9.099   8.901  1.00  0.00    -0.504 OA
ATOM      8  H   UNL     1     -20.997  -9.780   8.156  1.00  0.00     0.293 HD
ENDBRANCH   3   7
BRANCH   5   9
ATOM      9  O   UNL     1     -18.675  -7.773  13.042  1.00  0.00    -0.504 OA
ATOM     10  H   UNL     1     -17.980  -8.036  13.729  1.00  0.00     0.293 HD
ENDBRANCH   5   9
BRANCH   4  11
ATOM     11  O   UNL     1     -19.627  -7.061  10.511  1.00  0.00    -0.502 OA
ATOM     12  H   UNL     1     -20.350  -6.510  10.072  1.00  0.00     0.293 HD
ENDBRANCH   4  11
TORSDOF 3
ENDMDL
MODEL 4
REMARK VINA RESULT:    -5.520      2.022      2.801
REMARK INTER + INTRA:          -6.004
REMARK INTER:                  -6.004
REMARK INTRA:                   0.000
REMARK UNBOUND:                 0.000
REMARK SMILES Oc1cccc(O)c1O
REMARK SMILES IDX 4 1 5 2 6 3 8 4 2 5 3 6 7 7 1 9 9 11
REMARK H PARENT 7 8 1 10 9 12
REMARK Flexibility Score: inf
ROOT
ATOM      1  C   UNL     1     -17.880  -7.257  10.933  1.00  0.00     0.008 A 
ATOM      2  C   UNL     1     -18.108  -8.173   9.906  1.00  0.00     0.050 A 
ATOM      3  C   UNL     1     -19.312  -8.882   9.839  1.00  0.00     0.161 A 
ATOM      4  C   UNL     1     -20.307  -8.666  10.825  1.00  0.00     0.200 A 
ATOM      5  C   UNL     1     -20.066  -7.739  11.858  1.00  0.00     0.161 A 
ATOM      6  C   UNL     1     -18.855  -7.042  11.906  1.00  0.00     0.050 A 
ENDROOT
BRANCH   3   7
ATOM      7  O   UNL     1     -19.477  -9.784   8.783  1.00  0.00    -0.504 OA
ATOM      8  H   UNL     1     -19.266 -10.770   8.843  1.00  0.00     0.293 HD
ENDBRANCH   3   7
BRANCH   5   9
ATOM      9  O   UNL     1     -21.018  -7.498  12.849  1.00  0.00    -0.504 OA
ATOM     10  H   UNL     1     -21.717  -6.771  12.760  1.00  0.00     0.293 HD
ENDBRANCH   5   9
BRANCH   4  11
ATOM     11  O   UNL     1     -21.530  -9.344  10.813  1.00  0.00    -0.502 OA
ATOM     12  H   UNL     1     -22.200  -9.317  11.567  1.00  0.00     0.293 HD
ENDBRANCH   4  11
TORSDOF 3
ENDMDL
MODEL 5
REMARK VINA RESULT:    -5.507      1.967      3.052
REMARK INTER + INTRA:          -5.989
REMARK INTER:                  -5.989
REMARK INTRA:                   0.000
REMARK UNBOUND:                 0.000
REMARK SMILES Oc1cccc(O)c1O
REMARK SMILES IDX 4 1 5 2 6 3 8 4 2 5 3 6 7 7 1 9 9 11
REMARK H PARENT 7 8 1 10 9 12
REMARK Flexibility Score: inf
ROOT
ATOM      1  C   UNL     1     -17.931  -7.276  10.916  1.00  0.00     0.008 A 
ATOM      2  C   UNL     1     -18.916  -7.153  11.896  1.00  0.00     0.050 A 
ATOM      3  C   UNL     1     -20.072  -7.941  11.849  1.00  0.00     0.161 A 
ATOM      4  C   UNL     1     -20.240  -8.872  10.792  1.00  0.00     0.200 A 
ATOM      5  C   UNL     1     -19.240  -8.987   9.807  1.00  0.00     0.161 A 
ATOM      6  C   UNL     1     -18.093  -8.189   9.874  1.00  0.00     0.050 A 
ENDROOT
BRANCH   3   7
ATOM      7  O   UNL     1     -21.018  -7.769  12.863  1.00  0.00    -0.504 OA
ATOM      8  H   UNL     1     -21.368  -8.517  13.443  1.00  0.00     0.293 HD
ENDBRANCH   3   7
BRANCH   5   9
ATOM      9  O   UNL     1     -19.367  -9.890   8.751  1.00  0.00    -0.504 OA
ATOM     10  H   UNL     1     -20.213  -9.958   8.198  1.00  0.00     0.293 HD
ENDBRANCH   5   9
BRANCH   4  11
ATOM     11  O   UNL     1     -21.371  -9.686  10.689  1.00  0.00    -0.502 OA
ATOM     12  H   UNL     1     -21.599 -10.425  11.339  1.00  0.00     0.293 HD
ENDBRANCH   4  11
TORSDOF 3
ENDMDL
MODEL 6
REMARK VINA RESULT:    -5.494      2.234      3.044
REMARK INTER + INTRA:          -5.975
REMARK INTER:                  -5.975
REMARK INTRA:                   0.000
REMARK UNBOUND:                 0.000
REMARK SMILES Oc1cccc(O)c1O
REMARK SMILES IDX 4 1 5 2 6 3 8 4 2 5 3 6 7 7 1 9 9 11
REMARK H PARENT 7 8 1 10 9 12
REMARK Flexibility Score: inf
ROOT
ATOM      1  C   UNL     1     -20.007 -10.974  11.981  1.00  0.00     0.008 A 
ATOM      2  C   UNL     1     -19.393  -9.982  12.746  1.00  0.00     0.050 A 
ATOM      3  C   UNL     1     -19.285  -8.673  12.263  1.00  0.00     0.161 A 
ATOM      4  C   UNL     1     -19.806  -8.355  10.983  1.00  0.00     0.200 A 
ATOM      5  C   UNL     1     -20.423  -9.365  10.218  1.00  0.00     0.161 A 
ATOM      6  C   UNL     1     -20.519 -10.666  10.721  1.00  0.00     0.050 A 
ENDROOT
BRANCH   3   7
ATOM      7  O   UNL     1     -18.660  -7.728  13.081  1.00  0.00    -0.504 OA
ATOM      8  H   UNL     1     -18.882  -6.743  13.080  1.00  0.00     0.293 HD
ENDBRANCH   3   7
BRANCH   5   9
ATOM      9  O   UNL     1     -20.947  -9.094   8.954  1.00  0.00    -0.504 OA
ATOM     10  H   UNL     1     -20.581  -9.525   8.114  1.00  0.00     0.293 HD
ENDBRANCH   5   9
BRANCH   4  11
ATOM     11  O   UNL     1     -19.729  -7.067  10.445  1.00  0.00    -0.502 OA
ATOM     12  H   UNL     1     -18.866  -6.612  10.186  1.00  0.00     0.293 HD
ENDBRANCH   4  11
TORSDOF 3
ENDMDL
MODEL 7
REMARK VINA RESULT:    -5.123      1.649      2.457
REMARK INTER + INTRA:          -5.572
REMARK INTER:                  -5.572
REMARK INTRA:                   0.000
REMARK UNBOUND:                 0.000
REMARK SMILES Oc1cccc(O)c1O
REMARK SMILES IDX 4 1 5 2 6 3 8 4 2 5 3 6 7 7 1 9 9 11
REMARK H PARENT 7 8 1 10 9 12
REMARK Flexibility Score: inf
ROOT
ATOM      1  C   UNL     1     -19.166 -10.186   9.145  1.00  0.00     0.008 A 
ATOM      2  C   UNL     1     -18.592  -8.938   9.384  1.00  0.00     0.050 A 
ATOM      3  C   UNL     1     -18.508  -8.428  10.684  1.00  0.00     0.161 A 
ATOM      4  C   UNL     1     -19.013  -9.190  11.767  1.00  0.00     0.200 A 
ATOM      5  C   UNL     1     -19.592 -10.450  11.515  1.00  0.00     0.161 A 
ATOM      6  C   UNL     1     -19.665 -10.939  10.207  1.00  0.00     0.050 A 
ENDROOT
BRANCH   3   7
ATOM      7  O   UNL     1     -17.920  -7.171  10.853  1.00  0.00    -0.504 OA
ATOM      8  H   UNL     1     -18.218  -6.337  10.369  1.00  0.00     0.293 HD
ENDBRANCH   3   7
BRANCH   5   9
ATOM      9  O   UNL     1     -20.101 -11.231  12.553  1.00  0.00    -0.504 OA
ATOM     10  H   UNL     1     -19.520 -11.869  13.083  1.00  0.00     0.293 HD
ENDBRANCH   5   9
BRANCH   4  11
ATOM     11  O   UNL     1     -18.959  -8.736  13.088  1.00  0.00    -0.502 OA
ATOM     12  H   UNL     1     -18.601  -9.279  13.860  1.00  0.00     0.293 HD
ENDBRANCH   4  11
TORSDOF 3
ENDMDL
MODEL 8
REMARK VINA RESULT:    -5.114      1.676      3.661
REMARK INTER + INTRA:          -5.562
REMARK INTER:                  -5.562
REMARK INTRA:                   0.000
REMARK UNBOUND:                 0.000
REMARK SMILES Oc1cccc(O)c1O
REMARK SMILES IDX 4 1 5 2 6 3 8 4 2 5 3 6 7 7 1 9 9 11
REMARK H PARENT 7 8 1 10 9 12
REMARK Flexibility Score: inf
ROOT
ATOM      1  C   UNL     1     -19.167  -9.836   9.142  1.00  0.00     0.008 A 
ATOM      2  C   UNL     1     -19.859 -10.692   9.999  1.00  0.00     0.050 A 
ATOM      3  C   UNL     1     -19.845 -10.481  11.382  1.00  0.00     0.161 A 
ATOM      4  C   UNL     1     -19.120  -9.385  11.914  1.00  0.00     0.200 A 
ATOM      5  C   UNL     1     -18.424  -8.527  11.040  1.00  0.00     0.161 A 
ATOM      6  C   UNL     1     -18.452  -8.758   9.661  1.00  0.00     0.050 A 
ENDROOT
BRANCH   3   7
ATOM      7  O   UNL     1     -20.560 -11.375  12.184  1.00  0.00    -0.504 OA
ATOM      8  H   UNL     1     -20.154 -12.185  12.629  1.00  0.00     0.293 HD
ENDBRANCH   3   7
BRANCH   5   9
ATOM      9  O   UNL     1     -17.698  -7.438  11.523  1.00  0.00    -0.504 OA
ATOM     10  H   UNL     1     -16.700  -7.347  11.376  1.00  0.00     0.293 HD
ENDBRANCH   5   9
BRANCH   4  11
ATOM     11  O   UNL     1     -19.067  -9.121  13.286  1.00  0.00    -0.502 OA
ATOM     12  H   UNL     1     -18.226  -8.866  13.782  1.00  0.00     0.293 HD
ENDBRANCH   4  11
TORSDOF 3
ENDMDL
MODEL 9
REMARK VINA RESULT:    -4.871      2.578      3.441
REMARK INTER + INTRA:          -5.298
REMARK INTER:                  -5.298
REMARK INTRA:                   0.000
REMARK UNBOUND:                 0.000
REMARK SMILES Oc1cccc(O)c1O
REMARK SMILES IDX 4 1 5 2 6 3 8 4 2 5 3 6 7 7 1 9 9 11
REMARK H PARENT 7 8 1 10 9 12
REMARK Flexibility Score: inf
ROOT
ATOM      1  C   UNL     1     -18.160 -10.700   9.860  1.00  0.00     0.008 A 
ATOM      2  C   UNL     1     -18.969 -10.201   8.839  1.00  0.00     0.050 A 
ATOM      3  C   UNL     1     -20.158  -9.527   9.137  1.00  0.00     0.161 A 
ATOM      4  C   UNL     1     -20.542  -9.351  10.491  1.00  0.00     0.200 A 
ATOM      5  C   UNL     1     -19.718  -9.860  11.513  1.00  0.00     0.161 A 
ATOM      6  C   UNL     1     -18.534 -10.531  11.192  1.00  0.00     0.050 A 
ENDROOT
BRANCH   3   7
ATOM      7  O   UNL     1     -20.922  -9.051   8.067  1.00  0.00    -0.504 OA
ATOM      8  H   UNL     1     -21.888  -9.298   7.907  1.00  0.00     0.293 HD
ENDBRANCH   3   7
BRANCH   5   9
ATOM      9  O   UNL     1     -20.059  -9.708  12.858  1.00  0.00    -0.504 OA
ATOM     10  H   UNL     1     -19.608 -10.241  13.593  1.00  0.00     0.293 HD
ENDBRANCH   5   9
BRANCH   4  11
ATOM     11  O   UNL     1     -21.717  -8.687  10.852  1.00  0.00    -0.502 OA
ATOM     12  H   UNL     1     -22.103  -8.685  11.785  1.00  0.00     0.293 HD
ENDBRANCH   4  11
TORSDOF 3
ENDMDL
