MODEL 1
REMARK VINA RESULT:    -1.635      0.000      0.000
REMARK INTER + INTRA:          -2.977
REMARK INTER:                  -2.495
REMARK INTRA:                  -0.482
REMARK UNBOUND:                -0.482
REMARK SMILES O=C([O-])CCCCCCCCC(=O)[O-]
REMARK SMILES IDX 7 1 6 2 5 3 4 4 2 5 1 6 3 7 8 8 9 9 10 10 11 11 12 12 13 13
REMARK SMILES IDX 14 14
REMARK H PARENT
REMARK Flexibility Score: inf
ROOT
ATOM      1  C   UNL     1      29.197  -9.851  19.997  1.00  0.00     0.000 C 
ENDROOT
BRANCH   1   2
ATOM      2  C   UNL     1      30.503  -9.210  20.499  1.00  0.00     0.000 C 
BRANCH   2   3
ATOM      3  C   UNL     1      31.077  -9.927  21.731  1.00  0.00     0.006 C 
BRANCH   3   4
ATOM      4  C   UNL     1      30.038 -10.806  22.439  1.00  0.00     0.053 C 
BRANCH   4   5
ATOM      5  C   UNL     1      29.848 -10.355  23.852  1.00  0.00     0.041 C 
ATOM      6  O   UNL     1      29.174  -9.320  24.101  1.00  0.00    -0.550 OA
ATOM      7  O   UNL     1      30.456 -11.047  24.892  1.00  0.00    -0.550 OA
ENDBRANCH   4   5
ENDBRANCH   3   4
ENDBRANCH   2   3
ENDBRANCH   1   2
BRANCH   1   8
ATOM      8  C   UNL     1      29.356 -10.518  18.623  1.00  0.00     0.000 C 
BRANCH   8   9
ATOM      9  C   UNL     1      30.738 -10.269  18.001  1.00  0.00     0.000 C 
BRANCH   9  10
ATOM     10  C   UNL     1      30.837 -10.911  16.609  1.00  0.00     0.006 C 
BRANCH  10  11
ATOM     11  C   UNL     1      29.613 -10.598  15.737  1.00  0.00     0.053 C 
BRANCH  11  12
ATOM     12  C   UNL     1      29.933 -10.693  14.277  1.00  0.00     0.041 C 
ATOM     13  O   UNL     1      31.081 -10.385  13.858  1.00  0.00    -0.550 OA
ATOM     14  O   UNL     1      28.954 -11.088  13.375  1.00  0.00    -0.550 OA
ENDBRANCH  11  12
ENDBRANCH  10  11
ENDBRANCH   9  10
ENDBRANCH   8   9
ENDBRANCH   1   8
TORSDOF 9
ENDMDL
MODEL 2
REMARK VINA RESULT:    -1.634      1.529      1.996
REMARK INTER + INTRA:          -2.976
REMARK INTER:                  -2.165
REMARK INTRA:                  -0.811
REMARK UNBOUND:                -0.482
REMARK SMILES O=C([O-])CCCCCCCCC(=O)[O-]
REMARK SMILES IDX 7 1 6 2 5 3 4 4 2 5 1 6 3 7 8 8 9 9 10 10 11 11 12 12 13 13
REMARK SMILES IDX 14 14
REMARK H PARENT
REMARK Flexibility Score: inf
ROOT
ATOM      1  C   UNL     1      28.334  -9.383  19.709  1.00  0.00     0.000 C 
ENDROOT
BRANCH   1   2
ATOM      2  C   UNL     1      28.587 -10.854  20.086  1.00  0.00     0.000 C 
BRANCH   2   3
ATOM      3  C   UNL     1      28.379 -11.125  21.584  1.00  0.00     0.006 C 
BRANCH   3   4
ATOM      4  C   UNL     1      28.472  -9.849  22.432  1.00  0.00     0.053 C 
BRANCH   4   5
ATOM      5  C   UNL     1      29.784  -9.793  23.148  1.00  0.00     0.041 C 
ATOM      6  O   UNL     1      29.949  -8.992  24.106  1.00  0.00    -0.550 OA
ATOM      7  O   UNL     1      30.841 -10.590  22.728  1.00  0.00    -0.550 OA
ENDBRANCH   4   5
ENDBRANCH   3   4
ENDBRANCH   2   3
ENDBRANCH   1   2
BRANCH   1   8
ATOM      8  C   UNL     1      29.625  -8.636  19.343  1.00  0.00     0.000 C 
BRANCH   8   9
ATOM      9  C   UNL     1      30.800  -9.585  19.067  1.00  0.00     0.000 C 
BRANCH   9  10
ATOM     10  C   UNL     1      31.121  -9.637  17.566  1.00  0.00     0.006 C 
BRANCH  10  11
ATOM     11  C   UNL     1      30.501 -10.863  16.882  1.00  0.00     0.053 C 
BRANCH  11  12
ATOM     12  C   UNL     1      29.443 -10.473  15.895  1.00  0.00     0.041 C 
ATOM     13  O   UNL     1      28.289 -10.164  16.293  1.00  0.00    -0.550 OA
ATOM     14  O   UNL     1      29.723 -10.483  14.535  1.00  0.00    -0.550 OA
ENDBRANCH  11  12
ENDBRANCH  10  11
ENDBRANCH   9  10
ENDBRANCH   8   9
ENDBRANCH   1   8
TORSDOF 9
ENDMDL
MODEL 3
REMARK VINA RESULT:    -1.590      3.111      8.600
REMARK INTER + INTRA:          -2.908
REMARK INTER:                  -2.365
REMARK INTRA:                  -0.543
REMARK UNBOUND:                -0.482
REMARK SMILES O=C([O-])CCCCCCCCC(=O)[O-]
REMARK SMILES IDX 7 1 6 2 5 3 4 4 2 5 1 6 3 7 8 8 9 9 10 10 11 11 12 12 13 13
REMARK SMILES IDX 14 14
REMARK H PARENT
REMARK Flexibility Score: inf
ROOT
ATOM      1  C   UNL     1      29.064  -9.114  14.159  1.00  0.00     0.000 C 
ENDROOT
BRANCH   1   2
ATOM      2  C   UNL     1      28.929 -10.539  13.594  1.00  0.00     0.000 C 
BRANCH   2   3
ATOM      3  C   UNL     1      29.312 -10.624  12.108  1.00  0.00     0.006 C 
BRANCH   3   4
ATOM      4  C   UNL     1      30.783 -10.263  11.858  1.00  0.00     0.053 C 
BRANCH   4   5
ATOM      5  C   UNL     1      30.973  -9.798  10.449  1.00  0.00     0.041 C 
ATOM      6  O   UNL     1      30.951  -8.567  10.180  1.00  0.00    -0.550 OA
ATOM      7  O   UNL     1      31.124 -10.724   9.425  1.00  0.00    -0.550 OA
ENDBRANCH   4   5
ENDBRANCH   3   4
ENDBRANCH   2   3
ENDBRANCH   1   2
BRANCH   1   8
ATOM      8  C   UNL     1      29.963  -9.054  15.403  1.00  0.00     0.000 C 
BRANCH   8   9
ATOM      9  C   UNL     1      30.807 -10.324  15.584  1.00  0.00     0.000 C 
BRANCH   9  10
ATOM     10  C   UNL     1      30.484 -11.012  16.918  1.00  0.00     0.006 C 
BRANCH  10  11
ATOM     11  C   UNL     1      30.617 -10.057  18.111  1.00  0.00     0.053 C 
BRANCH  11  12
ATOM     12  C   UNL     1      29.449 -10.166  19.043  1.00  0.00     0.041 C 
ATOM     13  O   UNL     1      29.366  -9.410  20.047  1.00  0.00    -0.550 OA
ATOM     14  O   UNL     1      28.469 -11.125  18.821  1.00  0.00    -0.550 OA
ENDBRANCH  11  12
ENDBRANCH  10  11
ENDBRANCH   9  10
ENDBRANCH   8   9
ENDBRANCH   1   8
TORSDOF 9
ENDMDL
MODEL 4
REMARK VINA RESULT:    -1.558      1.752      7.103
REMARK INTER + INTRA:          -2.860
REMARK INTER:                  -2.149
REMARK INTRA:                  -0.711
REMARK UNBOUND:                -0.482
REMARK SMILES O=C([O-])CCCCCCCCC(=O)[O-]
REMARK SMILES IDX 7 1 6 2 5 3 4 4 2 5 1 6 3 7 8 8 9 9 10 10 11 11 12 12 13 13
REMARK SMILES IDX 14 14
REMARK H PARENT
REMARK Flexibility Score: inf
ROOT
ATOM      1  C   UNL     1      30.535 -10.154  17.777  1.00  0.00     0.000 C 
ENDROOT
BRANCH   1   2
ATOM      2  C   UNL     1      30.454 -11.125  16.586  1.00  0.00     0.000 C 
BRANCH   2   3
ATOM      3  C   UNL     1      31.102 -10.557  15.314  1.00  0.00     0.006 C 
BRANCH   3   4
ATOM      4  C   UNL     1      30.145 -10.557  14.114  1.00  0.00     0.053 C 
BRANCH   4   5
ATOM      5  C   UNL     1      29.303  -9.321  14.119  1.00  0.00     0.041 C 
ATOM      6  O   UNL     1      29.845  -8.185  14.067  1.00  0.00    -0.550 OA
ATOM      7  O   UNL     1      27.922  -9.421  14.230  1.00  0.00    -0.550 OA
ENDBRANCH   4   5
ENDBRANCH   3   4
ENDBRANCH   2   3
ENDBRANCH   1   2
BRANCH   1   8
ATOM      8  C   UNL     1      29.349  -9.178  17.826  1.00  0.00     0.000 C 
BRANCH   8   9
ATOM      9  C   UNL     1      28.184  -9.707  18.675  1.00  0.00     0.000 C 
BRANCH   9  10
ATOM     10  C   UNL     1      28.687 -10.676  19.754  1.00  0.00     0.006 C 
BRANCH  10  11
ATOM     11  C   UNL     1      28.847  -9.993  21.119  1.00  0.00     0.053 C 
BRANCH  11  12
ATOM     12  C   UNL     1      30.284  -9.920  21.538  1.00  0.00     0.041 C 
ATOM     13  O   UNL     1      30.737 -10.728  22.391  1.00  0.00    -0.550 OA
ATOM     14  O   UNL     1      31.112  -8.937  21.011  1.00  0.00    -0.550 OA
ENDBRANCH  11  12
ENDBRANCH  10  11
ENDBRANCH   9  10
ENDBRANCH   8   9
ENDBRANCH   1   8
TORSDOF 9
ENDMDL
MODEL 5
REMARK VINA RESULT:    -1.480      3.760      5.118
REMARK INTER + INTRA:          -2.741
REMARK INTER:                  -1.841
REMARK INTRA:                  -0.900
REMARK UNBOUND:                -0.482
REMARK SMILES O=C([O-])CCCCCCCCC(=O)[O-]
REMARK SMILES IDX 7 1 6 2 5 3 4 4 2 5 1 6 3 7 8 8 9 9 10 10 11 11 12 12 13 13
REMARK SMILES IDX 14 14
REMARK H PARENT
REMARK Flexibility Score: inf
ROOT
ATOM      1  C   UNL     1      27.936  -9.064  14.354  1.00  0.00     0.000 C 
ENDROOT
BRANCH   1   2
ATOM      2  C   UNL     1      27.438  -9.242  15.799  1.00  0.00     0.000 C 
BRANCH   2   3
ATOM      3  C   UNL     1      27.901  -8.109  16.727  1.00  0.00     0.006 C 
BRANCH   3   4
ATOM      4  C   UNL     1      26.833  -7.722  17.760  1.00  0.00     0.053 C 
BRANCH   4   5
ATOM      5  C   UNL     1      26.738  -8.765  18.828  1.00  0.00     0.041 C 
ATOM      6  O   UNL     1      25.690  -9.453  18.950  1.00  0.00    -0.550 OA
ATOM      7  O   UNL     1      27.787  -8.945  19.720  1.00  0.00    -0.550 OA
ENDBRANCH   4   5
ENDBRANCH   3   4
ENDBRANCH   2   3
ENDBRANCH   1   2
BRANCH   1   8
ATOM      8  C   UNL     1      29.433  -9.373  14.202  1.00  0.00     0.000 C 
BRANCH   8   9
ATOM      9  C   UNL     1      29.742 -10.873  14.315  1.00  0.00     0.000 C 
BRANCH   9  10
ATOM     10  C   UNL     1      30.877 -11.125  15.319  1.00  0.00     0.006 C 
BRANCH  10  11
ATOM     11  C   UNL     1      31.050  -9.960  16.303  1.00  0.00     0.053 C 
BRANCH  11  12
ATOM     12  C   UNL     1      30.555 -10.312  17.672  1.00  0.00     0.041 C 
ATOM     13  O   UNL     1      29.603 -11.125  17.813  1.00  0.00    -0.550 OA
ATOM     14  O   UNL     1      31.122  -9.715  18.791  1.00  0.00    -0.550 OA
ENDBRANCH  11  12
ENDBRANCH  10  11
ENDBRANCH   9  10
ENDBRANCH   8   9
ENDBRANCH   1   8
TORSDOF 9
ENDMDL
MODEL 6
REMARK VINA RESULT:    -1.471      2.914      7.687
REMARK INTER + INTRA:          -2.728
REMARK INTER:                  -1.974
REMARK INTRA:                  -0.754
REMARK UNBOUND:                -0.482
REMARK SMILES O=C([O-])CCCCCCCCC(=O)[O-]
REMARK SMILES IDX 7 1 6 2 5 3 4 4 2 5 1 6 3 7 8 8 9 9 10 10 11 11 12 12 13 13
REMARK SMILES IDX 14 14
REMARK H PARENT
REMARK Flexibility Score: inf
ROOT
ATOM      1  C   UNL     1      29.801  -9.123  15.806  1.00  0.00     0.000 C 
ENDROOT
BRANCH   1   2
ATOM      2  C   UNL     1      30.539  -9.464  14.499  1.00  0.00     0.000 C 
BRANCH   2   3
ATOM      3  C   UNL     1      30.109 -10.818  13.914  1.00  0.00     0.006 C 
BRANCH   3   4
ATOM      4  C   UNL     1      29.690 -10.717  12.441  1.00  0.00     0.053 C 
BRANCH   4   5
ATOM      5  C   UNL     1      28.205 -10.573  12.331  1.00  0.00     0.041 C 
ATOM      6  O   UNL     1      27.696 -10.013  11.324  1.00  0.00    -0.550 OA
ATOM      7  O   UNL     1      27.384 -11.013  13.362  1.00  0.00    -0.550 OA
ENDBRANCH   4   5
ENDBRANCH   3   4
ENDBRANCH   2   3
ENDBRANCH   1   2
BRANCH   1   8
ATOM      8  C   UNL     1      29.060 -10.331  16.399  1.00  0.00     0.000 C 
BRANCH   8   9
ATOM      9  C   UNL     1      29.786 -10.933  17.611  1.00  0.00     0.000 C 
BRANCH   9  10
ATOM     10  C   UNL     1      30.803  -9.939  18.190  1.00  0.00     0.006 C 
BRANCH  10  11
ATOM     11  C   UNL     1      30.417  -9.467  19.598  1.00  0.00     0.053 C 
BRANCH  11  12
ATOM     12  C   UNL     1      29.905  -8.060  19.591  1.00  0.00     0.041 C 
ATOM     13  O   UNL     1      28.828  -7.780  19.001  1.00  0.00    -0.550 OA
ATOM     14  O   UNL     1      30.634  -7.051  20.208  1.00  0.00    -0.550 OA
ENDBRANCH  11  12
ENDBRANCH  10  11
ENDBRANCH   9  10
ENDBRANCH   8   9
ENDBRANCH   1   8
TORSDOF 9
ENDMDL
MODEL 7
REMARK VINA RESULT:    -1.471      1.361      1.700
REMARK INTER + INTRA:          -2.728
REMARK INTER:                  -2.198
REMARK INTRA:                  -0.529
REMARK UNBOUND:                -0.482
REMARK SMILES O=C([O-])CCCCCCCCC(=O)[O-]
REMARK SMILES IDX 7 1 6 2 5 3 4 4 2 5 1 6 3 7 8 8 9 9 10 10 11 11 12 12 13 13
REMARK SMILES IDX 14 14
REMARK H PARENT
REMARK Flexibility Score: inf
ROOT
ATOM      1  C   UNL     1      29.518  -8.992  18.714  1.00  0.00     0.000 C 
ENDROOT
BRANCH   1   2
ATOM      2  C   UNL     1      29.691  -8.580  20.187  1.00  0.00     0.000 C 
BRANCH   2   3
ATOM      3  C   UNL     1      30.827  -9.343  20.885  1.00  0.00     0.006 C 
BRANCH   3   4
ATOM      4  C   UNL     1      30.309 -10.352  21.920  1.00  0.00     0.053 C 
BRANCH   4   5
ATOM      5  C   UNL     1      29.638  -9.640  23.052  1.00  0.00     0.041 C 
ATOM      6  O   UNL     1      28.431  -9.877  23.323  1.00  0.00    -0.550 OA
ATOM      7  O   UNL     1      30.331  -8.678  23.777  1.00  0.00    -0.550 OA
ENDBRANCH   4   5
ENDBRANCH   3   4
ENDBRANCH   2   3
ENDBRANCH   1   2
BRANCH   1   8
ATOM      8  C   UNL     1      30.591  -9.989  18.250  1.00  0.00     0.000 C 
BRANCH   8   9
ATOM      9  C   UNL     1      30.063 -10.978  17.201  1.00  0.00     0.000 C 
BRANCH   9  10
ATOM     10  C   UNL     1      31.055 -11.125  16.037  1.00  0.00     0.006 C 
BRANCH  10  11
ATOM     11  C   UNL     1      30.377 -10.955  14.671  1.00  0.00     0.053 C 
BRANCH  11  12
ATOM     12  C   UNL     1      29.790  -9.586  14.510  1.00  0.00     0.041 C 
ATOM     13  O   UNL     1      28.562  -9.447  14.266  1.00  0.00    -0.550 OA
ATOM     14  O   UNL     1      30.606  -8.465  14.596  1.00  0.00    -0.550 OA
ENDBRANCH  11  12
ENDBRANCH  10  11
ENDBRANCH   9  10
ENDBRANCH   8   9
ENDBRANCH   1   8
TORSDOF 9
ENDMDL
MODEL 8
REMARK VINA RESULT:    -1.422      2.799      7.486
REMARK INTER + INTRA:          -2.653
REMARK INTER:                  -1.980
REMARK INTRA:                  -0.672
REMARK UNBOUND:                -0.482
REMARK SMILES O=C([O-])CCCCCCCCC(=O)[O-]
REMARK SMILES IDX 7 1 6 2 5 3 4 4 2 5 1 6 3 7 8 8 9 9 10 10 11 11 12 12 13 13
REMARK SMILES IDX 14 14
REMARK H PARENT
REMARK Flexibility Score: inf
ROOT
ATOM      1  C   UNL     1      30.155  -7.368  15.885  1.00  0.00     0.000 C 
ENDROOT
BRANCH   1   2
ATOM      2  C   UNL     1      29.365  -8.443  15.118  1.00  0.00     0.000 C 
BRANCH   2   3
ATOM      3  C   UNL     1      30.237  -9.641  14.712  1.00  0.00     0.006 C 
BRANCH   3   4
ATOM      4  C   UNL     1      30.999  -9.398  13.402  1.00  0.00     0.053 C 
BRANCH   4   5
ATOM      5  C   UNL     1      30.312 -10.084  12.264  1.00  0.00     0.041 C 
ATOM      6  O   UNL     1      30.500  -9.692  11.082  1.00  0.00    -0.550 OA
ATOM      7  O   UNL     1      29.426 -11.125  12.511  1.00  0.00    -0.550 OA
ENDBRANCH   4   5
ENDBRANCH   3   4
ENDBRANCH   2   3
ENDBRANCH   1   2
BRANCH   1   8
ATOM      8  C   UNL     1      31.116  -7.969  16.922  1.00  0.00     0.000 C 
BRANCH   8   9
ATOM      9  C   UNL     1      30.391  -8.480  18.175  1.00  0.00     0.000 C 
BRANCH   9  10
ATOM     10  C   UNL     1      30.595  -9.992  18.348  1.00  0.00     0.006 C 
BRANCH  10  11
ATOM     11  C   UNL     1      29.325 -10.790  18.024  1.00  0.00     0.053 C 
BRANCH  11  12
ATOM     12  C   UNL     1      28.412 -10.886  19.208  1.00  0.00     0.041 C 
ATOM     13  O   UNL     1      28.874 -10.785  20.375  1.00  0.00    -0.550 OA
ATOM     14  O   UNL     1      27.055 -11.120  19.022  1.00  0.00    -0.550 OA
ENDBRANCH  11  12
ENDBRANCH  10  11
ENDBRANCH   9  10
ENDBRANCH   8   9
ENDBRANCH   1   8
TORSDOF 9
ENDMDL
MODEL 9
REMARK VINA RESULT:    -0.774      2.499      3.667
REMARK INTER + INTRA:          -1.664
REMARK INTER:                  -1.005
REMARK INTRA:                  -0.659
REMARK UNBOUND:                -0.482
REMARK SMILES O=C([O-])CCCCCCCCC(=O)[O-]
REMARK SMILES IDX 7 1 6 2 5 3 4 4 2 5 1 6 3 7 8 8 9 9 10 10 11 11 12 12 13 13
REMARK SMILES IDX 14 14
REMARK H PARENT
REMARK Flexibility Score: inf
ROOT
ATOM      1  C   UNL     1      30.408 -11.125  16.577  1.00  0.00     0.000 C 
ENDROOT
BRANCH   1   2
ATOM      2  C   UNL     1      30.780 -10.065  17.629  1.00  0.00     0.000 C 
BRANCH   2   3
ATOM      3  C   UNL     1      29.553  -9.516  18.374  1.00  0.00     0.006 C 
BRANCH   3   4
ATOM      4  C   UNL     1      28.880 -10.575  19.259  1.00  0.00     0.053 C 
BRANCH   4   5
ATOM      5  C   UNL     1      29.248 -10.365  20.694  1.00  0.00     0.041 C 
ATOM      6  O   UNL     1      30.169  -9.562  21.001  1.00  0.00    -0.550 OA
ATOM      7  O   UNL     1      28.609 -11.092  21.690  1.00  0.00    -0.550 OA
ENDBRANCH   4   5
ENDBRANCH   3   4
ENDBRANCH   2   3
ENDBRANCH   1   2
BRANCH   1   8
ATOM      8  C   UNL     1      31.116 -10.897  15.232  1.00  0.00     0.000 C 
BRANCH   8   9
ATOM      9  C   UNL     1      30.143 -10.903  14.044  1.00  0.00     0.000 C 
BRANCH   9  10
ATOM     10  C   UNL     1      28.766 -10.366  14.460  1.00  0.00     0.006 C 
BRANCH  10  11
ATOM     11  C   UNL     1      28.733  -8.832  14.516  1.00  0.00     0.053 C 
BRANCH  11  12
ATOM     12  C   UNL     1      27.549  -8.330  15.284  1.00  0.00     0.041 C 
ATOM     13  O   UNL     1      26.965  -9.079  16.111  1.00  0.00    -0.550 OA
ATOM     14  O   UNL     1      27.070  -7.045  15.060  1.00  0.00    -0.550 OA
ENDBRANCH  11  12
ENDBRANCH  10  11
ENDBRANCH   9  10
ENDBRANCH   8   9
ENDBRANCH   1   8
TORSDOF 9
ENDMDL
