MODEL 1
REMARK VINA RESULT:    -7.712      0.000      0.000
REMARK INTER + INTRA:         -14.260
REMARK INTER:                 -12.671
REMARK INTRA:                  -1.589
REMARK UNBOUND:                -1.589
REMARK SMILES C[C@@H]1O[C@@H](OC[C@H]2O[C@@H](Oc3c(-c4ccc(O)c(O)c4)oc4cc(O)cc(O)c4c3=O)[C@@H](O)[C@@H](O)[C@@H]2O)[C@H](O)[C@H](O)[C@@H]1O
REMARK SMILES IDX 7 1 36 2 34 3 32 4 9 5 8 6 6 7 5 8 4 9 1 10 2 11 42 12 3 13
REMARK SMILES IDX 40 14 38 15 43 16 41 18 39 20 37 22 35 24 10 26 11 27 12 28
REMARK SMILES IDX 30 29 21 30 29 31 31 32 22 33 27 34 23 35 26 36 24 37 13 38
REMARK SMILES IDX 20 39 14 40 18 41 15 42 16 43 19 44 17 46 28 48 25 50 33 52
REMARK H PARENT 43 17 41 19 39 21 37 23 35 25 19 45 17 47 28 49 25 51 33 53
REMARK Flexibility Score: inf
ROOT
ATOM      1  C   UNL     1     148.647 167.506 149.833  1.00  0.00     0.180 C 
ATOM      2  C   UNL     1     149.386 168.599 149.011  1.00  0.00     0.177 C 
ATOM      3  C   UNL     1     149.502 169.940 149.762  1.00  0.00     0.180 C 
ATOM      4  C   UNL     1     148.154 170.308 150.381  1.00  0.00     0.214 C 
ATOM      5  C   UNL     1     147.610 169.154 151.241  1.00  0.00     0.339 C 
ATOM      6  O   UNL     1     147.472 167.943 150.512  1.00  0.00    -0.332 OA
ENDROOT
BRANCH   1   7
ATOM      7  C   UNL     1     149.563 166.611 150.698  1.00  0.00     0.198 C 
BRANCH   7   8
ATOM      8  O   UNL     1     149.249 165.240 150.554  1.00  0.00    -0.347 OA
BRANCH   8   9
ATOM      9  C   UNL     1     149.116 164.603 151.816  1.00  0.00     0.281 C 
ATOM     10  C   UNL     1     150.205 161.193 150.904  1.00  0.00     0.041 C 
ATOM     11  C   UNL     1     149.301 162.427 150.924  1.00  0.00     0.150 C 
ATOM     12  C   UNL     1     147.841 162.046 151.258  1.00  0.00     0.174 C 
ATOM     13  O   UNL     1     149.813 163.359 151.865  1.00  0.00    -0.344 OA
ATOM     14  C   UNL     1     146.982 163.326 151.295  1.00  0.00     0.179 C 
ATOM     15  C   UNL     1     147.619 164.430 152.165  1.00  0.00     0.202 C 
BRANCH  12  16
ATOM     16  O   UNL     1     147.740 161.308 152.455  1.00  0.00    -0.388 OA
ATOM     17  H   UNL     1     147.453 161.923 153.178  1.00  0.00     0.211 HD
ENDBRANCH  12  16
BRANCH  14  18
ATOM     18  O   UNL     1     145.654 163.056 151.671  1.00  0.00    -0.387 OA
ATOM     19  H   UNL     1     145.128 162.878 150.849  1.00  0.00     0.211 HD
ENDBRANCH  14  18
BRANCH  15  20
ATOM     20  O   UNL     1     147.481 164.123 153.529  1.00  0.00    -0.385 OA
ATOM     21  H   UNL     1     146.992 164.881 153.948  1.00  0.00     0.211 HD
ENDBRANCH  15  20
ENDBRANCH   8   9
ENDBRANCH   7   8
ENDBRANCH   1   7
BRANCH   2  22
ATOM     22  O   UNL     1     148.685 168.806 147.809  1.00  0.00    -0.387 OA
ATOM     23  H   UNL     1     148.330 167.924 147.520  1.00  0.00     0.211 HD
ENDBRANCH   2  22
BRANCH   3  24
ATOM     24  O   UNL     1     150.494 169.884 150.753  1.00  0.00    -0.387 OA
ATOM     25  H   UNL     1     151.113 170.643 150.587  1.00  0.00     0.211 HD
ENDBRANCH   3  24
BRANCH   5  26
ATOM     26  O   UNL     1     148.408 168.954 152.409  1.00  0.00    -0.454 OA
BRANCH  26  27
ATOM     27  C   UNL     1     148.037 168.143 153.491  1.00  0.00     0.214 A 
ATOM     28  C   UNL     1     148.984 167.450 154.274  1.00  0.00     0.180 A 
ATOM     29  C   UNL     1     146.680 168.022 153.808  1.00  0.00     0.239 A 
ATOM     30  O   UNL     1     148.570 166.633 155.235  1.00  0.00    -0.452 OA
ATOM     31  C   UNL     1     146.279 167.219 154.901  1.00  0.00     0.111 A 
ATOM     32  O   UNL     1     145.837 168.602 153.076  1.00  0.00    -0.285 OA
ATOM     33  C   UNL     1     147.294 166.479 155.562  1.00  0.00     0.146 A 
ATOM     34  C   UNL     1     144.934 167.081 155.351  1.00  0.00     0.134 A 
ATOM     35  C   UNL     1     146.967 165.577 156.577  1.00  0.00     0.094 A 
ATOM     36  C   UNL     1     144.631 166.146 156.348  1.00  0.00     0.093 A 
ATOM     37  C   UNL     1     145.640 165.397 156.961  1.00  0.00     0.123 A 
BRANCH  28  38
ATOM     38  C   UNL     1     150.440 167.606 154.081  1.00  0.00     0.025 A 
ATOM     39  C   UNL     1     151.279 166.486 154.207  1.00  0.00     0.062 A 
ATOM     40  C   UNL     1     151.004 168.863 153.814  1.00  0.00     0.016 A 
ATOM     41  C   UNL     1     152.664 166.612 154.020  1.00  0.00     0.158 A 
ATOM     42  C   UNL     1     152.383 168.989 153.629  1.00  0.00     0.051 A 
ATOM     43  C   UNL     1     153.216 167.869 153.725  1.00  0.00     0.157 A 
BRANCH  41  44
ATOM     44  O   UNL     1     153.488 165.492 154.123  1.00  0.00    -0.504 OA
ATOM     45  H   UNL     1     153.571 164.824 153.367  1.00  0.00     0.293 HD
ENDBRANCH  41  44
BRANCH  43  46
ATOM     46  O   UNL     1     154.589 168.024 153.527  1.00  0.00    -0.504 OA
ATOM     47  H   UNL     1     154.992 168.133 152.604  1.00  0.00     0.293 HD
ENDBRANCH  43  46
ENDBRANCH  28  38
BRANCH  34  48
ATOM     48  O   UNL     1     143.875 167.859 154.877  1.00  0.00    -0.507 OA
ATOM     49  H   UNL     1     143.939 168.493 154.093  1.00  0.00     0.293 HD
ENDBRANCH  34  48
BRANCH  37  50
ATOM     50  O   UNL     1     145.334 164.481 157.965  1.00  0.00    -0.508 OA
ATOM     51  H   UNL     1     146.032 163.843 158.329  1.00  0.00     0.293 HD
ENDBRANCH  37  50
ENDBRANCH  26  27
ENDBRANCH   5  26
BRANCH   4  52
ATOM     52  O   UNL     1     148.287 171.476 151.148  1.00  0.00    -0.384 OA
ATOM     53  H   UNL     1     149.061 171.975 150.779  1.00  0.00     0.211 HD
ENDBRANCH   4  52
TORSDOF 16
ENDMDL
MODEL 2
REMARK VINA RESULT:    -7.531      2.241      6.026
REMARK INTER + INTRA:         -13.962
REMARK INTER:                 -12.392
REMARK INTRA:                  -1.570
REMARK UNBOUND:                -1.589
REMARK SMILES C[C@@H]1O[C@@H](OC[C@H]2O[C@@H](Oc3c(-c4ccc(O)c(O)c4)oc4cc(O)cc(O)c4c3=O)[C@@H](O)[C@@H](O)[C@@H]2O)[C@H](O)[C@H](O)[C@@H]1O
REMARK SMILES IDX 7 1 36 2 34 3 32 4 9 5 8 6 6 7 5 8 4 9 1 10 2 11 42 12 3 13
REMARK SMILES IDX 40 14 38 15 43 16 41 18 39 20 37 22 35 24 10 26 11 27 12 28
REMARK SMILES IDX 30 29 21 30 29 31 31 32 22 33 27 34 23 35 26 36 24 37 13 38
REMARK SMILES IDX 20 39 14 40 18 41 15 42 16 43 19 44 17 46 28 48 25 50 33 52
REMARK H PARENT 43 17 41 19 39 21 37 23 35 25 19 45 17 47 28 49 25 51 33 53
REMARK Flexibility Score: inf
ROOT
ATOM      1  C   UNL     1     146.823 163.774 152.279  1.00  0.00     0.180 C 
ATOM      2  C   UNL     1     145.359 164.281 152.397  1.00  0.00     0.177 C 
ATOM      3  C   UNL     1     145.259 165.690 153.015  1.00  0.00     0.180 C 
ATOM      4  C   UNL     1     146.142 165.777 154.259  1.00  0.00     0.214 C 
ATOM      5  C   UNL     1     147.581 165.333 153.944  1.00  0.00     0.339 C 
ATOM      6  O   UNL     1     147.646 164.015 153.418  1.00  0.00    -0.332 OA
ENDROOT
BRANCH   1   7
ATOM      7  C   UNL     1     147.517 164.098 150.937  1.00  0.00     0.198 C 
BRANCH   7   8
ATOM      8  O   UNL     1     148.709 163.355 150.767  1.00  0.00    -0.347 OA
BRANCH   8   9
ATOM      9  C   UNL     1     148.596 162.056 151.330  1.00  0.00     0.281 C 
ATOM     10  C   UNL     1     152.047 161.617 152.570  1.00  0.00     0.041 C 
ATOM     11  C   UNL     1     150.927 161.761 151.538  1.00  0.00     0.150 C 
ATOM     12  C   UNL     1     150.991 160.637 150.481  1.00  0.00     0.174 C 
ATOM     13  O   UNL     1     149.677 161.757 152.212  1.00  0.00    -0.344 OA
ATOM     14  C   UNL     1     149.825 160.812 149.487  1.00  0.00     0.179 C 
ATOM     15  C   UNL     1     148.471 161.002 150.205  1.00  0.00     0.202 C 
BRANCH  12  16
ATOM     16  O   UNL     1     150.999 159.353 151.064  1.00  0.00    -0.388 OA
ATOM     17  H   UNL     1     151.851 158.905 150.823  1.00  0.00     0.211 HD
ENDBRANCH  12  16
BRANCH  14  18
ATOM     18  O   UNL     1     149.781 159.772 148.541  1.00  0.00    -0.387 OA
ATOM     19  H   UNL     1     149.749 160.176 147.636  1.00  0.00     0.211 HD
ENDBRANCH  14  18
BRANCH  15  20
ATOM     20  O   UNL     1     148.023 159.784 150.742  1.00  0.00    -0.385 OA
ATOM     21  H   UNL     1     148.148 159.838 151.727  1.00  0.00     0.211 HD
ENDBRANCH  15  20
ENDBRANCH   8   9
ENDBRANCH   7   8
ENDBRANCH   1   7
BRANCH   2  22
ATOM     22  O   UNL     1     144.635 163.378 153.197  1.00  0.00    -0.387 OA
ATOM     23  H   UNL     1     144.275 163.891 153.968  1.00  0.00     0.211 HD
ENDBRANCH   2  22
BRANCH   3  24
ATOM     24  O   UNL     1     145.623 166.679 152.090  1.00  0.00    -0.387 OA
ATOM     25  H   UNL     1     146.576 166.524 151.857  1.00  0.00     0.211 HD
ENDBRANCH   3  24
BRANCH   5  26
ATOM     26  O   UNL     1     148.234 166.259 153.074  1.00  0.00    -0.454 OA
BRANCH  26  27
ATOM     27  C   UNL     1     149.491 166.827 153.323  1.00  0.00     0.214 A 
ATOM     28  C   UNL     1     149.684 168.222 153.415  1.00  0.00     0.180 A 
ATOM     29  C   UNL     1     150.591 165.980 153.493  1.00  0.00     0.239 A 
ATOM     30  O   UNL     1     150.909 168.705 153.572  1.00  0.00    -0.452 OA
ATOM     31  C   UNL     1     151.868 166.526 153.757  1.00  0.00     0.111 A 
ATOM     32  O   UNL     1     150.422 164.740 153.361  1.00  0.00    -0.285 OA
ATOM     33  C   UNL     1     151.982 167.940 153.726  1.00  0.00     0.146 A 
ATOM     34  C   UNL     1     153.039 165.754 154.012  1.00  0.00     0.134 A 
ATOM     35  C   UNL     1     153.229 168.555 153.864  1.00  0.00     0.094 A 
ATOM     36  C   UNL     1     154.280 166.395 154.115  1.00  0.00     0.093 A 
ATOM     37  C   UNL     1     154.378 167.787 154.043  1.00  0.00     0.123 A 
BRANCH  28  38
ATOM     38  C   UNL     1     148.564 169.183 153.359  1.00  0.00     0.025 A 
ATOM     39  C   UNL     1     148.142 169.824 154.535  1.00  0.00     0.062 A 
ATOM     40  C   UNL     1     147.886 169.435 152.156  1.00  0.00     0.016 A 
ATOM     41  C   UNL     1     147.085 170.745 154.502  1.00  0.00     0.158 A 
ATOM     42  C   UNL     1     146.833 170.352 152.122  1.00  0.00     0.051 A 
ATOM     43  C   UNL     1     146.431 171.012 153.287  1.00  0.00     0.157 A 
BRANCH  41  44
ATOM     44  O   UNL     1     146.687 171.396 155.669  1.00  0.00    -0.504 OA
ATOM     45  H   UNL     1     145.857 171.975 155.696  1.00  0.00     0.293 HD
ENDBRANCH  41  44
BRANCH  43  46
ATOM     46  O   UNL     1     145.381 171.929 153.221  1.00  0.00    -0.504 OA
ATOM     47  H   UNL     1     145.382 172.792 153.753  1.00  0.00     0.293 HD
ENDBRANCH  43  46
ENDBRANCH  28  38
BRANCH  34  48
ATOM     48  O   UNL     1     153.028 164.371 154.207  1.00  0.00    -0.507 OA
ATOM     49  H   UNL     1     152.271 163.762 153.931  1.00  0.00     0.293 HD
ENDBRANCH  34  48
BRANCH  37  50
ATOM     50  O   UNL     1     155.614 168.420 154.163  1.00  0.00    -0.508 OA
ATOM     51  H   UNL     1     156.211 168.264 154.966  1.00  0.00     0.293 HD
ENDBRANCH  37  50
ENDBRANCH  26  27
ENDBRANCH   5  26
BRANCH   4  52
ATOM     52  O   UNL     1     146.129 167.088 154.761  1.00  0.00    -0.384 OA
ATOM     53  H   UNL     1     146.781 167.115 155.508  1.00  0.00     0.211 HD
ENDBRANCH   4  52
TORSDOF 16
ENDMDL
MODEL 3
REMARK VINA RESULT:    -7.513      2.216      5.964
REMARK INTER + INTRA:         -13.933
REMARK INTER:                 -12.684
REMARK INTRA:                  -1.250
REMARK UNBOUND:                -1.589
REMARK SMILES C[C@@H]1O[C@@H](OC[C@H]2O[C@@H](Oc3c(-c4ccc(O)c(O)c4)oc4cc(O)cc(O)c4c3=O)[C@@H](O)[C@@H](O)[C@@H]2O)[C@H](O)[C@H](O)[C@@H]1O
REMARK SMILES IDX 7 1 36 2 34 3 32 4 9 5 8 6 6 7 5 8 4 9 1 10 2 11 42 12 3 13
REMARK SMILES IDX 40 14 38 15 43 16 41 18 39 20 37 22 35 24 10 26 11 27 12 28
REMARK SMILES IDX 30 29 21 30 29 31 31 32 22 33 27 34 23 35 26 36 24 37 13 38
REMARK SMILES IDX 20 39 14 40 18 41 15 42 16 43 19 44 17 46 28 48 25 50 33 52
REMARK H PARENT 43 17 41 19 39 21 37 23 35 25 19 45 17 47 28 49 25 51 33 53
REMARK Flexibility Score: inf
ROOT
ATOM      1  C   UNL     1     146.436 163.302 151.626  1.00  0.00     0.180 C 
ATOM      2  C   UNL     1     146.581 163.316 150.079  1.00  0.00     0.177 C 
ATOM      3  C   UNL     1     147.282 164.584 149.552  1.00  0.00     0.180 C 
ATOM      4  C   UNL     1     146.687 165.822 150.220  1.00  0.00     0.214 C 
ATOM      5  C   UNL     1     146.710 165.685 151.753  1.00  0.00     0.339 C 
ATOM      6  O   UNL     1     146.019 164.533 152.211  1.00  0.00    -0.332 OA
ENDROOT
BRANCH   1   7
ATOM      7  C   UNL     1     147.600 162.623 152.383  1.00  0.00     0.198 C 
BRANCH   7   8
ATOM      8  O   UNL     1     147.913 161.355 151.840  1.00  0.00    -0.347 OA
BRANCH   8   9
ATOM      9  C   UNL     1     148.616 161.475 150.612  1.00  0.00     0.281 C 
ATOM     10  C   UNL     1     148.174 158.048 149.307  1.00  0.00     0.041 C 
ATOM     11  C   UNL     1     148.694 159.148 150.235  1.00  0.00     0.150 C 
ATOM     12  C   UNL     1     150.227 159.059 150.406  1.00  0.00     0.174 C 
ATOM     13  O   UNL     1     148.311 160.412 149.712  1.00  0.00    -0.344 OA
ATOM     14  C   UNL     1     150.699 160.206 151.323  1.00  0.00     0.179 C 
ATOM     15  C   UNL     1     150.136 161.574 150.882  1.00  0.00     0.202 C 
BRANCH  12  16
ATOM     16  O   UNL     1     150.905 159.059 149.169  1.00  0.00    -0.388 OA
ATOM     17  H   UNL     1     151.839 159.352 149.325  1.00  0.00     0.211 HD
ENDBRANCH  12  16
BRANCH  14  18
ATOM     18  O   UNL     1     152.099 160.227 151.456  1.00  0.00    -0.387 OA
ATOM     19  H   UNL     1     152.483 160.635 150.637  1.00  0.00     0.211 HD
ENDBRANCH  14  18
BRANCH  15  20
ATOM     20  O   UNL     1     150.796 162.029 149.728  1.00  0.00    -0.385 OA
ATOM     21  H   UNL     1     150.138 161.989 148.984  1.00  0.00     0.211 HD
ENDBRANCH  15  20
ENDBRANCH   8   9
ENDBRANCH   7   8
ENDBRANCH   1   7
BRANCH   2  22
ATOM     22  O   UNL     1     145.297 163.231 149.508  1.00  0.00    -0.387 OA
ATOM     23  H   UNL     1     144.707 162.793 150.177  1.00  0.00     0.211 HD
ENDBRANCH   2  22
BRANCH   3  24
ATOM     24  O   UNL     1     148.666 164.529 149.773  1.00  0.00    -0.387 OA
ATOM     25  H   UNL     1     148.813 163.941 150.560  1.00  0.00     0.211 HD
ENDBRANCH   3  24
BRANCH   5  26
ATOM     26  O   UNL     1     148.045 165.711 152.258  1.00  0.00    -0.454 OA
BRANCH  26  27
ATOM     27  C   UNL     1     148.688 166.861 152.737  1.00  0.00     0.214 A 
ATOM     28  C   UNL     1     148.229 167.567 153.869  1.00  0.00     0.180 A 
ATOM     29  C   UNL     1     149.829 167.321 152.071  1.00  0.00     0.239 A 
ATOM     30  O   UNL     1     148.830 168.694 154.228  1.00  0.00    -0.452 OA
ATOM     31  C   UNL     1     150.504 168.472 152.539  1.00  0.00     0.111 A 
ATOM     32  O   UNL     1     150.204 166.717 151.033  1.00  0.00    -0.285 OA
ATOM     33  C   UNL     1     149.907 169.173 153.619  1.00  0.00     0.146 A 
ATOM     34  C   UNL     1     151.709 168.985 151.978  1.00  0.00     0.134 A 
ATOM     35  C   UNL     1     150.448 170.380 154.067  1.00  0.00     0.094 A 
ATOM     36  C   UNL     1     152.211 170.214 152.424  1.00  0.00     0.093 A 
ATOM     37  C   UNL     1     151.586 170.910 153.464  1.00  0.00     0.123 A 
BRANCH  28  38
ATOM     38  C   UNL     1     147.101 167.092 154.696  1.00  0.00     0.025 A 
ATOM     39  C   UNL     1     147.335 166.147 155.709  1.00  0.00     0.062 A 
ATOM     40  C   UNL     1     145.791 167.538 154.459  1.00  0.00     0.016 A 
ATOM     41  C   UNL     1     146.278 165.688 156.509  1.00  0.00     0.158 A 
ATOM     42  C   UNL     1     144.739 167.081 155.255  1.00  0.00     0.051 A 
ATOM     43  C   UNL     1     144.975 166.162 156.283  1.00  0.00     0.157 A 
BRANCH  41  44
ATOM     44  O   UNL     1     146.521 164.769 157.529  1.00  0.00    -0.504 OA
ATOM     45  H   UNL     1     145.768 164.378 158.081  1.00  0.00     0.293 HD
ENDBRANCH  41  44
BRANCH  43  46
ATOM     46  O   UNL     1     143.905 165.730 157.068  1.00  0.00    -0.504 OA
ATOM     47  H   UNL     1     142.998 166.180 157.040  1.00  0.00     0.293 HD
ENDBRANCH  43  46
ENDBRANCH  28  38
BRANCH  34  48
ATOM     48  O   UNL     1     152.462 168.313 151.013  1.00  0.00    -0.507 OA
ATOM     49  H   UNL     1     152.942 167.438 151.170  1.00  0.00     0.293 HD
ENDBRANCH  34  48
BRANCH  37  50
ATOM     50  O   UNL     1     152.101 172.124 153.916  1.00  0.00    -0.508 OA
ATOM     51  H   UNL     1     151.559 172.978 153.868  1.00  0.00     0.293 HD
ENDBRANCH  37  50
ENDBRANCH  26  27
ENDBRANCH   5  26
BRANCH   4  52
ATOM     52  O   UNL     1     147.394 166.966 149.816  1.00  0.00    -0.384 OA
ATOM     53  H   UNL     1     146.862 167.750 150.110  1.00  0.00     0.211 HD
ENDBRANCH   4  52
TORSDOF 16
ENDMDL
MODEL 4
REMARK VINA RESULT:    -7.307      1.954      5.545
REMARK INTER + INTRA:         -13.594
REMARK INTER:                 -10.959
REMARK INTRA:                  -2.636
REMARK UNBOUND:                -1.589
REMARK SMILES C[C@@H]1O[C@@H](OC[C@H]2O[C@@H](Oc3c(-c4ccc(O)c(O)c4)oc4cc(O)cc(O)c4c3=O)[C@@H](O)[C@@H](O)[C@@H]2O)[C@H](O)[C@H](O)[C@@H]1O
REMARK SMILES IDX 7 1 36 2 34 3 32 4 9 5 8 6 6 7 5 8 4 9 1 10 2 11 42 12 3 13
REMARK SMILES IDX 40 14 38 15 43 16 41 18 39 20 37 22 35 24 10 26 11 27 12 28
REMARK SMILES IDX 30 29 21 30 29 31 31 32 22 33 27 34 23 35 26 36 24 37 13 38
REMARK SMILES IDX 20 39 14 40 18 41 15 42 16 43 19 44 17 46 28 48 25 50 33 52
REMARK H PARENT 43 17 41 19 39 21 37 23 35 25 19 45 17 47 28 49 25 51 33 53
REMARK Flexibility Score: inf
ROOT
ATOM      1  C   UNL     1     146.381 168.291 151.592  1.00  0.00     0.180 C 
ATOM      2  C   UNL     1     145.979 168.438 150.098  1.00  0.00     0.177 C 
ATOM      3  C   UNL     1     147.188 168.673 149.171  1.00  0.00     0.180 C 
ATOM      4  C   UNL     1     148.101 169.743 149.768  1.00  0.00     0.214 C 
ATOM      5  C   UNL     1     148.482 169.394 151.217  1.00  0.00     0.339 C 
ATOM      6  O   UNL     1     147.350 169.226 152.058  1.00  0.00    -0.332 OA
ENDROOT
BRANCH   1   7
ATOM      7  C   UNL     1     146.651 166.841 152.054  1.00  0.00     0.198 C 
BRANCH   7   8
ATOM      8  O   UNL     1     146.807 165.960 150.959  1.00  0.00    -0.347 OA
BRANCH   8   9
ATOM      9  C   UNL     1     146.281 164.673 151.249  1.00  0.00     0.281 C 
ATOM     10  C   UNL     1     149.394 162.936 152.217  1.00  0.00     0.041 C 
ATOM     11  C   UNL     1     148.398 163.633 151.288  1.00  0.00     0.150 C 
ATOM     12  C   UNL     1     148.131 162.789 150.021  1.00  0.00     0.174 C 
ATOM     13  O   UNL     1     147.195 163.877 152.001  1.00  0.00    -0.344 OA
ATOM     14  C   UNL     1     147.100 163.521 149.137  1.00  0.00     0.179 C 
ATOM     15  C   UNL     1     145.858 163.969 149.939  1.00  0.00     0.202 C 
BRANCH  12  16
ATOM     16  O   UNL     1     147.723 161.475 150.328  1.00  0.00    -0.388 OA
ATOM     17  H   UNL     1     146.771 161.498 150.602  1.00  0.00     0.211 HD
ENDBRANCH  12  16
BRANCH  14  18
ATOM     18  O   UNL     1     146.754 162.767 148.002  1.00  0.00    -0.387 OA
ATOM     19  H   UNL     1     146.295 161.941 148.305  1.00  0.00     0.211 HD
ENDBRANCH  14  18
BRANCH  15  20
ATOM     20  O   UNL     1     145.039 162.866 150.234  1.00  0.00    -0.385 OA
ATOM     21  H   UNL     1     145.164 162.207 149.500  1.00  0.00     0.211 HD
ENDBRANCH  15  20
ENDBRANCH   8   9
ENDBRANCH   7   8
ENDBRANCH   1   7
BRANCH   2  22
ATOM     22  O   UNL     1     145.091 169.523 149.977  1.00  0.00    -0.387 OA
ATOM     23  H   UNL     1     144.368 169.386 150.645  1.00  0.00     0.211 HD
ENDBRANCH   2  22
BRANCH   3  24
ATOM     24  O   UNL     1     147.904 167.487 148.956  1.00  0.00    -0.387 OA
ATOM     25  H   UNL     1     148.019 167.390 147.974  1.00  0.00     0.211 HD
ENDBRANCH   3  24
BRANCH   5  26
ATOM     26  O   UNL     1     149.328 168.244 151.271  1.00  0.00    -0.454 OA
BRANCH  26  27
ATOM     27  C   UNL     1     150.559 168.198 151.939  1.00  0.00     0.214 A 
ATOM     28  C   UNL     1     150.659 167.920 153.319  1.00  0.00     0.180 A 
ATOM     29  C   UNL     1     151.731 168.430 151.211  1.00  0.00     0.239 A 
ATOM     30  O   UNL     1     151.844 167.970 153.914  1.00  0.00    -0.452 OA
ATOM     31  C   UNL     1     152.987 168.378 151.858  1.00  0.00     0.111 A 
ATOM     32  O   UNL     1     151.632 168.727 149.991  1.00  0.00    -0.285 OA
ATOM     33  C   UNL     1     152.978 168.197 153.265  1.00  0.00     0.146 A 
ATOM     34  C   UNL     1     154.241 168.532 151.199  1.00  0.00     0.134 A 
ATOM     35  C   UNL     1     154.168 168.248 153.994  1.00  0.00     0.094 A 
ATOM     36  C   UNL     1     155.415 168.611 151.958  1.00  0.00     0.093 A 
ATOM     37  C   UNL     1     155.383 168.469 153.348  1.00  0.00     0.123 A 
BRANCH  28  38
ATOM     38  C   UNL     1     149.488 167.556 154.141  1.00  0.00     0.025 A 
ATOM     39  C   UNL     1     148.912 166.283 154.000  1.00  0.00     0.062 A 
ATOM     40  C   UNL     1     148.913 168.477 155.032  1.00  0.00     0.016 A 
ATOM     41  C   UNL     1     147.803 165.915 154.777  1.00  0.00     0.158 A 
ATOM     42  C   UNL     1     147.809 168.112 155.805  1.00  0.00     0.051 A 
ATOM     43  C   UNL     1     147.253 166.834 155.686  1.00  0.00     0.157 A 
BRANCH  41  44
ATOM     44  O   UNL     1     147.252 164.641 154.649  1.00  0.00    -0.504 OA
ATOM     45  H   UNL     1     147.201 164.172 153.754  1.00  0.00     0.293 HD
ENDBRANCH  41  44
BRANCH  43  46
ATOM     46  O   UNL     1     146.155 166.494 156.477  1.00  0.00    -0.504 OA
ATOM     47  H   UNL     1     146.204 165.776 157.191  1.00  0.00     0.293 HD
ENDBRANCH  43  46
ENDBRANCH  28  38
BRANCH  34  48
ATOM     48  O   UNL     1     154.387 168.575 149.811  1.00  0.00    -0.507 OA
ATOM     49  H   UNL     1     154.679 167.793 149.242  1.00  0.00     0.293 HD
ENDBRANCH  34  48
BRANCH  37  50
ATOM     50  O   UNL     1     156.557 168.531 154.097  1.00  0.00    -0.508 OA
ATOM     51  H   UNL     1     157.187 167.740 154.157  1.00  0.00     0.293 HD
ENDBRANCH  37  50
ENDBRANCH  26  27
ENDBRANCH   5  26
BRANCH   4  52
ATOM     52  O   UNL     1     149.250 169.883 148.975  1.00  0.00    -0.384 OA
ATOM     53  H   UNL     1     149.627 170.780 149.172  1.00  0.00     0.211 HD
ENDBRANCH   4  52
TORSDOF 16
ENDMDL
MODEL 5
REMARK VINA RESULT:    -7.151      1.058      2.089
REMARK INTER + INTRA:         -13.338
REMARK INTER:                 -12.185
REMARK INTRA:                  -1.153
REMARK UNBOUND:                -1.589
REMARK SMILES C[C@@H]1O[C@@H](OC[C@H]2O[C@@H](Oc3c(-c4ccc(O)c(O)c4)oc4cc(O)cc(O)c4c3=O)[C@@H](O)[C@@H](O)[C@@H]2O)[C@H](O)[C@H](O)[C@@H]1O
REMARK SMILES IDX 7 1 36 2 34 3 32 4 9 5 8 6 6 7 5 8 4 9 1 10 2 11 42 12 3 13
REMARK SMILES IDX 40 14 38 15 43 16 41 18 39 20 37 22 35 24 10 26 11 27 12 28
REMARK SMILES IDX 30 29 21 30 29 31 31 32 22 33 27 34 23 35 26 36 24 37 13 38
REMARK SMILES IDX 20 39 14 40 18 41 15 42 16 43 19 44 17 46 28 48 25 50 33 52
REMARK H PARENT 43 17 41 19 39 21 37 23 35 25 19 45 17 47 28 49 25 51 33 53
REMARK Flexibility Score: inf
ROOT
ATOM      1  C   UNL     1     148.435 167.507 149.866  1.00  0.00     0.180 C 
ATOM      2  C   UNL     1     149.302 168.464 149.001  1.00  0.00     0.177 C 
ATOM      3  C   UNL     1     149.630 169.789 149.717  1.00  0.00     0.180 C 
ATOM      4  C   UNL     1     148.367 170.361 150.359  1.00  0.00     0.214 C 
ATOM      5  C   UNL     1     147.686 169.315 151.259  1.00  0.00     0.339 C 
ATOM      6  O   UNL     1     147.355 168.123 150.562  1.00  0.00    -0.332 OA
ENDROOT
BRANCH   1   7
ATOM      7  C   UNL     1     149.235 166.506 150.730  1.00  0.00     0.198 C 
BRANCH   7   8
ATOM      8  O   UNL     1     148.398 165.784 151.612  1.00  0.00    -0.347 OA
BRANCH   8   9
ATOM      9  C   UNL     1     147.726 164.728 150.941  1.00  0.00     0.281 C 
ATOM     10  C   UNL     1     144.238 165.550 151.836  1.00  0.00     0.041 C 
ATOM     11  C   UNL     1     145.682 165.096 152.058  1.00  0.00     0.150 C 
ATOM     12  C   UNL     1     145.735 163.759 152.830  1.00  0.00     0.174 C 
ATOM     13  O   UNL     1     146.330 164.985 150.800  1.00  0.00    -0.344 OA
ATOM     14  C   UNL     1     147.208 163.333 153.000  1.00  0.00     0.179 C 
ATOM     15  C   UNL     1     147.987 163.389 151.669  1.00  0.00     0.202 C 
BRANCH  12  16
ATOM     16  O   UNL     1     144.963 162.753 152.213  1.00  0.00    -0.388 OA
ATOM     17  H   UNL     1     144.329 162.389 152.884  1.00  0.00     0.211 HD
ENDBRANCH  12  16
BRANCH  14  18
ATOM     18  O   UNL     1     147.323 162.080 153.629  1.00  0.00    -0.387 OA
ATOM     19  H   UNL     1     148.083 162.120 154.265  1.00  0.00     0.211 HD
ENDBRANCH  14  18
BRANCH  15  20
ATOM     20  O   UNL     1     147.621 162.317 150.838  1.00  0.00    -0.385 OA
ATOM     21  H   UNL     1     147.339 162.708 149.968  1.00  0.00     0.211 HD
ENDBRANCH  15  20
ENDBRANCH   8   9
ENDBRANCH   7   8
ENDBRANCH   1   7
BRANCH   2  22
ATOM     22  O   UNL     1     148.606 168.747 147.811  1.00  0.00    -0.387 OA
ATOM     23  H   UNL     1     148.158 169.625 147.935  1.00  0.00     0.211 HD
ENDBRANCH   2  22
BRANCH   3  24
ATOM     24  O   UNL     1     150.630 169.611 150.685  1.00  0.00    -0.387 OA
ATOM     25  H   UNL     1     150.221 169.106 151.437  1.00  0.00     0.211 HD
ENDBRANCH   3  24
BRANCH   5  26
ATOM     26  O   UNL     1     148.477 169.025 152.412  1.00  0.00    -0.454 OA
BRANCH  26  27
ATOM     27  C   UNL     1     148.066 168.197 153.466  1.00  0.00     0.214 A 
ATOM     28  C   UNL     1     148.981 167.459 154.246  1.00  0.00     0.180 A 
ATOM     29  C   UNL     1     146.701 168.105 153.757  1.00  0.00     0.239 A 
ATOM     30  O   UNL     1     148.529 166.629 155.178  1.00  0.00    -0.452 OA
ATOM     31  C   UNL     1     146.260 167.286 154.822  1.00  0.00     0.111 A 
ATOM     32  O   UNL     1     145.887 168.727 153.026  1.00  0.00    -0.285 OA
ATOM     33  C   UNL     1     147.243 166.502 155.480  1.00  0.00     0.146 A 
ATOM     34  C   UNL     1     144.904 167.173 155.246  1.00  0.00     0.134 A 
ATOM     35  C   UNL     1     146.875 165.583 156.466  1.00  0.00     0.094 A 
ATOM     36  C   UNL     1     144.559 166.221 156.213  1.00  0.00     0.093 A 
ATOM     37  C   UNL     1     145.537 165.430 156.823  1.00  0.00     0.123 A 
BRANCH  28  38
ATOM     38  C   UNL     1     150.443 167.580 154.081  1.00  0.00     0.025 A 
ATOM     39  C   UNL     1     151.009 168.841 153.829  1.00  0.00     0.062 A 
ATOM     40  C   UNL     1     151.274 166.450 154.129  1.00  0.00     0.016 A 
ATOM     41  C   UNL     1     152.397 168.979 153.676  1.00  0.00     0.158 A 
ATOM     42  C   UNL     1     152.656 166.586 153.975  1.00  0.00     0.051 A 
ATOM     43  C   UNL     1     153.223 167.845 153.754  1.00  0.00     0.157 A 
BRANCH  41  44
ATOM     44  O   UNL     1     152.954 170.237 153.451  1.00  0.00    -0.504 OA
ATOM     45  H   UNL     1     152.394 171.079 153.488  1.00  0.00     0.293 HD
ENDBRANCH  41  44
BRANCH  43  46
ATOM     46  O   UNL     1     154.607 167.952 153.612  1.00  0.00    -0.504 OA
ATOM     47  H   UNL     1     155.235 167.194 153.853  1.00  0.00     0.293 HD
ENDBRANCH  43  46
ENDBRANCH  28  38
BRANCH  34  48
ATOM     48  O   UNL     1     143.875 167.992 154.775  1.00  0.00    -0.507 OA
ATOM     49  H   UNL     1     143.535 167.992 153.823  1.00  0.00     0.293 HD
ENDBRANCH  34  48
BRANCH  37  50
ATOM     50  O   UNL     1     145.190 164.496 157.798  1.00  0.00    -0.508 OA
ATOM     51  H   UNL     1     144.250 164.449 158.173  1.00  0.00     0.293 HD
ENDBRANCH  37  50
ENDBRANCH  26  27
ENDBRANCH   5  26
BRANCH   4  52
ATOM     52  O   UNL     1     148.688 171.512 151.095  1.00  0.00    -0.384 OA
ATOM     53  H   UNL     1     147.829 171.947 151.335  1.00  0.00     0.211 HD
ENDBRANCH   4  52
TORSDOF 16
ENDMDL
MODEL 6
REMARK VINA RESULT:    -6.796      2.164      6.474
REMARK INTER + INTRA:         -12.755
REMARK INTER:                 -12.166
REMARK INTRA:                  -0.589
REMARK UNBOUND:                -1.589
REMARK SMILES C[C@@H]1O[C@@H](OC[C@H]2O[C@@H](Oc3c(-c4ccc(O)c(O)c4)oc4cc(O)cc(O)c4c3=O)[C@@H](O)[C@@H](O)[C@@H]2O)[C@H](O)[C@H](O)[C@@H]1O
REMARK SMILES IDX 7 1 36 2 34 3 32 4 9 5 8 6 6 7 5 8 4 9 1 10 2 11 42 12 3 13
REMARK SMILES IDX 40 14 38 15 43 16 41 18 39 20 37 22 35 24 10 26 11 27 12 28
REMARK SMILES IDX 30 29 21 30 29 31 31 32 22 33 27 34 23 35 26 36 24 37 13 38
REMARK SMILES IDX 20 39 14 40 18 41 15 42 16 43 19 44 17 46 28 48 25 50 33 52
REMARK H PARENT 43 17 41 19 39 21 37 23 35 25 19 45 17 47 28 49 25 51 33 53
REMARK Flexibility Score: inf
ROOT
ATOM      1  C   UNL     1     146.828 167.758 150.694  1.00  0.00     0.180 C 
ATOM      2  C   UNL     1     145.429 168.280 151.124  1.00  0.00     0.177 C 
ATOM      3  C   UNL     1     144.577 167.204 151.827  1.00  0.00     0.180 C 
ATOM      4  C   UNL     1     144.635 165.897 151.038  1.00  0.00     0.214 C 
ATOM      5  C   UNL     1     146.092 165.473 150.783  1.00  0.00     0.339 C 
ATOM      6  O   UNL     1     146.840 166.464 150.096  1.00  0.00    -0.332 OA
ENDROOT
BRANCH   1   7
ATOM      7  C   UNL     1     147.949 167.965 151.739  1.00  0.00     0.198 C 
BRANCH   7   8
ATOM      8  O   UNL     1     149.232 167.955 151.144  1.00  0.00    -0.347 OA
BRANCH   8   9
ATOM      9  C   UNL     1     149.621 169.256 150.728  1.00  0.00     0.281 C 
ATOM     10  C   UNL     1     153.112 169.273 151.934  1.00  0.00     0.041 C 
ATOM     11  C   UNL     1     151.585 169.268 152.033  1.00  0.00     0.150 C 
ATOM     12  C   UNL     1     151.082 170.381 152.980  1.00  0.00     0.174 C 
ATOM     13  O   UNL     1     151.038 169.419 150.732  1.00  0.00    -0.344 OA
ATOM     14  C   UNL     1     149.540 170.351 153.019  1.00  0.00     0.179 C 
ATOM     15  C   UNL     1     148.922 170.321 151.605  1.00  0.00     0.202 C 
BRANCH  12  16
ATOM     16  O   UNL     1     151.576 171.653 152.622  1.00  0.00    -0.388 OA
ATOM     17  H   UNL     1     152.421 171.810 153.116  1.00  0.00     0.211 HD
ENDBRANCH  12  16
BRANCH  14  18
ATOM     18  O   UNL     1     149.015 171.392 153.805  1.00  0.00    -0.387 OA
ATOM     19  H   UNL     1     148.623 172.072 153.198  1.00  0.00     0.211 HD
ENDBRANCH  14  18
BRANCH  15  20
ATOM     20  O   UNL     1     149.027 171.583 150.995  1.00  0.00    -0.385 OA
ATOM     21  H   UNL     1     149.990 171.725 150.789  1.00  0.00     0.211 HD
ENDBRANCH  15  20
ENDBRANCH   8   9
ENDBRANCH   7   8
ENDBRANCH   1   7
BRANCH   2  22
ATOM     22  O   UNL     1     144.747 168.728 149.978  1.00  0.00    -0.387 OA
ATOM     23  H   UNL     1     145.032 169.665 149.814  1.00  0.00     0.211 HD
ENDBRANCH   2  22
BRANCH   3  24
ATOM     24  O   UNL     1     145.005 166.996 153.146  1.00  0.00    -0.387 OA
ATOM     25  H   UNL     1     144.811 167.830 153.650  1.00  0.00     0.211 HD
ENDBRANCH   3  24
BRANCH   5  26
ATOM     26  O   UNL     1     146.744 165.095 151.996  1.00  0.00    -0.454 OA
BRANCH  26  27
ATOM     27  C   UNL     1     147.869 164.261 152.063  1.00  0.00     0.214 A 
ATOM     28  C   UNL     1     148.988 164.566 152.869  1.00  0.00     0.180 A 
ATOM     29  C   UNL     1     147.880 163.083 151.310  1.00  0.00     0.239 A 
ATOM     30  O   UNL     1     150.057 163.780 152.830  1.00  0.00    -0.452 OA
ATOM     31  C   UNL     1     148.997 162.217 151.368  1.00  0.00     0.111 A 
ATOM     32  O   UNL     1     146.901 162.842 150.556  1.00  0.00    -0.285 OA
ATOM     33  C   UNL     1     150.114 162.660 152.122  1.00  0.00     0.146 A 
ATOM     34  C   UNL     1     149.082 160.964 150.696  1.00  0.00     0.134 A 
ATOM     35  C   UNL     1     151.298 161.919 152.138  1.00  0.00     0.094 A 
ATOM     36  C   UNL     1     150.291 160.257 150.703  1.00  0.00     0.093 A 
ATOM     37  C   UNL     1     151.395 160.729 151.419  1.00  0.00     0.123 A 
BRANCH  28  38
ATOM     38  C   UNL     1     149.017 165.728 153.778  1.00  0.00     0.025 A 
ATOM     39  C   UNL     1     147.834 166.142 154.412  1.00  0.00     0.062 A 
ATOM     40  C   UNL     1     150.200 166.455 153.986  1.00  0.00     0.016 A 
ATOM     41  C   UNL     1     147.842 167.240 155.284  1.00  0.00     0.158 A 
ATOM     42  C   UNL     1     150.209 167.549 154.855  1.00  0.00     0.051 A 
ATOM     43  C   UNL     1     149.037 167.943 155.509  1.00  0.00     0.157 A 
BRANCH  41  44
ATOM     44  O   UNL     1     146.669 167.630 155.930  1.00  0.00    -0.504 OA
ATOM     45  H   UNL     1     146.027 166.950 156.318  1.00  0.00     0.293 HD
ENDBRANCH  41  44
BRANCH  43  46
ATOM     46  O   UNL     1     149.078 169.035 156.377  1.00  0.00    -0.504 OA
ATOM     47  H   UNL     1     149.479 169.925 156.107  1.00  0.00     0.293 HD
ENDBRANCH  43  46
ENDBRANCH  28  38
BRANCH  34  48
ATOM     48  O   UNL     1     148.005 160.359 150.045  1.00  0.00    -0.507 OA
ATOM     49  H   UNL     1     147.068 160.736 150.019  1.00  0.00     0.293 HD
ENDBRANCH  34  48
BRANCH  37  50
ATOM     50  O   UNL     1     152.590 160.012 151.436  1.00  0.00    -0.508 OA
ATOM     51  H   UNL     1     152.935 159.580 152.285  1.00  0.00     0.293 HD
ENDBRANCH  37  50
ENDBRANCH  26  27
ENDBRANCH   5  26
BRANCH   4  52
ATOM     52  O   UNL     1     143.942 164.892 151.732  1.00  0.00    -0.384 OA
ATOM     53  H   UNL     1     144.192 164.029 151.311  1.00  0.00     0.211 HD
ENDBRANCH   4  52
TORSDOF 16
ENDMDL
MODEL 7
REMARK VINA RESULT:    -6.762      2.268      6.084
REMARK INTER + INTRA:         -12.700
REMARK INTER:                 -11.043
REMARK INTRA:                  -1.657
REMARK UNBOUND:                -1.589
REMARK SMILES C[C@@H]1O[C@@H](OC[C@H]2O[C@@H](Oc3c(-c4ccc(O)c(O)c4)oc4cc(O)cc(O)c4c3=O)[C@@H](O)[C@@H](O)[C@@H]2O)[C@H](O)[C@H](O)[C@@H]1O
REMARK SMILES IDX 7 1 36 2 34 3 32 4 9 5 8 6 6 7 5 8 4 9 1 10 2 11 42 12 3 13
REMARK SMILES IDX 40 14 38 15 43 16 41 18 39 20 37 22 35 24 10 26 11 27 12 28
REMARK SMILES IDX 30 29 21 30 29 31 31 32 22 33 27 34 23 35 26 36 24 37 13 38
REMARK SMILES IDX 20 39 14 40 18 41 15 42 16 43 19 44 17 46 28 48 25 50 33 52
REMARK H PARENT 43 17 41 19 39 21 37 23 35 25 19 45 17 47 28 49 25 51 33 53
REMARK Flexibility Score: inf
ROOT
ATOM      1  C   UNL     1     146.455 163.609 152.818  1.00  0.00     0.180 C 
ATOM      2  C   UNL     1     145.035 164.189 152.568  1.00  0.00     0.177 C 
ATOM      3  C   UNL     1     144.971 165.719 152.745  1.00  0.00     0.180 C 
ATOM      4  C   UNL     1     145.685 166.123 154.034  1.00  0.00     0.214 C 
ATOM      5  C   UNL     1     147.112 165.547 154.076  1.00  0.00     0.339 C 
ATOM      6  O   UNL     1     147.136 164.133 153.955  1.00  0.00    -0.332 OA
ENDROOT
BRANCH   1   7
ATOM      7  C   UNL     1     147.345 163.502 151.560  1.00  0.00     0.198 C 
BRANCH   7   8
ATOM      8  O   UNL     1     148.015 162.258 151.492  1.00  0.00    -0.347 OA
BRANCH   8   9
ATOM      9  C   UNL     1     149.111 162.307 150.591  1.00  0.00     0.281 C 
ATOM     10  C   UNL     1     147.466 161.023 147.544  1.00  0.00     0.041 C 
ATOM     11  C   UNL     1     148.046 160.979 148.959  1.00  0.00     0.150 C 
ATOM     12  C   UNL     1     149.020 159.792 149.128  1.00  0.00     0.174 C 
ATOM     13  O   UNL     1     148.693 162.213 149.231  1.00  0.00    -0.344 OA
ATOM     14  C   UNL     1     149.597 159.814 150.558  1.00  0.00     0.179 C 
ATOM     15  C   UNL     1     150.137 161.206 150.948  1.00  0.00     0.202 C 
BRANCH  12  16
ATOM     16  O   UNL     1     150.036 159.789 148.150  1.00  0.00    -0.388 OA
ATOM     17  H   UNL     1     150.890 159.538 148.586  1.00  0.00     0.211 HD
ENDBRANCH  12  16
BRANCH  14  18
ATOM     18  O   UNL     1     150.554 158.801 150.753  1.00  0.00    -0.387 OA
ATOM     19  H   UNL     1     150.727 158.721 151.727  1.00  0.00     0.211 HD
ENDBRANCH  14  18
BRANCH  15  20
ATOM     20  O   UNL     1     151.356 161.462 150.296  1.00  0.00    -0.385 OA
ATOM     21  H   UNL     1     151.525 162.439 150.374  1.00  0.00     0.211 HD
ENDBRANCH  15  20
ENDBRANCH   8   9
ENDBRANCH   7   8
ENDBRANCH   1   7
BRANCH   2  22
ATOM     22  O   UNL     1     144.139 163.586 153.469  1.00  0.00    -0.387 OA
ATOM     23  H   UNL     1     144.031 162.639 153.186  1.00  0.00     0.211 HD
ENDBRANCH   2  22
BRANCH   3  24
ATOM     24  O   UNL     1     145.536 166.383 151.647  1.00  0.00    -0.387 OA
ATOM     25  H   UNL     1     146.122 165.730 151.181  1.00  0.00     0.211 HD
ENDBRANCH   3  24
BRANCH   5  26
ATOM     26  O   UNL     1     147.949 166.155 153.092  1.00  0.00    -0.454 OA
BRANCH  26  27
ATOM     27  C   UNL     1     149.232 166.658 153.346  1.00  0.00     0.214 A 
ATOM     28  C   UNL     1     149.496 168.041 153.445  1.00  0.00     0.180 A 
ATOM     29  C   UNL     1     150.288 165.756 153.515  1.00  0.00     0.239 A 
ATOM     30  O   UNL     1     150.744 168.461 153.606  1.00  0.00    -0.452 OA
ATOM     31  C   UNL     1     151.591 166.235 153.785  1.00  0.00     0.111 A 
ATOM     32  O   UNL     1     150.056 164.526 153.377  1.00  0.00    -0.285 OA
ATOM     33  C   UNL     1     151.776 167.642 153.760  1.00  0.00     0.146 A 
ATOM     34  C   UNL     1     152.720 165.404 154.039  1.00  0.00     0.134 A 
ATOM     35  C   UNL     1     153.052 168.192 153.903  1.00  0.00     0.094 A 
ATOM     36  C   UNL     1     153.992 165.980 154.147  1.00  0.00     0.093 A 
ATOM     37  C   UNL     1     154.160 167.367 154.081  1.00  0.00     0.123 A 
BRANCH  28  38
ATOM     38  C   UNL     1     148.427 169.057 153.389  1.00  0.00     0.025 A 
ATOM     39  C   UNL     1     148.065 169.746 154.559  1.00  0.00     0.062 A 
ATOM     40  C   UNL     1     147.735 169.318 152.196  1.00  0.00     0.016 A 
ATOM     41  C   UNL     1     147.056 170.720 154.527  1.00  0.00     0.158 A 
ATOM     42  C   UNL     1     146.730 170.287 152.163  1.00  0.00     0.051 A 
ATOM     43  C   UNL     1     146.390 170.994 153.321  1.00  0.00     0.157 A 
BRANCH  41  44
ATOM     44  O   UNL     1     146.719 171.418 155.686  1.00  0.00    -0.504 OA
ATOM     45  H   UNL     1     147.288 171.362 156.522  1.00  0.00     0.293 HD
ENDBRANCH  41  44
BRANCH  43  46
ATOM     46  O   UNL     1     145.387 171.963 153.255  1.00  0.00    -0.504 OA
ATOM     47  H   UNL     1     145.145 172.432 152.391  1.00  0.00     0.293 HD
ENDBRANCH  43  46
ENDBRANCH  28  38
BRANCH  34  48
ATOM     48  O   UNL     1     152.638 164.023 154.228  1.00  0.00    -0.507 OA
ATOM     49  H   UNL     1     153.323 163.359 153.893  1.00  0.00     0.293 HD
ENDBRANCH  34  48
BRANCH  37  50
ATOM     50  O   UNL     1     155.426 167.936 154.207  1.00  0.00    -0.508 OA
ATOM     51  H   UNL     1     155.558 168.843 154.638  1.00  0.00     0.293 HD
ENDBRANCH  37  50
ENDBRANCH  26  27
ENDBRANCH   5  26
BRANCH   4  52
ATOM     52  O   UNL     1     145.715 167.522 154.142  1.00  0.00    -0.384 OA
ATOM     53  H   UNL     1     146.568 167.824 153.735  1.00  0.00     0.211 HD
ENDBRANCH   4  52
TORSDOF 16
ENDMDL
MODEL 8
REMARK VINA RESULT:    -6.688      2.327      7.870
REMARK INTER + INTRA:         -12.577
REMARK INTER:                 -12.913
REMARK INTRA:                   0.336
REMARK UNBOUND:                -1.589
REMARK SMILES C[C@@H]1O[C@@H](OC[C@H]2O[C@@H](Oc3c(-c4ccc(O)c(O)c4)oc4cc(O)cc(O)c4c3=O)[C@@H](O)[C@@H](O)[C@@H]2O)[C@H](O)[C@H](O)[C@@H]1O
REMARK SMILES IDX 7 1 36 2 34 3 32 4 9 5 8 6 6 7 5 8 4 9 1 10 2 11 42 12 3 13
REMARK SMILES IDX 40 14 38 15 43 16 41 18 39 20 37 22 35 24 10 26 11 27 12 28
REMARK SMILES IDX 30 29 21 30 29 31 31 32 22 33 27 34 23 35 26 36 24 37 13 38
REMARK SMILES IDX 20 39 14 40 18 41 15 42 16 43 19 44 17 46 28 48 25 50 33 52
REMARK H PARENT 43 17 41 19 39 21 37 23 35 25 19 45 17 47 28 49 25 51 33 53
REMARK Flexibility Score: inf
ROOT
ATOM      1  C   UNL     1     150.320 167.703 153.927  1.00  0.00     0.180 C 
ATOM      2  C   UNL     1     149.569 167.991 155.258  1.00  0.00     0.177 C 
ATOM      3  C   UNL     1     148.442 166.978 155.542  1.00  0.00     0.180 C 
ATOM      4  C   UNL     1     147.601 166.769 154.283  1.00  0.00     0.214 C 
ATOM      5  C   UNL     1     148.490 166.395 153.084  1.00  0.00     0.339 C 
ATOM      6  O   UNL     1     149.490 167.368 152.818  1.00  0.00    -0.332 OA
ENDROOT
BRANCH   1   7
ATOM      7  C   UNL     1     151.563 166.796 154.065  1.00  0.00     0.198 C 
BRANCH   7   8
ATOM      8  O   UNL     1     152.565 167.128 153.124  1.00  0.00    -0.347 OA
BRANCH   8   9
ATOM      9  C   UNL     1     153.644 167.820 153.737  1.00  0.00     0.281 C 
ATOM     10  C   UNL     1     152.442 171.292 153.364  1.00  0.00     0.041 C 
ATOM     11  C   UNL     1     152.974 169.929 152.920  1.00  0.00     0.150 C 
ATOM     12  C   UNL     1     154.200 170.082 151.991  1.00  0.00     0.174 C 
ATOM     13  O   UNL     1     153.299 169.163 154.071  1.00  0.00    -0.344 OA
ATOM     14  C   UNL     1     154.713 168.681 151.599  1.00  0.00     0.179 C 
ATOM     15  C   UNL     1     154.893 167.762 152.826  1.00  0.00     0.202 C 
BRANCH  12  16
ATOM     16  O   UNL     1     155.214 170.873 152.568  1.00  0.00    -0.388 OA
ATOM     17  H   UNL     1     155.197 170.737 153.550  1.00  0.00     0.211 HD
ENDBRANCH  12  16
BRANCH  14  18
ATOM     18  O   UNL     1     155.878 168.751 150.814  1.00  0.00    -0.387 OA
ATOM     19  H   UNL     1     155.699 168.296 149.951  1.00  0.00     0.211 HD
ENDBRANCH  14  18
BRANCH  15  20
ATOM     20  O   UNL     1     156.033 168.135 153.558  1.00  0.00    -0.385 OA
ATOM     21  H   UNL     1     155.875 167.858 154.500  1.00  0.00     0.211 HD
ENDBRANCH  15  20
ENDBRANCH   8   9
ENDBRANCH   7   8
ENDBRANCH   1   7
BRANCH   2  22
ATOM     22  O   UNL     1     149.018 169.283 155.190  1.00  0.00    -0.387 OA
ATOM     23  H   UNL     1     149.512 169.848 155.842  1.00  0.00     0.211 HD
ENDBRANCH   2  22
BRANCH   3  24
ATOM     24  O   UNL     1     148.958 165.754 155.991  1.00  0.00    -0.387 OA
ATOM     25  H   UNL     1     149.948 165.814 155.927  1.00  0.00     0.211 HD
ENDBRANCH   3  24
BRANCH   5  26
ATOM     26  O   UNL     1     149.070 165.101 153.249  1.00  0.00    -0.454 OA
BRANCH  26  27
ATOM     27  C   UNL     1     148.955 164.058 152.319  1.00  0.00     0.214 A 
ATOM     28  C   UNL     1     147.869 163.962 151.423  1.00  0.00     0.180 A 
ATOM     29  C   UNL     1     149.956 163.082 152.275  1.00  0.00     0.239 A 
ATOM     30  O   UNL     1     147.772 162.910 150.621  1.00  0.00    -0.452 OA
ATOM     31  C   UNL     1     149.870 162.025 151.340  1.00  0.00     0.111 A 
ATOM     32  O   UNL     1     150.895 163.145 153.110  1.00  0.00    -0.285 OA
ATOM     33  C   UNL     1     148.691 161.955 150.554  1.00  0.00     0.146 A 
ATOM     34  C   UNL     1     150.865 161.019 151.165  1.00  0.00     0.134 A 
ATOM     35  C   UNL     1     148.477 160.880 149.688  1.00  0.00     0.094 A 
ATOM     36  C   UNL     1     150.611 159.936 150.315  1.00  0.00     0.093 A 
ATOM     37  C   UNL     1     149.425 159.865 149.578  1.00  0.00     0.123 A 
BRANCH  28  38
ATOM     38  C   UNL     1     146.828 165.004 151.325  1.00  0.00     0.025 A 
ATOM     39  C   UNL     1     147.146 166.249 150.757  1.00  0.00     0.062 A 
ATOM     40  C   UNL     1     145.536 164.787 151.829  1.00  0.00     0.016 A 
ATOM     41  C   UNL     1     146.169 167.250 150.648  1.00  0.00     0.158 A 
ATOM     42  C   UNL     1     144.563 165.783 151.721  1.00  0.00     0.051 A 
ATOM     43  C   UNL     1     144.870 167.013 151.129  1.00  0.00     0.157 A 
BRANCH  41  44
ATOM     44  O   UNL     1     146.484 168.475 150.060  1.00  0.00    -0.504 OA
ATOM     45  H   UNL     1     147.158 168.544 149.308  1.00  0.00     0.293 HD
ENDBRANCH  41  44
BRANCH  43  46
ATOM     46  O   UNL     1     143.876 167.986 151.028  1.00  0.00    -0.504 OA
ATOM     47  H   UNL     1     143.286 168.239 151.812  1.00  0.00     0.293 HD
ENDBRANCH  43  46
ENDBRANCH  28  38
BRANCH  34  48
ATOM     48  O   UNL     1     152.121 161.058 151.774  1.00  0.00    -0.507 OA
ATOM     49  H   UNL     1     152.981 161.288 151.295  1.00  0.00     0.293 HD
ENDBRANCH  34  48
BRANCH  37  50
ATOM     50  O   UNL     1     149.185 158.793 148.719  1.00  0.00    -0.508 OA
ATOM     51  H   UNL     1     149.818 158.573 147.959  1.00  0.00     0.293 HD
ENDBRANCH  37  50
ENDBRANCH  26  27
ENDBRANCH   5  26
BRANCH   4  52
ATOM     52  O   UNL     1     146.639 165.773 154.515  1.00  0.00    -0.384 OA
ATOM     53  H   UNL     1     146.125 166.052 155.316  1.00  0.00     0.211 HD
ENDBRANCH   4  52
TORSDOF 16
ENDMDL
MODEL 9
REMARK VINA RESULT:    -6.436      2.077      5.876
REMARK INTER + INTRA:         -12.163
REMARK INTER:                 -11.226
REMARK INTRA:                  -0.937
REMARK UNBOUND:                -1.589
REMARK SMILES C[C@@H]1O[C@@H](OC[C@H]2O[C@@H](Oc3c(-c4ccc(O)c(O)c4)oc4cc(O)cc(O)c4c3=O)[C@@H](O)[C@@H](O)[C@@H]2O)[C@H](O)[C@H](O)[C@@H]1O
REMARK SMILES IDX 7 1 36 2 34 3 32 4 9 5 8 6 6 7 5 8 4 9 1 10 2 11 42 12 3 13
REMARK SMILES IDX 40 14 38 15 43 16 41 18 39 20 37 22 35 24 10 26 11 27 12 28
REMARK SMILES IDX 30 29 21 30 29 31 31 32 22 33 27 34 23 35 26 36 24 37 13 38
REMARK SMILES IDX 20 39 14 40 18 41 15 42 16 43 19 44 17 46 28 48 25 50 33 52
REMARK H PARENT 43 17 41 19 39 21 37 23 35 25 19 45 17 47 28 49 25 51 33 53
REMARK Flexibility Score: inf
ROOT
ATOM      1  C   UNL     1     149.335 169.721 150.145  1.00  0.00     0.180 C 
ATOM      2  C   UNL     1     148.041 169.876 149.298  1.00  0.00     0.177 C 
ATOM      3  C   UNL     1     147.026 168.742 149.538  1.00  0.00     0.180 C 
ATOM      4  C   UNL     1     147.738 167.390 149.503  1.00  0.00     0.214 C 
ATOM      5  C   UNL     1     148.935 167.374 150.471  1.00  0.00     0.339 C 
ATOM      6  O   UNL     1     149.875 168.403 150.198  1.00  0.00    -0.332 OA
ENDROOT
BRANCH   1   7
ATOM      7  C   UNL     1     149.304 170.430 151.518  1.00  0.00     0.198 C 
BRANCH   7   8
ATOM      8  O   UNL     1     150.515 171.109 151.789  1.00  0.00    -0.347 OA
BRANCH   8   9
ATOM      9  C   UNL     1     150.901 170.959 153.147  1.00  0.00     0.281 C 
ATOM     10  C   UNL     1     154.554 170.618 152.716  1.00  0.00     0.041 C 
ATOM     11  C   UNL     1     153.079 170.222 152.620  1.00  0.00     0.150 C 
ATOM     12  C   UNL     1     152.847 168.794 153.160  1.00  0.00     0.174 C 
ATOM     13  O   UNL     1     152.299 171.171 153.333  1.00  0.00    -0.344 OA
ATOM     14  C   UNL     1     151.344 168.458 153.069  1.00  0.00     0.179 C 
ATOM     15  C   UNL     1     150.461 169.572 153.671  1.00  0.00     0.202 C 
BRANCH  12  16
ATOM     16  O   UNL     1     153.346 168.628 154.469  1.00  0.00    -0.388 OA
ATOM     17  H   UNL     1     153.969 167.857 154.471  1.00  0.00     0.211 HD
ENDBRANCH  12  16
BRANCH  14  18
ATOM     18  O   UNL     1     151.054 167.197 153.618  1.00  0.00    -0.387 OA
ATOM     19  H   UNL     1     150.649 167.333 154.513  1.00  0.00     0.211 HD
ENDBRANCH  14  18
BRANCH  15  20
ATOM     20  O   UNL     1     150.529 169.550 155.074  1.00  0.00    -0.385 OA
ATOM     21  H   UNL     1     151.413 169.164 155.315  1.00  0.00     0.211 HD
ENDBRANCH  15  20
ENDBRANCH   8   9
ENDBRANCH   7   8
ENDBRANCH   1   7
BRANCH   2  22
ATOM     22  O   UNL     1     148.396 169.893 147.937  1.00  0.00    -0.387 OA
ATOM     23  H   UNL     1     148.677 168.971 147.695  1.00  0.00     0.211 HD
ENDBRANCH   2  22
BRANCH   3  24
ATOM     24  O   UNL     1     146.356 168.908 150.759  1.00  0.00    -0.387 OA
ATOM     25  H   UNL     1     145.429 168.575 150.630  1.00  0.00     0.211 HD
ENDBRANCH   3  24
BRANCH   5  26
ATOM     26  O   UNL     1     148.505 167.427 151.832  1.00  0.00    -0.454 OA
BRANCH  26  27
ATOM     27  C   UNL     1     147.874 166.372 152.504  1.00  0.00     0.214 A 
ATOM     28  C   UNL     1     146.893 166.587 153.496  1.00  0.00     0.180 A 
ATOM     29  C   UNL     1     148.224 165.058 152.174  1.00  0.00     0.239 A 
ATOM     30  O   UNL     1     146.389 165.552 154.155  1.00  0.00    -0.452 OA
ATOM     31  C   UNL     1     147.594 163.974 152.828  1.00  0.00     0.111 A 
ATOM     32  O   UNL     1     149.134 164.873 151.325  1.00  0.00    -0.285 OA
ATOM     33  C   UNL     1     146.700 164.291 153.884  1.00  0.00     0.146 A 
ATOM     34  C   UNL     1     147.827 162.602 152.523  1.00  0.00     0.134 A 
ATOM     35  C   UNL     1     146.124 163.279 154.654  1.00  0.00     0.094 A 
ATOM     36  C   UNL     1     147.261 161.608 153.332  1.00  0.00     0.093 A 
ATOM     37  C   UNL     1     146.413 161.942 154.392  1.00  0.00     0.123 A 
BRANCH  28  38
ATOM     38  C   UNL     1     146.385 167.932 153.829  1.00  0.00     0.025 A 
ATOM     39  C   UNL     1     147.287 168.938 154.214  1.00  0.00     0.062 A 
ATOM     40  C   UNL     1     145.010 168.213 153.808  1.00  0.00     0.016 A 
ATOM     41  C   UNL     1     146.825 170.225 154.528  1.00  0.00     0.158 A 
ATOM     42  C   UNL     1     144.548 169.493 154.121  1.00  0.00     0.051 A 
ATOM     43  C   UNL     1     145.449 170.503 154.477  1.00  0.00     0.157 A 
BRANCH  41  44
ATOM     44  O   UNL     1     147.728 171.225 154.886  1.00  0.00    -0.504 OA
ATOM     45  H   UNL     1     147.874 171.486 155.853  1.00  0.00     0.293 HD
ENDBRANCH  41  44
BRANCH  43  46
ATOM     46  O   UNL     1     144.960 171.776 154.776  1.00  0.00    -0.504 OA
ATOM     47  H   UNL     1     145.205 172.261 155.631  1.00  0.00     0.293 HD
ENDBRANCH  43  46
ENDBRANCH  28  38
BRANCH  34  48
ATOM     48  O   UNL     1     148.570 162.168 151.423  1.00  0.00    -0.507 OA
ATOM     49  H   UNL     1     148.171 161.765 150.587  1.00  0.00     0.293 HD
ENDBRANCH  34  48
BRANCH  37  50
ATOM     50  O   UNL     1     145.840 160.947 155.183  1.00  0.00    -0.508 OA
ATOM     51  H   UNL     1     146.236 160.016 155.231  1.00  0.00     0.293 HD
ENDBRANCH  37  50
ENDBRANCH  26  27
ENDBRANCH   5  26
BRANCH   4  52
ATOM     52  O   UNL     1     146.831 166.367 149.822  1.00  0.00    -0.384 OA
ATOM     53  H   UNL     1     146.532 166.530 150.755  1.00  0.00     0.211 HD
ENDBRANCH   4  52
TORSDOF 16
ENDMDL
