MODEL 1
REMARK VINA RESULT:    -2.318      0.000      0.000
REMARK INTER + INTRA:          -2.318
REMARK INTER:                  -2.318
REMARK INTRA:                   0.000
REMARK UNBOUND:                 0.000
REMARK SMILES CC(=O)[O-]
REMARK SMILES IDX 1 1 2 2 3 3 4 4
REMARK H PARENT
REMARK Flexibility Score: inf
ROOT
ATOM      1  C   UNL     1       4.965   8.633  39.303  1.00  0.00     0.063 C 
ATOM      2  C   UNL     1       5.265  10.021  38.846  1.00  0.00     0.038 C 
ATOM      3  O   UNL     1       4.365  10.716  38.306  1.00  0.00    -0.550 OA
ATOM      4  O   UNL     1       6.522  10.569  39.064  1.00  0.00    -0.550 OA
ENDROOT
TORSDOF 0
ENDMDL
MODEL 2
REMARK VINA RESULT:    -2.174      0.802      1.762
REMARK INTER + INTRA:          -2.174
REMARK INTER:                  -2.174
REMARK INTRA:                   0.000
REMARK UNBOUND:                 0.000
REMARK SMILES CC(=O)[O-]
REMARK SMILES IDX 1 1 2 2 3 3 4 4
REMARK H PARENT
REMARK Flexibility Score: inf
ROOT
ATOM      1  C   UNL     1       5.363   9.007  39.256  1.00  0.00     0.063 C 
ATOM      2  C   UNL     1       5.674  10.466  39.292  1.00  0.00     0.038 C 
ATOM      3  O   UNL     1       6.871  10.856  39.309  1.00  0.00    -0.550 OA
ATOM      4  O   UNL     1       4.646  11.398  39.254  1.00  0.00    -0.550 OA
ENDROOT
TORSDOF 0
ENDMDL
MODEL 3
REMARK VINA RESULT:    -2.068     25.964     26.647
REMARK INTER + INTRA:          -2.068
REMARK INTER:                  -2.068
REMARK INTRA:                   0.000
REMARK UNBOUND:                 0.000
REMARK SMILES CC(=O)[O-]
REMARK SMILES IDX 1 1 2 2 3 3 4 4
REMARK H PARENT
REMARK Flexibility Score: inf
ROOT
ATOM      1  C   UNL     1      21.277  -4.698  53.125  1.00  0.00     0.063 C 
ATOM      2  C   UNL     1      22.251  -5.499  52.328  1.00  0.00     0.038 C 
ATOM      3  O   UNL     1      22.927  -6.404  52.883  1.00  0.00    -0.550 OA
ATOM      4  O   UNL     1      22.376  -5.284  50.962  1.00  0.00    -0.550 OA
ENDROOT
TORSDOF 0
ENDMDL
MODEL 4
REMARK VINA RESULT:    -2.002     25.942     26.600
REMARK INTER + INTRA:          -2.002
REMARK INTER:                  -2.002
REMARK INTRA:                   0.000
REMARK UNBOUND:                 0.000
REMARK SMILES CC(=O)[O-]
REMARK SMILES IDX 1 1 2 2 3 3 4 4
REMARK H PARENT
REMARK Flexibility Score: inf
ROOT
ATOM      1  C   UNL     1      22.194  -5.184  50.908  1.00  0.00     0.063 C 
ATOM      2  C   UNL     1      22.218  -5.366  52.389  1.00  0.00     0.038 C 
ATOM      3  O   UNL     1      21.484  -4.656  53.124  1.00  0.00    -0.550 OA
ATOM      4  O   UNL     1      23.012  -6.355  52.956  1.00  0.00    -0.550 OA
ENDROOT
TORSDOF 0
ENDMDL
MODEL 5
REMARK VINA RESULT:    -1.990     14.506     14.914
REMARK INTER + INTRA:          -1.990
REMARK INTER:                  -1.990
REMARK INTRA:                   0.000
REMARK UNBOUND:                 0.000
REMARK SMILES CC(=O)[O-]
REMARK SMILES IDX 1 1 2 2 3 3 4 4
REMARK H PARENT
REMARK Flexibility Score: inf
ROOT
ATOM      1  C   UNL     1      16.217  -0.423  33.547  1.00  0.00     0.063 C 
ATOM      2  C   UNL     1      14.867  -0.165  34.126  1.00  0.00     0.038 C 
ATOM      3  O   UNL     1      14.741   0.072  35.355  1.00  0.00    -0.550 OA
ATOM      4  O   UNL     1      13.750  -0.133  33.300  1.00  0.00    -0.550 OA
ENDROOT
TORSDOF 0
ENDMDL
MODEL 6
REMARK VINA RESULT:    -1.987     14.630     14.971
REMARK INTER + INTRA:          -1.987
REMARK INTER:                  -1.987
REMARK INTRA:                   0.000
REMARK UNBOUND:                 0.000
REMARK SMILES CC(=O)[O-]
REMARK SMILES IDX 1 1 2 2 3 3 4 4
REMARK H PARENT
REMARK Flexibility Score: inf
ROOT
ATOM      1  C   UNL     1      16.292  -0.432  33.421  1.00  0.00     0.063 C 
ATOM      2  C   UNL     1      14.946  -0.194  34.019  1.00  0.00     0.038 C 
ATOM      3  O   UNL     1      13.927  -0.149  33.281  1.00  0.00    -0.550 OA
ATOM      4  O   UNL     1      14.807  -0.074  35.395  1.00  0.00    -0.550 OA
ENDROOT
TORSDOF 0
ENDMDL
MODEL 7
REMARK VINA RESULT:    -1.913      2.099      2.428
REMARK INTER + INTRA:          -1.913
REMARK INTER:                  -1.913
REMARK INTRA:                   0.000
REMARK UNBOUND:                 0.000
REMARK SMILES CC(=O)[O-]
REMARK SMILES IDX 1 1 2 2 3 3 4 4
REMARK H PARENT
REMARK Flexibility Score: inf
ROOT
ATOM      1  C   UNL     1       5.372  11.762  40.595  1.00  0.00     0.063 C 
ATOM      2  C   UNL     1       6.503  11.195  39.805  1.00  0.00     0.038 C 
ATOM      3  O   UNL     1       6.300  10.246  39.003  1.00  0.00    -0.550 OA
ATOM      4  O   UNL     1       7.773  11.747  39.912  1.00  0.00    -0.550 OA
ENDROOT
TORSDOF 0
ENDMDL
MODEL 8
REMARK VINA RESULT:    -1.789     12.393     12.885
REMARK INTER + INTRA:          -1.789
REMARK INTER:                  -1.789
REMARK INTRA:                   0.000
REMARK UNBOUND:                 0.000
REMARK SMILES CC(=O)[O-]
REMARK SMILES IDX 1 1 2 2 3 3 4 4
REMARK H PARENT
REMARK Flexibility Score: inf
ROOT
ATOM      1  C   UNL     1      15.202   1.399  38.865  1.00  0.00     0.063 C 
ATOM      2  C   UNL     1      14.197   0.909  37.878  1.00  0.00     0.038 C 
ATOM      3  O   UNL     1      12.968   0.968  38.145  1.00  0.00    -0.550 OA
ATOM      4  O   UNL     1      14.611   0.434  36.640  1.00  0.00    -0.550 OA
ENDROOT
TORSDOF 0
ENDMDL
MODEL 9
REMARK VINA RESULT:    -1.741      9.266      9.663
REMARK INTER + INTRA:          -1.741
REMARK INTER:                  -1.741
REMARK INTRA:                   0.000
REMARK UNBOUND:                 0.000
REMARK SMILES CC(=O)[O-]
REMARK SMILES IDX 1 1 2 2 3 3 4 4
REMARK H PARENT
REMARK Flexibility Score: inf
ROOT
ATOM      1  C   UNL     1       6.216   0.756  44.578  1.00  0.00     0.063 C 
ATOM      2  C   UNL     1       5.418   1.901  44.051  1.00  0.00     0.038 C 
ATOM      3  O   UNL     1       4.164   1.821  43.988  1.00  0.00    -0.550 OA
ATOM      4  O   UNL     1       6.053   3.079  43.679  1.00  0.00    -0.550 OA
ENDROOT
TORSDOF 0
ENDMDL
