MODEL 1
REMARK VINA RESULT:    -2.452      0.000      0.000
REMARK INTER + INTRA:          -2.279
REMARK INTER:                  -3.025
REMARK INTRA:                   0.746
REMARK UNBOUND:                 0.746
REMARK SMILES CC1=CC=CC(C)(C)CC1=O
REMARK SMILES IDX 1 1 2 2 3 3 10 4 11 5 9 6 4 8 5 9 6 10 7 11 8 12
REMARK H PARENT
REMARK Flexibility Score: 80.00
ROOT
ATOM      1  C   UNL     1     184.620 201.923 211.314  1.00  0.00     0.048 C 
ATOM      2  C   UNL     1     185.840 201.354 211.998  1.00  0.00    -0.008 C 
ATOM      3  C   UNL     1     186.171 201.855 213.208  1.00  0.00     0.007 C 
ENDROOT
BRANCH   2   4
ATOM      4  C   UNL     1     186.623 200.340 211.248  1.00  0.00     0.159 C 
ATOM      5  O   UNL     1     186.354 200.141 210.032  1.00  0.00    -0.295 OA
BRANCH   4   6
ATOM      6  C   UNL     1     187.717 199.521 211.862  1.00  0.00     0.091 CG0
ATOM      7  G   UNL     1     188.876 200.376 212.424  1.00  0.00     0.000 G0
ENDBRANCH   4   6
ENDBRANCH   2   4
BRANCH   3   8
ATOM      8  C   UNL     1     187.309 201.522 214.097  1.00  0.00    -0.003 C 
ATOM      9  C   UNL     1     188.460 200.907 213.800  1.00  0.00    -0.020 C 
BRANCH   9  10
ATOM     10  C   UNL     1     188.866 200.365 212.448  1.00  0.00    -0.010 CG0
ATOM     11  C   UNL     1     189.305 201.525 211.526  1.00  0.00     0.016 C 
ATOM     12  C   UNL     1     190.079 199.427 212.647  1.00  0.00     0.016 C 
ATOM     13  G   UNL     1     187.708 199.534 211.852  1.00  0.00     0.000 G0
ENDBRANCH   9  10
ENDBRANCH   3   8
TORSDOF 0
ENDMDL
MODEL 2
REMARK VINA RESULT:    -2.418      1.600      2.612
REMARK INTER + INTRA:          -2.238
REMARK INTER:                  -2.982
REMARK INTRA:                   0.744
REMARK UNBOUND:                 0.746
REMARK SMILES CC1=CC=CC(C)(C)CC1=O
REMARK SMILES IDX 1 1 2 2 3 3 10 4 11 5 9 6 4 8 5 9 6 10 7 11 8 12
REMARK H PARENT
REMARK Flexibility Score: 80.00
ROOT
ATOM      1  C   UNL     1     185.016 199.434 208.672  1.00  0.00     0.048 C 
ATOM      2  C   UNL     1     185.278 200.055 210.023  1.00  0.00    -0.008 C 
ATOM      3  C   UNL     1     184.430 201.019 210.445  1.00  0.00     0.007 C 
ENDROOT
BRANCH   2   4
ATOM      4  C   UNL     1     186.494 199.607 210.748  1.00  0.00     0.159 C 
ATOM      5  O   UNL     1     187.343 198.904 210.134  1.00  0.00    -0.295 OA
BRANCH   4   6
ATOM      6  C   UNL     1     186.767 199.933 212.184  1.00  0.00     0.091 CG0
ATOM      7  G   UNL     1     186.834 201.451 212.462  1.00  0.00     0.000 G0
ENDBRANCH   4   6
ENDBRANCH   2   4
BRANCH   3   8
ATOM      8  C   UNL     1     184.444 201.818 211.693  1.00  0.00    -0.003 C 
ATOM      9  C   UNL     1     185.450 202.025 212.552  1.00  0.00    -0.020 C 
BRANCH   9  10
ATOM     10  C   UNL     1     186.844 201.448 212.458  1.00  0.00    -0.010 CG0
ATOM     11  C   UNL     1     187.662 202.217 211.396  1.00  0.00     0.016 C 
ATOM     12  C   UNL     1     187.539 201.638 213.826  1.00  0.00     0.016 C 
ATOM     13  G   UNL     1     186.761 199.933 212.166  1.00  0.00     0.000 G0
ENDBRANCH   9  10
ENDBRANCH   3   8
TORSDOF 0
ENDMDL
MODEL 3
REMARK VINA RESULT:    -2.335      2.087      3.329
REMARK INTER + INTRA:          -2.136
REMARK INTER:                  -2.871
REMARK INTRA:                   0.735
REMARK UNBOUND:                 0.746
REMARK SMILES CC1=CC=CC(C)(C)CC1=O
REMARK SMILES IDX 1 1 2 2 3 3 10 4 11 5 9 6 4 8 5 9 6 10 7 11 8 12
REMARK H PARENT
REMARK Flexibility Score: 80.00
ROOT
ATOM      1  C   UNL     1     185.594 199.784 208.051  1.00  0.00     0.048 C 
ATOM      2  C   UNL     1     185.899 200.589 209.293  1.00  0.00    -0.008 C 
ATOM      3  C   UNL     1     187.049 201.296 209.315  1.00  0.00     0.007 C 
ENDROOT
BRANCH   2   4
ATOM      4  C   UNL     1     184.940 200.477 210.421  1.00  0.00     0.159 C 
ATOM      5  O   UNL     1     184.068 199.566 210.391  1.00  0.00    -0.295 OA
BRANCH   4   6
ATOM      6  C   UNL     1     184.941 201.402 211.600  1.00  0.00     0.091 CG0
ATOM      7  G   UNL     1     186.265 201.374 212.395  1.00  0.00     0.000 G0
ENDBRANCH   4   6
ENDBRANCH   2   4
BRANCH   3   8
ATOM      8  C   UNL     1     187.624 202.145 210.384  1.00  0.00    -0.003 C 
ATOM      9  C   UNL     1     187.318 202.183 211.687  1.00  0.00    -0.020 C 
BRANCH   9  10
ATOM     10  C   UNL     1     186.261 201.360 212.387  1.00  0.00    -0.010 CG0
ATOM     11  C   UNL     1     186.782 199.924 212.624  1.00  0.00     0.016 C 
ATOM     12  C   UNL     1     185.981 202.000 213.766  1.00  0.00     0.016 C 
ATOM     13  G   UNL     1     184.951 201.391 211.567  1.00  0.00     0.000 G0
ENDBRANCH   9  10
ENDBRANCH   3   8
TORSDOF 0
ENDMDL
MODEL 4
REMARK VINA RESULT:    -2.238      1.731      2.428
REMARK INTER + INTRA:          -2.016
REMARK INTER:                  -2.775
REMARK INTRA:                   0.760
REMARK UNBOUND:                 0.746
REMARK SMILES CC1=CC=CC(C)(C)CC1=O
REMARK SMILES IDX 1 1 2 2 3 3 10 4 11 5 9 6 4 8 5 9 6 10 7 11 8 12
REMARK H PARENT
REMARK Flexibility Score: 80.00
ROOT
ATOM      1  C   UNL     1     185.105 200.911 210.900  1.00  0.00     0.048 C 
ATOM      2  C   UNL     1     186.385 201.533 211.404  1.00  0.00    -0.008 C 
ATOM      3  C   UNL     1     187.036 202.383 210.581  1.00  0.00     0.007 C 
ENDROOT
BRANCH   2   4
ATOM      4  C   UNL     1     186.865 201.100 212.741  1.00  0.00     0.159 C 
ATOM      5  O   UNL     1     186.287 200.134 213.311  1.00  0.00    -0.295 OA
BRANCH   4   6
ATOM      6  C   UNL     1     187.998 201.759 213.465  1.00  0.00     0.091 CG0
ATOM      7  G   UNL     1     189.320 201.750 212.665  1.00  0.00     0.000 G0
ENDBRANCH   4   6
ENDBRANCH   2   4
BRANCH   3   8
ATOM      8  C   UNL     1     188.307 203.116 210.782  1.00  0.00    -0.003 C 
ATOM      9  C   UNL     1     189.296 202.868 211.650  1.00  0.00    -0.020 C 
BRANCH   9  10
ATOM     10  C   UNL     1     189.332 201.761 212.678  1.00  0.00    -0.010 CG0
ATOM     11  C   UNL     1     189.636 200.411 211.990  1.00  0.00     0.016 C 
ATOM     12  C   UNL     1     190.479 202.060 213.671  1.00  0.00     0.016 C 
ATOM     13  G   UNL     1     188.005 201.742 213.469  1.00  0.00     0.000 G0
ENDBRANCH   9  10
ENDBRANCH   3   8
TORSDOF 0
ENDMDL
MODEL 5
REMARK VINA RESULT:    -2.218      2.006      3.195
REMARK INTER + INTRA:          -1.991
REMARK INTER:                  -2.729
REMARK INTRA:                   0.738
REMARK UNBOUND:                 0.746
REMARK SMILES CC1=CC=CC(C)(C)CC1=O
REMARK SMILES IDX 1 1 2 2 3 3 10 4 11 5 9 6 4 8 5 9 6 10 7 11 8 12
REMARK H PARENT
REMARK Flexibility Score: 80.00
ROOT
ATOM      1  C   UNL     1     188.818 203.841 210.634  1.00  0.00     0.048 C 
ATOM      2  C   UNL     1     188.332 202.503 211.139  1.00  0.00    -0.008 C 
ATOM      3  C   UNL     1     187.325 201.906 210.464  1.00  0.00     0.007 C 
ENDROOT
BRANCH   2   4
ATOM      4  C   UNL     1     188.950 201.987 212.387  1.00  0.00     0.159 C 
ATOM      5  O   UNL     1     189.693 202.753 213.059  1.00  0.00    -0.295 OA
BRANCH   4   6
ATOM      6  C   UNL     1     188.753 200.590 212.890  1.00  0.00     0.091 CG0
ATOM      7  G   UNL     1     187.272 200.246 213.167  1.00  0.00     0.000 G0
ENDBRANCH   4   6
ENDBRANCH   2   4
BRANCH   3   8
ATOM      8  C   UNL     1     186.630 200.626 210.730  1.00  0.00    -0.003 C 
ATOM      9  C   UNL     1     186.584 199.909 211.860  1.00  0.00    -0.020 C 
BRANCH   9  10
ATOM     10  C   UNL     1     187.278 200.237 213.161  1.00  0.00    -0.010 CG0
ATOM     11  C   UNL     1     186.505 201.350 213.905  1.00  0.00     0.016 C 
ATOM     12  C   UNL     1     187.268 198.972 214.049  1.00  0.00     0.016 C 
ATOM     13  G   UNL     1     188.750 200.617 212.884  1.00  0.00     0.000 G0
ENDBRANCH   9  10
ENDBRANCH   3   8
TORSDOF 0
ENDMDL
MODEL 6
REMARK VINA RESULT:    -2.210      2.474      3.596
REMARK INTER + INTRA:          -1.981
REMARK INTER:                  -2.737
REMARK INTRA:                   0.756
REMARK UNBOUND:                 0.746
REMARK SMILES CC1=CC=CC(C)(C)CC1=O
REMARK SMILES IDX 1 1 2 2 3 3 10 4 11 5 9 6 4 8 5 9 6 10 7 11 8 12
REMARK H PARENT
REMARK Flexibility Score: 80.00
ROOT
ATOM      1  C   UNL     1     188.629 203.282 210.800  1.00  0.00     0.048 C 
ATOM      2  C   UNL     1     187.487 202.303 210.657  1.00  0.00    -0.008 C 
ATOM      3  C   UNL     1     186.585 202.242 211.660  1.00  0.00     0.007 C 
ENDROOT
BRANCH   2   4
ATOM      4  C   UNL     1     187.492 201.431 209.455  1.00  0.00     0.159 C 
ATOM      5  O   UNL     1     188.523 201.401 208.730  1.00  0.00    -0.295 OA
BRANCH   4   6
ATOM      6  C   UNL     1     186.325 200.587 209.042  1.00  0.00     0.091 CG0
ATOM      7  G   UNL     1     185.914 199.551 210.112  1.00  0.00     0.000 G0
ENDBRANCH   4   6
ENDBRANCH   2   4
BRANCH   3   8
ATOM      8  C   UNL     1     185.392 201.377 211.815  1.00  0.00    -0.003 C 
ATOM      9  C   UNL     1     185.089 200.236 211.184  1.00  0.00    -0.020 C 
BRANCH   9  10
ATOM     10  C   UNL     1     185.908 199.559 210.109  1.00  0.00    -0.010 CG0
ATOM     11  C   UNL     1     187.115 198.833 210.745  1.00  0.00     0.016 C 
ATOM     12  C   UNL     1     185.020 198.497 209.420  1.00  0.00     0.016 C 
ATOM     13  G   UNL     1     186.330 200.597 209.045  1.00  0.00     0.000 G0
ENDBRANCH   9  10
ENDBRANCH   3   8
TORSDOF 0
ENDMDL
MODEL 7
REMARK VINA RESULT:    -2.124      1.402      1.644
REMARK INTER + INTRA:          -1.875
REMARK INTER:                  -2.637
REMARK INTRA:                   0.762
REMARK UNBOUND:                 0.746
REMARK SMILES CC1=CC=CC(C)(C)CC1=O
REMARK SMILES IDX 1 1 2 2 3 3 10 4 11 5 9 6 4 8 5 9 6 10 7 11 8 12
REMARK H PARENT
REMARK Flexibility Score: 80.00
ROOT
ATOM      1  C   UNL     1     184.153 200.540 210.119  1.00  0.00     0.048 C 
ATOM      2  C   UNL     1     185.429 200.778 210.891  1.00  0.00    -0.008 C 
ATOM      3  C   UNL     1     185.321 201.262 212.148  1.00  0.00     0.007 C 
ENDROOT
BRANCH   2   4
ATOM      4  C   UNL     1     186.707 200.532 210.176  1.00  0.00     0.159 C 
ATOM      5  O   UNL     1     186.678 200.328 208.931  1.00  0.00    -0.295 OA
BRANCH   4   6
ATOM      6  C   UNL     1     188.041 200.497 210.856  1.00  0.00     0.091 CG0
ATOM      7  G   UNL     1     188.385 201.812 211.591  1.00  0.00     0.000 G0
ENDBRANCH   4   6
ENDBRANCH   2   4
BRANCH   3   8
ATOM      8  C   UNL     1     186.377 201.616 213.125  1.00  0.00    -0.003 C 
ATOM      9  C   UNL     1     187.675 201.862 212.913  1.00  0.00    -0.020 C 
BRANCH   9  10
ATOM     10  C   UNL     1     188.395 201.807 211.585  1.00  0.00    -0.010 CG0
ATOM     11  C   UNL     1     188.058 203.064 210.751  1.00  0.00     0.016 C 
ATOM     12  C   UNL     1     189.916 201.809 211.858  1.00  0.00     0.016 C 
ATOM     13  G   UNL     1     188.038 200.493 210.854  1.00  0.00     0.000 G0
ENDBRANCH   9  10
ENDBRANCH   3   8
TORSDOF 0
ENDMDL
MODEL 8
REMARK VINA RESULT:    -2.122      2.065      3.792
REMARK INTER + INTRA:          -1.873
REMARK INTER:                  -2.612
REMARK INTRA:                   0.739
REMARK UNBOUND:                 0.746
REMARK SMILES CC1=CC=CC(C)(C)CC1=O
REMARK SMILES IDX 1 1 2 2 3 3 10 4 11 5 9 6 4 8 5 9 6 10 7 11 8 12
REMARK H PARENT
REMARK Flexibility Score: 80.00
ROOT
ATOM      1  C   UNL     1     190.352 203.194 213.213  1.00  0.00     0.048 C 
ATOM      2  C   UNL     1     189.379 202.639 212.200  1.00  0.00    -0.008 C 
ATOM      3  C   UNL     1     189.070 203.413 211.137  1.00  0.00     0.007 C 
ENDROOT
BRANCH   2   4
ATOM      4  C   UNL     1     188.780 201.313 212.496  1.00  0.00     0.159 C 
ATOM      5  O   UNL     1     188.960 200.805 213.636  1.00  0.00    -0.295 OA
BRANCH   4   6
ATOM      6  C   UNL     1     187.979 200.528 211.503  1.00  0.00     0.091 CG0
ATOM      7  G   UNL     1     186.732 201.285 210.993  1.00  0.00     0.000 G0
ENDBRANCH   4   6
ENDBRANCH   2   4
BRANCH   3   8
ATOM      8  C   UNL     1     188.143 203.157 210.011  1.00  0.00    -0.003 C 
ATOM      9  C   UNL     1     187.144 202.270 209.925  1.00  0.00    -0.020 C 
BRANCH   9  10
ATOM     10  C   UNL     1     186.735 201.272 210.984  1.00  0.00    -0.010 CG0
ATOM     11  C   UNL     1     185.932 201.984 212.097  1.00  0.00     0.016 C 
ATOM     12  C   UNL     1     185.812 200.219 210.328  1.00  0.00     0.016 C 
ATOM     13  G   UNL     1     187.986 200.545 211.525  1.00  0.00     0.000 G0
ENDBRANCH   9  10
ENDBRANCH   3   8
TORSDOF 0
ENDMDL
MODEL 9
REMARK VINA RESULT:    -2.102      1.860      3.226
REMARK INTER + INTRA:          -1.848
REMARK INTER:                  -2.602
REMARK INTRA:                   0.754
REMARK UNBOUND:                 0.746
REMARK SMILES CC1=CC=CC(C)(C)CC1=O
REMARK SMILES IDX 1 1 2 2 3 3 10 4 11 5 9 6 4 8 5 9 6 10 7 11 8 12
REMARK H PARENT
REMARK Flexibility Score: 80.00
ROOT
ATOM      1  C   UNL     1     190.052 203.637 210.012  1.00  0.00     0.048 C 
ATOM      2  C   UNL     1     188.986 202.970 210.849  1.00  0.00    -0.008 C 
ATOM      3  C   UNL     1     189.238 202.799 212.165  1.00  0.00     0.007 C 
ENDROOT
BRANCH   2   4
ATOM      4  C   UNL     1     187.775 202.486 210.139  1.00  0.00     0.159 C 
ATOM      5  O   UNL     1     187.777 202.465 208.877  1.00  0.00    -0.295 OA
BRANCH   4   6
ATOM      6  C   UNL     1     186.534 202.029 210.841  1.00  0.00     0.091 CG0
ATOM      7  G   UNL     1     186.773 200.824 211.779  1.00  0.00     0.000 G0
ENDBRANCH   4   6
ENDBRANCH   2   4
BRANCH   3   8
ATOM      8  C   UNL     1     188.410 202.165 213.217  1.00  0.00    -0.003 C 
ATOM      9  C   UNL     1     187.379 201.321 213.086  1.00  0.00    -0.020 C 
BRANCH   9  10
ATOM     10  C   UNL     1     186.784 200.826 211.788  1.00  0.00    -0.010 CG0
ATOM     11  C   UNL     1     187.697 199.744 211.168  1.00  0.00     0.016 C 
ATOM     12  C   UNL     1     185.417 200.174 212.100  1.00  0.00     0.016 C 
ATOM     13  G   UNL     1     186.542 202.019 210.838  1.00  0.00     0.000 G0
ENDBRANCH   9  10
ENDBRANCH   3   8
TORSDOF 0
ENDMDL
