MODEL 1
REMARK VINA RESULT:     0.387      0.000      0.000
REMARK INTER + INTRA:           1.482
REMARK INTER:                   0.477
REMARK INTRA:                   1.004
REMARK UNBOUND:                 1.004
REMARK SMILES C=C1[C@H]2CC[C@@H]3[C@H]2C(C)(C)CCC[C@]13C
REMARK SMILES IDX 14 1 6 2 7 3 3 4 2 5 1 6 4 7 5 8 15 9 8 10 9 11 10 12 11 13
REMARK SMILES IDX 13 15 12 16
REMARK H PARENT
REMARK Flexibility Score: 80.00
ROOT
ATOM      1  C   UNL     1       6.582   5.749  12.796  1.00  0.00    -0.008 C 
ATOM      2  C   UNL     1       6.699   7.272  12.402  1.00  0.00     0.003 C 
ATOM      3  C   UNL     1       6.004   8.029  13.556  1.00  0.00     0.006 C 
ATOM      4  C   UNL     1       6.819   7.340  14.642  1.00  0.00     0.019 C 
ATOM      5  C   UNL     1       6.625   5.890  14.301  1.00  0.00    -0.068 C 
ATOM      6  C   UNL     1       6.604   4.893  15.195  1.00  0.00     0.009 C 
ATOM      7  C   UNL     1       8.255   7.711  14.204  1.00  0.00     0.008 C 
ATOM      8  C   UNL     1       8.150   7.764  12.660  1.00  0.00     0.005 C 
ATOM      9  C   UNL     1       7.771   4.876  12.312  1.00  0.00     0.016 C 
ENDROOT
BRANCH   3  10
ATOM     10  C   UNL     1       4.432   8.040  13.679  1.00  0.00    -0.032 C 
ATOM     11  C   UNL     1       3.868   9.034  12.629  1.00  0.00     0.011 C 
ATOM     12  C   UNL     1       4.043   8.597  15.070  1.00  0.00     0.011 C 
BRANCH  10  13
ATOM     13  C   UNL     1       3.735   6.660  13.529  1.00  0.00     0.007 CG0
ATOM     14  G   UNL     1       4.015   5.948  12.205  1.00  0.00     0.000 G0
ENDBRANCH  10  13
ENDBRANCH   3  10
BRANCH   1  15
ATOM     15  C   UNL     1       5.278   5.067  12.286  1.00  0.00     0.011 C 
BRANCH  15  16
ATOM     16  C   UNL     1       4.022   5.932  12.217  1.00  0.00     0.001 CG0
ATOM     17  G   UNL     1       3.733   6.671  13.525  1.00  0.00     0.000 G0
ENDBRANCH  15  16
ENDBRANCH   1  15
TORSDOF 0
ENDMDL
MODEL 2
REMARK VINA RESULT:     0.702      1.660      3.363
REMARK INTER + INTRA:           1.870
REMARK INTER:                   0.888
REMARK INTRA:                   0.982
REMARK UNBOUND:                 1.004
REMARK SMILES C=C1[C@H]2CC[C@@H]3[C@H]2C(C)(C)CCC[C@]13C
REMARK SMILES IDX 14 1 6 2 7 3 3 4 2 5 1 6 4 7 5 8 15 9 8 10 9 11 10 12 11 13
REMARK SMILES IDX 13 15 12 16
REMARK H PARENT
REMARK Flexibility Score: 80.00
ROOT
ATOM      1  C   UNL     1       6.519   6.202  13.211  1.00  0.00    -0.008 C 
ATOM      2  C   UNL     1       5.061   5.976  13.771  1.00  0.00     0.003 C 
ATOM      3  C   UNL     1       4.256   7.193  13.264  1.00  0.00     0.006 C 
ATOM      4  C   UNL     1       4.676   7.003  11.812  1.00  0.00     0.019 C 
ATOM      5  C   UNL     1       6.171   6.929  11.932  1.00  0.00    -0.068 C 
ATOM      6  C   UNL     1       7.032   7.348  10.996  1.00  0.00     0.009 C 
ATOM      7  C   UNL     1       4.179   5.561  11.555  1.00  0.00     0.008 C 
ATOM      8  C   UNL     1       4.350   4.877  12.934  1.00  0.00     0.005 C 
ATOM      9  C   UNL     1       7.283   4.890  12.884  1.00  0.00     0.016 C 
ENDROOT
BRANCH   3  10
ATOM     10  C   UNL     1       4.438   8.611  13.926  1.00  0.00    -0.032 C 
ATOM     11  C   UNL     1       3.659   8.626  15.269  1.00  0.00     0.011 C 
ATOM     12  C   UNL     1       3.776   9.677  13.019  1.00  0.00     0.011 C 
BRANCH  10  13
ATOM     13  C   UNL     1       5.906   9.061  14.162  1.00  0.00     0.007 CG0
ATOM     14  G   UNL     1       6.741   8.091  14.999  1.00  0.00     0.000 G0
ENDBRANCH  10  13
ENDBRANCH   3  10
BRANCH   1  15
ATOM     15  C   UNL     1       7.432   7.037  14.157  1.00  0.00     0.011 C 
BRANCH  15  16
ATOM     16  C   UNL     1       6.757   8.115  15.002  1.00  0.00     0.001 CG0
ATOM     17  G   UNL     1       5.902   9.076  14.173  1.00  0.00     0.000 G0
ENDBRANCH  15  16
ENDBRANCH   1  15
TORSDOF 0
ENDMDL
MODEL 3
REMARK VINA RESULT:     2.384      1.575      4.121
REMARK INTER + INTRA:           3.946
REMARK INTER:                   2.941
REMARK INTRA:                   1.004
REMARK UNBOUND:                 1.004
REMARK SMILES C=C1[C@H]2CC[C@@H]3[C@H]2C(C)(C)CCC[C@]13C
REMARK SMILES IDX 14 1 6 2 7 3 3 4 2 5 1 6 4 7 5 8 15 9 8 10 9 11 10 12 11 13
REMARK SMILES IDX 13 15 12 16
REMARK H PARENT
REMARK Flexibility Score: 80.00
ROOT
ATOM      1  C   UNL     1       4.432   8.546  13.499  1.00  0.00    -0.008 C 
ATOM      2  C   UNL     1       5.397   8.567  12.251  1.00  0.00     0.003 C 
ATOM      3  C   UNL     1       5.815   7.092  12.056  1.00  0.00     0.006 C 
ATOM      4  C   UNL     1       4.382   6.575  12.046  1.00  0.00     0.019 C 
ATOM      5  C   UNL     1       3.832   7.171  13.310  1.00  0.00    -0.068 C 
ATOM      6  C   UNL     1       2.886   6.604  14.071  1.00  0.00     0.009 C 
ATOM      7  C   UNL     1       3.788   7.392  10.875  1.00  0.00     0.008 C 
ATOM      8  C   UNL     1       4.561   8.733  10.952  1.00  0.00     0.005 C 
ATOM      9  C   UNL     1       3.314   9.622  13.454  1.00  0.00     0.016 C 
ENDROOT
BRANCH   3  10
ATOM     10  C   UNL     1       6.859   6.417  13.024  1.00  0.00    -0.032 C 
ATOM     11  C   UNL     1       8.278   6.910  12.632  1.00  0.00     0.011 C 
ATOM     12  C   UNL     1       6.842   4.886  12.791  1.00  0.00     0.011 C 
BRANCH  10  13
ATOM     13  C   UNL     1       6.619   6.650  14.541  1.00  0.00     0.007 CG0
ATOM     14  G   UNL     1       6.554   8.121  14.956  1.00  0.00     0.000 G0
ENDBRANCH  10  13
ENDBRANCH   3  10
BRANCH   1  15
ATOM     15  C   UNL     1       5.166   8.708  14.863  1.00  0.00     0.011 C 
BRANCH  15  16
ATOM     16  C   UNL     1       6.565   8.106  14.975  1.00  0.00     0.001 CG0
ATOM     17  G   UNL     1       6.620   6.638  14.553  1.00  0.00     0.000 G0
ENDBRANCH  15  16
ENDBRANCH   1  15
TORSDOF 0
ENDMDL
MODEL 4
REMARK VINA RESULT:     2.625      2.422      5.129
REMARK INTER + INTRA:           4.244
REMARK INTER:                   3.290
REMARK INTRA:                   0.953
REMARK UNBOUND:                 1.004
REMARK SMILES C=C1[C@H]2CC[C@@H]3[C@H]2C(C)(C)CCC[C@]13C
REMARK SMILES IDX 14 1 6 2 7 3 3 4 2 5 1 6 4 7 5 8 15 9 8 10 9 11 10 12 11 13
REMARK SMILES IDX 13 15 12 16
REMARK H PARENT
REMARK Flexibility Score: 80.00
ROOT
ATOM      1  C   UNL     1       2.954  10.465  11.954  1.00  0.00    -0.008 C 
ATOM      2  C   UNL     1       2.205   9.295  12.702  1.00  0.00     0.003 C 
ATOM      3  C   UNL     1       3.118   8.950  13.900  1.00  0.00     0.006 C 
ATOM      4  C   UNL     1       3.202  10.390  14.388  1.00  0.00     0.019 C 
ATOM      5  C   UNL     1       3.626  11.114  13.142  1.00  0.00    -0.068 C 
ATOM      6  C   UNL     1       4.387  12.216  13.122  1.00  0.00     0.009 C 
ATOM      7  C   UNL     1       1.705  10.711  14.601  1.00  0.00     0.008 C 
ATOM      8  C   UNL     1       1.005   9.875  13.500  1.00  0.00     0.005 C 
ATOM      9  C   UNL     1       2.007  11.482  11.260  1.00  0.00     0.016 C 
ENDROOT
BRANCH   3  10
ATOM     10  C   UNL     1       4.455   8.142  13.685  1.00  0.00    -0.032 C 
ATOM     11  C   UNL     1       4.095   6.641  13.517  1.00  0.00     0.011 C 
ATOM     12  C   UNL     1       5.316   8.250  14.968  1.00  0.00     0.011 C 
BRANCH  10  13
ATOM     13  C   UNL     1       5.342   8.609  12.499  1.00  0.00     0.007 CG0
ATOM     14  G   UNL     1       4.632   8.630  11.145  1.00  0.00     0.000 G0
ENDBRANCH  10  13
ENDBRANCH   3  10
BRANCH   1  15
ATOM     15  C   UNL     1       3.965   9.974  10.875  1.00  0.00     0.011 C 
BRANCH  15  16
ATOM     16  C   UNL     1       4.667   8.644  11.135  1.00  0.00     0.001 CG0
ATOM     17  G   UNL     1       5.322   8.573  12.516  1.00  0.00     0.000 G0
ENDBRANCH  15  16
ENDBRANCH   1  15
TORSDOF 0
ENDMDL
MODEL 5
REMARK VINA RESULT:     2.769      1.486      2.169
REMARK INTER + INTRA:           4.421
REMARK INTER:                   3.380
REMARK INTRA:                   1.041
REMARK UNBOUND:                 1.004
REMARK SMILES C=C1[C@H]2CC[C@@H]3[C@H]2C(C)(C)CCC[C@]13C
REMARK SMILES IDX 14 1 6 2 7 3 3 4 2 5 1 6 4 7 5 8 15 9 8 10 9 11 10 12 11 13
REMARK SMILES IDX 13 15 12 16
REMARK H PARENT
REMARK Flexibility Score: 80.00
ROOT
ATOM      1  C   UNL     1       6.072   7.188  12.010  1.00  0.00    -0.008 C 
ATOM      2  C   UNL     1       6.485   8.188  13.159  1.00  0.00     0.003 C 
ATOM      3  C   UNL     1       5.315   8.129  14.166  1.00  0.00     0.006 C 
ATOM      4  C   UNL     1       5.344   6.610  14.276  1.00  0.00     0.019 C 
ATOM      5  C   UNL     1       5.281   6.196  12.833  1.00  0.00    -0.068 C 
ATOM      6  C   UNL     1       4.705   5.073  12.387  1.00  0.00     0.009 C 
ATOM      7  C   UNL     1       6.802   6.382  14.740  1.00  0.00     0.008 C 
ATOM      8  C   UNL     1       7.576   7.533  14.050  1.00  0.00     0.005 C 
ATOM      9  C   UNL     1       7.273   6.474  11.331  1.00  0.00     0.016 C 
ENDROOT
BRANCH   3  10
ATOM     10  C   UNL     1       3.945   8.841  13.850  1.00  0.00    -0.032 C 
ATOM     11  C   UNL     1       4.129  10.369  14.056  1.00  0.00     0.011 C 
ATOM     12  C   UNL     1       2.890   8.379  14.886  1.00  0.00     0.011 C 
BRANCH  10  13
ATOM     13  C   UNL     1       3.352   8.566  12.442  1.00  0.00     0.007 CG0
ATOM     14  G   UNL     1       4.258   8.973  11.280  1.00  0.00     0.000 G0
ENDBRANCH  10  13
ENDBRANCH   3  10
BRANCH   1  15
ATOM     15  C   UNL     1       5.232   7.846  10.876  1.00  0.00     0.011 C 
BRANCH  15  16
ATOM     16  C   UNL     1       4.277   8.967  11.280  1.00  0.00     0.001 CG0
ATOM     17  G   UNL     1       3.366   8.585  12.447  1.00  0.00     0.000 G0
ENDBRANCH  15  16
ENDBRANCH   1  15
TORSDOF 0
ENDMDL
MODEL 6
REMARK VINA RESULT:     2.938      1.966      3.320
REMARK INTER + INTRA:           4.630
REMARK INTER:                   3.596
REMARK INTRA:                   1.034
REMARK UNBOUND:                 1.004
REMARK SMILES C=C1[C@H]2CC[C@@H]3[C@H]2C(C)(C)CCC[C@]13C
REMARK SMILES IDX 14 1 6 2 7 3 3 4 2 5 1 6 4 7 5 8 15 9 8 10 9 11 10 12 11 13
REMARK SMILES IDX 13 15 12 16
REMARK H PARENT
REMARK Flexibility Score: 80.00
ROOT
ATOM      1  C   UNL     1       5.263   7.729  13.055  1.00  0.00    -0.008 C 
ATOM      2  C   UNL     1       5.302   9.099  13.836  1.00  0.00     0.003 C 
ATOM      3  C   UNL     1       3.830   9.568  13.877  1.00  0.00     0.006 C 
ATOM      4  C   UNL     1       3.315   8.251  14.444  1.00  0.00     0.019 C 
ATOM      5  C   UNL     1       3.892   7.254  13.479  1.00  0.00    -0.068 C 
ATOM      6  C   UNL     1       3.314   6.092  13.148  1.00  0.00     0.009 C 
ATOM      7  C   UNL     1       4.150   8.148  15.741  1.00  0.00     0.008 C 
ATOM      8  C   UNL     1       5.488   8.825  15.354  1.00  0.00     0.005 C 
ATOM      9  C   UNL     1       6.341   6.709  13.510  1.00  0.00     0.016 C 
ENDROOT
BRANCH   3  10
ATOM     10  C   UNL     1       3.140  10.163  12.592  1.00  0.00    -0.032 C 
ATOM     11  C   UNL     1       3.659  11.612  12.385  1.00  0.00     0.011 C 
ATOM     12  C   UNL     1       1.616  10.271  12.847  1.00  0.00     0.011 C 
BRANCH  10  13
ATOM     13  C   UNL     1       3.327   9.344  11.286  1.00  0.00     0.007 CG0
ATOM     14  G   UNL     1       4.784   9.116  10.881  1.00  0.00     0.000 G0
ENDBRANCH  10  13
ENDBRANCH   3  10
BRANCH   1  15
ATOM     15  C   UNL     1       5.404   7.882  11.511  1.00  0.00     0.011 C 
BRANCH  15  16
ATOM     16  C   UNL     1       4.771   9.118  10.875  1.00  0.00     0.001 CG0
ATOM     17  G   UNL     1       3.322   9.339  11.310  1.00  0.00     0.000 G0
ENDBRANCH  15  16
ENDBRANCH   1  15
TORSDOF 0
ENDMDL
