MODEL 1
REMARK VINA RESULT:    -5.084      0.000      0.000
REMARK INTER + INTRA:          -5.843
REMARK INTER:                  -5.678
REMARK INTRA:                  -0.165
REMARK UNBOUND:                -0.165
REMARK SMILES O=C([O-])c1ccccc1C(=O)[O-]
REMARK SMILES IDX 4 1 9 2 5 3 8 4 6 5 7 6 2 7 1 8 3 9 10 10 11 11 12 12
REMARK H PARENT
REMARK Flexibility Score: inf
ROOT
ATOM      1  C   UNL     1      14.146 -29.543  22.871  1.00  0.00     0.006 A 
ATOM      2  C   UNL     1      13.202 -30.437  22.297  1.00  0.00     0.006 A 
ATOM      3  C   UNL     1      13.683 -28.450  23.628  1.00  0.00     0.010 A 
ATOM      4  C   UNL     1      11.828 -30.170  22.448  1.00  0.00     0.010 A 
ATOM      5  C   UNL     1      12.315 -28.217  23.783  1.00  0.00     0.001 A 
ATOM      6  C   UNL     1      11.390 -29.069  23.183  1.00  0.00     0.001 A 
ENDROOT
BRANCH   1   7
ATOM      7  C   UNL     1      15.605 -29.669  22.644  1.00  0.00     0.072 C 
ATOM      8  O   UNL     1      16.145 -29.094  21.662  1.00  0.00    -0.545 OA
ATOM      9  O   UNL     1      16.383 -30.471  23.469  1.00  0.00    -0.545 OA
ENDBRANCH   1   7
BRANCH   2  10
ATOM     10  C   UNL     1      13.601 -31.685  21.607  1.00  0.00     0.072 C 
ATOM     11  O   UNL     1      13.340 -31.845  20.384  1.00  0.00    -0.545 OA
ATOM     12  O   UNL     1      14.206 -32.720  22.308  1.00  0.00    -0.545 OA
ENDBRANCH   2  10
TORSDOF 2
ENDMDL
MODEL 2
REMARK VINA RESULT:    -5.063      0.105      2.861
REMARK INTER + INTRA:          -5.820
REMARK INTER:                  -5.637
REMARK INTRA:                  -0.183
REMARK UNBOUND:                -0.165
REMARK SMILES O=C([O-])c1ccccc1C(=O)[O-]
REMARK SMILES IDX 4 1 9 2 5 3 8 4 6 5 7 6 2 7 1 8 3 9 10 10 11 11 12 12
REMARK H PARENT
REMARK Flexibility Score: inf
ROOT
ATOM      1  C   UNL     1      13.254 -30.487  22.353  1.00  0.00     0.006 A 
ATOM      2  C   UNL     1      14.182 -29.550  22.884  1.00  0.00     0.006 A 
ATOM      3  C   UNL     1      11.875 -30.242  22.495  1.00  0.00     0.010 A 
ATOM      4  C   UNL     1      13.697 -28.434  23.593  1.00  0.00     0.010 A 
ATOM      5  C   UNL     1      11.417 -29.116  23.183  1.00  0.00     0.001 A 
ATOM      6  C   UNL     1      12.327 -28.221  23.741  1.00  0.00     0.001 A 
ENDROOT
BRANCH   1   7
ATOM      7  C   UNL     1      13.677 -31.757  21.718  1.00  0.00     0.072 C 
ATOM      8  O   UNL     1      13.453 -31.959  20.495  1.00  0.00    -0.545 OA
ATOM      9  O   UNL     1      14.263 -32.766  22.473  1.00  0.00    -0.545 OA
ENDBRANCH   1   7
BRANCH   2  10
ATOM     10  C   UNL     1      15.642 -29.657  22.659  1.00  0.00     0.072 C 
ATOM     11  O   UNL     1      16.169 -29.117  21.649  1.00  0.00    -0.545 OA
ATOM     12  O   UNL     1      16.439 -30.403  23.518  1.00  0.00    -0.545 OA
ENDBRANCH   2  10
TORSDOF 2
ENDMDL
MODEL 3
REMARK VINA RESULT:    -4.765      2.401      3.789
REMARK INTER + INTRA:          -5.487
REMARK INTER:                  -5.277
REMARK INTRA:                  -0.210
REMARK UNBOUND:                -0.165
REMARK SMILES O=C([O-])c1ccccc1C(=O)[O-]
REMARK SMILES IDX 4 1 9 2 5 3 8 4 6 5 7 6 2 7 1 8 3 9 10 10 11 11 12 12
REMARK H PARENT
REMARK Flexibility Score: inf
ROOT
ATOM      1  C   UNL     1      14.577 -32.527  21.642  1.00  0.00     0.006 A 
ATOM      2  C   UNL     1      14.660 -32.233  23.030  1.00  0.00     0.006 A 
ATOM      3  C   UNL     1      13.576 -31.908  20.868  1.00  0.00     0.010 A 
ATOM      4  C   UNL     1      13.700 -31.379  23.607  1.00  0.00     0.010 A 
ATOM      5  C   UNL     1      12.649 -31.047  21.458  1.00  0.00     0.001 A 
ATOM      6  C   UNL     1      12.704 -30.793  22.827  1.00  0.00     0.001 A 
ENDROOT
BRANCH   1   7
ATOM      7  C   UNL     1      15.456 -33.520  20.982  1.00  0.00     0.072 C 
ATOM      8  O   UNL     1      15.056 -34.702  20.807  1.00  0.00    -0.545 OA
ATOM      9  O   UNL     1      16.750 -33.183  20.608  1.00  0.00    -0.545 OA
ENDBRANCH   1   7
BRANCH   2  10
ATOM     10  C   UNL     1      15.762 -32.728  23.886  1.00  0.00     0.072 C 
ATOM     11  O   UNL     1      16.807 -32.039  24.036  1.00  0.00    -0.545 OA
ATOM     12  O   UNL     1      15.688 -33.981  24.482  1.00  0.00    -0.545 OA
ENDBRANCH   2  10
TORSDOF 2
ENDMDL
MODEL 4
REMARK VINA RESULT:    -4.758      2.395      3.091
REMARK INTER + INTRA:          -5.479
REMARK INTER:                  -5.261
REMARK INTRA:                  -0.218
REMARK UNBOUND:                -0.165
REMARK SMILES O=C([O-])c1ccccc1C(=O)[O-]
REMARK SMILES IDX 4 1 9 2 5 3 8 4 6 5 7 6 2 7 1 8 3 9 10 10 11 11 12 12
REMARK H PARENT
REMARK Flexibility Score: inf
ROOT
ATOM      1  C   UNL     1      14.686 -32.203  23.046  1.00  0.00     0.006 A 
ATOM      2  C   UNL     1      14.603 -32.530  21.666  1.00  0.00     0.006 A 
ATOM      3  C   UNL     1      13.718 -31.349  23.608  1.00  0.00     0.010 A 
ATOM      4  C   UNL     1      13.592 -31.941  20.882  1.00  0.00     0.010 A 
ATOM      5  C   UNL     1      12.711 -30.794  22.816  1.00  0.00     0.001 A 
ATOM      6  C   UNL     1      12.657 -31.080  21.454  1.00  0.00     0.001 A 
ENDROOT
BRANCH   1   7
ATOM      7  C   UNL     1      15.797 -32.665  23.911  1.00  0.00     0.072 C 
ATOM      8  O   UNL     1      16.834 -31.963  24.039  1.00  0.00    -0.545 OA
ATOM      9  O   UNL     1      15.739 -33.904  24.538  1.00  0.00    -0.545 OA
ENDBRANCH   1   7
BRANCH   2  10
ATOM     10  C   UNL     1      15.492 -33.527  21.026  1.00  0.00     0.072 C 
ATOM     11  O   UNL     1      15.119 -34.726  20.906  1.00  0.00    -0.545 OA
ATOM     12  O   UNL     1      16.770 -33.175  20.610  1.00  0.00    -0.545 OA
ENDBRANCH   2  10
TORSDOF 2
ENDMDL
MODEL 5
REMARK VINA RESULT:    -4.739      1.152      3.263
REMARK INTER + INTRA:          -5.458
REMARK INTER:                  -5.283
REMARK INTRA:                  -0.175
REMARK UNBOUND:                -0.165
REMARK SMILES O=C([O-])c1ccccc1C(=O)[O-]
REMARK SMILES IDX 4 1 9 2 5 3 8 4 6 5 7 6 2 7 1 8 3 9 10 10 11 11 12 12
REMARK H PARENT
REMARK Flexibility Score: inf
ROOT
ATOM      1  C   UNL     1      14.095 -31.352  22.371  1.00  0.00     0.006 A 
ATOM      2  C   UNL     1      15.065 -30.377  22.730  1.00  0.00     0.006 A 
ATOM      3  C   UNL     1      12.730 -31.016  22.432  1.00  0.00     0.010 A 
ATOM      4  C   UNL     1      14.631 -29.121  23.198  1.00  0.00     0.010 A 
ATOM      5  C   UNL     1      12.324 -29.757  22.878  1.00  0.00     0.001 A 
ATOM      6  C   UNL     1      13.273 -28.817  23.272  1.00  0.00     0.001 A 
ENDROOT
BRANCH   1   7
ATOM      7  C   UNL     1      14.458 -32.741  22.003  1.00  0.00     0.072 C 
ATOM      8  O   UNL     1      14.284 -33.150  20.825  1.00  0.00    -0.545 OA
ATOM      9  O   UNL     1      14.930 -33.627  22.963  1.00  0.00    -0.545 OA
ENDBRANCH   1   7
BRANCH   2  10
ATOM     10  C   UNL     1      16.520 -30.597  22.563  1.00  0.00     0.072 C 
ATOM     11  O   UNL     1      17.263 -30.717  23.574  1.00  0.00    -0.545 OA
ATOM     12  O   UNL     1      17.094 -30.610  21.298  1.00  0.00    -0.545 OA
ENDBRANCH   2  10
TORSDOF 2
ENDMDL
MODEL 6
REMARK VINA RESULT:    -4.709      9.204     10.663
REMARK INTER + INTRA:          -5.424
REMARK INTER:                  -5.206
REMARK INTRA:                  -0.219
REMARK UNBOUND:                -0.165
REMARK SMILES O=C([O-])c1ccccc1C(=O)[O-]
REMARK SMILES IDX 4 1 9 2 5 3 8 4 6 5 7 6 2 7 1 8 3 9 10 10 11 11 12 12
REMARK H PARENT
REMARK Flexibility Score: inf
ROOT
ATOM      1  C   UNL     1      22.537 -24.269  21.878  1.00  0.00     0.006 A 
ATOM      2  C   UNL     1      22.646 -24.978  20.651  1.00  0.00     0.006 A 
ATOM      3  C   UNL     1      23.349 -23.139  22.091  1.00  0.00     0.010 A 
ATOM      4  C   UNL     1      23.607 -24.568  19.707  1.00  0.00     0.010 A 
ATOM      5  C   UNL     1      24.281 -22.738  21.132  1.00  0.00     0.001 A 
ATOM      6  C   UNL     1      24.417 -23.459  19.948  1.00  0.00     0.001 A 
ENDROOT
BRANCH   1   7
ATOM      7  C   UNL     1      21.654 -24.713  22.982  1.00  0.00     0.072 C 
ATOM      8  O   UNL     1      22.097 -25.479  23.878  1.00  0.00    -0.545 OA
ATOM      9  O   UNL     1      20.314 -24.348  23.007  1.00  0.00    -0.545 OA
ENDBRANCH   1   7
BRANCH   2  10
ATOM     10  C   UNL     1      21.736 -26.088  20.287  1.00  0.00     0.072 C 
ATOM     11  O   UNL     1      20.586 -25.843  19.835  1.00  0.00    -0.545 OA
ATOM     12  O   UNL     1      22.110 -27.409  20.498  1.00  0.00    -0.545 OA
ENDBRANCH   2  10
TORSDOF 2
ENDMDL
MODEL 7
REMARK VINA RESULT:    -4.701      1.917      2.665
REMARK INTER + INTRA:          -5.415
REMARK INTER:                  -5.190
REMARK INTRA:                  -0.226
REMARK UNBOUND:                -0.165
REMARK SMILES O=C([O-])c1ccccc1C(=O)[O-]
REMARK SMILES IDX 4 1 9 2 5 3 8 4 6 5 7 6 2 7 1 8 3 9 10 10 11 11 12 12
REMARK H PARENT
REMARK Flexibility Score: inf
ROOT
ATOM      1  C   UNL     1      15.712 -30.810  22.846  1.00  0.00     0.006 A 
ATOM      2  C   UNL     1      14.782 -31.806  23.252  1.00  0.00     0.006 A 
ATOM      3  C   UNL     1      15.312 -29.461  22.839  1.00  0.00     0.010 A 
ATOM      4  C   UNL     1      13.466 -31.421  23.576  1.00  0.00     0.010 A 
ATOM      5  C   UNL     1      14.008 -29.101  23.185  1.00  0.00     0.001 A 
ATOM      6  C   UNL     1      13.084 -30.081  23.541  1.00  0.00     0.001 A 
ENDROOT
BRANCH   1   7
ATOM      7  C   UNL     1      17.070 -31.140  22.355  1.00  0.00     0.072 C 
ATOM      8  O   UNL     1      18.066 -31.013  23.115  1.00  0.00    -0.545 OA
ATOM      9  O   UNL     1      17.272 -31.527  21.036  1.00  0.00    -0.545 OA
ENDBRANCH   1   7
BRANCH   2  10
ATOM     10  C   UNL     1      15.158 -33.228  23.423  1.00  0.00     0.072 C 
ATOM     11  O   UNL     1      15.583 -33.642  24.535  1.00  0.00    -0.545 OA
ATOM     12  O   UNL     1      15.109 -34.108  22.350  1.00  0.00    -0.545 OA
ENDBRANCH   2  10
TORSDOF 2
ENDMDL
MODEL 8
REMARK VINA RESULT:    -4.671      2.462      4.257
REMARK INTER + INTRA:          -5.382
REMARK INTER:                  -5.156
REMARK INTRA:                  -0.226
REMARK UNBOUND:                -0.165
REMARK SMILES O=C([O-])c1ccccc1C(=O)[O-]
REMARK SMILES IDX 4 1 9 2 5 3 8 4 6 5 7 6 2 7 1 8 3 9 10 10 11 11 12 12
REMARK H PARENT
REMARK Flexibility Score: inf
ROOT
ATOM      1  C   UNL     1      15.715 -32.063  21.648  1.00  0.00     0.006 A 
ATOM      2  C   UNL     1      14.976 -30.999  22.233  1.00  0.00     0.006 A 
ATOM      3  C   UNL     1      17.042 -31.832  21.239  1.00  0.00     0.010 A 
ATOM      4  C   UNL     1      15.570 -29.726  22.331  1.00  0.00     0.010 A 
ATOM      5  C   UNL     1      17.618 -30.567  21.366  1.00  0.00     0.001 A 
ATOM      6  C   UNL     1      16.879 -29.513  21.899  1.00  0.00     0.001 A 
ENDROOT
BRANCH   1   7
ATOM      7  C   UNL     1      15.121 -33.393  21.379  1.00  0.00     0.072 C 
ATOM      8  O   UNL     1      15.340 -34.355  22.163  1.00  0.00    -0.545 OA
ATOM      9  O   UNL     1      14.374 -33.616  20.229  1.00  0.00    -0.545 OA
ENDBRANCH   1   7
BRANCH   2  10
ATOM     10  C   UNL     1      13.628 -31.188  22.817  1.00  0.00     0.072 C 
ATOM     11  O   UNL     1      13.502 -31.603  24.001  1.00  0.00    -0.545 OA
ATOM     12  O   UNL     1      12.488 -30.976  22.053  1.00  0.00    -0.545 OA
ENDBRANCH   2  10
TORSDOF 2
ENDMDL
MODEL 9
REMARK VINA RESULT:    -4.664      2.468      3.954
REMARK INTER + INTRA:          -5.375
REMARK INTER:                  -5.149
REMARK INTRA:                  -0.226
REMARK UNBOUND:                -0.165
REMARK SMILES O=C([O-])c1ccccc1C(=O)[O-]
REMARK SMILES IDX 4 1 9 2 5 3 8 4 6 5 7 6 2 7 1 8 3 9 10 10 11 11 12 12
REMARK H PARENT
REMARK Flexibility Score: inf
ROOT
ATOM      1  C   UNL     1      14.974 -31.004  22.237  1.00  0.00     0.006 A 
ATOM      2  C   UNL     1      15.728 -32.055  21.648  1.00  0.00     0.006 A 
ATOM      3  C   UNL     1      15.551 -29.725  22.348  1.00  0.00     0.010 A 
ATOM      4  C   UNL     1      17.055 -31.805  21.248  1.00  0.00     0.010 A 
ATOM      5  C   UNL     1      16.861 -29.494  21.924  1.00  0.00     0.001 A 
ATOM      6  C   UNL     1      17.615 -30.535  21.387  1.00  0.00     0.001 A 
ENDROOT
BRANCH   1   7
ATOM      7  C   UNL     1      13.625 -31.215  22.812  1.00  0.00     0.072 C 
ATOM      8  O   UNL     1      13.498 -31.649  23.988  1.00  0.00    -0.545 OA
ATOM      9  O   UNL     1      12.487 -31.001  22.045  1.00  0.00    -0.545 OA
ENDBRANCH   1   7
BRANCH   2  10
ATOM     10  C   UNL     1      15.153 -33.390  21.366  1.00  0.00     0.072 C 
ATOM     11  O   UNL     1      15.380 -34.356  22.144  1.00  0.00    -0.545 OA
ATOM     12  O   UNL     1      14.412 -33.614  20.213  1.00  0.00    -0.545 OA
ENDBRANCH   2  10
TORSDOF 2
ENDMDL
