MODEL 1
REMARK VINA RESULT:    -4.103      0.000      0.000
REMARK INTER + INTRA:          -5.071
REMARK INTER:                  -5.782
REMARK INTRA:                   0.711
REMARK UNBOUND:                 0.711
REMARK SMILES CC1=CCCC(C)=CCC(C)(C)C=CC1
REMARK SMILES IDX 2 1 3 2 1 3 4 4 5 5 6 6 7 7 8 8 15 10 14 11 13 12 10 13
REMARK SMILES IDX 11 14 12 15 9 16
REMARK H PARENT
REMARK Flexibility Score: 60.00
ROOT
ATOM      1  C   UNL     1      -0.959  14.019   4.745  1.00  0.00    -0.074 C 
ATOM      2  C   UNL     1      -1.670  14.499   3.691  1.00  0.00    -0.027 C 
ATOM      3  C   UNL     1      -1.273  14.591   6.106  1.00  0.00     0.039 C 
ENDROOT
BRANCH   2   4
ATOM      4  C   UNL     1      -1.528  14.109   2.234  1.00  0.00     0.032 C 
BRANCH   4   5
ATOM      5  C   UNL     1      -0.391  14.906   1.555  1.00  0.00     0.034 C 
BRANCH   5   6
ATOM      6  C   UNL     1       0.665  14.000   0.941  1.00  0.00    -0.077 C 
ATOM      7  C   UNL     1       0.388  13.347  -0.389  1.00  0.00     0.039 C 
ATOM      8  C   UNL     1       1.864  13.776   1.527  1.00  0.00    -0.027 CG0
ATOM      9  G   UNL     1       2.293  14.362   2.857  1.00  0.00     0.000 G0
ENDBRANCH   5   6
ENDBRANCH   4   5
ENDBRANCH   2   4
BRANCH   1  10
ATOM     10  C   UNL     1       0.068  12.900   4.664  1.00  0.00     0.057 C 
BRANCH  10  11
ATOM     11  C   UNL     1       1.273  13.155   5.543  1.00  0.00    -0.026 C 
ATOM     12  C   UNL     1       2.562  13.342   5.166  1.00  0.00    -0.024 C 
BRANCH  12  13
ATOM     13  C   UNL     1       3.147  13.393   3.748  1.00  0.00    -0.014 C 
ATOM     14  C   UNL     1       3.281  11.962   3.155  1.00  0.00     0.016 C 
ATOM     15  C   UNL     1       4.577  13.978   3.853  1.00  0.00     0.016 C 
BRANCH  13  16
ATOM     16  C   UNL     1       2.292  14.356   2.865  1.00  0.00     0.038 CG0
ATOM     17  G   UNL     1       1.862  13.762   1.540  1.00  0.00     0.000 G0
ENDBRANCH  13  16
ENDBRANCH  12  13
ENDBRANCH  10  11
ENDBRANCH   1  10
TORSDOF 0
ENDMDL
MODEL 2
REMARK VINA RESULT:    -4.062      0.936      3.829
REMARK INTER + INTRA:          -5.014
REMARK INTER:                  -5.963
REMARK INTRA:                   0.949
REMARK UNBOUND:                 0.711
REMARK SMILES CC1=CCCC(C)=CCC(C)(C)C=CC1
REMARK SMILES IDX 2 1 3 2 1 3 4 4 5 5 6 6 7 7 8 8 15 10 14 11 13 12 10 13
REMARK SMILES IDX 11 14 12 15 9 16
REMARK H PARENT
REMARK Flexibility Score: 60.00
ROOT
ATOM      1  C   UNL     1       0.079  13.341   5.367  1.00  0.00    -0.074 C 
ATOM      2  C   UNL     1       1.200  12.920   6.009  1.00  0.00    -0.027 C 
ATOM      3  C   UNL     1      -1.219  12.657   5.724  1.00  0.00     0.039 C 
ENDROOT
BRANCH   2   4
ATOM      4  C   UNL     1       2.615  13.426   5.812  1.00  0.00     0.032 C 
BRANCH   4   5
ATOM      5  C   UNL     1       3.226  12.866   4.508  1.00  0.00     0.034 C 
BRANCH   5   6
ATOM      6  C   UNL     1       3.552  13.962   3.504  1.00  0.00    -0.077 C 
ATOM      7  C   UNL     1       4.753  14.841   3.742  1.00  0.00     0.039 C 
ATOM      8  C   UNL     1       2.822  14.163   2.382  1.00  0.00    -0.027 CG0
ATOM      9  G   UNL     1       1.595  13.362   2.000  1.00  0.00     0.000 G0
ENDBRANCH   5   6
ENDBRANCH   4   5
ENDBRANCH   2   4
BRANCH   1  10
ATOM     10  C   UNL     1       0.024  14.496   4.378  1.00  0.00     0.057 C 
BRANCH  10  11
ATOM     11  C   UNL     1      -1.007  14.279   3.292  1.00  0.00    -0.026 C 
ATOM     12  C   UNL     1      -0.807  14.160   1.957  1.00  0.00    -0.024 C 
BRANCH  12  13
ATOM     13  C   UNL     1       0.520  14.165   1.183  1.00  0.00    -0.014 C 
ATOM     14  C   UNL     1       0.957  15.619   0.848  1.00  0.00     0.016 C 
ATOM     15  C   UNL     1       0.277  13.441  -0.165  1.00  0.00     0.016 C 
BRANCH  13  16
ATOM     16  C   UNL     1       1.592  13.359   1.982  1.00  0.00     0.038 CG0
ATOM     17  G   UNL     1       2.810  14.171   2.372  1.00  0.00     0.000 G0
ENDBRANCH  13  16
ENDBRANCH  12  13
ENDBRANCH  10  11
ENDBRANCH   1  10
TORSDOF 0
ENDMDL
MODEL 3
REMARK VINA RESULT:    -3.822      1.843      4.975
REMARK INTER + INTRA:          -4.675
REMARK INTER:                  -5.369
REMARK INTRA:                   0.693
REMARK UNBOUND:                 0.711
REMARK SMILES CC1=CCCC(C)=CCC(C)(C)C=CC1
REMARK SMILES IDX 2 1 3 2 1 3 4 4 5 5 6 6 7 7 8 8 15 10 14 11 13 12 10 13
REMARK SMILES IDX 11 14 12 15 9 16
REMARK H PARENT
REMARK Flexibility Score: 60.00
ROOT
ATOM      1  C   UNL     1       3.989  16.494   2.104  1.00  0.00    -0.074 C 
ATOM      2  C   UNL     1       4.698  15.939   3.121  1.00  0.00    -0.027 C 
ATOM      3  C   UNL     1       4.055  17.994   1.953  1.00  0.00     0.039 C 
ENDROOT
BRANCH   2   4
ATOM      4  C   UNL     1       4.775  14.472   3.494  1.00  0.00     0.032 C 
BRANCH   4   5
ATOM      5  C   UNL     1       3.512  14.030   4.266  1.00  0.00     0.034 C 
BRANCH   5   6
ATOM      6  C   UNL     1       2.803  12.863   3.596  1.00  0.00    -0.077 C 
ATOM      7  C   UNL     1       3.423  11.491   3.664  1.00  0.00     0.039 C 
ATOM      8  C   UNL     1       1.614  12.999   2.963  1.00  0.00    -0.027 CG0
ATOM      9  G   UNL     1       0.864  14.306   2.815  1.00  0.00     0.000 G0
ENDBRANCH   5   6
ENDBRANCH   4   5
ENDBRANCH   2   4
BRANCH   1  10
ATOM     10  C   UNL     1       3.200  15.710   1.065  1.00  0.00     0.057 C 
BRANCH  10  11
ATOM     11  C   UNL     1       1.885  16.373   0.715  1.00  0.00    -0.026 C 
ATOM     12  C   UNL     1       0.633  15.869   0.837  1.00  0.00    -0.024 C 
BRANCH  12  13
ATOM     13  C   UNL     1       0.198  14.510   1.403  1.00  0.00    -0.014 C 
ATOM     14  C   UNL     1       0.513  13.367   0.398  1.00  0.00     0.016 C 
ATOM     15  C   UNL     1      -1.340  14.549   1.581  1.00  0.00     0.016 C 
BRANCH  13  16
ATOM     16  C   UNL     1       0.845  14.301   2.809  1.00  0.00     0.038 CG0
ATOM     17  G   UNL     1       1.612  13.003   2.949  1.00  0.00     0.000 G0
ENDBRANCH  13  16
ENDBRANCH  12  13
ENDBRANCH  10  11
ENDBRANCH   1  10
TORSDOF 0
ENDMDL
MODEL 4
REMARK VINA RESULT:    -3.748      1.598      3.965
REMARK INTER + INTRA:          -4.572
REMARK INTER:                  -5.679
REMARK INTRA:                   1.107
REMARK UNBOUND:                 0.711
REMARK SMILES CC1=CCCC(C)=CCC(C)(C)C=CC1
REMARK SMILES IDX 2 1 3 2 1 3 4 4 5 5 6 6 7 7 8 8 15 10 14 11 13 12 10 13
REMARK SMILES IDX 11 14 12 15 9 16
REMARK H PARENT
REMARK Flexibility Score: 60.00
ROOT
ATOM      1  C   UNL     1       2.837  13.537   3.558  1.00  0.00    -0.074 C 
ATOM      2  C   UNL     1       2.448  13.762   2.276  1.00  0.00    -0.027 C 
ATOM      3  C   UNL     1       3.886  12.476   3.787  1.00  0.00     0.039 C 
ENDROOT
BRANCH   2   4
ATOM      4  C   UNL     1       1.404  14.747   1.792  1.00  0.00     0.032 C 
BRANCH   4   5
ATOM      5  C   UNL     1       0.050  14.044   1.548  1.00  0.00     0.034 C 
BRANCH   5   6
ATOM      6  C   UNL     1      -1.052  14.580   2.449  1.00  0.00    -0.077 C 
ATOM      7  C   UNL     1      -1.988  15.634   1.916  1.00  0.00     0.039 C 
ATOM      8  C   UNL     1      -1.249  14.126   3.709  1.00  0.00    -0.027 CG0
ATOM      9  G   UNL     1      -0.400  13.068   4.384  1.00  0.00     0.000 G0
ENDBRANCH   5   6
ENDBRANCH   4   5
ENDBRANCH   2   4
BRANCH   1  10
ATOM     10  C   UNL     1       2.350  14.327   4.765  1.00  0.00     0.057 C 
BRANCH  10  11
ATOM     11  C   UNL     1       2.162  13.455   5.989  1.00  0.00    -0.026 C 
ATOM     12  C   UNL     1       1.006  12.966   6.500  1.00  0.00    -0.024 C 
BRANCH  12  13
ATOM     13  C   UNL     1      -0.422  13.120   5.958  1.00  0.00    -0.014 C 
ATOM     14  C   UNL     1      -1.089  14.408   6.518  1.00  0.00     0.016 C 
ATOM     15  C   UNL     1      -1.250  11.917   6.473  1.00  0.00     0.016 C 
BRANCH  13  16
ATOM     16  C   UNL     1      -0.396  13.059   4.397  1.00  0.00     0.038 CG0
ATOM     17  G   UNL     1      -1.237  14.122   3.723  1.00  0.00     0.000 G0
ENDBRANCH  13  16
ENDBRANCH  12  13
ENDBRANCH  10  11
ENDBRANCH   1  10
TORSDOF 0
ENDMDL
MODEL 5
REMARK VINA RESULT:    -3.699      1.707      3.748
REMARK INTER + INTRA:          -4.502
REMARK INTER:                  -5.508
REMARK INTRA:                   1.005
REMARK UNBOUND:                 0.711
REMARK SMILES CC1=CCCC(C)=CCC(C)(C)C=CC1
REMARK SMILES IDX 2 1 3 2 1 3 4 4 5 5 6 6 7 7 8 8 15 10 14 11 13 12 10 13
REMARK SMILES IDX 11 14 12 15 9 16
REMARK H PARENT
REMARK Flexibility Score: 60.00
ROOT
ATOM      1  C   UNL     1       4.776  15.906   3.465  1.00  0.00    -0.074 C 
ATOM      2  C   UNL     1       4.375  16.733   2.464  1.00  0.00    -0.027 C 
ATOM      3  C   UNL     1       5.507  16.533   4.627  1.00  0.00     0.039 C 
ENDROOT
BRANCH   2   4
ATOM      4  C   UNL     1       3.651  16.347   1.190  1.00  0.00     0.032 C 
BRANCH   4   5
ATOM      5  C   UNL     1       2.131  16.219   1.433  1.00  0.00     0.034 C 
BRANCH   5   6
ATOM      6  C   UNL     1       1.598  14.845   1.059  1.00  0.00    -0.077 C 
ATOM      7  C   UNL     1       1.530  14.455  -0.396  1.00  0.00     0.039 C 
ATOM      8  C   UNL     1       1.206  13.938   1.984  1.00  0.00    -0.027 CG0
ATOM      9  G   UNL     1       1.218  14.177   3.480  1.00  0.00     0.000 G0
ENDBRANCH   5   6
ENDBRANCH   4   5
ENDBRANCH   2   4
BRANCH   1  10
ATOM     10  C   UNL     1       4.476  14.416   3.535  1.00  0.00     0.057 C 
BRANCH  10  11
ATOM     11  C   UNL     1       4.011  13.984   4.909  1.00  0.00    -0.026 C 
ATOM     12  C   UNL     1       2.839  13.394   5.251  1.00  0.00    -0.024 C 
BRANCH  12  13
ATOM     13  C   UNL     1       1.683  12.960   4.339  1.00  0.00    -0.014 C 
ATOM     14  C   UNL     1       0.545  12.300   5.167  1.00  0.00     0.016 C 
ATOM     15  C   UNL     1       2.230  11.880   3.373  1.00  0.00     0.016 C 
BRANCH  13  16
ATOM     16  C   UNL     1       1.208  14.179   3.486  1.00  0.00     0.038 CG0
ATOM     17  G   UNL     1       1.216  13.928   1.992  1.00  0.00     0.000 G0
ENDBRANCH  13  16
ENDBRANCH  12  13
ENDBRANCH  10  11
ENDBRANCH   1  10
TORSDOF 0
ENDMDL
MODEL 6
REMARK VINA RESULT:    -3.680      1.155      3.609
REMARK INTER + INTRA:          -4.475
REMARK INTER:                  -5.413
REMARK INTRA:                   0.938
REMARK UNBOUND:                 0.711
REMARK SMILES CC1=CCCC(C)=CCC(C)(C)C=CC1
REMARK SMILES IDX 2 1 3 2 1 3 4 4 5 5 6 6 7 7 8 8 15 10 14 11 13 12 10 13
REMARK SMILES IDX 11 14 12 15 9 16
REMARK H PARENT
REMARK Flexibility Score: 60.00
ROOT
ATOM      1  C   UNL     1      -1.279  14.308   3.737  1.00  0.00    -0.074 C 
ATOM      2  C   UNL     1      -0.594  13.851   4.818  1.00  0.00    -0.027 C 
ATOM      3  C   UNL     1      -2.426  15.253   3.996  1.00  0.00     0.039 C 
ENDROOT
BRANCH   2   4
ATOM      4  C   UNL     1       0.572  12.883   4.825  1.00  0.00     0.032 C 
BRANCH   4   5
ATOM      5  C   UNL     1       1.919  13.638   4.824  1.00  0.00     0.034 C 
BRANCH   5   6
ATOM      6  C   UNL     1       2.824  13.208   3.680  1.00  0.00    -0.077 C 
ATOM      7  C   UNL     1       3.625  11.938   3.815  1.00  0.00     0.039 C 
ATOM      8  C   UNL     1       2.920  13.906   2.523  1.00  0.00    -0.027 CG0
ATOM      9  G   UNL     1       2.177  15.194   2.234  1.00  0.00     0.000 G0
ENDBRANCH   5   6
ENDBRANCH   4   5
ENDBRANCH   2   4
BRANCH   1  10
ATOM     10  C   UNL     1      -0.925  13.999   2.289  1.00  0.00     0.057 C 
BRANCH  10  11
ATOM     11  C   UNL     1      -0.890  15.240   1.425  1.00  0.00    -0.026 C 
ATOM     12  C   UNL     1       0.177  15.800   0.804  1.00  0.00    -0.024 C 
BRANCH  12  13
ATOM     13  C   UNL     1       1.631  15.308   0.767  1.00  0.00    -0.014 C 
ATOM     14  C   UNL     1       2.495  16.207  -0.161  1.00  0.00     0.016 C 
ATOM     15  C   UNL     1       1.628  13.887   0.150  1.00  0.00     0.016 C 
BRANCH  13  16
ATOM     16  C   UNL     1       2.182  15.203   2.225  1.00  0.00     0.038 CG0
ATOM     17  G   UNL     1       2.915  13.910   2.517  1.00  0.00     0.000 G0
ENDBRANCH  13  16
ENDBRANCH  12  13
ENDBRANCH  10  11
ENDBRANCH   1  10
TORSDOF 0
ENDMDL
MODEL 7
REMARK VINA RESULT:    -3.632      1.278      2.825
REMARK INTER + INTRA:          -4.407
REMARK INTER:                  -5.254
REMARK INTRA:                   0.847
REMARK UNBOUND:                 0.711
REMARK SMILES CC1=CCCC(C)=CCC(C)(C)C=CC1
REMARK SMILES IDX 2 1 3 2 1 3 4 4 5 5 6 6 7 7 8 8 15 10 14 11 13 12 10 13
REMARK SMILES IDX 11 14 12 15 9 16
REMARK H PARENT
REMARK Flexibility Score: 60.00
ROOT
ATOM      1  C   UNL     1       1.281  13.181   5.478  1.00  0.00    -0.074 C 
ATOM      2  C   UNL     1      -0.020  13.520   5.678  1.00  0.00    -0.027 C 
ATOM      3  C   UNL     1       2.249  13.465   6.601  1.00  0.00     0.039 C 
ENDROOT
BRANCH   2   4
ATOM      4  C   UNL     1      -1.170  13.361   4.705  1.00  0.00     0.032 C 
BRANCH   4   5
ATOM      5  C   UNL     1      -1.594  14.727   4.120  1.00  0.00     0.034 C 
BRANCH   5   6
ATOM      6  C   UNL     1      -1.576  14.738   2.600  1.00  0.00    -0.077 C 
ATOM      7  C   UNL     1      -2.878  14.612   1.850  1.00  0.00     0.039 C 
ATOM      8  C   UNL     1      -0.436  14.887   1.885  1.00  0.00    -0.027 CG0
ATOM      9  G   UNL     1       0.945  15.031   2.491  1.00  0.00     0.000 G0
ENDBRANCH   5   6
ENDBRANCH   4   5
ENDBRANCH   2   4
BRANCH   1  10
ATOM     10  C   UNL     1       1.814  12.469   4.243  1.00  0.00     0.057 C 
BRANCH  10  11
ATOM     11  C   UNL     1       3.072  13.114   3.702  1.00  0.00    -0.026 C 
ATOM     12  C   UNL     1       3.204  13.911   2.613  1.00  0.00    -0.024 C 
BRANCH  12  13
ATOM     13  C   UNL     1       2.114  14.416   1.658  1.00  0.00    -0.014 C 
ATOM     14  C   UNL     1       1.655  13.284   0.696  1.00  0.00     0.016 C 
ATOM     15  C   UNL     1       2.740  15.531   0.783  1.00  0.00     0.016 C 
BRANCH  13  16
ATOM     16  C   UNL     1       0.947  15.044   2.484  1.00  0.00     0.038 CG0
ATOM     17  G   UNL     1      -0.419  14.868   1.855  1.00  0.00     0.000 G0
ENDBRANCH  13  16
ENDBRANCH  12  13
ENDBRANCH  10  11
ENDBRANCH   1  10
TORSDOF 0
ENDMDL
MODEL 8
REMARK VINA RESULT:    -3.537      1.673      3.716
REMARK INTER + INTRA:          -4.273
REMARK INTER:                  -5.349
REMARK INTRA:                   1.075
REMARK UNBOUND:                 0.711
REMARK SMILES CC1=CCCC(C)=CCC(C)(C)C=CC1
REMARK SMILES IDX 2 1 3 2 1 3 4 4 5 5 6 6 7 7 8 8 15 10 14 11 13 12 10 13
REMARK SMILES IDX 11 14 12 15 9 16
REMARK H PARENT
REMARK Flexibility Score: 60.00
ROOT
ATOM      1  C   UNL     1       2.089  16.104   0.535  1.00  0.00    -0.074 C 
ATOM      2  C   UNL     1       0.857  16.125  -0.038  1.00  0.00    -0.027 C 
ATOM      3  C   UNL     1       3.280  16.220  -0.384  1.00  0.00     0.039 C 
ENDROOT
BRANCH   2   4
ATOM      4  C   UNL     1      -0.482  16.001   0.660  1.00  0.00     0.032 C 
BRANCH   4   5
ATOM      5  C   UNL     1      -0.738  14.547   1.113  1.00  0.00     0.034 C 
BRANCH   5   6
ATOM      6  C   UNL     1      -0.807  14.415   2.627  1.00  0.00    -0.077 C 
ATOM      7  C   UNL     1      -2.014  14.946   3.356  1.00  0.00     0.039 C 
ATOM      8  C   UNL     1       0.164  13.809   3.351  1.00  0.00    -0.027 CG0
ATOM      9  G   UNL     1       1.432  13.222   2.766  1.00  0.00     0.000 G0
ENDBRANCH   5   6
ENDBRANCH   4   5
ENDBRANCH   2   4
BRANCH   1  10
ATOM     10  C   UNL     1       2.351  16.050   2.033  1.00  0.00     0.057 C 
BRANCH  10  11
ATOM     11  C   UNL     1       3.626  15.309   2.372  1.00  0.00    -0.026 C 
ATOM     12  C   UNL     1       3.768  14.169   3.091  1.00  0.00    -0.024 C 
BRANCH  12  13
ATOM     13  C   UNL     1       2.676  13.291   3.721  1.00  0.00    -0.014 C 
ATOM     14  C   UNL     1       2.326  13.788   5.152  1.00  0.00     0.016 C 
ATOM     15  C   UNL     1       3.251  11.860   3.863  1.00  0.00     0.016 C 
BRANCH  13  16
ATOM     16  C   UNL     1       1.444  13.227   2.764  1.00  0.00     0.038 CG0
ATOM     17  G   UNL     1       0.176  13.815   3.348  1.00  0.00     0.000 G0
ENDBRANCH  13  16
ENDBRANCH  12  13
ENDBRANCH  10  11
ENDBRANCH   1  10
TORSDOF 0
ENDMDL
MODEL 9
REMARK VINA RESULT:    -3.494      1.490      3.769
REMARK INTER + INTRA:          -4.213
REMARK INTER:                  -5.622
REMARK INTRA:                   1.409
REMARK UNBOUND:                 0.711
REMARK SMILES CC1=CCCC(C)=CCC(C)(C)C=CC1
REMARK SMILES IDX 2 1 3 2 1 3 4 4 5 5 6 6 7 7 8 8 15 10 14 11 13 12 10 13
REMARK SMILES IDX 11 14 12 15 9 16
REMARK H PARENT
REMARK Flexibility Score: 60.00
ROOT
ATOM      1  C   UNL     1      -0.811  14.784   1.879  1.00  0.00    -0.074 C 
ATOM      2  C   UNL     1       0.431  15.234   1.562  1.00  0.00    -0.027 C 
ATOM      3  C   UNL     1      -1.946  15.193   0.972  1.00  0.00     0.039 C 
ENDROOT
BRANCH   2   4
ATOM      4  C   UNL     1       1.719  14.986   2.321  1.00  0.00     0.032 C 
BRANCH   4   5
ATOM      5  C   UNL     1       2.154  13.508   2.205  1.00  0.00     0.034 C 
BRANCH   5   6
ATOM      6  C   UNL     1       2.880  13.018   3.448  1.00  0.00    -0.077 C 
ATOM      7  C   UNL     1       4.376  13.179   3.536  1.00  0.00     0.039 C 
ATOM      8  C   UNL     1       2.232  12.467   4.502  1.00  0.00    -0.027 CG0
ATOM      9  G   UNL     1       0.735  12.244   4.568  1.00  0.00     0.000 G0
ENDBRANCH   5   6
ENDBRANCH   4   5
ENDBRANCH   2   4
BRANCH   1  10
ATOM     10  C   UNL     1      -1.126  13.841   3.030  1.00  0.00     0.057 C 
BRANCH  10  11
ATOM     11  C   UNL     1      -1.138  14.546   4.370  1.00  0.00    -0.026 C 
ATOM     12  C   UNL     1      -0.672  14.094   5.559  1.00  0.00    -0.024 C 
BRANCH  12  13
ATOM     13  C   UNL     1       0.035  12.767   5.870  1.00  0.00    -0.014 C 
ATOM     14  C   UNL     1      -0.952  11.753   6.515  1.00  0.00     0.016 C 
ATOM     15  C   UNL     1       1.138  13.059   6.917  1.00  0.00     0.016 C 
BRANCH  13  16
ATOM     16  C   UNL     1       0.724  12.229   4.576  1.00  0.00     0.038 CG0
ATOM     17  G   UNL     1       2.218  12.471   4.526  1.00  0.00     0.000 G0
ENDBRANCH  13  16
ENDBRANCH  12  13
ENDBRANCH  10  11
ENDBRANCH   1  10
TORSDOF 0
ENDMDL
