MODEL 1
REMARK VINA RESULT:    -4.413      0.000      0.000
REMARK INTER + INTRA:          -5.540
REMARK INTER:                  -5.445
REMARK INTRA:                  -0.095
REMARK UNBOUND:                -0.095
REMARK SMILES CCCCCC(=O)[O-]
REMARK SMILES IDX 4 1 5 2 6 3 7 4 8 5 3 6 2 7 1 8
REMARK H PARENT
REMARK Flexibility Score: inf
ROOT
ATOM      1  C   UNL     1      23.014 -12.732  20.033  1.00  0.00     0.006 C 
ENDROOT
BRANCH   1   2
ATOM      2  C   UNL     1      22.338 -11.659  20.892  1.00  0.00     0.053 C 
BRANCH   2   3
ATOM      3  C   UNL     1      23.333 -10.626  21.319  1.00  0.00     0.041 C 
ATOM      4  O   UNL     1      23.495 -10.370  22.541  1.00  0.00    -0.550 OA
ATOM      5  O   UNL     1      24.045  -9.910  20.366  1.00  0.00    -0.550 OA
ENDBRANCH   2   3
ENDBRANCH   1   2
BRANCH   1   6
ATOM      6  C   UNL     1      22.654 -12.554  18.550  1.00  0.00     0.000 C 
BRANCH   6   7
ATOM      7  C   UNL     1      23.863 -12.748  17.622  1.00  0.00    -0.003 C 
ATOM      8  C   UNL     1      23.526 -12.498  16.152  1.00  0.00     0.004 C 
ENDBRANCH   6   7
ENDBRANCH   1   6
TORSDOF 4
ENDMDL
MODEL 2
REMARK VINA RESULT:    -4.389      2.257      4.117
REMARK INTER + INTRA:          -5.510
REMARK INTER:                  -5.346
REMARK INTRA:                  -0.164
REMARK UNBOUND:                -0.095
REMARK SMILES CCCCCC(=O)[O-]
REMARK SMILES IDX 4 1 5 2 6 3 7 4 8 5 3 6 2 7 1 8
REMARK H PARENT
REMARK Flexibility Score: inf
ROOT
ATOM      1  C   UNL     1      22.405 -12.012  19.618  1.00  0.00     0.006 C 
ENDROOT
BRANCH   1   2
ATOM      2  C   UNL     1      23.193 -13.025  18.784  1.00  0.00     0.053 C 
BRANCH   2   3
ATOM      3  C   UNL     1      23.805 -12.360  17.591  1.00  0.00     0.041 C 
ATOM      4  O   UNL     1      23.398 -12.639  16.433  1.00  0.00    -0.550 OA
ATOM      5  O   UNL     1      24.858 -11.470  17.755  1.00  0.00    -0.550 OA
ENDBRANCH   2   3
ENDBRANCH   1   2
BRANCH   1   6
ATOM      6  C   UNL     1      22.656 -12.221  21.119  1.00  0.00     0.000 C 
BRANCH   6   7
ATOM      7  C   UNL     1      23.055 -10.922  21.837  1.00  0.00    -0.003 C 
ATOM      8  C   UNL     1      23.901  -9.999  20.961  1.00  0.00     0.004 C 
ENDBRANCH   6   7
ENDBRANCH   1   6
TORSDOF 4
ENDMDL
MODEL 3
REMARK VINA RESULT:    -4.321      0.803      1.645
REMARK INTER + INTRA:          -5.426
REMARK INTER:                  -5.350
REMARK INTRA:                  -0.076
REMARK UNBOUND:                -0.095
REMARK SMILES CCCCCC(=O)[O-]
REMARK SMILES IDX 4 1 5 2 6 3 7 4 8 5 3 6 2 7 1 8
REMARK H PARENT
REMARK Flexibility Score: inf
ROOT
ATOM      1  C   UNL     1      22.608 -12.325  18.734  1.00  0.00     0.006 C 
ENDROOT
BRANCH   1   2
ATOM      2  C   UNL     1      22.690 -12.639  20.231  1.00  0.00     0.053 C 
BRANCH   2   3
ATOM      3  C   UNL     1      23.011 -11.402  21.009  1.00  0.00     0.041 C 
ATOM      4  O   UNL     1      23.396 -10.362  20.414  1.00  0.00    -0.550 OA
ATOM      5  O   UNL     1      22.933 -11.412  22.396  1.00  0.00    -0.550 OA
ENDBRANCH   2   3
ENDBRANCH   1   2
BRANCH   1   6
ATOM      6  C   UNL     1      23.817 -12.905  17.985  1.00  0.00     0.000 C 
BRANCH   6   7
ATOM      7  C   UNL     1      23.711 -12.722  16.463  1.00  0.00    -0.003 C 
ATOM      8  C   UNL     1      24.559 -11.561  15.947  1.00  0.00     0.004 C 
ENDBRANCH   6   7
ENDBRANCH   1   6
TORSDOF 4
ENDMDL
MODEL 4
REMARK VINA RESULT:    -4.165      2.656      4.529
REMARK INTER + INTRA:          -5.233
REMARK INTER:                  -5.166
REMARK INTRA:                  -0.067
REMARK UNBOUND:                -0.095
REMARK SMILES CCCCCC(=O)[O-]
REMARK SMILES IDX 4 1 5 2 6 3 7 4 8 5 3 6 2 7 1 8
REMARK H PARENT
REMARK Flexibility Score: inf
ROOT
ATOM      1  C   UNL     1      23.785 -12.982  17.963  1.00  0.00     0.006 C 
ENDROOT
BRANCH   1   2
ATOM      2  C   UNL     1      23.678 -12.432  16.537  1.00  0.00     0.053 C 
BRANCH   2   3
ATOM      3  C   UNL     1      24.831 -11.525  16.237  1.00  0.00     0.041 C 
ATOM      4  O   UNL     1      24.831 -10.828  15.190  1.00  0.00    -0.550 OA
ATOM      5  O   UNL     1      25.926 -11.487  17.090  1.00  0.00    -0.550 OA
ENDBRANCH   2   3
ENDBRANCH   1   2
BRANCH   1   6
ATOM      6  C   UNL     1      22.606 -12.505  18.824  1.00  0.00     0.000 C 
BRANCH   6   7
ATOM      7  C   UNL     1      22.713 -12.977  20.283  1.00  0.00    -0.003 C 
ATOM      8  C   UNL     1      22.643 -11.824  21.283  1.00  0.00     0.004 C 
ENDBRANCH   6   7
ENDBRANCH   1   6
TORSDOF 4
ENDMDL
MODEL 5
REMARK VINA RESULT:    -3.845      3.490      5.056
REMARK INTER + INTRA:          -4.839
REMARK INTER:                  -4.691
REMARK INTRA:                  -0.148
REMARK UNBOUND:                -0.095
REMARK SMILES CCCCCC(=O)[O-]
REMARK SMILES IDX 4 1 5 2 6 3 7 4 8 5 3 6 2 7 1 8
REMARK H PARENT
REMARK Flexibility Score: inf
ROOT
ATOM      1  C   UNL     1      24.552 -11.553  15.678  1.00  0.00     0.006 C 
ENDROOT
BRANCH   1   2
ATOM      2  C   UNL     1      25.551 -10.891  16.633  1.00  0.00     0.053 C 
BRANCH   2   3
ATOM      3  C   UNL     1      26.956 -11.184  16.207  1.00  0.00     0.041 C 
ATOM      4  O   UNL     1      27.310 -10.988  15.016  1.00  0.00    -0.550 OA
ATOM      5  O   UNL     1      27.860 -11.719  17.115  1.00  0.00    -0.550 OA
ENDBRANCH   2   3
ENDBRANCH   1   2
BRANCH   1   6
ATOM      6  C   UNL     1      23.724 -12.623  16.406  1.00  0.00     0.000 C 
BRANCH   6   7
ATOM      7  C   UNL     1      23.928 -12.592  17.929  1.00  0.00    -0.003 C 
ATOM      8  C   UNL     1      22.612 -12.496  18.699  1.00  0.00     0.004 C 
ENDBRANCH   6   7
ENDBRANCH   1   6
TORSDOF 4
ENDMDL
MODEL 6
REMARK VINA RESULT:    -3.743      3.392      4.927
REMARK INTER + INTRA:          -4.713
REMARK INTER:                  -4.603
REMARK INTRA:                  -0.110
REMARK UNBOUND:                -0.095
REMARK SMILES CCCCCC(=O)[O-]
REMARK SMILES IDX 4 1 5 2 6 3 7 4 8 5 3 6 2 7 1 8
REMARK H PARENT
REMARK Flexibility Score: inf
ROOT
ATOM      1  C   UNL     1      25.126 -11.025  16.036  1.00  0.00     0.006 C 
ENDROOT
BRANCH   1   2
ATOM      2  C   UNL     1      24.087 -12.143  15.909  1.00  0.00     0.053 C 
BRANCH   2   3
ATOM      3  C   UNL     1      23.794 -12.741  17.250  1.00  0.00     0.041 C 
ATOM      4  O   UNL     1      24.631 -13.503  17.800  1.00  0.00    -0.550 OA
ATOM      5  O   UNL     1      22.576 -12.495  17.870  1.00  0.00    -0.550 OA
ENDBRANCH   2   3
ENDBRANCH   1   2
BRANCH   1   6
ATOM      6  C   UNL     1      26.104 -11.049  14.852  1.00  0.00     0.000 C 
BRANCH   6   7
ATOM      7  C   UNL     1      27.529 -10.636  15.255  1.00  0.00    -0.003 C 
ATOM      8  C   UNL     1      27.988 -11.293  16.556  1.00  0.00     0.004 C 
ENDBRANCH   6   7
ENDBRANCH   1   6
TORSDOF 4
ENDMDL
MODEL 7
REMARK VINA RESULT:    -3.735      3.512      5.169
REMARK INTER + INTRA:          -4.703
REMARK INTER:                  -4.483
REMARK INTRA:                  -0.220
REMARK UNBOUND:                -0.095
REMARK SMILES CCCCCC(=O)[O-]
REMARK SMILES IDX 4 1 5 2 6 3 7 4 8 5 3 6 2 7 1 8
REMARK H PARENT
REMARK Flexibility Score: inf
ROOT
ATOM      1  C   UNL     1      26.247 -11.138  14.942  1.00  0.00     0.006 C 
ENDROOT
BRANCH   1   2
ATOM      2  C   UNL     1      27.327 -10.329  15.667  1.00  0.00     0.053 C 
BRANCH   2   3
ATOM      3  C   UNL     1      27.499 -10.822  17.070  1.00  0.00     0.041 C 
ATOM      4  O   UNL     1      27.792 -12.027  17.285  1.00  0.00    -0.550 OA
ATOM      5  O   UNL     1      27.288  -9.962  18.140  1.00  0.00    -0.550 OA
ENDBRANCH   2   3
ENDBRANCH   1   2
BRANCH   1   6
ATOM      6  C   UNL     1      24.879 -10.954  15.616  1.00  0.00     0.000 C 
BRANCH   6   7
ATOM      7  C   UNL     1      24.129 -12.283  15.800  1.00  0.00    -0.003 C 
ATOM      8  C   UNL     1      23.878 -12.620  17.269  1.00  0.00     0.004 C 
ENDBRANCH   6   7
ENDBRANCH   1   6
TORSDOF 4
ENDMDL
MODEL 8
REMARK VINA RESULT:    -3.579      4.277      6.010
REMARK INTER + INTRA:          -4.511
REMARK INTER:                  -4.433
REMARK INTRA:                  -0.078
REMARK UNBOUND:                -0.095
REMARK SMILES CCCCCC(=O)[O-]
REMARK SMILES IDX 4 1 5 2 6 3 7 4 8 5 3 6 2 7 1 8
REMARK H PARENT
REMARK Flexibility Score: inf
ROOT
ATOM      1  C   UNL     1      25.886 -11.105  16.137  1.00  0.00     0.006 C 
ENDROOT
BRANCH   1   2
ATOM      2  C   UNL     1      26.904 -10.769  15.043  1.00  0.00     0.053 C 
BRANCH   2   3
ATOM      3  C   UNL     1      28.295 -11.058  15.513  1.00  0.00     0.041 C 
ATOM      4  O   UNL     1      29.258 -11.013  14.705  1.00  0.00    -0.550 OA
ATOM      5  O   UNL     1      28.520 -11.424  16.834  1.00  0.00    -0.550 OA
ENDBRANCH   2   3
ENDBRANCH   1   2
BRANCH   1   6
ATOM      6  C   UNL     1      24.502 -11.383  15.533  1.00  0.00     0.000 C 
BRANCH   6   7
ATOM      7  C   UNL     1      23.850 -12.651  16.109  1.00  0.00    -0.003 C 
ATOM      8  C   UNL     1      24.092 -12.809  17.609  1.00  0.00     0.004 C 
ENDBRANCH   6   7
ENDBRANCH   1   6
TORSDOF 4
ENDMDL
MODEL 9
REMARK VINA RESULT:    -3.468      4.091      5.293
REMARK INTER + INTRA:          -4.374
REMARK INTER:                  -4.246
REMARK INTRA:                  -0.128
REMARK UNBOUND:                -0.095
REMARK SMILES CCCCCC(=O)[O-]
REMARK SMILES IDX 4 1 5 2 6 3 7 4 8 5 3 6 2 7 1 8
REMARK H PARENT
REMARK Flexibility Score: inf
ROOT
ATOM      1  C   UNL     1      27.251 -10.303  15.435  1.00  0.00     0.006 C 
ENDROOT
BRANCH   1   2
ATOM      2  C   UNL     1      27.875 -10.857  16.720  1.00  0.00     0.053 C 
BRANCH   2   3
ATOM      3  C   UNL     1      28.025  -9.772  17.740  1.00  0.00     0.041 C 
ATOM      4  O   UNL     1      27.454  -9.870  18.857  1.00  0.00    -0.550 OA
ATOM      5  O   UNL     1      28.755  -8.630  17.438  1.00  0.00    -0.550 OA
ENDBRANCH   2   3
ENDBRANCH   1   2
BRANCH   1   6
ATOM      6  C   UNL     1      26.067 -11.170  14.982  1.00  0.00     0.000 C 
BRANCH   6   7
ATOM      7  C   UNL     1      24.900 -11.143  15.982  1.00  0.00    -0.003 C 
ATOM      8  C   UNL     1      24.008 -12.380  15.881  1.00  0.00     0.004 C 
ENDBRANCH   6   7
ENDBRANCH   1   6
TORSDOF 4
ENDMDL
