MODEL 1
REMARK VINA RESULT:    -2.209      0.000      0.000
REMARK INTER + INTRA:          -2.465
REMARK INTER:                  -2.403
REMARK INTRA:                  -0.063
REMARK UNBOUND:                -0.063
REMARK SMILES COc1cc2ccc(=O)oc2cc1O
REMARK SMILES IDX 3 1 13 2 12 3 11 4 5 5 4 6 6 7 7 8 8 9 9 10 10 11 2 12 1 13
REMARK SMILES IDX 14 14
REMARK H PARENT 14 15
REMARK Flexibility Score: inf
ROOT
ATOM      1  C   UNL     1      13.166 -33.421   0.028  1.00  0.00     0.161 A 
ATOM      2  C   UNL     1      13.226 -33.978  -1.259  1.00  0.00     0.161 A 
ATOM      3  C   UNL     1      14.378 -34.656  -1.684  1.00  0.00     0.098 A 
ATOM      4  C   UNL     1      15.477 -34.783  -0.830  1.00  0.00     0.142 A 
ATOM      5  C   UNL     1      15.425 -34.226   0.465  1.00  0.00     0.022 A 
ATOM      6  C   UNL     1      14.274 -33.549   0.891  1.00  0.00     0.062 A 
ATOM      7  C   UNL     1      16.541 -34.370   1.296  1.00  0.00     0.019 A 
ATOM      8  C   UNL     1      17.661 -35.052   0.826  1.00  0.00     0.094 A 
ATOM      9  C   UNL     1      17.642 -35.578  -0.470  1.00  0.00     0.336 A 
ATOM     10  O   UNL     1      18.643 -36.198  -0.912  1.00  0.00    -0.246 OA
ATOM     11  O   UNL     1      16.567 -35.427  -1.241  1.00  0.00    -0.423 OA
ENDROOT
BRANCH   1  12
ATOM     12  O   UNL     1      11.994 -32.752   0.412  1.00  0.00    -0.493 OA
ATOM     13  C   UNL     1      11.912 -31.355   0.675  1.00  0.00     0.278 C 
ENDBRANCH   1  12
BRANCH   2  14
ATOM     14  O   UNL     1      12.132 -33.854  -2.114  1.00  0.00    -0.504 OA
ATOM     15  H   UNL     1      12.128 -33.189  -2.878  1.00  0.00     0.293 HD
ENDBRANCH   2  14
TORSDOF 2
ENDMDL
MODEL 2
REMARK VINA RESULT:    -2.131      7.580      8.505
REMARK INTER + INTRA:          -2.381
REMARK INTER:                  -2.315
REMARK INTRA:                  -0.065
REMARK UNBOUND:                -0.063
REMARK SMILES COc1cc2ccc(=O)oc2cc1O
REMARK SMILES IDX 3 1 13 2 12 3 11 4 5 5 4 6 6 7 7 8 8 9 9 10 10 11 2 12 1 13
REMARK SMILES IDX 14 14
REMARK H PARENT 14 15
REMARK Flexibility Score: inf
ROOT
ATOM      1  C   UNL     1      20.748 -27.090   0.090  1.00  0.00     0.161 A 
ATOM      2  C   UNL     1      20.245 -28.084  -0.765  1.00  0.00     0.161 A 
ATOM      3  C   UNL     1      19.889 -29.341  -0.257  1.00  0.00     0.098 A 
ATOM      4  C   UNL     1      20.032 -29.617   1.106  1.00  0.00     0.142 A 
ATOM      5  C   UNL     1      20.537 -28.625   1.971  1.00  0.00     0.022 A 
ATOM      6  C   UNL     1      20.893 -27.368   1.465  1.00  0.00     0.062 A 
ATOM      7  C   UNL     1      20.669 -28.932   3.330  1.00  0.00     0.019 A 
ATOM      8  C   UNL     1      20.302 -30.197   3.785  1.00  0.00     0.094 A 
ATOM      9  C   UNL     1      19.808 -31.131   2.868  1.00  0.00     0.336 A 
ATOM     10  O   UNL     1      19.470 -32.278   3.260  1.00  0.00    -0.246 OA
ATOM     11  O   UNL     1      19.693 -30.813   1.581  1.00  0.00    -0.423 OA
ENDROOT
BRANCH   1  12
ATOM     12  O   UNL     1      21.091 -25.847  -0.461  1.00  0.00    -0.493 OA
ATOM     13  C   UNL     1      22.424 -25.424  -0.733  1.00  0.00     0.278 C 
ENDBRANCH   1  12
BRANCH   2  14
ATOM     14  O   UNL     1      20.100 -27.812  -2.125  1.00  0.00    -0.504 OA
ATOM     15  H   UNL     1      19.972 -26.866  -2.466  1.00  0.00     0.293 HD
ENDBRANCH   2  14
TORSDOF 2
ENDMDL
MODEL 3
REMARK VINA RESULT:    -2.111      7.814      8.899
REMARK INTER + INTRA:          -2.359
REMARK INTER:                  -2.302
REMARK INTRA:                  -0.057
REMARK UNBOUND:                -0.063
REMARK SMILES COc1cc2ccc(=O)oc2cc1O
REMARK SMILES IDX 3 1 13 2 12 3 11 4 5 5 4 6 6 7 7 8 8 9 9 10 10 11 2 12 1 13
REMARK SMILES IDX 14 14
REMARK H PARENT 14 15
REMARK Flexibility Score: inf
ROOT
ATOM      1  C   UNL     1      19.804 -29.824   2.186  1.00  0.00     0.161 A 
ATOM      2  C   UNL     1      20.137 -28.600   2.788  1.00  0.00     0.161 A 
ATOM      3  C   UNL     1      20.558 -27.516   2.003  1.00  0.00     0.098 A 
ATOM      4  C   UNL     1      20.650 -27.645   0.615  1.00  0.00     0.142 A 
ATOM      5  C   UNL     1      20.318 -28.871   0.002  1.00  0.00     0.022 A 
ATOM      6  C   UNL     1      19.896 -29.955   0.786  1.00  0.00     0.062 A 
ATOM      7  C   UNL     1      20.420 -28.969  -1.389  1.00  0.00     0.019 A 
ATOM      8  C   UNL     1      20.844 -27.863  -2.124  1.00  0.00     0.094 A 
ATOM      9  C   UNL     1      21.157 -26.679  -1.448  1.00  0.00     0.336 A 
ATOM     10  O   UNL     1      21.541 -25.669  -2.094  1.00  0.00    -0.246 OA
ATOM     11  O   UNL     1      21.051 -26.613  -0.123  1.00  0.00    -0.423 OA
ENDROOT
BRANCH   1  12
ATOM     12  O   UNL     1      19.387 -30.881   3.009  1.00  0.00    -0.493 OA
ATOM     13  C   UNL     1      18.166 -31.596   2.849  1.00  0.00     0.278 C 
ENDBRANCH   1  12
BRANCH   2  14
ATOM     14  O   UNL     1      20.046 -28.467   4.173  1.00  0.00    -0.504 OA
ATOM     15  H   UNL     1      19.493 -29.107   4.732  1.00  0.00     0.293 HD
ENDBRANCH   2  14
TORSDOF 2
ENDMDL
MODEL 4
REMARK VINA RESULT:    -2.012      1.395      2.574
REMARK INTER + INTRA:          -2.251
REMARK INTER:                  -2.188
REMARK INTRA:                  -0.063
REMARK UNBOUND:                -0.063
REMARK SMILES COc1cc2ccc(=O)oc2cc1O
REMARK SMILES IDX 3 1 13 2 12 3 11 4 5 5 4 6 6 7 7 8 8 9 9 10 10 11 2 12 1 13
REMARK SMILES IDX 14 14
REMARK H PARENT 14 15
REMARK Flexibility Score: inf
ROOT
ATOM      1  C   UNL     1      13.713 -33.476   0.913  1.00  0.00     0.161 A 
ATOM      2  C   UNL     1      14.787 -33.370   1.810  1.00  0.00     0.161 A 
ATOM      3  C   UNL     1      16.037 -33.920   1.486  1.00  0.00     0.098 A 
ATOM      4  C   UNL     1      16.223 -34.577   0.268  1.00  0.00     0.142 A 
ATOM      5  C   UNL     1      15.149 -34.688  -0.639  1.00  0.00     0.022 A 
ATOM      6  C   UNL     1      13.900 -34.139  -0.317  1.00  0.00     0.062 A 
ATOM      7  C   UNL     1      15.366 -35.353  -1.851  1.00  0.00     0.019 A 
ATOM      8  C   UNL     1      16.627 -35.882  -2.124  1.00  0.00     0.094 A 
ATOM      9  C   UNL     1      17.645 -35.734  -1.177  1.00  0.00     0.336 A 
ATOM     10  O   UNL     1      18.790 -36.204  -1.406  1.00  0.00    -0.246 OA
ATOM     11  O   UNL     1      17.411 -35.097  -0.032  1.00  0.00    -0.423 OA
ENDROOT
BRANCH   1  12
ATOM     12  O   UNL     1      12.481 -32.911   1.277  1.00  0.00    -0.493 OA
ATOM     13  C   UNL     1      11.883 -31.792   0.629  1.00  0.00     0.278 C 
ENDBRANCH   1  12
BRANCH   2  14
ATOM     14  O   UNL     1      14.605 -32.714   3.026  1.00  0.00    -0.504 OA
ATOM     15  H   UNL     1      14.177 -31.797   3.076  1.00  0.00     0.293 HD
ENDBRANCH   2  14
TORSDOF 2
ENDMDL
MODEL 5
REMARK VINA RESULT:    -1.996      1.502      5.312
REMARK INTER + INTRA:          -2.233
REMARK INTER:                  -2.168
REMARK INTRA:                  -0.065
REMARK UNBOUND:                -0.063
REMARK SMILES COc1cc2ccc(=O)oc2cc1O
REMARK SMILES IDX 3 1 13 2 12 3 11 4 5 5 4 6 6 7 7 8 8 9 9 10 10 11 2 12 1 13
REMARK SMILES IDX 14 14
REMARK H PARENT 14 15
REMARK Flexibility Score: inf
ROOT
ATOM      1  C   UNL     1      16.479 -35.486  -1.150  1.00  0.00     0.161 A 
ATOM      2  C   UNL     1      16.908 -35.123   0.137  1.00  0.00     0.161 A 
ATOM      3  C   UNL     1      16.092 -34.329   0.957  1.00  0.00     0.098 A 
ATOM      4  C   UNL     1      14.847 -33.891   0.500  1.00  0.00     0.142 A 
ATOM      5  C   UNL     1      14.409 -34.251  -0.792  1.00  0.00     0.022 A 
ATOM      6  C   UNL     1      15.222 -35.046  -1.612  1.00  0.00     0.062 A 
ATOM      7  C   UNL     1      13.157 -33.798  -1.221  1.00  0.00     0.019 A 
ATOM      8  C   UNL     1      12.385 -33.010  -0.368  1.00  0.00     0.094 A 
ATOM      9  C   UNL     1      12.885 -32.692   0.899  1.00  0.00     0.336 A 
ATOM     10  O   UNL     1      12.202 -31.983   1.684  1.00  0.00    -0.246 OA
ATOM     11  O   UNL     1      14.079 -33.137   1.283  1.00  0.00    -0.423 OA
ENDROOT
BRANCH   1  12
ATOM     12  O   UNL     1      17.326 -36.283  -1.935  1.00  0.00    -0.493 OA
ATOM     13  C   UNL     1      17.169 -37.685  -2.125  1.00  0.00     0.278 C 
ENDBRANCH   1  12
BRANCH   2  14
ATOM     14  O   UNL     1      18.150 -35.559   0.596  1.00  0.00    -0.504 OA
ATOM     15  H   UNL     1      18.795 -34.929   1.058  1.00  0.00     0.293 HD
ENDBRANCH   2  14
TORSDOF 2
ENDMDL
MODEL 6
REMARK VINA RESULT:    -1.939      1.549      2.083
REMARK INTER + INTRA:          -2.171
REMARK INTER:                  -2.112
REMARK INTRA:                  -0.059
REMARK UNBOUND:                -0.063
REMARK SMILES COc1cc2ccc(=O)oc2cc1O
REMARK SMILES IDX 3 1 13 2 12 3 11 4 5 5 4 6 6 7 7 8 8 9 9 10 10 11 2 12 1 13
REMARK SMILES IDX 14 14
REMARK H PARENT 14 15
REMARK Flexibility Score: inf
ROOT
ATOM      1  C   UNL     1      14.584 -33.101   1.987  1.00  0.00     0.161 A 
ATOM      2  C   UNL     1      13.769 -33.482   0.909  1.00  0.00     0.161 A 
ATOM      3  C   UNL     1      14.296 -34.251  -0.140  1.00  0.00     0.098 A 
ATOM      4  C   UNL     1      15.637 -34.643  -0.121  1.00  0.00     0.142 A 
ATOM      5  C   UNL     1      16.462 -34.264   0.958  1.00  0.00     0.022 A 
ATOM      6  C   UNL     1      15.937 -33.496   2.007  1.00  0.00     0.062 A 
ATOM      7  C   UNL     1      17.801 -34.672   0.948  1.00  0.00     0.019 A 
ATOM      8  C   UNL     1      18.276 -35.434  -0.118  1.00  0.00     0.094 A 
ATOM      9  C   UNL     1      17.399 -35.772  -1.154  1.00  0.00     0.336 A 
ATOM     10  O   UNL     1      17.809 -36.461  -2.125  1.00  0.00    -0.246 OA
ATOM     11  O   UNL     1      16.130 -35.371  -1.120  1.00  0.00    -0.423 OA
ENDROOT
BRANCH   1  12
ATOM     12  O   UNL     1      14.015 -32.333   3.014  1.00  0.00    -0.493 OA
ATOM     13  C   UNL     1      14.478 -31.046   3.411  1.00  0.00     0.278 C 
ENDBRANCH   1  12
BRANCH   2  14
ATOM     14  O   UNL     1      12.431 -33.093   0.887  1.00  0.00    -0.504 OA
ATOM     15  H   UNL     1      11.713 -33.635   1.352  1.00  0.00     0.293 HD
ENDBRANCH   2  14
TORSDOF 2
ENDMDL
MODEL 7
REMARK VINA RESULT:    -1.910      1.397      5.034
REMARK INTER + INTRA:          -2.140
REMARK INTER:                  -2.076
REMARK INTRA:                  -0.065
REMARK UNBOUND:                -0.063
REMARK SMILES COc1cc2ccc(=O)oc2cc1O
REMARK SMILES IDX 3 1 13 2 12 3 11 4 5 5 4 6 6 7 7 8 8 9 9 10 10 11 2 12 1 13
REMARK SMILES IDX 14 14
REMARK H PARENT 14 15
REMARK Flexibility Score: inf
ROOT
ATOM      1  C   UNL     1      17.989 -35.356   0.037  1.00  0.00     0.161 A 
ATOM      2  C   UNL     1      17.276 -35.767  -1.101  1.00  0.00     0.161 A 
ATOM      3  C   UNL     1      15.934 -35.393  -1.269  1.00  0.00     0.098 A 
ATOM      4  C   UNL     1      15.295 -34.607  -0.306  1.00  0.00     0.142 A 
ATOM      5  C   UNL     1      16.004 -34.190   0.839  1.00  0.00     0.022 A 
ATOM      6  C   UNL     1      17.345 -34.563   1.009  1.00  0.00     0.062 A 
ATOM      7  C   UNL     1      15.337 -33.405   1.786  1.00  0.00     0.019 A 
ATOM      8  C   UNL     1      14.003 -33.061   1.572  1.00  0.00     0.094 A 
ATOM      9  C   UNL     1      13.364 -33.511   0.412  1.00  0.00     0.336 A 
ATOM     10  O   UNL     1      12.161 -33.210   0.200  1.00  0.00    -0.246 OA
ATOM     11  O   UNL     1      14.022 -34.257  -0.473  1.00  0.00    -0.423 OA
ENDROOT
BRANCH   1  12
ATOM     12  O   UNL     1      19.328 -35.753   0.165  1.00  0.00    -0.493 OA
ATOM     13  C   UNL     1      20.445 -34.881   0.019  1.00  0.00     0.278 C 
ENDBRANCH   1  12
BRANCH   2  14
ATOM     14  O   UNL     1      17.910 -36.550  -2.064  1.00  0.00    -0.504 OA
ATOM     15  H   UNL     1      17.389 -37.014  -2.798  1.00  0.00     0.293 HD
ENDBRANCH   2  14
TORSDOF 2
ENDMDL
MODEL 8
REMARK VINA RESULT:    -1.866      2.254      4.810
REMARK INTER + INTRA:          -2.092
REMARK INTER:                  -2.027
REMARK INTRA:                  -0.065
REMARK UNBOUND:                -0.063
REMARK SMILES COc1cc2ccc(=O)oc2cc1O
REMARK SMILES IDX 3 1 13 2 12 3 11 4 5 5 4 6 6 7 7 8 8 9 9 10 10 11 2 12 1 13
REMARK SMILES IDX 14 14
REMARK H PARENT 14 15
REMARK Flexibility Score: inf
ROOT
ATOM      1  C   UNL     1      16.500 -33.481   2.357  1.00  0.00     0.161 A 
ATOM      2  C   UNL     1      15.352 -32.764   2.728  1.00  0.00     0.161 A 
ATOM      3  C   UNL     1      14.206 -32.794   1.919  1.00  0.00     0.098 A 
ATOM      4  C   UNL     1      14.198 -33.538   0.736  1.00  0.00     0.142 A 
ATOM      5  C   UNL     1      15.348 -34.261   0.356  1.00  0.00     0.022 A 
ATOM      6  C   UNL     1      16.493 -34.232   1.164  1.00  0.00     0.062 A 
ATOM      7  C   UNL     1      15.309 -34.996  -0.833  1.00  0.00     0.019 A 
ATOM      8  C   UNL     1      14.147 -34.993  -1.602  1.00  0.00     0.094 A 
ATOM      9  C   UNL     1      13.044 -34.251  -1.163  1.00  0.00     0.336 A 
ATOM     10  O   UNL     1      11.985 -34.237  -1.843  1.00  0.00    -0.246 OA
ATOM     11  O   UNL     1      13.108 -33.561  -0.027  1.00  0.00    -0.423 OA
ENDROOT
BRANCH   1  12
ATOM     12  O   UNL     1      17.623 -33.423   3.197  1.00  0.00    -0.493 OA
ATOM     13  C   UNL     1      18.774 -32.620   2.952  1.00  0.00     0.278 C 
ENDBRANCH   1  12
BRANCH   2  14
ATOM     14  O   UNL     1      15.356 -32.021   3.908  1.00  0.00    -0.504 OA
ATOM     15  H   UNL     1      15.032 -31.061   3.932  1.00  0.00     0.293 HD
ENDBRANCH   2  14
TORSDOF 2
ENDMDL
