MODEL 1
REMARK VINA RESULT:    13.464      0.000      0.000
REMARK INTER + INTRA:          25.483
REMARK INTER:                  26.057
REMARK INTRA:                  -0.574
REMARK UNBOUND:                -0.574
REMARK SMILES CCCCCCCCCCCCCCCCCC(=O)[O-]
REMARK SMILES IDX 10 1 11 2 12 3 13 4 14 5 15 6 16 7 17 8 18 9 19 10 20 11
REMARK SMILES IDX 9 12 8 13 7 14 6 15 5 16 4 17 3 18 2 19 1 20
REMARK H PARENT
REMARK Flexibility Score: inf
ROOT
ATOM      1  C   UNL     1     -13.040  31.387 -20.860  1.00  0.00     0.000 C 
ENDROOT
BRANCH   1   2
ATOM      2  C   UNL     1     -12.994  32.876 -21.224  1.00  0.00     0.000 C 
BRANCH   2   3
ATOM      3  C   UNL     1     -11.606  33.272 -21.743  1.00  0.00     0.000 C 
BRANCH   3   4
ATOM      4  C   UNL     1     -10.809  34.022 -20.669  1.00  0.00     0.000 C 
BRANCH   4   5
ATOM      5  C   UNL     1      -9.647  33.162 -20.147  1.00  0.00     0.000 C 
BRANCH   5   6
ATOM      6  C   UNL     1      -8.864  33.849 -19.016  1.00  0.00     0.000 C 
BRANCH   6   7
ATOM      7  C   UNL     1      -8.639  32.928 -17.808  1.00  0.00     0.006 C 
BRANCH   7   8
ATOM      8  C   UNL     1      -7.880  33.658 -16.696  1.00  0.00     0.053 C 
BRANCH   8   9
ATOM      9  C   UNL     1      -7.930  32.874 -15.424  1.00  0.00     0.041 C 
ATOM     10  O   UNL     1      -7.797  33.455 -14.315  1.00  0.00    -0.550 OA
ATOM     11  O   UNL     1      -8.174  31.506 -15.460  1.00  0.00    -0.550 OA
ENDBRANCH   8   9
ENDBRANCH   7   8
ENDBRANCH   6   7
ENDBRANCH   5   6
ENDBRANCH   4   5
ENDBRANCH   3   4
ENDBRANCH   2   3
ENDBRANCH   1   2
BRANCH   1  12
ATOM     12  C   UNL     1     -14.491  30.895 -20.744  1.00  0.00     0.000 C 
BRANCH  12  13
ATOM     13  C   UNL     1     -14.675  29.852 -19.631  1.00  0.00    -0.000 C 
BRANCH  13  14
ATOM     14  C   UNL     1     -15.750  28.808 -19.970  1.00  0.00    -0.000 C 
BRANCH  14  15
ATOM     15  C   UNL     1     -16.331  28.184 -18.696  1.00  0.00    -0.000 C 
BRANCH  15  16
ATOM     16  C   UNL     1     -17.138  26.918 -19.021  1.00  0.00    -0.000 C 
BRANCH  16  17
ATOM     17  C   UNL     1     -17.035  25.844 -17.923  1.00  0.00    -0.000 C 
BRANCH  17  18
ATOM     18  C   UNL     1     -16.413  24.507 -18.374  1.00  0.00    -0.000 C 
BRANCH  18  19
ATOM     19  C   UNL     1     -16.143  24.392 -19.884  1.00  0.00    -0.003 C 
ATOM     20  C   UNL     1     -15.911  22.952 -20.340  1.00  0.00     0.004 C 
ENDBRANCH  18  19
ENDBRANCH  17  18
ENDBRANCH  16  17
ENDBRANCH  15  16
ENDBRANCH  14  15
ENDBRANCH  13  14
ENDBRANCH  12  13
ENDBRANCH   1  12
TORSDOF 16
ENDMDL
MODEL 2
REMARK VINA RESULT:    14.313      0.893      1.747
REMARK INTER + INTRA:          27.127
REMARK INTER:                  27.316
REMARK INTRA:                  -0.189
REMARK UNBOUND:                -0.574
REMARK SMILES CCCCCCCCCCCCCCCCCC(=O)[O-]
REMARK SMILES IDX 10 1 11 2 12 3 13 4 14 5 15 6 16 7 17 8 18 9 19 10 20 11
REMARK SMILES IDX 9 12 8 13 7 14 6 15 5 16 4 17 3 18 2 19 1 20
REMARK H PARENT
REMARK Flexibility Score: inf
ROOT
ATOM      1  C   UNL     1     -12.255  32.587 -21.694  1.00  0.00     0.000 C 
ENDROOT
BRANCH   1   2
ATOM      2  C   UNL     1     -11.460  33.722 -21.036  1.00  0.00     0.000 C 
BRANCH   2   3
ATOM      3  C   UNL     1     -10.103  33.222 -20.529  1.00  0.00     0.000 C 
BRANCH   3   4
ATOM      4  C   UNL     1      -9.350  34.330 -19.783  1.00  0.00     0.000 C 
BRANCH   4   5
ATOM      5  C   UNL     1      -8.822  33.823 -18.433  1.00  0.00     0.000 C 
BRANCH   5   6
ATOM      6  C   UNL     1      -7.612  34.629 -17.929  1.00  0.00     0.000 C 
BRANCH   6   7
ATOM      7  C   UNL     1      -6.937  33.983 -16.711  1.00  0.00     0.006 C 
BRANCH   7   8
ATOM      8  C   UNL     1      -7.972  33.598 -15.650  1.00  0.00     0.053 C 
BRANCH   8   9
ATOM      9  C   UNL     1      -8.144  32.114 -15.599  1.00  0.00     0.041 C 
ATOM     10  O   UNL     1      -8.492  31.552 -14.527  1.00  0.00    -0.550 OA
ATOM     11  O   UNL     1      -7.966  31.353 -16.748  1.00  0.00    -0.550 OA
ENDBRANCH   8   9
ENDBRANCH   7   8
ENDBRANCH   6   7
ENDBRANCH   5   6
ENDBRANCH   4   5
ENDBRANCH   3   4
ENDBRANCH   2   3
ENDBRANCH   1   2
BRANCH   1  12
ATOM     12  C   UNL     1     -13.469  32.197 -20.836  1.00  0.00     0.000 C 
BRANCH  12  13
ATOM     13  C   UNL     1     -13.701  30.679 -20.794  1.00  0.00    -0.000 C 
BRANCH  13  14
ATOM     14  C   UNL     1     -14.632  30.254 -19.648  1.00  0.00    -0.000 C 
BRANCH  14  15
ATOM     15  C   UNL     1     -15.662  29.226 -20.130  1.00  0.00    -0.000 C 
BRANCH  15  16
ATOM     16  C   UNL     1     -16.181  28.377 -18.960  1.00  0.00    -0.000 C 
BRANCH  16  17
ATOM     17  C   UNL     1     -16.787  27.037 -19.416  1.00  0.00    -0.000 C 
BRANCH  17  18
ATOM     18  C   UNL     1     -17.235  26.101 -18.275  1.00  0.00    -0.000 C 
BRANCH  18  19
ATOM     19  C   UNL     1     -16.411  24.810 -18.132  1.00  0.00    -0.003 C 
ATOM     20  C   UNL     1     -16.238  24.064 -19.456  1.00  0.00     0.004 C 
ENDBRANCH  18  19
ENDBRANCH  17  18
ENDBRANCH  16  17
ENDBRANCH  15  16
ENDBRANCH  14  15
ENDBRANCH  13  14
ENDBRANCH  12  13
ENDBRANCH   1  12
TORSDOF 16
ENDMDL
MODEL 3
REMARK VINA RESULT:    14.587      4.138     10.187
REMARK INTER + INTRA:          27.656
REMARK INTER:                  28.292
REMARK INTRA:                  -0.635
REMARK UNBOUND:                -0.574
REMARK SMILES CCCCCCCCCCCCCCCCCC(=O)[O-]
REMARK SMILES IDX 10 1 11 2 12 3 13 4 14 5 15 6 16 7 17 8 18 9 19 10 20 11
REMARK SMILES IDX 9 12 8 13 7 14 6 15 5 16 4 17 3 18 2 19 1 20
REMARK H PARENT
REMARK Flexibility Score: inf
ROOT
ATOM      1  C   UNL     1     -13.426  31.972 -20.801  1.00  0.00     0.000 C 
ENDROOT
BRANCH   1   2
ATOM      2  C   UNL     1     -13.707  30.488 -20.535  1.00  0.00     0.000 C 
BRANCH   2   3
ATOM      3  C   UNL     1     -15.152  30.277 -20.069  1.00  0.00     0.000 C 
BRANCH   3   4
ATOM      4  C   UNL     1     -15.279  29.002 -19.226  1.00  0.00     0.000 C 
BRANCH   4   5
ATOM      5  C   UNL     1     -16.352  28.066 -19.803  1.00  0.00     0.000 C 
BRANCH   5   6
ATOM      6  C   UNL     1     -17.208  27.402 -18.711  1.00  0.00     0.000 C 
BRANCH   6   7
ATOM      7  C   UNL     1     -16.777  25.957 -18.418  1.00  0.00     0.006 C 
BRANCH   7   8
ATOM      8  C   UNL     1     -16.385  25.230 -19.707  1.00  0.00     0.053 C 
BRANCH   8   9
ATOM      9  C   UNL     1     -16.169  23.774 -19.443  1.00  0.00     0.041 C 
ATOM     10  O   UNL     1     -15.910  22.989 -20.393  1.00  0.00    -0.550 OA
ATOM     11  O   UNL     1     -16.206  23.291 -18.141  1.00  0.00    -0.550 OA
ENDBRANCH   8   9
ENDBRANCH   7   8
ENDBRANCH   6   7
ENDBRANCH   5   6
ENDBRANCH   4   5
ENDBRANCH   3   4
ENDBRANCH   2   3
ENDBRANCH   1   2
BRANCH   1  12
ATOM     12  C   UNL     1     -11.980  32.181 -21.276  1.00  0.00     0.000 C 
BRANCH  12  13
ATOM     13  C   UNL     1     -11.415  33.552 -20.872  1.00  0.00    -0.000 C 
BRANCH  13  14
ATOM     14  C   UNL     1      -9.915  33.502 -20.549  1.00  0.00    -0.000 C 
BRANCH  14  15
ATOM     15  C   UNL     1      -9.663  33.791 -19.064  1.00  0.00    -0.000 C 
BRANCH  15  16
ATOM     16  C   UNL     1      -8.523  32.917 -18.519  1.00  0.00    -0.000 C 
BRANCH  16  17
ATOM     17  C   UNL     1      -8.578  32.747 -16.990  1.00  0.00    -0.000 C 
BRANCH  17  18
ATOM     18  C   UNL     1      -7.902  33.874 -16.183  1.00  0.00    -0.000 C 
BRANCH  18  19
ATOM     19  C   UNL     1      -6.427  34.132 -16.536  1.00  0.00    -0.003 C 
ATOM     20  C   UNL     1      -6.160  35.577 -16.958  1.00  0.00     0.004 C 
ENDBRANCH  18  19
ENDBRANCH  17  18
ENDBRANCH  16  17
ENDBRANCH  15  16
ENDBRANCH  14  15
ENDBRANCH  13  14
ENDBRANCH  12  13
ENDBRANCH   1  12
TORSDOF 16
ENDMDL
MODEL 4
REMARK VINA RESULT:    14.667      1.565      2.038
REMARK INTER + INTRA:          27.811
REMARK INTER:                  28.093
REMARK INTRA:                  -0.282
REMARK UNBOUND:                -0.574
REMARK SMILES CCCCCCCCCCCCCCCCCC(=O)[O-]
REMARK SMILES IDX 10 1 11 2 12 3 13 4 14 5 15 6 16 7 17 8 18 9 19 10 20 11
REMARK SMILES IDX 9 12 8 13 7 14 6 15 5 16 4 17 3 18 2 19 1 20
REMARK H PARENT
REMARK Flexibility Score: inf
ROOT
ATOM      1  C   UNL     1     -12.999  32.607 -20.777  1.00  0.00     0.000 C 
ENDROOT
BRANCH   1   2
ATOM      2  C   UNL     1     -11.954  33.214 -21.721  1.00  0.00     0.000 C 
BRANCH   2   3
ATOM      3  C   UNL     1     -10.857  33.941 -20.934  1.00  0.00     0.000 C 
BRANCH   3   4
ATOM      4  C   UNL     1     -10.081  32.966 -20.040  1.00  0.00     0.000 C 
BRANCH   4   5
ATOM      5  C   UNL     1      -8.987  33.699 -19.250  1.00  0.00     0.000 C 
BRANCH   5   6
ATOM      6  C   UNL     1      -8.454  32.870 -18.068  1.00  0.00     0.000 C 
BRANCH   6   7
ATOM      7  C   UNL     1      -8.422  33.665 -16.754  1.00  0.00     0.006 C 
BRANCH   7   8
ATOM      8  C   UNL     1      -6.982  33.892 -16.286  1.00  0.00     0.053 C 
BRANCH   8   9
ATOM      9  C   UNL     1      -6.373  35.052 -17.007  1.00  0.00     0.041 C 
ATOM     10  O   UNL     1      -6.228  35.017 -18.257  1.00  0.00    -0.550 OA
ATOM     11  O   UNL     1      -6.011  36.194 -16.303  1.00  0.00    -0.550 OA
ENDBRANCH   8   9
ENDBRANCH   7   8
ENDBRANCH   6   7
ENDBRANCH   5   6
ENDBRANCH   4   5
ENDBRANCH   3   4
ENDBRANCH   2   3
ENDBRANCH   1   2
BRANCH   1  12
ATOM     12  C   UNL     1     -13.491  31.249 -21.302  1.00  0.00     0.000 C 
BRANCH  12  13
ATOM     13  C   UNL     1     -13.877  30.282 -20.172  1.00  0.00    -0.000 C 
BRANCH  13  14
ATOM     14  C   UNL     1     -15.390  30.031 -20.099  1.00  0.00    -0.000 C 
BRANCH  14  15
ATOM     15  C   UNL     1     -15.716  28.934 -19.079  1.00  0.00    -0.000 C 
BRANCH  15  16
ATOM     16  C   UNL     1     -16.479  27.776 -19.741  1.00  0.00    -0.000 C 
BRANCH  16  17
ATOM     17  C   UNL     1     -17.214  26.885 -18.724  1.00  0.00    -0.000 C 
BRANCH  17  18
ATOM     18  C   UNL     1     -16.406  25.675 -18.212  1.00  0.00    -0.000 C 
BRANCH  18  19
ATOM     19  C   UNL     1     -16.773  24.328 -18.859  1.00  0.00    -0.003 C 
ATOM     20  C   UNL     1     -15.827  23.935 -19.993  1.00  0.00     0.004 C 
ENDBRANCH  18  19
ENDBRANCH  17  18
ENDBRANCH  16  17
ENDBRANCH  15  16
ENDBRANCH  14  15
ENDBRANCH  13  14
ENDBRANCH  12  13
ENDBRANCH   1  12
TORSDOF 16
ENDMDL
MODEL 5
REMARK VINA RESULT:    15.383      7.742     12.238
REMARK INTER + INTRA:          29.197
REMARK INTER:                  29.770
REMARK INTRA:                  -0.574
REMARK UNBOUND:                -0.574
REMARK SMILES CCCCCCCCCCCCCCCCCC(=O)[O-]
REMARK SMILES IDX 10 1 11 2 12 3 13 4 14 5 15 6 16 7 17 8 18 9 19 10 20 11
REMARK SMILES IDX 9 12 8 13 7 14 6 15 5 16 4 17 3 18 2 19 1 20
REMARK H PARENT
REMARK Flexibility Score: inf
ROOT
ATOM      1  C   UNL     1      -8.798  39.308 -15.256  1.00  0.00     0.000 C 
ENDROOT
BRANCH   1   2
ATOM      2  C   UNL     1      -7.943  39.114 -16.514  1.00  0.00     0.000 C 
BRANCH   2   3
ATOM      3  C   UNL     1      -7.215  37.765 -16.482  1.00  0.00     0.000 C 
BRANCH   3   4
ATOM      4  C   UNL     1      -6.663  37.404 -17.867  1.00  0.00     0.000 C 
BRANCH   4   5
ATOM      5  C   UNL     1      -5.880  36.083 -17.818  1.00  0.00     0.000 C 
BRANCH   5   6
ATOM      6  C   UNL     1      -6.035  35.352 -16.474  1.00  0.00     0.000 C 
BRANCH   6   7
ATOM      7  C   UNL     1      -6.597  33.931 -16.634  1.00  0.00     0.006 C 
BRANCH   7   8
ATOM      8  C   UNL     1      -7.847  33.737 -15.771  1.00  0.00     0.053 C 
BRANCH   8   9
ATOM      9  C   UNL     1      -8.316  32.319 -15.839  1.00  0.00     0.041 C 
ATOM     10  O   UNL     1      -8.575  31.686 -14.781  1.00  0.00    -0.550 OA
ATOM     11  O   UNL     1      -8.512  31.710 -17.072  1.00  0.00    -0.550 OA
ENDBRANCH   8   9
ENDBRANCH   7   8
ENDBRANCH   6   7
ENDBRANCH   5   6
ENDBRANCH   4   5
ENDBRANCH   3   4
ENDBRANCH   2   3
ENDBRANCH   1   2
BRANCH   1  12
ATOM     12  C   UNL     1      -8.614  40.719 -14.678  1.00  0.00     0.000 C 
BRANCH  12  13
ATOM     13  C   UNL     1      -9.566  41.010 -13.508  1.00  0.00    -0.000 C 
BRANCH  13  14
ATOM     14  C   UNL     1      -8.831  41.149 -12.166  1.00  0.00    -0.000 C 
BRANCH  14  15
ATOM     15  C   UNL     1      -9.807  41.026 -10.990  1.00  0.00    -0.000 C 
BRANCH  15  16
ATOM     16  C   UNL     1     -11.230  40.726 -11.485  1.00  0.00    -0.000 C 
BRANCH  16  17
ATOM     17  C   UNL     1     -12.029  41.999 -11.819  1.00  0.00    -0.000 C 
BRANCH  17  18
ATOM     18  C   UNL     1     -12.955  41.885 -13.047  1.00  0.00    -0.000 C 
BRANCH  18  19
ATOM     19  C   UNL     1     -12.649  42.871 -14.187  1.00  0.00    -0.003 C 
ATOM     20  C   UNL     1     -13.446  42.580 -15.458  1.00  0.00     0.004 C 
ENDBRANCH  18  19
ENDBRANCH  17  18
ENDBRANCH  16  17
ENDBRANCH  15  16
ENDBRANCH  14  15
ENDBRANCH  13  14
ENDBRANCH  12  13
ENDBRANCH   1  12
TORSDOF 16
ENDMDL
MODEL 6
REMARK VINA RESULT:    15.718      7.143     12.471
REMARK INTER + INTRA:          29.846
REMARK INTER:                  29.875
REMARK INTRA:                  -0.029
REMARK UNBOUND:                -0.574
REMARK SMILES CCCCCCCCCCCCCCCCCC(=O)[O-]
REMARK SMILES IDX 10 1 11 2 12 3 13 4 14 5 15 6 16 7 17 8 18 9 19 10 20 11
REMARK SMILES IDX 9 12 8 13 7 14 6 15 5 16 4 17 3 18 2 19 1 20
REMARK H PARENT
REMARK Flexibility Score: inf
ROOT
ATOM      1  C   UNL     1      -7.454  38.671 -15.633  1.00  0.00     0.000 C 
ENDROOT
BRANCH   1   2
ATOM      2  C   UNL     1      -7.267  37.745 -16.841  1.00  0.00     0.000 C 
BRANCH   2   3
ATOM      3  C   UNL     1      -5.875  37.103 -16.833  1.00  0.00     0.000 C 
BRANCH   3   4
ATOM      4  C   UNL     1      -5.890  35.746 -17.548  1.00  0.00     0.000 C 
BRANCH   4   5
ATOM      5  C   UNL     1      -5.924  34.592 -16.535  1.00  0.00     0.000 C 
BRANCH   5   6
ATOM      6  C   UNL     1      -7.354  34.209 -16.121  1.00  0.00     0.000 C 
BRANCH   6   7
ATOM      7  C   UNL     1      -8.068  33.353 -17.178  1.00  0.00     0.006 C 
BRANCH   7   8
ATOM      8  C   UNL     1      -8.671  32.094 -16.548  1.00  0.00     0.053 C 
BRANCH   8   9
ATOM      9  C   UNL     1      -8.209  31.943 -15.134  1.00  0.00     0.041 C 
ATOM     10  O   UNL     1      -8.454  32.843 -14.287  1.00  0.00    -0.550 OA
ATOM     11  O   UNL     1      -7.548  30.786 -14.738  1.00  0.00    -0.550 OA
ENDBRANCH   8   9
ENDBRANCH   7   8
ENDBRANCH   6   7
ENDBRANCH   5   6
ENDBRANCH   4   5
ENDBRANCH   3   4
ENDBRANCH   2   3
ENDBRANCH   1   2
BRANCH   1  12
ATOM     12  C   UNL     1      -8.552  39.711 -15.902  1.00  0.00     0.000 C 
BRANCH  12  13
ATOM     13  C   UNL     1      -8.665  40.756 -14.782  1.00  0.00    -0.000 C 
BRANCH  13  14
ATOM     14  C   UNL     1      -7.405  41.625 -14.654  1.00  0.00    -0.000 C 
BRANCH  14  15
ATOM     15  C   UNL     1      -7.004  41.797 -13.184  1.00  0.00    -0.000 C 
BRANCH  15  16
ATOM     16  C   UNL     1      -8.240  42.016 -12.298  1.00  0.00    -0.000 C 
BRANCH  16  17
ATOM     17  C   UNL     1      -8.371  40.962 -11.184  1.00  0.00    -0.000 C 
BRANCH  17  18
ATOM     18  C   UNL     1      -9.683  41.026 -10.376  1.00  0.00    -0.000 C 
BRANCH  18  19
ATOM     19  C   UNL     1     -10.943  41.328 -11.205  1.00  0.00    -0.003 C 
ATOM     20  C   UNL     1     -12.166  40.537 -10.740  1.00  0.00     0.004 C 
ENDBRANCH  18  19
ENDBRANCH  17  18
ENDBRANCH  16  17
ENDBRANCH  15  16
ENDBRANCH  14  15
ENDBRANCH  13  14
ENDBRANCH  12  13
ENDBRANCH   1  12
TORSDOF 16
ENDMDL
MODEL 7
REMARK VINA RESULT:    15.782     12.693     14.273
REMARK INTER + INTRA:          29.969
REMARK INTER:                  30.243
REMARK INTRA:                  -0.274
REMARK UNBOUND:                -0.574
REMARK SMILES CCCCCCCCCCCCCCCCCC(=O)[O-]
REMARK SMILES IDX 10 1 11 2 12 3 13 4 14 5 15 6 16 7 17 8 18 9 19 10 20 11
REMARK SMILES IDX 9 12 8 13 7 14 6 15 5 16 4 17 3 18 2 19 1 20
REMARK H PARENT
REMARK Flexibility Score: inf
ROOT
ATOM      1  C   UNL     1      -8.572  40.952 -10.887  1.00  0.00     0.000 C 
ENDROOT
BRANCH   1   2
ATOM      2  C   UNL     1      -7.851  42.167 -11.483  1.00  0.00     0.000 C 
BRANCH   2   3
ATOM      3  C   UNL     1      -6.963  41.756 -12.663  1.00  0.00     0.000 C 
BRANCH   3   4
ATOM      4  C   UNL     1      -7.798  41.536 -13.931  1.00  0.00     0.000 C 
BRANCH   4   5
ATOM      5  C   UNL     1      -9.110  42.333 -13.870  1.00  0.00     0.000 C 
BRANCH   5   6
ATOM      6  C   UNL     1     -10.350  41.452 -14.094  1.00  0.00     0.000 C 
BRANCH   6   7
ATOM      7  C   UNL     1     -11.570  41.930 -13.292  1.00  0.00     0.006 C 
BRANCH   7   8
ATOM      8  C   UNL     1     -12.339  43.011 -14.056  1.00  0.00     0.053 C 
BRANCH   8   9
ATOM      9  C   UNL     1     -13.373  42.392 -14.941  1.00  0.00     0.041 C 
ATOM     10  O   UNL     1     -13.187  42.328 -16.185  1.00  0.00    -0.550 OA
ATOM     11  O   UNL     1     -14.523  41.843 -14.387  1.00  0.00    -0.550 OA
ENDBRANCH   8   9
ENDBRANCH   7   8
ENDBRANCH   6   7
ENDBRANCH   5   6
ENDBRANCH   4   5
ENDBRANCH   3   4
ENDBRANCH   2   3
ENDBRANCH   1   2
BRANCH   1  12
ATOM     12  C   UNL     1      -9.176  41.289  -9.515  1.00  0.00     0.000 C 
BRANCH  12  13
ATOM     13  C   UNL     1     -10.585  41.894  -9.620  1.00  0.00    -0.000 C 
BRANCH  13  14
ATOM     14  C   UNL     1     -11.385  41.330 -10.804  1.00  0.00    -0.000 C 
BRANCH  14  15
ATOM     15  C   UNL     1     -12.387  40.269 -10.334  1.00  0.00    -0.000 C 
BRANCH  15  16
ATOM     16  C   UNL     1     -12.497  40.257  -8.802  1.00  0.00    -0.000 C 
BRANCH  16  17
ATOM     17  C   UNL     1     -13.635  39.355  -8.291  1.00  0.00    -0.000 C 
BRANCH  17  18
ATOM     18  C   UNL     1     -13.906  38.099  -9.144  1.00  0.00    -0.000 C 
BRANCH  18  19
ATOM     19  C   UNL     1     -15.391  37.730  -9.305  1.00  0.00    -0.003 C 
ATOM     20  C   UNL     1     -16.331  38.892  -8.984  1.00  0.00     0.004 C 
ENDBRANCH  18  19
ENDBRANCH  17  18
ENDBRANCH  16  17
ENDBRANCH  15  16
ENDBRANCH  14  15
ENDBRANCH  13  14
ENDBRANCH  12  13
ENDBRANCH   1  12
TORSDOF 16
ENDMDL
MODEL 8
REMARK VINA RESULT:    15.959      7.808     11.098
REMARK INTER + INTRA:          30.311
REMARK INTER:                  30.485
REMARK INTRA:                  -0.174
REMARK UNBOUND:                -0.574
REMARK SMILES CCCCCCCCCCCCCCCCCC(=O)[O-]
REMARK SMILES IDX 10 1 11 2 12 3 13 4 14 5 15 6 16 7 17 8 18 9 19 10 20 11
REMARK SMILES IDX 9 12 8 13 7 14 6 15 5 16 4 17 3 18 2 19 1 20
REMARK H PARENT
REMARK Flexibility Score: inf
ROOT
ATOM      1  C   UNL     1      -7.706  38.464 -15.847  1.00  0.00     0.000 C 
ENDROOT
BRANCH   1   2
ATOM      2  C   UNL     1      -8.426  39.776 -16.179  1.00  0.00     0.000 C 
BRANCH   2   3
ATOM      3  C   UNL     1      -8.667  40.608 -14.914  1.00  0.00     0.000 C 
BRANCH   3   4
ATOM      4  C   UNL     1      -7.447  41.476 -14.583  1.00  0.00     0.000 C 
BRANCH   4   5
ATOM      5  C   UNL     1      -7.324  41.696 -13.068  1.00  0.00     0.000 C 
BRANCH   5   6
ATOM      6  C   UNL     1      -8.688  41.877 -12.383  1.00  0.00     0.000 C 
BRANCH   6   7
ATOM      7  C   UNL     1      -8.894  40.908 -11.209  1.00  0.00     0.006 C 
BRANCH   7   8
ATOM      8  C   UNL     1     -10.294  40.288 -11.249  1.00  0.00     0.053 C 
BRANCH   8   9
ATOM      9  C   UNL     1     -11.330  41.310 -10.906  1.00  0.00     0.041 C 
ATOM     10  O   UNL     1     -12.136  41.717 -11.785  1.00  0.00    -0.550 OA
ATOM     11  O   UNL     1     -11.439  41.780  -9.603  1.00  0.00    -0.550 OA
ENDBRANCH   8   9
ENDBRANCH   7   8
ENDBRANCH   6   7
ENDBRANCH   5   6
ENDBRANCH   4   5
ENDBRANCH   3   4
ENDBRANCH   2   3
ENDBRANCH   1   2
BRANCH   1  12
ATOM     12  C   UNL     1      -7.147  37.807 -17.118  1.00  0.00     0.000 C 
BRANCH  12  13
ATOM     13  C   UNL     1      -5.879  36.981 -16.850  1.00  0.00    -0.000 C 
BRANCH  13  14
ATOM     14  C   UNL     1      -5.877  35.639 -17.596  1.00  0.00    -0.000 C 
BRANCH  14  15
ATOM     15  C   UNL     1      -6.135  34.474 -16.633  1.00  0.00    -0.000 C 
BRANCH  15  16
ATOM     16  C   UNL     1      -7.641  34.211 -16.479  1.00  0.00    -0.000 C 
BRANCH  16  17
ATOM     17  C   UNL     1      -8.116  32.977 -17.269  1.00  0.00    -0.000 C 
BRANCH  17  18
ATOM     18  C   UNL     1      -8.733  31.852 -16.414  1.00  0.00    -0.000 C 
BRANCH  18  19
ATOM     19  C   UNL     1      -8.126  31.697 -15.009  1.00  0.00    -0.003 C 
ATOM     20  C   UNL     1      -8.383  32.907 -14.111  1.00  0.00     0.004 C 
ENDBRANCH  18  19
ENDBRANCH  17  18
ENDBRANCH  16  17
ENDBRANCH  15  16
ENDBRANCH  14  15
ENDBRANCH  13  14
ENDBRANCH  12  13
ENDBRANCH   1  12
TORSDOF 16
ENDMDL
MODEL 9
REMARK VINA RESULT:    16.101      7.982     11.944
REMARK INTER + INTRA:          30.588
REMARK INTER:                  31.127
REMARK INTRA:                  -0.539
REMARK UNBOUND:                -0.574
REMARK SMILES CCCCCCCCCCCCCCCCCC(=O)[O-]
REMARK SMILES IDX 10 1 11 2 12 3 13 4 14 5 15 6 16 7 17 8 18 9 19 10 20 11
REMARK SMILES IDX 9 12 8 13 7 14 6 15 5 16 4 17 3 18 2 19 1 20
REMARK H PARENT
REMARK Flexibility Score: inf
ROOT
ATOM      1  C   UNL     1      -9.424  40.222 -14.888  1.00  0.00     0.000 C 
ENDROOT
BRANCH   1   2
ATOM      2  C   UNL     1      -8.406  39.802 -15.955  1.00  0.00     0.000 C 
BRANCH   2   3
ATOM      3  C   UNL     1      -7.976  38.343 -15.761  1.00  0.00     0.000 C 
BRANCH   3   4
ATOM      4  C   UNL     1      -7.077  37.875 -16.912  1.00  0.00     0.000 C 
BRANCH   4   5
ATOM      5  C   UNL     1      -6.104  36.784 -16.441  1.00  0.00     0.000 C 
BRANCH   5   6
ATOM      6  C   UNL     1      -6.026  35.598 -17.417  1.00  0.00     0.000 C 
BRANCH   6   7
ATOM      7  C   UNL     1      -6.187  34.242 -16.715  1.00  0.00     0.006 C 
BRANCH   7   8
ATOM      8  C   UNL     1      -7.599  33.684 -16.917  1.00  0.00     0.053 C 
BRANCH   8   9
ATOM      9  C   UNL     1      -8.046  32.938 -15.700  1.00  0.00     0.041 C 
ATOM     10  O   UNL     1      -8.414  33.565 -14.671  1.00  0.00    -0.550 OA
ATOM     11  O   UNL     1      -8.104  31.550 -15.719  1.00  0.00    -0.550 OA
ENDBRANCH   8   9
ENDBRANCH   7   8
ENDBRANCH   6   7
ENDBRANCH   5   6
ENDBRANCH   4   5
ENDBRANCH   3   4
ENDBRANCH   2   3
ENDBRANCH   1   2
BRANCH   1  12
ATOM     12  C   UNL     1      -8.789  41.179 -13.868  1.00  0.00     0.000 C 
BRANCH  12  13
ATOM     13  C   UNL     1      -9.761  41.584 -12.750  1.00  0.00    -0.000 C 
BRANCH  13  14
ATOM     14  C   UNL     1      -9.591  40.735 -11.481  1.00  0.00    -0.000 C 
BRANCH  14  15
ATOM     15  C   UNL     1     -10.630  41.117 -10.421  1.00  0.00    -0.000 C 
BRANCH  15  16
ATOM     16  C   UNL     1     -11.968  40.408 -10.680  1.00  0.00    -0.000 C 
BRANCH  16  17
ATOM     17  C   UNL     1     -12.790  40.192  -9.397  1.00  0.00    -0.000 C 
BRANCH  17  18
ATOM     18  C   UNL     1     -13.468  38.812  -9.280  1.00  0.00    -0.000 C 
BRANCH  18  19
ATOM     19  C   UNL     1     -15.006  38.839  -9.310  1.00  0.00    -0.003 C 
ATOM     20  C   UNL     1     -15.632  37.491  -8.952  1.00  0.00     0.004 C 
ENDBRANCH  18  19
ENDBRANCH  17  18
ENDBRANCH  16  17
ENDBRANCH  15  16
ENDBRANCH  14  15
ENDBRANCH  13  14
ENDBRANCH  12  13
ENDBRANCH   1  12
TORSDOF 16
ENDMDL
