MODEL 1
REMARK VINA RESULT:    -6.718      0.000      0.000
REMARK INTER + INTRA:          -8.422
REMARK INTER:                  -8.093
REMARK INTRA:                  -0.329
REMARK UNBOUND:                -0.329
REMARK SMILES O=c1c(O)c(-c2ccc(O)c(O)c2)oc2cc(O)cc(O)c12
REMARK SMILES IDX 5 1 3 2 2 3 1 4 22 5 20 6 19 7 17 8 16 9 15 10 14 11 6 12
REMARK SMILES IDX 7 13 8 14 9 15 13 16 11 17 10 18 12 20 4 22 21 24 18 26
REMARK H PARENT 10 19 12 21 4 23 21 25 18 27
REMARK Flexibility Score: inf
ROOT
ATOM      1  C   UNL     1      42.504  10.034  10.617  1.00  0.00     0.180 A 
ATOM      2  C   UNL     1      41.729   9.725   9.486  1.00  0.00     0.208 A 
ATOM      3  C   UNL     1      42.378   9.420   8.279  1.00  0.00     0.238 A 
ATOM      4  O   UNL     1      41.677   9.217   7.253  1.00  0.00    -0.285 OA
ATOM      5  C   UNL     1      43.792   9.374   8.229  1.00  0.00     0.111 A 
ATOM      6  C   UNL     1      44.555   9.033   7.070  1.00  0.00     0.134 A 
ATOM      7  C   UNL     1      45.951   9.125   7.111  1.00  0.00     0.093 A 
ATOM      8  C   UNL     1      46.616   9.483   8.286  1.00  0.00     0.123 A 
ATOM      9  C   UNL     1      45.884   9.764   9.437  1.00  0.00     0.094 A 
ATOM     10  C   UNL     1      44.488   9.718   9.417  1.00  0.00     0.146 A 
ATOM     11  O   UNL     1      43.829  10.016  10.531  1.00  0.00    -0.452 OA
ENDROOT
BRANCH   1  12
ATOM     12  C   UNL     1      41.894  10.379  11.920  1.00  0.00     0.025 A 
ATOM     13  C   UNL     1      41.498  11.695  12.218  1.00  0.00     0.016 A 
ATOM     14  C   UNL     1      40.946  12.001  13.465  1.00  0.00     0.051 A 
ATOM     15  C   UNL     1      40.795  11.002  14.437  1.00  0.00     0.157 A 
ATOM     16  C   UNL     1      41.761   9.387  12.904  1.00  0.00     0.062 A 
ATOM     17  C   UNL     1      41.209   9.689  14.155  1.00  0.00     0.158 A 
BRANCH  15  18
ATOM     18  O   UNL     1      40.243  11.310  15.679  1.00  0.00    -0.504 OA
ATOM     19  H   UNL     1      40.559  12.110  16.216  1.00  0.00     0.293 HD
ENDBRANCH  15  18
BRANCH  17  20
ATOM     20  O   UNL     1      41.080   8.674  15.102  1.00  0.00    -0.504 OA
ATOM     21  H   UNL     1      41.767   7.935  15.195  1.00  0.00     0.293 HD
ENDBRANCH  17  20
ENDBRANCH   1  12
BRANCH   2  22
ATOM     22  O   UNL     1      40.335   9.700   9.574  1.00  0.00    -0.502 OA
ATOM     23  H   UNL     1      39.839   9.937  10.425  1.00  0.00     0.293 HD
ENDBRANCH   2  22
BRANCH   6  24
ATOM     24  O   UNL     1      43.996   8.579   5.872  1.00  0.00    -0.507 OA
ATOM     25  H   UNL     1      43.337   7.820   5.793  1.00  0.00     0.293 HD
ENDBRANCH   6  24
BRANCH   8  26
ATOM     26  O   UNL     1      48.007   9.555   8.322  1.00  0.00    -0.508 OA
ATOM     27  H   UNL     1      48.488  10.423   8.522  1.00  0.00     0.293 HD
ENDBRANCH   8  26
TORSDOF 6
ENDMDL
MODEL 2
REMARK VINA RESULT:    -6.370      9.029     11.722
REMARK INTER + INTRA:          -8.002
REMARK INTER:                  -7.725
REMARK INTRA:                  -0.277
REMARK UNBOUND:                -0.329
REMARK SMILES O=c1c(O)c(-c2ccc(O)c(O)c2)oc2cc(O)cc(O)c12
REMARK SMILES IDX 5 1 3 2 2 3 1 4 22 5 20 6 19 7 17 8 16 9 15 10 14 11 6 12
REMARK SMILES IDX 7 13 8 14 9 15 13 16 11 17 10 18 12 20 4 22 21 24 18 26
REMARK H PARENT 10 19 12 21 4 23 21 25 18 27
REMARK Flexibility Score: inf
ROOT
ATOM      1  C   UNL     1      52.628  11.047  10.562  1.00  0.00     0.180 A 
ATOM      2  C   UNL     1      51.470  11.497  11.218  1.00  0.00     0.208 A 
ATOM      3  C   UNL     1      51.514  12.712  11.920  1.00  0.00     0.238 A 
ATOM      4  O   UNL     1      50.496  13.072  12.567  1.00  0.00    -0.285 OA
ATOM      5  C   UNL     1      52.697  13.490  11.912  1.00  0.00     0.111 A 
ATOM      6  C   UNL     1      52.841  14.759  12.552  1.00  0.00     0.134 A 
ATOM      7  C   UNL     1      54.092  15.387  12.567  1.00  0.00     0.093 A 
ATOM      8  C   UNL     1      55.189  14.825  11.909  1.00  0.00     0.123 A 
ATOM      9  C   UNL     1      55.045  13.614  11.236  1.00  0.00     0.094 A 
ATOM     10  C   UNL     1      53.819  12.944  11.236  1.00  0.00     0.146 A 
ATOM     11  O   UNL     1      53.733  11.782  10.599  1.00  0.00    -0.452 OA
ENDROOT
BRANCH   1  12
ATOM     12  C   UNL     1      52.664   9.771   9.813  1.00  0.00     0.025 A 
ATOM     13  C   UNL     1      52.714   8.533  10.478  1.00  0.00     0.016 A 
ATOM     14  C   UNL     1      52.772   7.342   9.750  1.00  0.00     0.051 A 
ATOM     15  C   UNL     1      52.796   7.369   8.349  1.00  0.00     0.157 A 
ATOM     16  C   UNL     1      52.711   9.794   8.410  1.00  0.00     0.062 A 
ATOM     17  C   UNL     1      52.768   8.603   7.677  1.00  0.00     0.158 A 
BRANCH  15  18
ATOM     18  O   UNL     1      52.852   6.179   7.625  1.00  0.00    -0.504 OA
ATOM     19  H   UNL     1      52.332   5.359   7.912  1.00  0.00     0.293 HD
ENDBRANCH  15  18
BRANCH  17  20
ATOM     20  O   UNL     1      52.799   8.666   6.284  1.00  0.00    -0.504 OA
ATOM     21  H   UNL     1      53.038   9.517   5.789  1.00  0.00     0.293 HD
ENDBRANCH  17  20
ENDBRANCH   1  12
BRANCH   2  22
ATOM     22  O   UNL     1      50.289  10.753  11.151  1.00  0.00    -0.502 OA
ATOM     23  H   UNL     1      49.424  11.066  11.574  1.00  0.00     0.293 HD
ENDBRANCH   2  22
BRANCH   6  24
ATOM     24  O   UNL     1      51.790  15.451  13.162  1.00  0.00    -0.507 OA
ATOM     25  H   UNL     1      50.816  15.348  12.925  1.00  0.00     0.293 HD
ENDBRANCH   6  24
BRANCH   8  26
ATOM     26  O   UNL     1      56.425  15.466  11.914  1.00  0.00    -0.508 OA
ATOM     27  H   UNL     1      56.995  15.527  11.079  1.00  0.00     0.293 HD
ENDBRANCH   8  26
TORSDOF 6
ENDMDL
MODEL 3
REMARK VINA RESULT:    -6.313     10.194     13.243
REMARK INTER + INTRA:          -7.934
REMARK INTER:                  -7.637
REMARK INTRA:                  -0.297
REMARK UNBOUND:                -0.329
REMARK SMILES O=c1c(O)c(-c2ccc(O)c(O)c2)oc2cc(O)cc(O)c12
REMARK SMILES IDX 5 1 3 2 2 3 1 4 22 5 20 6 19 7 17 8 16 9 15 10 14 11 6 12
REMARK SMILES IDX 7 13 8 14 9 15 13 16 11 17 10 18 12 20 4 22 21 24 18 26
REMARK H PARENT 10 19 12 21 4 23 21 25 18 27
REMARK Flexibility Score: inf
ROOT
ATOM      1  C   UNL     1      54.187  11.028   9.105  1.00  0.00     0.180 A 
ATOM      2  C   UNL     1      52.971  11.000   9.809  1.00  0.00     0.208 A 
ATOM      3  C   UNL     1      52.769  11.913  10.856  1.00  0.00     0.238 A 
ATOM      4  O   UNL     1      51.709  11.834  11.529  1.00  0.00    -0.285 OA
ATOM      5  C   UNL     1      53.761  12.880  11.151  1.00  0.00     0.111 A 
ATOM      6  C   UNL     1      53.644  13.883  12.161  1.00  0.00     0.134 A 
ATOM      7  C   UNL     1      54.735  14.718  12.434  1.00  0.00     0.093 A 
ATOM      8  C   UNL     1      55.915  14.630  11.691  1.00  0.00     0.123 A 
ATOM      9  C   UNL     1      56.018  13.691  10.668  1.00  0.00     0.094 A 
ATOM     10  C   UNL     1      54.962  12.818  10.396  1.00  0.00     0.146 A 
ATOM     11  O   UNL     1      55.112  11.924   9.426  1.00  0.00    -0.452 OA
ENDROOT
BRANCH   1  12
ATOM     12  C   UNL     1      54.479  10.089   7.999  1.00  0.00     0.025 A 
ATOM     13  C   UNL     1      54.860   8.759   8.249  1.00  0.00     0.016 A 
ATOM     14  C   UNL     1      55.155   7.898   7.189  1.00  0.00     0.051 A 
ATOM     15  C   UNL     1      55.088   8.354   5.866  1.00  0.00     0.157 A 
ATOM     16  C   UNL     1      54.434  10.549   6.673  1.00  0.00     0.062 A 
ATOM     17  C   UNL     1      54.728   9.688   5.608  1.00  0.00     0.158 A 
BRANCH  15  18
ATOM     18  O   UNL     1      55.381   7.493   4.810  1.00  0.00    -0.504 OA
ATOM     19  H   UNL     1      55.344   6.486   4.922  1.00  0.00     0.293 HD
ENDBRANCH  15  18
BRANCH  17  20
ATOM     20  O   UNL     1      54.660  10.177   4.304  1.00  0.00    -0.504 OA
ATOM     21  H   UNL     1      55.458  10.159   3.680  1.00  0.00     0.293 HD
ENDBRANCH  17  20
ENDBRANCH   1  12
BRANCH   2  22
ATOM     22  O   UNL     1      51.973  10.090   9.453  1.00  0.00    -0.502 OA
ATOM     23  H   UNL     1      51.007  10.200   9.740  1.00  0.00     0.293 HD
ENDBRANCH   2  22
BRANCH   6  24
ATOM     24  O   UNL     1      52.481  14.117  12.901  1.00  0.00    -0.507 OA
ATOM     25  H   UNL     1      51.712  13.471  12.987  1.00  0.00     0.293 HD
ENDBRANCH   6  24
BRANCH   8  26
ATOM     26  O   UNL     1      56.988  15.476  11.959  1.00  0.00    -0.508 OA
ATOM     27  H   UNL     1      57.370  16.089  11.249  1.00  0.00     0.293 HD
ENDBRANCH   8  26
TORSDOF 6
ENDMDL
MODEL 4
REMARK VINA RESULT:    -6.239      2.465      7.712
REMARK INTER + INTRA:          -7.844
REMARK INTER:                  -7.513
REMARK INTRA:                  -0.331
REMARK UNBOUND:                -0.329
REMARK SMILES O=c1c(O)c(-c2ccc(O)c(O)c2)oc2cc(O)cc(O)c12
REMARK SMILES IDX 5 1 3 2 2 3 1 4 22 5 20 6 19 7 17 8 16 9 15 10 14 11 6 12
REMARK SMILES IDX 7 13 8 14 9 15 13 16 11 17 10 18 12 20 4 22 21 24 18 26
REMARK H PARENT 10 19 12 21 4 23 21 25 18 27
REMARK Flexibility Score: inf
ROOT
ATOM      1  C   UNL     1      45.242   9.000   7.683  1.00  0.00     0.180 A 
ATOM      2  C   UNL     1      45.658  10.213   8.258  1.00  0.00     0.208 A 
ATOM      3  C   UNL     1      44.812  10.857   9.175  1.00  0.00     0.238 A 
ATOM      4  O   UNL     1      45.158  11.979   9.629  1.00  0.00    -0.285 OA
ATOM      5  C   UNL     1      43.586  10.254   9.549  1.00  0.00     0.111 A 
ATOM      6  C   UNL     1      42.672  10.796  10.503  1.00  0.00     0.134 A 
ATOM      7  C   UNL     1      41.440  10.165  10.714  1.00  0.00     0.093 A 
ATOM      8  C   UNL     1      41.116   8.977  10.054  1.00  0.00     0.123 A 
ATOM      9  C   UNL     1      42.024   8.411   9.163  1.00  0.00     0.094 A 
ATOM     10  C   UNL     1      43.246   9.038   8.902  1.00  0.00     0.146 A 
ATOM     11  O   UNL     1      44.072   8.476   8.028  1.00  0.00    -0.452 OA
ENDROOT
BRANCH   1  12
ATOM     12  C   UNL     1      46.071   8.269   6.699  1.00  0.00     0.025 A 
ATOM     13  C   UNL     1      45.958   8.516   5.319  1.00  0.00     0.016 A 
ATOM     14  C   UNL     1      46.734   7.796   4.407  1.00  0.00     0.051 A 
ATOM     15  C   UNL     1      47.623   6.810   4.857  1.00  0.00     0.157 A 
ATOM     16  C   UNL     1      46.947   7.266   7.144  1.00  0.00     0.062 A 
ATOM     17  C   UNL     1      47.727   6.543   6.233  1.00  0.00     0.158 A 
BRANCH  15  18
ATOM     18  O   UNL     1      48.397   6.095   3.945  1.00  0.00    -0.504 OA
ATOM     19  H   UNL     1      49.387   6.280   3.829  1.00  0.00     0.293 HD
ENDBRANCH  15  18
BRANCH  17  20
ATOM     20  O   UNL     1      48.595   5.563   6.713  1.00  0.00    -0.504 OA
ATOM     21  H   UNL     1      49.569   5.526   6.436  1.00  0.00     0.293 HD
ENDBRANCH  17  20
ENDBRANCH   1  12
BRANCH   2  22
ATOM     22  O   UNL     1      46.905  10.754   7.934  1.00  0.00    -0.502 OA
ATOM     23  H   UNL     1      47.076  11.752   7.911  1.00  0.00     0.293 HD
ENDBRANCH   2  22
BRANCH   6  24
ATOM     24  O   UNL     1      42.932  11.928  11.282  1.00  0.00    -0.507 OA
ATOM     25  H   UNL     1      43.851  12.270  11.514  1.00  0.00     0.293 HD
ENDBRANCH   6  24
BRANCH   8  26
ATOM     26  O   UNL     1      39.895   8.347  10.284  1.00  0.00    -0.508 OA
ATOM     27  H   UNL     1      39.118   8.836  10.711  1.00  0.00     0.293 HD
ENDBRANCH   8  26
TORSDOF 6
ENDMDL
MODEL 5
REMARK VINA RESULT:    -6.225      9.149     12.210
REMARK INTER + INTRA:          -7.828
REMARK INTER:                  -7.672
REMARK INTRA:                  -0.156
REMARK UNBOUND:                -0.329
REMARK SMILES O=c1c(O)c(-c2ccc(O)c(O)c2)oc2cc(O)cc(O)c12
REMARK SMILES IDX 5 1 3 2 2 3 1 4 22 5 20 6 19 7 17 8 16 9 15 10 14 11 6 12
REMARK SMILES IDX 7 13 8 14 9 15 13 16 11 17 10 18 12 20 4 22 21 24 18 26
REMARK H PARENT 10 19 12 21 4 23 21 25 18 27
REMARK Flexibility Score: inf
ROOT
ATOM      1  C   UNL     1      53.284  10.846   9.652  1.00  0.00     0.180 A 
ATOM      2  C   UNL     1      51.971  10.835  10.151  1.00  0.00     0.208 A 
ATOM      3  C   UNL     1      51.586  11.818  11.076  1.00  0.00     0.238 A 
ATOM      4  O   UNL     1      50.432  11.759  11.575  1.00  0.00    -0.285 OA
ATOM      5  C   UNL     1      52.501  12.834  11.449  1.00  0.00     0.111 A 
ATOM      6  C   UNL     1      52.205  13.906  12.345  1.00  0.00     0.134 A 
ATOM      7  C   UNL     1      53.222  14.790  12.723  1.00  0.00     0.093 A 
ATOM      8  C   UNL     1      54.508  14.682  12.188  1.00  0.00     0.123 A 
ATOM      9  C   UNL     1      54.792  13.672  11.272  1.00  0.00     0.094 A 
ATOM     10  C   UNL     1      53.809  12.750  10.905  1.00  0.00     0.146 A 
ATOM     11  O   UNL     1      54.130  11.791  10.045  1.00  0.00    -0.452 OA
ENDROOT
BRANCH   1  12
ATOM     12  C   UNL     1      53.768   9.835   8.685  1.00  0.00     0.025 A 
ATOM     13  C   UNL     1      54.112  10.187   7.368  1.00  0.00     0.016 A 
ATOM     14  C   UNL     1      54.543   9.210   6.466  1.00  0.00     0.051 A 
ATOM     15  C   UNL     1      54.624   7.868   6.860  1.00  0.00     0.157 A 
ATOM     16  C   UNL     1      53.830   8.486   9.069  1.00  0.00     0.062 A 
ATOM     17  C   UNL     1      54.262   7.505   8.169  1.00  0.00     0.158 A 
BRANCH  15  18
ATOM     18  O   UNL     1      55.056   6.897   5.959  1.00  0.00    -0.504 OA
ATOM     19  H   UNL     1      54.905   6.994   4.962  1.00  0.00     0.293 HD
ENDBRANCH  15  18
BRANCH  17  20
ATOM     20  O   UNL     1      54.323   6.178   8.591  1.00  0.00    -0.504 OA
ATOM     21  H   UNL     1      54.174   5.914   9.558  1.00  0.00     0.293 HD
ENDBRANCH  17  20
ENDBRANCH   1  12
BRANCH   2  22
ATOM     22  O   UNL     1      51.059   9.871   9.713  1.00  0.00    -0.502 OA
ATOM     23  H   UNL     1      50.379   9.445  10.330  1.00  0.00     0.293 HD
ENDBRANCH   2  22
BRANCH   6  24
ATOM     24  O   UNL     1      50.933  14.160  12.868  1.00  0.00    -0.507 OA
ATOM     25  H   UNL     1      50.649  15.024  13.303  1.00  0.00     0.293 HD
ENDBRANCH   6  24
BRANCH   8  26
ATOM     26  O   UNL     1      55.509  15.577  12.557  1.00  0.00    -0.508 OA
ATOM     27  H   UNL     1      55.361  16.578  12.530  1.00  0.00     0.293 HD
ENDBRANCH   8  26
TORSDOF 6
ENDMDL
MODEL 6
REMARK VINA RESULT:    -6.179      2.652      7.596
REMARK INTER + INTRA:          -7.773
REMARK INTER:                  -7.502
REMARK INTRA:                  -0.270
REMARK UNBOUND:                -0.329
REMARK SMILES O=c1c(O)c(-c2ccc(O)c(O)c2)oc2cc(O)cc(O)c12
REMARK SMILES IDX 5 1 3 2 2 3 1 4 22 5 20 6 19 7 17 8 16 9 15 10 14 11 6 12
REMARK SMILES IDX 7 13 8 14 9 15 13 16 11 17 10 18 12 20 4 22 21 24 18 26
REMARK H PARENT 10 19 12 21 4 23 21 25 18 27
REMARK Flexibility Score: inf
ROOT
ATOM      1  C   UNL     1      45.313   9.422   8.077  1.00  0.00     0.180 A 
ATOM      2  C   UNL     1      45.080  10.409   9.050  1.00  0.00     0.208 A 
ATOM      3  C   UNL     1      43.857  10.411   9.739  1.00  0.00     0.238 A 
ATOM      4  O   UNL     1      43.626  11.340  10.556  1.00  0.00    -0.285 OA
ATOM      5  C   UNL     1      42.904   9.394   9.488  1.00  0.00     0.111 A 
ATOM      6  C   UNL     1      41.649   9.271  10.160  1.00  0.00     0.134 A 
ATOM      7  C   UNL     1      40.741   8.287   9.752  1.00  0.00     0.093 A 
ATOM      8  C   UNL     1      41.067   7.379   8.742  1.00  0.00     0.123 A 
ATOM      9  C   UNL     1      42.309   7.456   8.118  1.00  0.00     0.094 A 
ATOM     10  C   UNL     1      43.222   8.452   8.476  1.00  0.00     0.146 A 
ATOM     11  O   UNL     1      44.386   8.502   7.839  1.00  0.00    -0.452 OA
ENDROOT
BRANCH   1  12
ATOM     12  C   UNL     1      46.570   9.364   7.299  1.00  0.00     0.025 A 
ATOM     13  C   UNL     1      47.585   8.444   7.616  1.00  0.00     0.016 A 
ATOM     14  C   UNL     1      48.775   8.424   6.882  1.00  0.00     0.051 A 
ATOM     15  C   UNL     1      48.974   9.329   5.832  1.00  0.00     0.157 A 
ATOM     16  C   UNL     1      46.783  10.283   6.260  1.00  0.00     0.062 A 
ATOM     17  C   UNL     1      47.973  10.266   5.522  1.00  0.00     0.158 A 
BRANCH  15  18
ATOM     18  O   UNL     1      50.160   9.306   5.100  1.00  0.00    -0.504 OA
ATOM     19  H   UNL     1      50.304   9.916   4.305  1.00  0.00     0.293 HD
ENDBRANCH  15  18
BRANCH  17  20
ATOM     20  O   UNL     1      48.142  11.186   4.489  1.00  0.00    -0.504 OA
ATOM     21  H   UNL     1      47.567  11.170   3.655  1.00  0.00     0.293 HD
ENDBRANCH  17  20
ENDBRANCH   1  12
BRANCH   2  22
ATOM     22  O   UNL     1      46.064  11.358   9.339  1.00  0.00    -0.502 OA
ATOM     23  H   UNL     1      46.117  12.250   8.861  1.00  0.00     0.293 HD
ENDBRANCH   2  22
BRANCH   6  24
ATOM     24  O   UNL     1      41.260  10.068  11.241  1.00  0.00    -0.507 OA
ATOM     25  H   UNL     1      41.842  10.757  11.690  1.00  0.00     0.293 HD
ENDBRANCH   6  24
BRANCH   8  26
ATOM     26  O   UNL     1      40.163   6.393   8.355  1.00  0.00    -0.508 OA
ATOM     27  H   UNL     1      40.473   5.468   8.081  1.00  0.00     0.293 HD
ENDBRANCH   8  26
TORSDOF 6
ENDMDL
MODEL 7
REMARK VINA RESULT:    -6.134      2.403      4.515
REMARK INTER + INTRA:          -7.718
REMARK INTER:                  -7.430
REMARK INTRA:                  -0.288
REMARK UNBOUND:                -0.329
REMARK SMILES O=c1c(O)c(-c2ccc(O)c(O)c2)oc2cc(O)cc(O)c12
REMARK SMILES IDX 5 1 3 2 2 3 1 4 22 5 20 6 19 7 17 8 16 9 15 10 14 11 6 12
REMARK SMILES IDX 7 13 8 14 9 15 13 16 11 17 10 18 12 20 4 22 21 24 18 26
REMARK H PARENT 10 19 12 21 4 23 21 25 18 27
REMARK Flexibility Score: inf
ROOT
ATOM      1  C   UNL     1      45.367   9.286   8.752  1.00  0.00     0.180 A 
ATOM      2  C   UNL     1      46.543  10.055   8.781  1.00  0.00     0.208 A 
ATOM      3  C   UNL     1      47.704   9.546   8.178  1.00  0.00     0.238 A 
ATOM      4  O   UNL     1      48.771  10.206   8.273  1.00  0.00    -0.285 OA
ATOM      5  C   UNL     1      47.662   8.301   7.505  1.00  0.00     0.111 A 
ATOM      6  C   UNL     1      48.767   7.709   6.820  1.00  0.00     0.134 A 
ATOM      7  C   UNL     1      48.637   6.423   6.282  1.00  0.00     0.093 A 
ATOM      8  C   UNL     1      47.424   5.734   6.346  1.00  0.00     0.123 A 
ATOM      9  C   UNL     1      46.325   6.325   6.964  1.00  0.00     0.094 A 
ATOM     10  C   UNL     1      46.434   7.591   7.544  1.00  0.00     0.146 A 
ATOM     11  O   UNL     1      45.367   8.107   8.143  1.00  0.00    -0.452 OA
ENDROOT
BRANCH   1  12
ATOM     12  C   UNL     1      44.108   9.748   9.378  1.00  0.00     0.025 A 
ATOM     13  C   UNL     1      43.286  10.703   8.753  1.00  0.00     0.016 A 
ATOM     14  C   UNL     1      42.114  11.142   9.374  1.00  0.00     0.051 A 
ATOM     15  C   UNL     1      41.752  10.645  10.634  1.00  0.00     0.157 A 
ATOM     16  C   UNL     1      43.752   9.270  10.649  1.00  0.00     0.062 A 
ATOM     17  C   UNL     1      42.578   9.707  11.275  1.00  0.00     0.158 A 
BRANCH  15  18
ATOM     18  O   UNL     1      40.582  11.084  11.251  1.00  0.00    -0.504 OA
ATOM     19  H   UNL     1      40.389  10.883  12.225  1.00  0.00     0.293 HD
ENDBRANCH  15  18
BRANCH  17  20
ATOM     20  O   UNL     1      42.252   9.199  12.532  1.00  0.00    -0.504 OA
ATOM     21  H   UNL     1      42.306   9.764  13.371  1.00  0.00     0.293 HD
ENDBRANCH  17  20
ENDBRANCH   1  12
BRANCH   2  22
ATOM     22  O   UNL     1      46.545  11.316   9.384  1.00  0.00    -0.502 OA
ATOM     23  H   UNL     1      45.763  11.956   9.309  1.00  0.00     0.293 HD
ENDBRANCH   2  22
BRANCH   6  24
ATOM     24  O   UNL     1      49.996   8.346   6.621  1.00  0.00    -0.507 OA
ATOM     25  H   UNL     1      50.225   9.274   6.941  1.00  0.00     0.293 HD
ENDBRANCH   6  24
BRANCH   8  26
ATOM     26  O   UNL     1      47.300   4.462   5.792  1.00  0.00    -0.508 OA
ATOM     27  H   UNL     1      46.872   3.700   6.304  1.00  0.00     0.293 HD
ENDBRANCH   8  26
TORSDOF 6
ENDMDL
MODEL 8
REMARK VINA RESULT:    -6.114      2.440      4.712
REMARK INTER + INTRA:          -7.694
REMARK INTER:                  -7.447
REMARK INTRA:                  -0.247
REMARK UNBOUND:                -0.329
REMARK SMILES O=c1c(O)c(-c2ccc(O)c(O)c2)oc2cc(O)cc(O)c12
REMARK SMILES IDX 5 1 3 2 2 3 1 4 22 5 20 6 19 7 17 8 16 9 15 10 14 11 6 12
REMARK SMILES IDX 7 13 8 14 9 15 13 16 11 17 10 18 12 20 4 22 21 24 18 26
REMARK H PARENT 10 19 12 21 4 23 21 25 18 27
REMARK Flexibility Score: inf
ROOT
ATOM      1  C   UNL     1      45.313   9.321   8.871  1.00  0.00     0.180 A 
ATOM      2  C   UNL     1      46.498  10.075   8.844  1.00  0.00     0.208 A 
ATOM      3  C   UNL     1      47.618   9.559   8.173  1.00  0.00     0.238 A 
ATOM      4  O   UNL     1      48.697  10.204   8.216  1.00  0.00    -0.285 OA
ATOM      5  C   UNL     1      47.524   8.321   7.491  1.00  0.00     0.111 A 
ATOM      6  C   UNL     1      48.582   7.723   6.741  1.00  0.00     0.134 A 
ATOM      7  C   UNL     1      48.407   6.445   6.198  1.00  0.00     0.093 A 
ATOM      8  C   UNL     1      47.190   5.770   6.321  1.00  0.00     0.123 A 
ATOM      9  C   UNL     1      46.134   6.367   7.003  1.00  0.00     0.094 A 
ATOM     10  C   UNL     1      46.291   7.626   7.590  1.00  0.00     0.146 A 
ATOM     11  O   UNL     1      45.264   8.149   8.250  1.00  0.00    -0.452 OA
ENDROOT
BRANCH   1  12
ATOM     12  C   UNL     1      44.095   9.792   9.569  1.00  0.00     0.025 A 
ATOM     13  C   UNL     1      43.662   9.198  10.767  1.00  0.00     0.016 A 
ATOM     14  C   UNL     1      42.496   9.644  11.395  1.00  0.00     0.051 A 
ATOM     15  C   UNL     1      41.738  10.678  10.829  1.00  0.00     0.157 A 
ATOM     16  C   UNL     1      43.321  10.813   8.994  1.00  0.00     0.062 A 
ATOM     17  C   UNL     1      42.152  11.263   9.620  1.00  0.00     0.158 A 
BRANCH  15  18
ATOM     18  O   UNL     1      40.576  11.122  11.459  1.00  0.00    -0.504 OA
ATOM     19  H   UNL     1      40.242  12.072  11.346  1.00  0.00     0.293 HD
ENDBRANCH  15  18
BRANCH  17  20
ATOM     20  O   UNL     1      41.417  12.287   9.026  1.00  0.00    -0.504 OA
ATOM     21  H   UNL     1      41.839  12.951   8.387  1.00  0.00     0.293 HD
ENDBRANCH  17  20
ENDBRANCH   1  12
BRANCH   2  22
ATOM     22  O   UNL     1      46.549  11.329   9.457  1.00  0.00    -0.502 OA
ATOM     23  H   UNL     1      45.899  12.073   9.231  1.00  0.00     0.293 HD
ENDBRANCH   2  22
BRANCH   6  24
ATOM     24  O   UNL     1      49.807   8.347   6.481  1.00  0.00    -0.507 OA
ATOM     25  H   UNL     1      50.704   8.010   6.793  1.00  0.00     0.293 HD
ENDBRANCH   6  24
BRANCH   8  26
ATOM     26  O   UNL     1      47.020   4.506   5.762  1.00  0.00    -0.508 OA
ATOM     27  H   UNL     1      46.157   4.241   5.301  1.00  0.00     0.293 HD
ENDBRANCH   8  26
TORSDOF 6
ENDMDL
MODEL 9
REMARK VINA RESULT:    -6.033      2.338      4.371
REMARK INTER + INTRA:          -7.596
REMARK INTER:                  -7.265
REMARK INTRA:                  -0.331
REMARK UNBOUND:                -0.329
REMARK SMILES O=c1c(O)c(-c2ccc(O)c(O)c2)oc2cc(O)cc(O)c12
REMARK SMILES IDX 5 1 3 2 2 3 1 4 22 5 20 6 19 7 17 8 16 9 15 10 14 11 6 12
REMARK SMILES IDX 7 13 8 14 9 15 13 16 11 17 10 18 12 20 4 22 21 24 18 26
REMARK H PARENT 10 19 12 21 4 23 21 25 18 27
REMARK Flexibility Score: inf
ROOT
ATOM      1  C   UNL     1      44.875   9.981   8.239  1.00  0.00     0.180 A 
ATOM      2  C   UNL     1      45.603  11.174   8.088  1.00  0.00     0.208 A 
ATOM      3  C   UNL     1      46.522  11.280   7.033  1.00  0.00     0.238 A 
ATOM      4  O   UNL     1      47.223  12.322   6.947  1.00  0.00    -0.285 OA
ATOM      5  C   UNL     1      46.664  10.216   6.109  1.00  0.00     0.111 A 
ATOM      6  C   UNL     1      47.534  10.232   4.976  1.00  0.00     0.134 A 
ATOM      7  C   UNL     1      47.670   9.080   4.194  1.00  0.00     0.093 A 
ATOM      8  C   UNL     1      46.920   7.932   4.463  1.00  0.00     0.123 A 
ATOM      9  C   UNL     1      46.029   7.924   5.533  1.00  0.00     0.094 A 
ATOM     10  C   UNL     1      45.899   9.046   6.356  1.00  0.00     0.146 A 
ATOM     11  O   UNL     1      45.053   8.987   7.378  1.00  0.00    -0.452 OA
ENDROOT
BRANCH   1  12
ATOM     12  C   UNL     1      43.898   9.788   9.334  1.00  0.00     0.025 A 
ATOM     13  C   UNL     1      44.282   9.238  10.570  1.00  0.00     0.016 A 
ATOM     14  C   UNL     1      43.336   9.042  11.580  1.00  0.00     0.051 A 
ATOM     15  C   UNL     1      41.993   9.380  11.368  1.00  0.00     0.157 A 
ATOM     16  C   UNL     1      42.547  10.104   9.118  1.00  0.00     0.062 A 
ATOM     17  C   UNL     1      41.597   9.910  10.128  1.00  0.00     0.158 A 
BRANCH  15  18
ATOM     18  O   UNL     1      41.052   9.185  12.377  1.00  0.00    -0.504 OA
ATOM     19  H   UNL     1      40.767   8.256  12.665  1.00  0.00     0.293 HD
ENDBRANCH  15  18
BRANCH  17  20
ATOM     20  O   UNL     1      40.267  10.249   9.881  1.00  0.00    -0.504 OA
ATOM     21  H   UNL     1      39.770  10.926  10.447  1.00  0.00     0.293 HD
ENDBRANCH  17  20
ENDBRANCH   1  12
BRANCH   2  22
ATOM     22  O   UNL     1      45.393  12.242   8.963  1.00  0.00    -0.502 OA
ATOM     23  H   UNL     1      45.789  12.268   9.895  1.00  0.00     0.293 HD
ENDBRANCH   2  22
BRANCH   6  24
ATOM     24  O   UNL     1      48.262  11.353   4.565  1.00  0.00    -0.507 OA
ATOM     25  H   UNL     1      49.234  11.519   4.773  1.00  0.00     0.293 HD
ENDBRANCH   6  24
BRANCH   8  26
ATOM     26  O   UNL     1      47.050   6.796   3.668  1.00  0.00    -0.508 OA
ATOM     27  H   UNL     1      46.755   5.884   3.994  1.00  0.00     0.293 HD
ENDBRANCH   8  26
TORSDOF 6
ENDMDL
