MODEL 1
REMARK VINA RESULT:    -5.714      0.000      0.000
REMARK INTER + INTRA:          -9.735
REMARK INTER:                  -7.886
REMARK INTRA:                  -1.849
REMARK UNBOUND:                -1.849
REMARK SMILES O=C([O-])[C@@H]1O[C@H](Oc2cc3oc(-c4ccccc4)cc(=O)c3c(O)c2O)[C@H](O)[C@H](O)[C@@H]1O
REMARK SMILES IDX 7 1 6 2 4 3 31 4 5 5 29 6 27 7 2 8 1 9 3 10 32 11 30 13
REMARK SMILES IDX 28 15 8 17 25 18 9 19 23 20 10 21 22 22 11 23 20 24 12 25
REMARK SMILES IDX 19 26 21 27 26 28 24 30 13 32 14 33 18 34 15 35 17 36 16 37
REMARK H PARENT 32 12 30 14 28 16 26 29 24 31
REMARK Flexibility Score: inf
ROOT
ATOM      1  O   UNL     1       0.442 -37.826 -30.136  1.00  0.00    -0.458 OA
ENDROOT
BRANCH   1   2
ATOM      2  C   UNL     1       1.316 -38.074 -31.247  1.00  0.00     0.339 C 
ATOM      3  C   UNL     1       2.216 -35.869 -31.282  1.00  0.00     0.199 C 
ATOM      4  C   UNL     1       3.574 -36.350 -30.689  1.00  0.00     0.180 C 
ATOM      5  O   UNL     1       1.515 -36.883 -31.996  1.00  0.00    -0.328 OA
ATOM      6  C   UNL     1       3.471 -37.702 -29.964  1.00  0.00     0.181 C 
ATOM      7  C   UNL     1       2.664 -38.690 -30.814  1.00  0.00     0.214 C 
BRANCH   3   8
ATOM      8  C   UNL     1       1.304 -35.123 -30.335  1.00  0.00     0.073 C 
ATOM      9  O   UNL     1       1.550 -35.049 -29.101  1.00  0.00    -0.547 OA
ATOM     10  O   UNL     1       0.146 -34.535 -30.835  1.00  0.00    -0.547 OA
ENDBRANCH   3   8
BRANCH   4  11
ATOM     11  O   UNL     1       4.120 -35.389 -29.823  1.00  0.00    -0.387 OA
ATOM     12  H   UNL     1       4.906 -35.808 -29.386  1.00  0.00     0.211 HD
ENDBRANCH   4  11
BRANCH   6  13
ATOM     13  O   UNL     1       2.891 -37.537 -28.696  1.00  0.00    -0.387 OA
ATOM     14  H   UNL     1       1.920 -37.388 -28.837  1.00  0.00     0.211 HD
ENDBRANCH   6  13
BRANCH   7  15
ATOM     15  O   UNL     1       2.468 -39.888 -30.104  1.00  0.00    -0.384 OA
ATOM     16  H   UNL     1       3.369 -40.271 -29.939  1.00  0.00     0.211 HD
ENDBRANCH   7  15
ENDBRANCH   1   2
BRANCH   1  17
ATOM     17  C   UNL     1      -0.887 -38.267 -30.034  1.00  0.00     0.172 A 
ATOM     18  C   UNL     1      -1.233 -39.488 -29.419  1.00  0.00     0.201 A 
ATOM     19  C   UNL     1      -1.880 -37.475 -30.611  1.00  0.00     0.098 A 
ATOM     20  C   UNL     1      -2.598 -39.855 -29.299  1.00  0.00     0.176 A 
ATOM     21  C   UNL     1      -3.222 -37.841 -30.533  1.00  0.00     0.146 A 
ATOM     22  C   UNL     1      -3.596 -39.034 -29.879  1.00  0.00     0.111 A 
ATOM     23  O   UNL     1      -4.138 -37.047 -31.078  1.00  0.00    -0.456 OA
ATOM     24  C   UNL     1      -4.974 -39.342 -29.830  1.00  0.00     0.197 A 
ATOM     25  C   UNL     1      -5.441 -37.314 -31.057  1.00  0.00     0.138 A 
ATOM     26  C   UNL     1      -5.897 -38.480 -30.423  1.00  0.00     0.100 A 
ATOM     27  O   UNL     1      -5.399 -40.384 -29.260  1.00  0.00    -0.289 OA
BRANCH  18  28
ATOM     28  O   UNL     1      -0.208 -40.334 -28.990  1.00  0.00    -0.502 OA
ATOM     29  H   UNL     1       0.026 -40.498 -28.022  1.00  0.00     0.293 HD
ENDBRANCH  18  28
BRANCH  20  30
ATOM     30  O   UNL     1      -2.978 -41.010 -28.607  1.00  0.00    -0.504 OA
ATOM     31  H   UNL     1      -2.330 -41.645 -28.162  1.00  0.00     0.293 HD
ENDBRANCH  20  30
BRANCH  25  32
ATOM     32  C   UNL     1      -6.377 -36.359 -31.697  1.00  0.00     0.017 A 
ATOM     33  C   UNL     1      -7.759 -36.625 -31.683  1.00  0.00     0.012 A 
ATOM     34  C   UNL     1      -5.921 -35.166 -32.291  1.00  0.00     0.012 A 
ATOM     35  C   UNL     1      -8.661 -35.729 -32.264  1.00  0.00     0.001 A 
ATOM     36  C   UNL     1      -6.828 -34.270 -32.865  1.00  0.00     0.001 A 
ATOM     37  C   UNL     1      -8.196 -34.553 -32.855  1.00  0.00     0.000 A 
ENDBRANCH  25  32
ENDBRANCH   1  17
TORSDOF 9
ENDMDL
MODEL 2
REMARK VINA RESULT:    -5.453      1.400      2.445
REMARK INTER + INTRA:          -9.373
REMARK INTER:                  -7.734
REMARK INTRA:                  -1.639
REMARK UNBOUND:                -1.849
REMARK SMILES O=C([O-])[C@@H]1O[C@H](Oc2cc3oc(-c4ccccc4)cc(=O)c3c(O)c2O)[C@H](O)[C@H](O)[C@@H]1O
REMARK SMILES IDX 7 1 6 2 4 3 31 4 5 5 29 6 27 7 2 8 1 9 3 10 32 11 30 13
REMARK SMILES IDX 28 15 8 17 25 18 9 19 23 20 10 21 22 22 11 23 20 24 12 25
REMARK SMILES IDX 19 26 21 27 26 28 24 30 13 32 14 33 18 34 15 35 17 36 16 37
REMARK H PARENT 32 12 30 14 28 16 26 29 24 31
REMARK Flexibility Score: inf
ROOT
ATOM      1  O   UNL     1      -0.223 -38.105 -30.295  1.00  0.00    -0.458 OA
ENDROOT
BRANCH   1   2
ATOM      2  C   UNL     1       0.167 -36.724 -30.301  1.00  0.00     0.339 C 
ATOM      3  C   UNL     1       2.343 -37.132 -29.425  1.00  0.00     0.199 C 
ATOM      4  C   UNL     1       3.015 -36.859 -30.803  1.00  0.00     0.180 C 
ATOM      5  O   UNL     1       1.095 -36.467 -29.257  1.00  0.00    -0.328 OA
ATOM      6  C   UNL     1       2.042 -36.995 -31.986  1.00  0.00     0.181 C 
ATOM      7  C   UNL     1       0.728 -36.273 -31.667  1.00  0.00     0.214 C 
BRANCH   3   8
ATOM      8  C   UNL     1       2.263 -38.581 -28.999  1.00  0.00     0.073 C 
ATOM      9  O   UNL     1       1.782 -38.916 -27.882  1.00  0.00    -0.547 OA
ATOM     10  O   UNL     1       2.765 -39.564 -29.846  1.00  0.00    -0.547 OA
ENDBRANCH   3   8
BRANCH   4  11
ATOM     11  O   UNL     1       4.124 -37.696 -31.004  1.00  0.00    -0.387 OA
ATOM     12  H   UNL     1       3.939 -38.542 -30.519  1.00  0.00     0.211 HD
ENDBRANCH   4  11
BRANCH   6  13
ATOM     13  O   UNL     1       1.814 -38.349 -32.282  1.00  0.00    -0.387 OA
ATOM     14  H   UNL     1       2.121 -38.500 -33.213  1.00  0.00     0.211 HD
ENDBRANCH   6  13
BRANCH   7  15
ATOM     15  O   UNL     1      -0.205 -36.494 -32.695  1.00  0.00    -0.384 OA
ATOM     16  H   UNL     1       0.185 -37.189 -33.288  1.00  0.00     0.211 HD
ENDBRANCH   7  15
ENDBRANCH   1   2
BRANCH   1  17
ATOM     17  C   UNL     1      -1.467 -38.596 -29.869  1.00  0.00     0.172 A 
ATOM     18  C   UNL     1      -1.597 -39.794 -29.137  1.00  0.00     0.201 A 
ATOM     19  C   UNL     1      -2.607 -37.880 -30.233  1.00  0.00     0.098 A 
ATOM     20  C   UNL     1      -2.876 -40.211 -28.687  1.00  0.00     0.176 A 
ATOM     21  C   UNL     1      -3.874 -38.296 -29.830  1.00  0.00     0.146 A 
ATOM     22  C   UNL     1      -4.023 -39.466 -29.055  1.00  0.00     0.111 A 
ATOM     23  O   UNL     1      -4.932 -37.573 -30.181  1.00  0.00    -0.456 OA
ATOM     24  C   UNL     1      -5.335 -39.828 -28.673  1.00  0.00     0.197 A 
ATOM     25  C   UNL     1      -6.179 -37.892 -29.847  1.00  0.00     0.138 A 
ATOM     26  C   UNL     1      -6.414 -39.039 -29.074  1.00  0.00     0.100 A 
ATOM     27  O   UNL     1      -5.560 -40.854 -27.975  1.00  0.00    -0.289 OA
BRANCH  18  28
ATOM     28  O   UNL     1      -0.457 -40.572 -28.920  1.00  0.00    -0.502 OA
ATOM     29  H   UNL     1      -0.358 -41.532 -29.217  1.00  0.00     0.293 HD
ENDBRANCH  18  28
BRANCH  20  30
ATOM     30  O   UNL     1      -3.024 -41.340 -27.875  1.00  0.00    -0.504 OA
ATOM     31  H   UNL     1      -3.915 -41.742 -27.618  1.00  0.00     0.293 HD
ENDBRANCH  20  30
BRANCH  25  32
ATOM     32  C   UNL     1      -7.287 -37.014 -30.294  1.00  0.00     0.017 A 
ATOM     33  C   UNL     1      -8.292 -36.645 -29.382  1.00  0.00     0.012 A 
ATOM     34  C   UNL     1      -7.340 -36.506 -31.606  1.00  0.00     0.012 A 
ATOM     35  C   UNL     1      -9.336 -35.803 -29.777  1.00  0.00     0.001 A 
ATOM     36  C   UNL     1      -8.383 -35.658 -31.995  1.00  0.00     0.001 A 
ATOM     37  C   UNL     1      -9.381 -35.310 -31.082  1.00  0.00     0.000 A 
ENDBRANCH  25  32
ENDBRANCH   1  17
TORSDOF 9
ENDMDL
MODEL 3
REMARK VINA RESULT:    -5.451      2.543      8.114
REMARK INTER + INTRA:          -9.372
REMARK INTER:                  -7.690
REMARK INTRA:                  -1.682
REMARK UNBOUND:                -1.849
REMARK SMILES O=C([O-])[C@@H]1O[C@H](Oc2cc3oc(-c4ccccc4)cc(=O)c3c(O)c2O)[C@H](O)[C@H](O)[C@@H]1O
REMARK SMILES IDX 7 1 6 2 4 3 31 4 5 5 29 6 27 7 2 8 1 9 3 10 32 11 30 13
REMARK SMILES IDX 28 15 8 17 25 18 9 19 23 20 10 21 22 22 11 23 20 24 12 25
REMARK SMILES IDX 19 26 21 27 26 28 24 30 13 32 14 33 18 34 15 35 17 36 16 37
REMARK H PARENT 32 12 30 14 28 16 26 29 24 31
REMARK Flexibility Score: inf
ROOT
ATOM      1  O   UNL     1      -6.421 -36.887 -30.121  1.00  0.00    -0.458 OA
ENDROOT
BRANCH   1   2
ATOM      2  C   UNL     1      -7.141 -36.157 -29.116  1.00  0.00     0.339 C 
ATOM      3  C   UNL     1      -7.756 -34.376 -30.572  1.00  0.00     0.199 C 
ATOM      4  C   UNL     1      -9.235 -34.859 -30.637  1.00  0.00     0.180 C 
ATOM      5  O   UNL     1      -7.081 -34.763 -29.379  1.00  0.00    -0.328 OA
ATOM      6  C   UNL     1      -9.405 -36.336 -30.244  1.00  0.00     0.181 C 
ATOM      7  C   UNL     1      -8.603 -36.634 -28.972  1.00  0.00     0.214 C 
BRANCH   3   8
ATOM      8  C   UNL     1      -6.914 -34.644 -31.798  1.00  0.00     0.073 C 
ATOM      9  O   UNL     1      -7.318 -35.397 -32.726  1.00  0.00    -0.547 OA
ATOM     10  O   UNL     1      -5.647 -34.075 -31.887  1.00  0.00    -0.547 OA
ENDBRANCH   3   8
BRANCH   4  11
ATOM     11  O   UNL     1      -9.787 -34.642 -31.910  1.00  0.00    -0.387 OA
ATOM     12  H   UNL     1      -9.612 -35.460 -32.443  1.00  0.00     0.211 HD
ENDBRANCH   4  11
BRANCH   6  13
ATOM     13  O   UNL     1      -9.007 -37.174 -31.298  1.00  0.00    -0.387 OA
ATOM     14  H   UNL     1      -8.355 -37.823 -30.925  1.00  0.00     0.211 HD
ENDBRANCH   6  13
BRANCH   7  15
ATOM     15  O   UNL     1      -8.661 -38.007 -28.676  1.00  0.00    -0.384 OA
ATOM     16  H   UNL     1      -8.315 -38.485 -29.475  1.00  0.00     0.211 HD
ENDBRANCH   7  15
ENDBRANCH   1   2
BRANCH   1  17
ATOM     17  C   UNL     1      -5.133 -37.423 -29.967  1.00  0.00     0.172 A 
ATOM     18  C   UNL     1      -4.874 -38.549 -29.158  1.00  0.00     0.201 A 
ATOM     19  C   UNL     1      -4.079 -36.775 -30.611  1.00  0.00     0.098 A 
ATOM     20  C   UNL     1      -3.560 -39.078 -29.085  1.00  0.00     0.176 A 
ATOM     21  C   UNL     1      -2.776 -37.261 -30.519  1.00  0.00     0.146 A 
ATOM     22  C   UNL     1      -2.502 -38.416 -29.755  1.00  0.00     0.111 A 
ATOM     23  O   UNL     1      -1.805 -36.626 -31.165  1.00  0.00    -0.456 OA
ATOM     24  C   UNL     1      -1.161 -38.860 -29.709  1.00  0.00     0.197 A 
ATOM     25  C   UNL     1      -0.532 -37.012 -31.134  1.00  0.00     0.138 A 
ATOM     26  C   UNL     1      -0.175 -38.153 -30.400  1.00  0.00     0.100 A 
ATOM     27  O   UNL     1      -0.826 -39.886 -29.057  1.00  0.00    -0.289 OA
BRANCH  18  28
ATOM     28  O   UNL     1      -5.920 -39.084 -28.403  1.00  0.00    -0.502 OA
ATOM     29  H   UNL     1      -5.807 -39.503 -27.491  1.00  0.00     0.293 HD
ENDBRANCH  18  28
BRANCH  20  30
ATOM     30  O   UNL     1      -3.292 -40.251 -28.373  1.00  0.00    -0.504 OA
ATOM     31  H   UNL     1      -2.467 -40.820 -28.505  1.00  0.00     0.293 HD
ENDBRANCH  20  30
BRANCH  25  32
ATOM     32  C   UNL     1       0.472 -36.228 -31.891  1.00  0.00     0.017 A 
ATOM     33  C   UNL     1       0.056 -35.413 -32.960  1.00  0.00     0.012 A 
ATOM     34  C   UNL     1       1.837 -36.247 -31.543  1.00  0.00     0.012 A 
ATOM     35  C   UNL     1       0.983 -34.651 -33.676  1.00  0.00     0.001 A 
ATOM     36  C   UNL     1       2.760 -35.477 -32.258  1.00  0.00     0.001 A 
ATOM     37  C   UNL     1       2.334 -34.682 -33.325  1.00  0.00     0.000 A 
ENDBRANCH  25  32
ENDBRANCH   1  17
TORSDOF 9
ENDMDL
MODEL 4
REMARK VINA RESULT:    -5.274      2.774      8.073
REMARK INTER + INTRA:          -9.127
REMARK INTER:                  -7.338
REMARK INTRA:                  -1.789
REMARK UNBOUND:                -1.849
REMARK SMILES O=C([O-])[C@@H]1O[C@H](Oc2cc3oc(-c4ccccc4)cc(=O)c3c(O)c2O)[C@H](O)[C@H](O)[C@@H]1O
REMARK SMILES IDX 7 1 6 2 4 3 31 4 5 5 29 6 27 7 2 8 1 9 3 10 32 11 30 13
REMARK SMILES IDX 28 15 8 17 25 18 9 19 23 20 10 21 22 22 11 23 20 24 12 25
REMARK SMILES IDX 19 26 21 27 26 28 24 30 13 32 14 33 18 34 15 35 17 36 16 37
REMARK H PARENT 32 12 30 14 28 16 26 29 24 31
REMARK Flexibility Score: inf
ROOT
ATOM      1  O   UNL     1      -5.985 -35.830 -30.590  1.00  0.00    -0.458 OA
ENDROOT
BRANCH   1   2
ATOM      2  C   UNL     1      -6.230 -35.614 -31.987  1.00  0.00     0.339 C 
ATOM      3  C   UNL     1      -8.163 -34.268 -31.639  1.00  0.00     0.199 C 
ATOM      4  C   UNL     1      -7.403 -32.967 -32.035  1.00  0.00     0.180 C 
ATOM      5  O   UNL     1      -7.621 -35.447 -32.225  1.00  0.00    -0.328 OA
ATOM      6  C   UNL     1      -5.875 -33.104 -31.923  1.00  0.00     0.181 C 
ATOM      7  C   UNL     1      -5.422 -34.427 -32.553  1.00  0.00     0.214 C 
BRANCH   3   8
ATOM      8  C   UNL     1      -8.438 -34.456 -30.165  1.00  0.00     0.073 C 
ATOM      9  O   UNL     1      -7.918 -33.705 -29.294  1.00  0.00    -0.547 OA
ATOM     10  O   UNL     1      -9.255 -35.505 -29.757  1.00  0.00    -0.547 OA
ENDBRANCH   3   8
BRANCH   4  11
ATOM     11  O   UNL     1      -7.836 -31.871 -31.272  1.00  0.00    -0.387 OA
ATOM     12  H   UNL     1      -8.251 -31.228 -31.902  1.00  0.00     0.211 HD
ENDBRANCH   4  11
BRANCH   6  13
ATOM     13  O   UNL     1      -5.471 -33.022 -30.581  1.00  0.00    -0.387 OA
ATOM     14  H   UNL     1      -6.294 -33.025 -30.027  1.00  0.00     0.211 HD
ENDBRANCH   6  13
BRANCH   7  15
ATOM     15  O   UNL     1      -4.043 -34.610 -32.349  1.00  0.00    -0.384 OA
ATOM     16  H   UNL     1      -3.697 -35.080 -33.152  1.00  0.00     0.211 HD
ENDBRANCH   7  15
ENDBRANCH   1   2
BRANCH   1  17
ATOM     17  C   UNL     1      -5.440 -36.998 -30.032  1.00  0.00     0.172 A 
ATOM     18  C   UNL     1      -6.244 -38.033 -29.510  1.00  0.00     0.201 A 
ATOM     19  C   UNL     1      -4.050 -37.096 -29.961  1.00  0.00     0.098 A 
ATOM     20  C   UNL     1      -5.636 -39.212 -29.009  1.00  0.00     0.176 A 
ATOM     21  C   UNL     1      -3.439 -38.233 -29.438  1.00  0.00     0.146 A 
ATOM     22  C   UNL     1      -4.223 -39.302 -28.954  1.00  0.00     0.111 A 
ATOM     23  O   UNL     1      -2.112 -38.294 -29.408  1.00  0.00    -0.456 OA
ATOM     24  C   UNL     1      -3.540 -40.429 -28.444  1.00  0.00     0.197 A 
ATOM     25  C   UNL     1      -1.439 -39.335 -28.925  1.00  0.00     0.138 A 
ATOM     26  C   UNL     1      -2.144 -40.442 -28.427  1.00  0.00     0.100 A 
ATOM     27  O   UNL     1      -4.160 -41.432 -27.997  1.00  0.00    -0.289 OA
BRANCH  18  28
ATOM     28  O   UNL     1      -7.625 -37.842 -29.452  1.00  0.00    -0.502 OA
ATOM     29  H   UNL     1      -8.227 -38.247 -28.750  1.00  0.00     0.293 HD
ENDBRANCH  18  28
BRANCH  20  30
ATOM     30  O   UNL     1      -6.408 -40.296 -28.577  1.00  0.00    -0.504 OA
ATOM     31  H   UNL     1      -6.809 -40.375 -27.653  1.00  0.00     0.293 HD
ENDBRANCH  20  30
BRANCH  25  32
ATOM     32  C   UNL     1       0.043 -39.298 -28.938  1.00  0.00     0.017 A 
ATOM     33  C   UNL     1       0.767 -40.144 -28.078  1.00  0.00     0.012 A 
ATOM     34  C   UNL     1       0.750 -38.460 -29.821  1.00  0.00     0.012 A 
ATOM     35  C   UNL     1       2.164 -40.139 -28.087  1.00  0.00     0.001 A 
ATOM     36  C   UNL     1       2.149 -38.464 -29.831  1.00  0.00     0.001 A 
ATOM     37  C   UNL     1       2.855 -39.299 -28.963  1.00  0.00     0.000 A 
ENDBRANCH  25  32
ENDBRANCH   1  17
TORSDOF 9
ENDMDL
MODEL 5
REMARK VINA RESULT:    -5.250      2.729      8.141
REMARK INTER + INTRA:          -9.094
REMARK INTER:                  -7.507
REMARK INTRA:                  -1.587
REMARK UNBOUND:                -1.849
REMARK SMILES O=C([O-])[C@@H]1O[C@H](Oc2cc3oc(-c4ccccc4)cc(=O)c3c(O)c2O)[C@H](O)[C@H](O)[C@@H]1O
REMARK SMILES IDX 7 1 6 2 4 3 31 4 5 5 29 6 27 7 2 8 1 9 3 10 32 11 30 13
REMARK SMILES IDX 28 15 8 17 25 18 9 19 23 20 10 21 22 22 11 23 20 24 12 25
REMARK SMILES IDX 19 26 21 27 26 28 24 30 13 32 14 33 18 34 15 35 17 36 16 37
REMARK H PARENT 32 12 30 14 28 16 26 29 24 31
REMARK Flexibility Score: inf
ROOT
ATOM      1  O   UNL     1      -6.210 -36.544 -30.500  1.00  0.00    -0.458 OA
ENDROOT
BRANCH   1   2
ATOM      2  C   UNL     1      -6.964 -35.910 -29.456  1.00  0.00     0.339 C 
ATOM      3  C   UNL     1      -7.775 -34.151 -30.842  1.00  0.00     0.199 C 
ATOM      4  C   UNL     1      -9.207 -34.763 -30.883  1.00  0.00     0.180 C 
ATOM      5  O   UNL     1      -7.035 -34.509 -29.678  1.00  0.00    -0.328 OA
ATOM      6  C   UNL     1      -9.234 -36.259 -30.531  1.00  0.00     0.181 C 
ATOM      7  C   UNL     1      -8.373 -36.519 -29.289  1.00  0.00     0.214 C 
BRANCH   3   8
ATOM      8  C   UNL     1      -6.947 -34.309 -32.096  1.00  0.00     0.073 C 
ATOM      9  O   UNL     1      -5.862 -33.686 -32.256  1.00  0.00    -0.547 OA
ATOM     10  O   UNL     1      -7.413 -35.135 -33.115  1.00  0.00    -0.547 OA
ENDBRANCH   3   8
BRANCH   4  11
ATOM     11  O   UNL     1      -9.811 -34.561 -32.135  1.00  0.00    -0.387 OA
ATOM     12  H   UNL     1     -10.770 -34.790 -32.032  1.00  0.00     0.211 HD
ENDBRANCH   4  11
BRANCH   6  13
ATOM     13  O   UNL     1      -8.792 -37.029 -31.619  1.00  0.00    -0.387 OA
ATOM     14  H   UNL     1      -9.367 -37.837 -31.658  1.00  0.00     0.211 HD
ENDBRANCH   6  13
BRANCH   7  15
ATOM     15  O   UNL     1      -8.301 -37.900 -29.034  1.00  0.00    -0.384 OA
ATOM     16  H   UNL     1      -7.871 -38.314 -29.827  1.00  0.00     0.211 HD
ENDBRANCH   7  15
ENDBRANCH   1   2
BRANCH   1  17
ATOM     17  C   UNL     1      -4.881 -36.981 -30.391  1.00  0.00     0.172 A 
ATOM     18  C   UNL     1      -4.498 -38.030 -29.530  1.00  0.00     0.201 A 
ATOM     19  C   UNL     1      -3.913 -36.307 -31.136  1.00  0.00     0.098 A 
ATOM     20  C   UNL     1      -3.147 -38.462 -29.503  1.00  0.00     0.176 A 
ATOM     21  C   UNL     1      -2.576 -36.697 -31.092  1.00  0.00     0.146 A 
ATOM     22  C   UNL     1      -2.178 -37.776 -30.275  1.00  0.00     0.111 A 
ATOM     23  O   UNL     1      -1.690 -36.042 -31.834  1.00  0.00    -0.456 OA
ATOM     24  C   UNL     1      -0.808 -38.124 -30.282  1.00  0.00     0.197 A 
ATOM     25  C   UNL     1      -0.393 -36.338 -31.856  1.00  0.00     0.138 A 
ATOM     26  C   UNL     1       0.085 -37.400 -31.074  1.00  0.00     0.100 A 
ATOM     27  O   UNL     1      -0.365 -39.080 -29.588  1.00  0.00    -0.289 OA
BRANCH  18  28
ATOM     28  O   UNL     1      -5.459 -38.582 -28.680  1.00  0.00    -0.502 OA
ATOM     29  H   UNL     1      -5.674 -39.567 -28.629  1.00  0.00     0.293 HD
ENDBRANCH  18  28
BRANCH  20  30
ATOM     30  O   UNL     1      -2.756 -39.564 -28.735  1.00  0.00    -0.504 OA
ATOM     31  H   UNL     1      -1.978 -40.167 -28.961  1.00  0.00     0.293 HD
ENDBRANCH  20  30
BRANCH  25  32
ATOM     32  C   UNL     1       0.509 -35.540 -32.720  1.00  0.00     0.017 A 
ATOM     33  C   UNL     1       1.858 -35.377 -32.353  1.00  0.00     0.012 A 
ATOM     34  C   UNL     1       0.059 -34.967 -33.925  1.00  0.00     0.012 A 
ATOM     35  C   UNL     1       2.731 -34.644 -33.162  1.00  0.00     0.001 A 
ATOM     36  C   UNL     1       0.938 -34.240 -34.734  1.00  0.00     0.001 A 
ATOM     37  C   UNL     1       2.271 -34.076 -34.352  1.00  0.00     0.000 A 
ENDBRANCH  25  32
ENDBRANCH   1  17
TORSDOF 9
ENDMDL
MODEL 6
REMARK VINA RESULT:    -5.181      2.733      8.051
REMARK INTER + INTRA:          -8.998
REMARK INTER:                  -7.227
REMARK INTRA:                  -1.771
REMARK UNBOUND:                -1.849
REMARK SMILES O=C([O-])[C@@H]1O[C@H](Oc2cc3oc(-c4ccccc4)cc(=O)c3c(O)c2O)[C@H](O)[C@H](O)[C@@H]1O
REMARK SMILES IDX 7 1 6 2 4 3 31 4 5 5 29 6 27 7 2 8 1 9 3 10 32 11 30 13
REMARK SMILES IDX 28 15 8 17 25 18 9 19 23 20 10 21 22 22 11 23 20 24 12 25
REMARK SMILES IDX 19 26 21 27 26 28 24 30 13 32 14 33 18 34 15 35 17 36 16 37
REMARK H PARENT 32 12 30 14 28 16 26 29 24 31
REMARK Flexibility Score: inf
ROOT
ATOM      1  O   UNL     1      -6.227 -35.447 -30.303  1.00  0.00    -0.458 OA
ENDROOT
BRANCH   1   2
ATOM      2  C   UNL     1      -6.320 -34.350 -29.383  1.00  0.00     0.339 C 
ATOM      3  C   UNL     1      -5.857 -32.684 -31.020  1.00  0.00     0.199 C 
ATOM      4  C   UNL     1      -7.338 -32.204 -31.038  1.00  0.00     0.180 C 
ATOM      5  O   UNL     1      -5.468 -33.289 -29.791  1.00  0.00    -0.328 OA
ATOM      6  C   UNL     1      -8.320 -33.255 -30.493  1.00  0.00     0.181 C 
ATOM      7  C   UNL     1      -7.771 -33.857 -29.194  1.00  0.00     0.214 C 
BRANCH   3   8
ATOM      8  C   UNL     1      -5.408 -33.503 -32.209  1.00  0.00     0.073 C 
ATOM      9  O   UNL     1      -6.229 -33.933 -33.064  1.00  0.00    -0.547 OA
ATOM     10  O   UNL     1      -4.059 -33.820 -32.342  1.00  0.00    -0.547 OA
ENDBRANCH   3   8
BRANCH   4  11
ATOM     11  O   UNL     1      -7.732 -31.814 -32.329  1.00  0.00    -0.387 OA
ATOM     12  H   UNL     1      -7.928 -32.645 -32.834  1.00  0.00     0.211 HD
ENDBRANCH   4  11
BRANCH   6  13
ATOM     13  O   UNL     1      -8.553 -34.253 -31.452  1.00  0.00    -0.387 OA
ATOM     14  H   UNL     1      -9.355 -34.759 -31.157  1.00  0.00     0.211 HD
ENDBRANCH   6  13
BRANCH   7  15
ATOM     15  O   UNL     1      -8.607 -34.899 -28.756  1.00  0.00    -0.384 OA
ATOM     16  H   UNL     1      -9.193 -34.517 -28.052  1.00  0.00     0.211 HD
ENDBRANCH   7  15
ENDBRANCH   1   2
BRANCH   1  17
ATOM     17  C   UNL     1      -5.541 -36.649 -30.067  1.00  0.00     0.172 A 
ATOM     18  C   UNL     1      -6.200 -37.833 -29.678  1.00  0.00     0.201 A 
ATOM     19  C   UNL     1      -4.150 -36.636 -30.183  1.00  0.00     0.098 A 
ATOM     20  C   UNL     1      -5.458 -39.029 -29.506  1.00  0.00     0.176 A 
ATOM     21  C   UNL     1      -3.404 -37.794 -29.981  1.00  0.00     0.146 A 
ATOM     22  C   UNL     1      -4.048 -39.003 -29.639  1.00  0.00     0.111 A 
ATOM     23  O   UNL     1      -2.084 -37.743 -30.122  1.00  0.00    -0.456 OA
ATOM     24  C   UNL     1      -3.233 -40.143 -29.456  1.00  0.00     0.197 A 
ATOM     25  C   UNL     1      -1.289 -38.795 -29.946  1.00  0.00     0.138 A 
ATOM     26  C   UNL     1      -1.850 -40.035 -29.608  1.00  0.00     0.100 A 
ATOM     27  O   UNL     1      -3.724 -41.265 -29.156  1.00  0.00    -0.289 OA
BRANCH  18  28
ATOM     28  O   UNL     1      -7.571 -37.780 -29.418  1.00  0.00    -0.502 OA
ATOM     29  H   UNL     1      -8.057 -36.957 -29.094  1.00  0.00     0.293 HD
ENDBRANCH  18  28
BRANCH  20  30
ATOM     30  O   UNL     1      -6.096 -40.240 -29.218  1.00  0.00    -0.504 OA
ATOM     31  H   UNL     1      -5.627 -41.134 -29.178  1.00  0.00     0.293 HD
ENDBRANCH  20  30
BRANCH  25  32
ATOM     32  C   UNL     1       0.173 -38.625 -30.127  1.00  0.00     0.017 A 
ATOM     33  C   UNL     1       1.047 -38.966 -29.079  1.00  0.00     0.012 A 
ATOM     34  C   UNL     1       0.716 -38.163 -31.342  1.00  0.00     0.012 A 
ATOM     35  C   UNL     1       2.429 -38.832 -29.234  1.00  0.00     0.001 A 
ATOM     36  C   UNL     1       2.101 -38.036 -31.494  1.00  0.00     0.001 A 
ATOM     37  C   UNL     1       2.956 -38.367 -30.441  1.00  0.00     0.000 A 
ENDBRANCH  25  32
ENDBRANCH   1  17
TORSDOF 9
ENDMDL
MODEL 7
REMARK VINA RESULT:    -5.156      2.409      8.356
REMARK INTER + INTRA:          -8.965
REMARK INTER:                  -7.263
REMARK INTRA:                  -1.702
REMARK UNBOUND:                -1.849
REMARK SMILES O=C([O-])[C@@H]1O[C@H](Oc2cc3oc(-c4ccccc4)cc(=O)c3c(O)c2O)[C@H](O)[C@H](O)[C@@H]1O
REMARK SMILES IDX 7 1 6 2 4 3 31 4 5 5 29 6 27 7 2 8 1 9 3 10 32 11 30 13
REMARK SMILES IDX 28 15 8 17 25 18 9 19 23 20 10 21 22 22 11 23 20 24 12 25
REMARK SMILES IDX 19 26 21 27 26 28 24 30 13 32 14 33 18 34 15 35 17 36 16 37
REMARK H PARENT 32 12 30 14 28 16 26 29 24 31
REMARK Flexibility Score: inf
ROOT
ATOM      1  O   UNL     1      -6.310 -36.666 -30.293  1.00  0.00    -0.458 OA
ENDROOT
BRANCH   1   2
ATOM      2  C   UNL     1      -6.851 -36.687 -31.622  1.00  0.00     0.339 C 
ATOM      3  C   UNL     1      -9.087 -36.249 -30.928  1.00  0.00     0.199 C 
ATOM      4  C   UNL     1      -9.030 -34.787 -31.463  1.00  0.00     0.180 C 
ATOM      5  O   UNL     1      -8.199 -37.137 -31.600  1.00  0.00    -0.328 OA
ATOM      6  C   UNL     1      -7.595 -34.263 -31.634  1.00  0.00     0.181 C 
ATOM      7  C   UNL     1      -6.732 -35.322 -32.332  1.00  0.00     0.214 C 
BRANCH   3   8
ATOM      8  C   UNL     1      -9.007 -36.413 -29.427  1.00  0.00     0.073 C 
ATOM      9  O   UNL     1      -8.658 -35.461 -28.676  1.00  0.00    -0.547 OA
ATOM     10  O   UNL     1      -9.290 -37.654 -28.866  1.00  0.00    -0.547 OA
ENDBRANCH   3   8
BRANCH   4  11
ATOM     11  O   UNL     1      -9.756 -33.914 -30.637  1.00  0.00    -0.387 OA
ATOM     12  H   UNL     1     -10.179 -33.241 -31.230  1.00  0.00     0.211 HD
ENDBRANCH   4  11
BRANCH   6  13
ATOM     13  O   UNL     1      -7.049 -33.909 -30.390  1.00  0.00    -0.387 OA
ATOM     14  H   UNL     1      -7.180 -32.931 -30.281  1.00  0.00     0.211 HD
ENDBRANCH   6  13
BRANCH   7  15
ATOM     15  O   UNL     1      -5.394 -34.894 -32.385  1.00  0.00    -0.384 OA
ATOM     16  H   UNL     1      -5.385 -34.054 -32.915  1.00  0.00     0.211 HD
ENDBRANCH   7  15
ENDBRANCH   1   2
BRANCH   1  17
ATOM     17  C   UNL     1      -5.293 -37.508 -29.817  1.00  0.00     0.172 A 
ATOM     18  C   UNL     1      -5.561 -38.642 -29.022  1.00  0.00     0.201 A 
ATOM     19  C   UNL     1      -3.974 -37.166 -30.114  1.00  0.00     0.098 A 
ATOM     20  C   UNL     1      -4.496 -39.486 -28.616  1.00  0.00     0.176 A 
ATOM     21  C   UNL     1      -2.914 -37.965 -29.691  1.00  0.00     0.146 A 
ATOM     22  C   UNL     1      -3.162 -39.132 -28.936  1.00  0.00     0.111 A 
ATOM     23  O   UNL     1      -1.674 -37.614 -30.014  1.00  0.00    -0.456 OA
ATOM     24  C   UNL     1      -2.043 -39.901 -28.545  1.00  0.00     0.197 A 
ATOM     25  C   UNL     1      -0.600 -38.311 -29.653  1.00  0.00     0.138 A 
ATOM     26  C   UNL     1      -0.759 -39.486 -28.903  1.00  0.00     0.100 A 
ATOM     27  O   UNL     1      -2.172 -40.962 -27.875  1.00  0.00    -0.289 OA
BRANCH  18  28
ATOM     28  O   UNL     1      -6.875 -38.874 -28.609  1.00  0.00    -0.502 OA
ATOM     29  H   UNL     1      -7.134 -39.507 -27.867  1.00  0.00     0.293 HD
ENDBRANCH  18  28
BRANCH  20  30
ATOM     30  O   UNL     1      -4.739 -40.670 -27.913  1.00  0.00    -0.504 OA
ATOM     31  H   UNL     1      -4.183 -41.509 -28.002  1.00  0.00     0.293 HD
ENDBRANCH  20  30
BRANCH  25  32
ATOM     32  C   UNL     1       0.739 -37.827 -30.066  1.00  0.00     0.017 A 
ATOM     33  C   UNL     1       1.839 -38.010 -29.209  1.00  0.00     0.012 A 
ATOM     34  C   UNL     1       0.947 -37.217 -31.319  1.00  0.00     0.012 A 
ATOM     35  C   UNL     1       3.114 -37.579 -29.587  1.00  0.00     0.001 A 
ATOM     36  C   UNL     1       2.226 -36.793 -31.694  1.00  0.00     0.001 A 
ATOM     37  C   UNL     1       3.308 -36.971 -30.828  1.00  0.00     0.000 A 
ENDBRANCH  25  32
ENDBRANCH   1  17
TORSDOF 9
ENDMDL
MODEL 8
REMARK VINA RESULT:    -5.133      2.875      8.851
REMARK INTER + INTRA:          -8.932
REMARK INTER:                  -7.103
REMARK INTRA:                  -1.829
REMARK UNBOUND:                -1.849
REMARK SMILES O=C([O-])[C@@H]1O[C@H](Oc2cc3oc(-c4ccccc4)cc(=O)c3c(O)c2O)[C@H](O)[C@H](O)[C@@H]1O
REMARK SMILES IDX 7 1 6 2 4 3 31 4 5 5 29 6 27 7 2 8 1 9 3 10 32 11 30 13
REMARK SMILES IDX 28 15 8 17 25 18 9 19 23 20 10 21 22 22 11 23 20 24 12 25
REMARK SMILES IDX 19 26 21 27 26 28 24 30 13 32 14 33 18 34 15 35 17 36 16 37
REMARK H PARENT 32 12 30 14 28 16 26 29 24 31
REMARK Flexibility Score: inf
ROOT
ATOM      1  O   UNL     1      -5.864 -36.022 -30.629  1.00  0.00    -0.458 OA
ENDROOT
BRANCH   1   2
ATOM      2  C   UNL     1      -6.244 -36.234 -29.261  1.00  0.00     0.339 C 
ATOM      3  C   UNL     1      -8.037 -34.667 -29.312  1.00  0.00     0.199 C 
ATOM      4  C   UNL     1      -9.106 -35.800 -29.312  1.00  0.00     0.180 C 
ATOM      5  O   UNL     1      -6.802 -35.048 -28.713  1.00  0.00    -0.328 OA
ATOM      6  C   UNL     1      -8.550 -37.155 -29.777  1.00  0.00     0.181 C 
ATOM      7  C   UNL     1      -7.205 -37.431 -29.093  1.00  0.00     0.214 C 
BRANCH   3   8
ATOM      8  C   UNL     1      -7.820 -33.958 -30.629  1.00  0.00     0.073 C 
ATOM      9  O   UNL     1      -8.296 -34.405 -31.708  1.00  0.00    -0.547 OA
ATOM     10  O   UNL     1      -7.045 -32.802 -30.656  1.00  0.00    -0.547 OA
ENDBRANCH   3   8
BRANCH   4  11
ATOM     11  O   UNL     1     -10.218 -35.451 -30.095  1.00  0.00    -0.387 OA
ATOM     12  H   UNL     1     -10.230 -36.070 -30.870  1.00  0.00     0.211 HD
ENDBRANCH   4  11
BRANCH   6  13
ATOM     13  O   UNL     1      -8.417 -37.179 -31.174  1.00  0.00    -0.387 OA
ATOM     14  H   UNL     1      -9.182 -36.669 -31.549  1.00  0.00     0.211 HD
ENDBRANCH   6  13
BRANCH   7  15
ATOM     15  O   UNL     1      -6.638 -38.611 -29.603  1.00  0.00    -0.384 OA
ATOM     16  H   UNL     1      -5.654 -38.513 -29.521  1.00  0.00     0.211 HD
ENDBRANCH   7  15
ENDBRANCH   1   2
BRANCH   1  17
ATOM     17  C   UNL     1      -4.553 -35.807 -31.083  1.00  0.00     0.172 A 
ATOM     18  C   UNL     1      -4.233 -34.803 -32.021  1.00  0.00     0.201 A 
ATOM     19  C   UNL     1      -3.554 -36.659 -30.611  1.00  0.00     0.098 A 
ATOM     20  C   UNL     1      -2.882 -34.599 -32.401  1.00  0.00     0.176 A 
ATOM     21  C   UNL     1      -2.228 -36.494 -31.004  1.00  0.00     0.146 A 
ATOM     22  C   UNL     1      -1.877 -35.464 -31.903  1.00  0.00     0.111 A 
ATOM     23  O   UNL     1      -1.305 -37.314 -30.514  1.00  0.00    -0.456 OA
ATOM     24  C   UNL     1      -0.513 -35.347 -32.255  1.00  0.00     0.197 A 
ATOM     25  C   UNL     1      -0.015 -37.236 -30.832  1.00  0.00     0.138 A 
ATOM     26  C   UNL     1       0.417 -36.238 -31.718  1.00  0.00     0.100 A 
ATOM     27  O   UNL     1      -0.109 -34.452 -33.046  1.00  0.00    -0.289 OA
BRANCH  18  28
ATOM     28  O   UNL     1      -5.273 -34.068 -32.594  1.00  0.00    -0.502 OA
ATOM     29  H   UNL     1      -6.076 -34.477 -33.048  1.00  0.00     0.293 HD
ENDBRANCH  18  28
BRANCH  20  30
ATOM     30  O   UNL     1      -2.521 -33.548 -33.251  1.00  0.00    -0.504 OA
ATOM     31  H   UNL     1      -2.472 -33.623 -34.257  1.00  0.00     0.293 HD
ENDBRANCH  20  30
BRANCH  25  32
ATOM     32  C   UNL     1       0.930 -38.205 -30.228  1.00  0.00     0.017 A 
ATOM     33  C   UNL     1       0.600 -38.831 -29.012  1.00  0.00     0.012 A 
ATOM     34  C   UNL     1       2.142 -38.544 -30.861  1.00  0.00     0.012 A 
ATOM     35  C   UNL     1       1.468 -39.762 -28.434  1.00  0.00     0.001 A 
ATOM     36  C   UNL     1       3.004 -39.480 -30.281  1.00  0.00     0.001 A 
ATOM     37  C   UNL     1       2.670 -40.086 -29.067  1.00  0.00     0.000 A 
ENDBRANCH  25  32
ENDBRANCH   1  17
TORSDOF 9
ENDMDL
MODEL 9
REMARK VINA RESULT:    -5.104      3.281      6.151
REMARK INTER + INTRA:          -8.892
REMARK INTER:                  -7.558
REMARK INTRA:                  -1.334
REMARK UNBOUND:                -1.849
REMARK SMILES O=C([O-])[C@@H]1O[C@H](Oc2cc3oc(-c4ccccc4)cc(=O)c3c(O)c2O)[C@H](O)[C@H](O)[C@@H]1O
REMARK SMILES IDX 7 1 6 2 4 3 31 4 5 5 29 6 27 7 2 8 1 9 3 10 32 11 30 13
REMARK SMILES IDX 28 15 8 17 25 18 9 19 23 20 10 21 22 22 11 23 20 24 12 25
REMARK SMILES IDX 19 26 21 27 26 28 24 30 13 32 14 33 18 34 15 35 17 36 16 37
REMARK H PARENT 32 12 30 14 28 16 26 29 24 31
REMARK Flexibility Score: inf
ROOT
ATOM      1  O   UNL     1      -5.191 -38.572 -29.745  1.00  0.00    -0.458 OA
ENDROOT
BRANCH   1   2
ATOM      2  C   UNL     1      -4.957 -39.663 -30.647  1.00  0.00     0.339 C 
ATOM      3  C   UNL     1      -2.589 -39.417 -30.641  1.00  0.00     0.199 C 
ATOM      4  C   UNL     1      -2.398 -40.692 -29.767  1.00  0.00     0.180 C 
ATOM      5  O   UNL     1      -3.785 -39.429 -31.414  1.00  0.00    -0.328 OA
ATOM      6  C   UNL     1      -3.667 -41.089 -28.994  1.00  0.00     0.181 C 
ATOM      7  C   UNL     1      -4.886 -41.025 -29.923  1.00  0.00     0.214 C 
BRANCH   3   8
ATOM      8  C   UNL     1      -2.394 -38.093 -29.938  1.00  0.00     0.073 C 
ATOM      9  O   UNL     1      -2.445 -37.998 -28.681  1.00  0.00    -0.547 OA
ATOM     10  O   UNL     1      -2.191 -36.946 -30.699  1.00  0.00    -0.547 OA
ENDBRANCH   3   8
BRANCH   4  11
ATOM     11  O   UNL     1      -1.327 -40.541 -28.872  1.00  0.00    -0.387 OA
ATOM     12  H   UNL     1      -0.664 -39.949 -29.312  1.00  0.00     0.211 HD
ENDBRANCH   4  11
BRANCH   6  13
ATOM     13  O   UNL     1      -3.842 -40.258 -27.876  1.00  0.00    -0.387 OA
ATOM     14  H   UNL     1      -3.019 -39.709 -27.788  1.00  0.00     0.211 HD
ENDBRANCH   6  13
BRANCH   7  15
ATOM     15  O   UNL     1      -6.061 -41.273 -29.192  1.00  0.00    -0.384 OA
ATOM     16  H   UNL     1      -6.238 -42.247 -29.260  1.00  0.00     0.211 HD
ENDBRANCH   7  15
ENDBRANCH   1   2
BRANCH   1  17
ATOM     17  C   UNL     1      -5.941 -37.423 -30.039  1.00  0.00     0.172 A 
ATOM     18  C   UNL     1      -7.204 -37.176 -29.461  1.00  0.00     0.201 A 
ATOM     19  C   UNL     1      -5.421 -36.528 -30.974  1.00  0.00     0.098 A 
ATOM     20  C   UNL     1      -7.891 -35.971 -29.756  1.00  0.00     0.176 A 
ATOM     21  C   UNL     1      -6.101 -35.358 -31.302  1.00  0.00     0.146 A 
ATOM     22  C   UNL     1      -7.343 -35.066 -30.699  1.00  0.00     0.111 A 
ATOM     23  O   UNL     1      -5.559 -34.523 -32.182  1.00  0.00    -0.456 OA
ATOM     24  C   UNL     1      -7.977 -33.859 -31.069  1.00  0.00     0.197 A 
ATOM     25  C   UNL     1      -6.135 -33.384 -32.559  1.00  0.00     0.138 A 
ATOM     26  C   UNL     1      -7.370 -33.019 -32.005  1.00  0.00     0.100 A 
ATOM     27  O   UNL     1      -9.085 -33.515 -30.575  1.00  0.00    -0.289 OA
BRANCH  18  28
ATOM     28  O   UNL     1      -7.771 -38.160 -28.649  1.00  0.00    -0.502 OA
ATOM     29  H   UNL     1      -7.508 -38.327 -27.689  1.00  0.00     0.293 HD
ENDBRANCH  18  28
BRANCH  20  30
ATOM     30  O   UNL     1      -9.096 -35.652 -29.122  1.00  0.00    -0.504 OA
ATOM     31  H   UNL     1     -10.010 -35.842 -29.510  1.00  0.00     0.293 HD
ENDBRANCH  20  30
BRANCH  25  32
ATOM     32  C   UNL     1      -5.442 -32.527 -33.551  1.00  0.00     0.017 A 
ATOM     33  C   UNL     1      -4.037 -32.529 -33.610  1.00  0.00     0.012 A 
ATOM     34  C   UNL     1      -6.160 -31.734 -34.467  1.00  0.00     0.012 A 
ATOM     35  C   UNL     1      -3.364 -31.743 -34.549  1.00  0.00     0.001 A 
ATOM     36  C   UNL     1      -5.481 -30.954 -35.410  1.00  0.00     0.001 A 
ATOM     37  C   UNL     1      -4.085 -30.956 -35.449  1.00  0.00     0.000 A 
ENDBRANCH  25  32
ENDBRANCH   1  17
TORSDOF 9
ENDMDL
