MODEL 1
REMARK VINA RESULT:    -5.439      0.000      0.000
REMARK INTER + INTRA:          -7.949
REMARK INTER:                  -7.347
REMARK INTRA:                  -0.603
REMARK UNBOUND:                -0.603
REMARK SMILES O=c1c(-c2ccc(O)cc2)coc2c([C@H]3O[C@@H](CO)[C@H](O)[C@@H](O)[C@@H]3O)c(O)ccc12
REMARK SMILES IDX 3 1 11 2 12 3 13 4 30 5 2 6 1 7 29 8 28 9 26 10 14 11 4 12
REMARK SMILES IDX 5 13 6 14 7 15 10 16 9 17 8 18 15 20 24 21 16 22 22 23 17 24
REMARK SMILES IDX 20 25 25 26 23 28 18 30 19 31 21 33 27 35
REMARK H PARENT 8 19 25 27 23 29 19 32 21 34 27 36
REMARK Flexibility Score: inf
ROOT
ATOM      1  C   UNL     1      15.654   7.569  11.490  1.00  0.00     0.065 A 
ATOM      2  C   UNL     1      16.313   6.793  10.530  1.00  0.00     0.208 A 
ATOM      3  O   UNL     1      16.842   5.619  10.851  1.00  0.00    -0.463 OA
ATOM      4  C   UNL     1      16.791   5.096  12.075  1.00  0.00     0.147 A 
ATOM      5  C   UNL     1      16.097   5.795  13.094  1.00  0.00     0.066 A 
ATOM      6  C   UNL     1      15.546   7.056  12.796  1.00  0.00     0.200 A 
ATOM      7  O   UNL     1      14.974   7.730  13.698  1.00  0.00    -0.288 OA
ATOM      8  C   UNL     1      15.942   5.206  14.356  1.00  0.00     0.020 A 
ATOM      9  C   UNL     1      16.379   3.905  14.573  1.00  0.00     0.047 A 
ATOM     10  C   UNL     1      17.049   3.196  13.566  1.00  0.00     0.125 A 
ATOM     11  C   UNL     1      17.400   3.837  12.349  1.00  0.00     0.069 A 
ENDROOT
BRANCH   1  12
ATOM     12  C   UNL     1      15.092   8.890  11.110  1.00  0.00    -0.011 A 
ATOM     13  C   UNL     1      13.805   8.974  10.548  1.00  0.00     0.013 A 
ATOM     14  C   UNL     1      13.264  10.214  10.199  1.00  0.00     0.047 A 
ATOM     15  C   UNL     1      13.999  11.388  10.410  1.00  0.00     0.115 A 
ATOM     16  C   UNL     1      15.821  10.074  11.325  1.00  0.00     0.013 A 
ATOM     17  C   UNL     1      15.276  11.313  10.977  1.00  0.00     0.047 A 
BRANCH  15  18
ATOM     18  O   UNL     1      13.469  12.629  10.063  1.00  0.00    -0.508 OA
ATOM     19  H   UNL     1      12.759  12.718   9.344  1.00  0.00     0.293 HD
ENDBRANCH  15  18
ENDBRANCH   1  12
BRANCH  11  20
ATOM     20  C   UNL     1      18.308   3.147  11.303  1.00  0.00     0.188 C 
ATOM     21  C   UNL     1      19.389   2.159  11.854  1.00  0.00     0.179 C 
ATOM     22  O   UNL     1      18.908   4.093  10.417  1.00  0.00    -0.362 OA
ATOM     23  C   UNL     1      20.468   2.903  12.679  1.00  0.00     0.177 C 
ATOM     24  C   UNL     1      20.186   4.607  10.811  1.00  0.00     0.176 C 
ATOM     25  C   UNL     1      20.531   4.404  12.317  1.00  0.00     0.177 C 
BRANCH  21  26
ATOM     26  O   UNL     1      20.018   1.535  10.763  1.00  0.00    -0.387 OA
ATOM     27  H   UNL     1      19.793   2.057   9.951  1.00  0.00     0.211 HD
ENDBRANCH  21  26
BRANCH  23  28
ATOM     28  O   UNL     1      20.277   2.724  14.063  1.00  0.00    -0.387 OA
ATOM     29  H   UNL     1      19.594   3.377  14.363  1.00  0.00     0.211 HD
ENDBRANCH  23  28
BRANCH  24  30
ATOM     30  C   UNL     1      20.250   6.097  10.427  1.00  0.00     0.191 C 
BRANCH  30  31
ATOM     31  O   UNL     1      19.746   6.899  11.464  1.00  0.00    -0.394 OA
ATOM     32  H   UNL     1      19.618   6.314  12.255  1.00  0.00     0.210 HD
ENDBRANCH  30  31
ENDBRANCH  24  30
BRANCH  25  33
ATOM     33  O   UNL     1      21.796   4.928  12.646  1.00  0.00    -0.388 OA
ATOM     34  H   UNL     1      22.016   4.641  13.569  1.00  0.00     0.211 HD
ENDBRANCH  25  33
ENDBRANCH  11  20
BRANCH  10  35
ATOM     35  O   UNL     1      17.337   1.850  13.780  1.00  0.00    -0.507 OA
ATOM     36  H   UNL     1      16.603   1.158  13.894  1.00  0.00     0.293 HD
ENDBRANCH  10  35
TORSDOF 9
ENDMDL
MODEL 2
REMARK VINA RESULT:    -4.722      1.823      3.864
REMARK INTER + INTRA:          -6.981
REMARK INTER:                  -7.182
REMARK INTRA:                   0.201
REMARK UNBOUND:                -0.603
REMARK SMILES O=c1c(-c2ccc(O)cc2)coc2c([C@H]3O[C@@H](CO)[C@H](O)[C@@H](O)[C@@H]3O)c(O)ccc12
REMARK SMILES IDX 3 1 11 2 12 3 13 4 30 5 2 6 1 7 29 8 28 9 26 10 14 11 4 12
REMARK SMILES IDX 5 13 6 14 7 15 10 16 9 17 8 18 15 20 24 21 16 22 22 23 17 24
REMARK SMILES IDX 20 25 25 26 23 28 18 30 19 31 21 33 27 35
REMARK H PARENT 8 19 25 27 23 29 19 32 21 34 27 36
REMARK Flexibility Score: inf
ROOT
ATOM      1  C   UNL     1      16.052   6.859  11.954  1.00  0.00     0.065 A 
ATOM      2  C   UNL     1      16.116   6.135  13.150  1.00  0.00     0.208 A 
ATOM      3  O   UNL     1      17.059   5.221  13.343  1.00  0.00    -0.463 OA
ATOM      4  C   UNL     1      17.995   4.926  12.442  1.00  0.00     0.147 A 
ATOM      5  C   UNL     1      18.033   5.650  11.225  1.00  0.00     0.066 A 
ATOM      6  C   UNL     1      17.031   6.608  10.976  1.00  0.00     0.200 A 
ATOM      7  O   UNL     1      17.002   7.227   9.875  1.00  0.00    -0.288 OA
ATOM      8  C   UNL     1      19.076   5.426  10.317  1.00  0.00     0.020 A 
ATOM      9  C   UNL     1      20.119   4.573  10.656  1.00  0.00     0.047 A 
ATOM     10  C   UNL     1      20.104   3.867  11.867  1.00  0.00     0.125 A 
ATOM     11  C   UNL     1      18.965   3.917  12.712  1.00  0.00     0.069 A 
ENDROOT
BRANCH   1  12
ATOM     12  C   UNL     1      14.972   7.859  11.756  1.00  0.00    -0.011 A 
ATOM     13  C   UNL     1      14.545   8.659  12.831  1.00  0.00     0.013 A 
ATOM     14  C   UNL     1      13.538   9.611  12.649  1.00  0.00     0.047 A 
ATOM     15  C   UNL     1      12.947   9.780  11.390  1.00  0.00     0.115 A 
ATOM     16  C   UNL     1      14.379   8.039  10.492  1.00  0.00     0.013 A 
ATOM     17  C   UNL     1      13.373   8.994  10.314  1.00  0.00     0.047 A 
BRANCH  15  18
ATOM     18  O   UNL     1      11.941  10.725  11.200  1.00  0.00    -0.508 OA
ATOM     19  H   UNL     1      11.041  10.640  11.661  1.00  0.00     0.293 HD
ENDBRANCH  15  18
ENDBRANCH   1  12
BRANCH  11  20
ATOM     20  C   UNL     1      18.836   2.999  13.952  1.00  0.00     0.188 C 
ATOM     21  C   UNL     1      19.451   1.566  13.832  1.00  0.00     0.179 C 
ATOM     22  O   UNL     1      17.486   2.921  14.414  1.00  0.00    -0.362 OA
ATOM     23  C   UNL     1      18.687   0.707  12.795  1.00  0.00     0.177 C 
ATOM     24  C   UNL     1      16.689   1.865  13.865  1.00  0.00     0.176 C 
ATOM     25  C   UNL     1      17.255   1.237  12.555  1.00  0.00     0.177 C 
BRANCH  21  26
ATOM     26  O   UNL     1      19.358   0.936  15.085  1.00  0.00    -0.387 OA
ATOM     27  H   UNL     1      18.402   0.726  15.242  1.00  0.00     0.211 HD
ENDBRANCH  21  26
BRANCH  23  28
ATOM     28  O   UNL     1      19.397   0.601  11.584  1.00  0.00    -0.387 OA
ATOM     29  H   UNL     1      20.364   0.672  11.791  1.00  0.00     0.211 HD
ENDBRANCH  23  28
BRANCH  24  30
ATOM     30  C   UNL     1      15.260   2.394  13.649  1.00  0.00     0.191 C 
BRANCH  30  31
ATOM     31  O   UNL     1      14.897   3.277  14.678  1.00  0.00    -0.394 OA
ATOM     32  H   UNL     1      15.711   3.781  14.938  1.00  0.00     0.210 HD
ENDBRANCH  30  31
ENDBRANCH  24  30
BRANCH  25  33
ATOM     33  O   UNL     1      16.433   0.207  12.063  1.00  0.00    -0.388 OA
ATOM     34  H   UNL     1      15.888   0.576  11.322  1.00  0.00     0.211 HD
ENDBRANCH  25  33
ENDBRANCH  11  20
BRANCH  10  35
ATOM     35  O   UNL     1      21.236   3.140  12.227  1.00  0.00    -0.507 OA
ATOM     36  H   UNL     1      21.588   3.135  13.179  1.00  0.00     0.293 HD
ENDBRANCH  10  35
TORSDOF 9
ENDMDL
MODEL 3
REMARK VINA RESULT:    -4.700      2.705      4.486
REMARK INTER + INTRA:          -6.951
REMARK INTER:                  -7.324
REMARK INTRA:                   0.373
REMARK UNBOUND:                -0.603
REMARK SMILES O=c1c(-c2ccc(O)cc2)coc2c([C@H]3O[C@@H](CO)[C@H](O)[C@@H](O)[C@@H]3O)c(O)ccc12
REMARK SMILES IDX 3 1 11 2 12 3 13 4 30 5 2 6 1 7 29 8 28 9 26 10 14 11 4 12
REMARK SMILES IDX 5 13 6 14 7 15 10 16 9 17 8 18 15 20 24 21 16 22 22 23 17 24
REMARK SMILES IDX 20 25 25 26 23 28 18 30 19 31 21 33 27 35
REMARK H PARENT 8 19 25 27 23 29 19 32 21 34 27 36
REMARK Flexibility Score: inf
ROOT
ATOM      1  C   UNL     1      14.291   8.634  13.249  1.00  0.00     0.065 A 
ATOM      2  C   UNL     1      14.905   7.721  14.115  1.00  0.00     0.208 A 
ATOM      3  O   UNL     1      15.870   6.918  13.685  1.00  0.00    -0.463 OA
ATOM      4  C   UNL     1      16.321   6.913  12.431  1.00  0.00     0.147 A 
ATOM      5  C   UNL     1      15.788   7.842  11.503  1.00  0.00     0.066 A 
ATOM      6  C   UNL     1      14.744   8.691  11.919  1.00  0.00     0.200 A 
ATOM      7  O   UNL     1      14.208   9.488  11.099  1.00  0.00    -0.288 OA
ATOM      8  C   UNL     1      16.329   7.921  10.213  1.00  0.00     0.020 A 
ATOM      9  C   UNL     1      17.446   7.164   9.882  1.00  0.00     0.047 A 
ATOM     10  C   UNL     1      17.995   6.256  10.798  1.00  0.00     0.125 A 
ATOM     11  C   UNL     1      17.347   6.006  12.036  1.00  0.00     0.069 A 
ENDROOT
BRANCH   1  12
ATOM     12  C   UNL     1      13.198   9.505  13.752  1.00  0.00    -0.011 A 
ATOM     13  C   UNL     1      13.474  10.509  14.696  1.00  0.00     0.013 A 
ATOM     14  C   UNL     1      12.453  11.341  15.164  1.00  0.00     0.047 A 
ATOM     15  C   UNL     1      11.144  11.183  14.692  1.00  0.00     0.115 A 
ATOM     16  C   UNL     1      11.882   9.356  13.277  1.00  0.00     0.013 A 
ATOM     17  C   UNL     1      10.863  10.192  13.746  1.00  0.00     0.047 A 
BRANCH  15  18
ATOM     18  O   UNL     1      10.120  12.006  15.155  1.00  0.00    -0.508 OA
ATOM     19  H   UNL     1       9.363  12.302  14.547  1.00  0.00     0.293 HD
ENDBRANCH  15  18
ENDBRANCH   1  12
BRANCH  11  20
ATOM     20  C   UNL     1      17.815   4.872  12.980  1.00  0.00     0.188 C 
ATOM     21  C   UNL     1      18.655   3.722  12.334  1.00  0.00     0.179 C 
ATOM     22  O   UNL     1      16.729   4.329  13.733  1.00  0.00    -0.362 OA
ATOM     23  C   UNL     1      17.808   2.893  11.337  1.00  0.00     0.177 C 
ATOM     24  C   UNL     1      16.048   3.214  13.147  1.00  0.00     0.176 C 
ATOM     25  C   UNL     1      16.294   3.032  11.619  1.00  0.00     0.177 C 
BRANCH  21  26
ATOM     26  O   UNL     1      19.098   2.866  13.357  1.00  0.00    -0.387 OA
ATOM     27  H   UNL     1      19.912   2.406  13.027  1.00  0.00     0.211 HD
ENDBRANCH  21  26
BRANCH  23  28
ATOM     28  O   UNL     1      18.106   3.225  10.001  1.00  0.00    -0.387 OA
ATOM     29  H   UNL     1      17.558   4.012   9.754  1.00  0.00     0.211 HD
ENDBRANCH  23  28
BRANCH  24  30
ATOM     30  C   UNL     1      14.544   3.348  13.450  1.00  0.00     0.191 C 
BRANCH  30  31
ATOM     31  O   UNL     1      14.221   2.701  14.653  1.00  0.00    -0.394 OA
ATOM     32  H   UNL     1      14.157   1.730  14.460  1.00  0.00     0.210 HD
ENDBRANCH  30  31
ENDBRANCH  24  30
BRANCH  25  33
ATOM     33  O   UNL     1      15.601   1.923  11.098  1.00  0.00    -0.388 OA
ATOM     34  H   UNL     1      14.889   2.261  10.497  1.00  0.00     0.211 HD
ENDBRANCH  25  33
ENDBRANCH  11  20
BRANCH  10  35
ATOM     35  O   UNL     1      19.196   5.630  10.475  1.00  0.00    -0.507 OA
ATOM     36  H   UNL     1      19.563   4.859  11.024  1.00  0.00     0.293 HD
ENDBRANCH  10  35
TORSDOF 9
ENDMDL
MODEL 4
REMARK VINA RESULT:    -4.614      3.857      6.672
REMARK INTER + INTRA:          -6.835
REMARK INTER:                  -6.279
REMARK INTRA:                  -0.556
REMARK UNBOUND:                -0.603
REMARK SMILES O=c1c(-c2ccc(O)cc2)coc2c([C@H]3O[C@@H](CO)[C@H](O)[C@@H](O)[C@@H]3O)c(O)ccc12
REMARK SMILES IDX 3 1 11 2 12 3 13 4 30 5 2 6 1 7 29 8 28 9 26 10 14 11 4 12
REMARK SMILES IDX 5 13 6 14 7 15 10 16 9 17 8 18 15 20 24 21 16 22 22 23 17 24
REMARK SMILES IDX 20 25 25 26 23 28 18 30 19 31 21 33 27 35
REMARK H PARENT 8 19 25 27 23 29 19 32 21 34 27 36
REMARK Flexibility Score: inf
ROOT
ATOM      1  C   UNL     1      17.886   2.325  12.701  1.00  0.00     0.065 A 
ATOM      2  C   UNL     1      19.200   2.129  13.140  1.00  0.00     0.208 A 
ATOM      3  O   UNL     1      19.794   0.950  13.007  1.00  0.00    -0.463 OA
ATOM      4  C   UNL     1      19.208  -0.114  12.460  1.00  0.00     0.147 A 
ATOM      5  C   UNL     1      17.895   0.014  11.942  1.00  0.00     0.066 A 
ATOM      6  C   UNL     1      17.225   1.244  12.091  1.00  0.00     0.200 A 
ATOM      7  O   UNL     1      16.032   1.370  11.695  1.00  0.00    -0.288 OA
ATOM      8  C   UNL     1      17.308  -1.065  11.268  1.00  0.00     0.020 A 
ATOM      9  C   UNL     1      18.048  -2.215  11.021  1.00  0.00     0.047 A 
ATOM     10  C   UNL     1      19.356  -2.344  11.509  1.00  0.00     0.125 A 
ATOM     11  C   UNL     1      19.902  -1.355  12.368  1.00  0.00     0.069 A 
ENDROOT
BRANCH   1  12
ATOM     12  C   UNL     1      17.238   3.648  12.884  1.00  0.00    -0.011 A 
ATOM     13  C   UNL     1      16.790   4.044  14.157  1.00  0.00     0.013 A 
ATOM     14  C   UNL     1      16.190   5.293  14.340  1.00  0.00     0.047 A 
ATOM     15  C   UNL     1      16.034   6.165  13.256  1.00  0.00     0.115 A 
ATOM     16  C   UNL     1      17.084   4.532  11.801  1.00  0.00     0.013 A 
ATOM     17  C   UNL     1      16.485   5.782  11.988  1.00  0.00     0.047 A 
BRANCH  15  18
ATOM     18  O   UNL     1      15.435   7.411  13.429  1.00  0.00    -0.508 OA
ATOM     19  H   UNL     1      14.430   7.531  13.356  1.00  0.00     0.293 HD
ENDBRANCH  15  18
ENDBRANCH   1  12
BRANCH  11  20
ATOM     20  C   UNL     1      21.261  -1.562  13.080  1.00  0.00     0.188 C 
ATOM     21  C   UNL     1      21.612  -3.024  13.512  1.00  0.00     0.179 C 
ATOM     22  O   UNL     1      21.421  -0.669  14.184  1.00  0.00    -0.362 OA
ATOM     23  C   UNL     1      20.660  -3.532  14.622  1.00  0.00     0.177 C 
ATOM     24  C   UNL     1      20.969  -1.148  15.456  1.00  0.00     0.176 C 
ATOM     25  C   UNL     1      19.996  -2.363  15.385  1.00  0.00     0.177 C 
BRANCH  21  26
ATOM     26  O   UNL     1      22.925  -3.036  14.013  1.00  0.00    -0.387 OA
ATOM     27  H   UNL     1      23.273  -2.110  13.958  1.00  0.00     0.211 HD
ENDBRANCH  21  26
BRANCH  23  28
ATOM     28  O   UNL     1      19.691  -4.417  14.110  1.00  0.00    -0.387 OA
ATOM     29  H   UNL     1      19.536  -5.123  14.789  1.00  0.00     0.211 HD
ENDBRANCH  23  28
BRANCH  24  30
ATOM     30  C   UNL     1      20.329   0.026  16.220  1.00  0.00     0.191 C 
BRANCH  30  31
ATOM     31  O   UNL     1      18.954   0.104  15.947  1.00  0.00    -0.394 OA
ATOM     32  H   UNL     1      18.748   1.051  15.734  1.00  0.00     0.210 HD
ENDBRANCH  30  31
ENDBRANCH  24  30
BRANCH  25  33
ATOM     33  O   UNL     1      19.587  -2.790  16.662  1.00  0.00    -0.388 OA
ATOM     34  H   UNL     1      18.603  -2.913  16.644  1.00  0.00     0.211 HD
ENDBRANCH  25  33
ENDBRANCH  11  20
BRANCH  10  35
ATOM     35  O   UNL     1      20.107  -3.449  11.114  1.00  0.00    -0.507 OA
ATOM     36  H   UNL     1      20.380  -3.591  10.147  1.00  0.00     0.293 HD
ENDBRANCH  10  35
TORSDOF 9
ENDMDL
MODEL 5
REMARK VINA RESULT:    -4.587      5.742      9.022
REMARK INTER + INTRA:          -6.799
REMARK INTER:                  -6.470
REMARK INTRA:                  -0.329
REMARK UNBOUND:                -0.603
REMARK SMILES O=c1c(-c2ccc(O)cc2)coc2c([C@H]3O[C@@H](CO)[C@H](O)[C@@H](O)[C@@H]3O)c(O)ccc12
REMARK SMILES IDX 3 1 11 2 12 3 13 4 30 5 2 6 1 7 29 8 28 9 26 10 14 11 4 12
REMARK SMILES IDX 5 13 6 14 7 15 10 16 9 17 8 18 15 20 24 21 16 22 22 23 17 24
REMARK SMILES IDX 20 25 25 26 23 28 18 30 19 31 21 33 27 35
REMARK H PARENT 8 19 25 27 23 29 19 32 21 34 27 36
REMARK Flexibility Score: inf
ROOT
ATOM      1  C   UNL     1      17.959  -0.193  11.868  1.00  0.00     0.065 A 
ATOM      2  C   UNL     1      19.120  -0.436  12.611  1.00  0.00     0.208 A 
ATOM      3  O   UNL     1      19.751  -1.600  12.526  1.00  0.00    -0.463 OA
ATOM      4  C   UNL     1      19.346  -2.605  11.751  1.00  0.00     0.147 A 
ATOM      5  C   UNL     1      18.207  -2.423  10.927  1.00  0.00     0.066 A 
ATOM      6  C   UNL     1      17.497  -1.209  11.012  1.00  0.00     0.200 A 
ATOM      7  O   UNL     1      16.444  -1.040  10.335  1.00  0.00    -0.288 OA
ATOM      8  C   UNL     1      17.834  -3.430  10.028  1.00  0.00     0.020 A 
ATOM      9  C   UNL     1      18.636  -4.555   9.875  1.00  0.00     0.047 A 
ATOM     10  C   UNL     1      19.777  -4.736  10.670  1.00  0.00     0.125 A 
ATOM     11  C   UNL     1      20.065  -3.835  11.727  1.00  0.00     0.069 A 
ENDROOT
BRANCH   1  12
ATOM     12  C   UNL     1      17.259   1.110  12.000  1.00  0.00    -0.011 A 
ATOM     13  C   UNL     1      17.438   2.108  11.025  1.00  0.00     0.013 A 
ATOM     14  C   UNL     1      16.774   3.332  11.135  1.00  0.00     0.047 A 
ATOM     15  C   UNL     1      15.918   3.575  12.218  1.00  0.00     0.115 A 
ATOM     16  C   UNL     1      16.393   1.358  13.080  1.00  0.00     0.013 A 
ATOM     17  C   UNL     1      15.728   2.583  13.186  1.00  0.00     0.047 A 
BRANCH  15  18
ATOM     18  O   UNL     1      15.253   4.793  12.336  1.00  0.00    -0.508 OA
ATOM     19  H   UNL     1      15.017   5.349  11.521  1.00  0.00     0.293 HD
ENDBRANCH  15  18
ENDBRANCH   1  12
BRANCH  11  20
ATOM     20  C   UNL     1      21.199  -4.115  12.743  1.00  0.00     0.188 C 
ATOM     21  C   UNL     1      21.513  -5.616  13.049  1.00  0.00     0.179 C 
ATOM     22  O   UNL     1      21.009  -3.391  13.961  1.00  0.00    -0.362 OA
ATOM     23  C   UNL     1      20.336  -6.304  13.782  1.00  0.00     0.177 C 
ATOM     24  C   UNL     1      20.269  -4.063  14.987  1.00  0.00     0.176 C 
ATOM     25  C   UNL     1      19.425  -5.276  14.492  1.00  0.00     0.177 C 
BRANCH  21  26
ATOM     26  O   UNL     1      22.646  -5.673  13.878  1.00  0.00    -0.387 OA
ATOM     27  H   UNL     1      22.671  -6.576  14.287  1.00  0.00     0.211 HD
ENDBRANCH  21  26
BRANCH  23  28
ATOM     28  O   UNL     1      19.591  -7.125  12.914  1.00  0.00    -0.387 OA
ATOM     29  H   UNL     1      19.908  -8.057  13.030  1.00  0.00     0.211 HD
ENDBRANCH  23  28
BRANCH  24  30
ATOM     30  C   UNL     1      19.381  -3.029  15.703  1.00  0.00     0.191 C 
BRANCH  30  31
ATOM     31  O   UNL     1      19.157  -3.407  17.037  1.00  0.00    -0.394 OA
ATOM     32  H   UNL     1      18.713  -4.294  17.023  1.00  0.00     0.210 HD
ENDBRANCH  30  31
ENDBRANCH  24  30
BRANCH  25  33
ATOM     33  O   UNL     1      18.722  -5.896  15.542  1.00  0.00    -0.388 OA
ATOM     34  H   UNL     1      18.603  -6.852  15.309  1.00  0.00     0.211 HD
ENDBRANCH  25  33
ENDBRANCH  11  20
BRANCH  10  35
ATOM     35  O   UNL     1      20.625  -5.803  10.381  1.00  0.00    -0.507 OA
ATOM     36  H   UNL     1      20.311  -6.767  10.436  1.00  0.00     0.293 HD
ENDBRANCH  10  35
TORSDOF 9
ENDMDL
MODEL 6
REMARK VINA RESULT:    -4.581      2.134      3.528
REMARK INTER + INTRA:          -6.790
REMARK INTER:                  -7.527
REMARK INTRA:                   0.736
REMARK UNBOUND:                -0.603
REMARK SMILES O=c1c(-c2ccc(O)cc2)coc2c([C@H]3O[C@@H](CO)[C@H](O)[C@@H](O)[C@@H]3O)c(O)ccc12
REMARK SMILES IDX 3 1 11 2 12 3 13 4 30 5 2 6 1 7 29 8 28 9 26 10 14 11 4 12
REMARK SMILES IDX 5 13 6 14 7 15 10 16 9 17 8 18 15 20 24 21 16 22 22 23 17 24
REMARK SMILES IDX 20 25 25 26 23 28 18 30 19 31 21 33 27 35
REMARK H PARENT 8 19 25 27 23 29 19 32 21 34 27 36
REMARK Flexibility Score: inf
ROOT
ATOM      1  C   UNL     1      15.639   6.178  12.029  1.00  0.00     0.065 A 
ATOM      2  C   UNL     1      16.307   5.626  13.129  1.00  0.00     0.208 A 
ATOM      3  O   UNL     1      16.649   4.344  13.145  1.00  0.00    -0.463 OA
ATOM      4  C   UNL     1      16.393   3.500  12.146  1.00  0.00     0.147 A 
ATOM      5  C   UNL     1      15.766   3.990  10.974  1.00  0.00     0.066 A 
ATOM      6  C   UNL     1      15.365   5.339  10.934  1.00  0.00     0.200 A 
ATOM      7  O   UNL     1      14.750   5.790   9.927  1.00  0.00    -0.288 OA
ATOM      8  C   UNL     1      15.590   3.139   9.875  1.00  0.00     0.020 A 
ATOM      9  C   UNL     1      16.119   1.854   9.901  1.00  0.00     0.047 A 
ATOM     10  C   UNL     1      16.760   1.365  11.048  1.00  0.00     0.125 A 
ATOM     11  C   UNL     1      16.773   2.130  12.243  1.00  0.00     0.069 A 
ENDROOT
BRANCH   1  12
ATOM     12  C   UNL     1      15.248   7.610  12.048  1.00  0.00    -0.011 A 
ATOM     13  C   UNL     1      14.873   8.223  13.257  1.00  0.00     0.013 A 
ATOM     14  C   UNL     1      14.516   9.574  13.284  1.00  0.00     0.047 A 
ATOM     15  C   UNL     1      14.531  10.332  12.106  1.00  0.00     0.115 A 
ATOM     16  C   UNL     1      15.268   8.379  10.869  1.00  0.00     0.013 A 
ATOM     17  C   UNL     1      14.911   9.730  10.902  1.00  0.00     0.047 A 
BRANCH  15  18
ATOM     18  O   UNL     1      14.175  11.678  12.125  1.00  0.00    -0.508 OA
ATOM     19  H   UNL     1      14.276  12.264  11.302  1.00  0.00     0.293 HD
ENDBRANCH  15  18
ENDBRANCH   1  12
BRANCH  11  20
ATOM     20  C   UNL     1      17.296   1.540  13.576  1.00  0.00     0.188 C 
ATOM     21  C   UNL     1      18.102   2.508  14.504  1.00  0.00     0.179 C 
ATOM     22  O   UNL     1      18.027   0.331  13.368  1.00  0.00    -0.362 OA
ATOM     23  C   UNL     1      19.448   2.921  13.859  1.00  0.00     0.177 C 
ATOM     24  C   UNL     1      19.439   0.471  13.170  1.00  0.00     0.176 C 
ATOM     25  C   UNL     1      19.901   1.908  12.783  1.00  0.00     0.177 C 
BRANCH  21  26
ATOM     26  O   UNL     1      18.374   1.843  15.711  1.00  0.00    -0.387 OA
ATOM     27  H   UNL     1      19.358   1.740  15.779  1.00  0.00     0.211 HD
ENDBRANCH  21  26
BRANCH  23  28
ATOM     28  O   UNL     1      19.393   4.227  13.334  1.00  0.00    -0.387 OA
ATOM     29  H   UNL     1      18.440   4.460  13.197  1.00  0.00     0.211 HD
ENDBRANCH  23  28
BRANCH  24  30
ATOM     30  C   UNL     1      19.887  -0.555  12.113  1.00  0.00     0.191 C 
BRANCH  30  31
ATOM     31  O   UNL     1      20.227   0.087  10.912  1.00  0.00    -0.394 OA
ATOM     32  H   UNL     1      19.392   0.193  10.387  1.00  0.00     0.210 HD
ENDBRANCH  30  31
ENDBRANCH  24  30
BRANCH  25  33
ATOM     33  O   UNL     1      21.295   1.986  12.602  1.00  0.00    -0.388 OA
ATOM     34  H   UNL     1      21.707   1.207  13.056  1.00  0.00     0.211 HD
ENDBRANCH  25  33
ENDBRANCH  11  20
BRANCH  10  35
ATOM     35  O   UNL     1      17.400   0.130  10.976  1.00  0.00    -0.507 OA
ATOM     36  H   UNL     1      17.681  -0.276  10.089  1.00  0.00     0.293 HD
ENDBRANCH  10  35
TORSDOF 9
ENDMDL
MODEL 7
REMARK VINA RESULT:    -4.496      1.927      2.819
REMARK INTER + INTRA:          -6.676
REMARK INTER:                  -6.111
REMARK INTRA:                  -0.565
REMARK UNBOUND:                -0.603
REMARK SMILES O=c1c(-c2ccc(O)cc2)coc2c([C@H]3O[C@@H](CO)[C@H](O)[C@@H](O)[C@@H]3O)c(O)ccc12
REMARK SMILES IDX 3 1 11 2 12 3 13 4 30 5 2 6 1 7 29 8 28 9 26 10 14 11 4 12
REMARK SMILES IDX 5 13 6 14 7 15 10 16 9 17 8 18 15 20 24 21 16 22 22 23 17 24
REMARK SMILES IDX 20 25 25 26 23 28 18 30 19 31 21 33 27 35
REMARK H PARENT 8 19 25 27 23 29 19 32 21 34 27 36
REMARK Flexibility Score: inf
ROOT
ATOM      1  C   UNL     1      16.322   5.227  11.187  1.00  0.00     0.065 A 
ATOM      2  C   UNL     1      17.557   5.088  10.543  1.00  0.00     0.208 A 
ATOM      3  O   UNL     1      18.240   3.953  10.616  1.00  0.00    -0.463 OA
ATOM      4  C   UNL     1      17.821   2.882  11.290  1.00  0.00     0.147 A 
ATOM      5  C   UNL     1      16.556   2.922  11.928  1.00  0.00     0.066 A 
ATOM      6  C   UNL     1      15.817   4.120  11.893  1.00  0.00     0.200 A 
ATOM      7  O   UNL     1      14.714   4.205  12.503  1.00  0.00    -0.288 OA
ATOM      8  C   UNL     1      16.056   1.768  12.546  1.00  0.00     0.020 A 
ATOM      9  C   UNL     1      16.751   0.569  12.444  1.00  0.00     0.047 A 
ATOM     10  C   UNL     1      17.993   0.513  11.796  1.00  0.00     0.125 A 
ATOM     11  C   UNL     1      18.619   1.703  11.341  1.00  0.00     0.069 A 
ENDROOT
BRANCH   1  12
ATOM     12  C   UNL     1      15.590   6.516  11.108  1.00  0.00    -0.011 A 
ATOM     13  C   UNL     1      15.614   7.409  12.194  1.00  0.00     0.013 A 
ATOM     14  C   UNL     1      14.938   8.630  12.122  1.00  0.00     0.047 A 
ATOM     15  C   UNL     1      14.233   8.978  10.963  1.00  0.00     0.115 A 
ATOM     16  C   UNL     1      14.886   6.876   9.944  1.00  0.00     0.013 A 
ATOM     17  C   UNL     1      14.212   8.099   9.875  1.00  0.00     0.047 A 
BRANCH  15  18
ATOM     18  O   UNL     1      13.555  10.192  10.883  1.00  0.00    -0.508 OA
ATOM     19  H   UNL     1      12.836  10.353  10.185  1.00  0.00     0.293 HD
ENDBRANCH  15  18
ENDBRANCH   1  12
BRANCH  11  20
ATOM     20  C   UNL     1      20.070   1.699  10.803  1.00  0.00     0.188 C 
ATOM     21  C   UNL     1      21.059   0.679  11.456  1.00  0.00     0.179 C 
ATOM     22  O   UNL     1      20.639   3.010  10.806  1.00  0.00    -0.362 OA
ATOM     23  C   UNL     1      21.335   1.027  12.939  1.00  0.00     0.177 C 
ATOM     24  C   UNL     1      21.349   3.389  11.991  1.00  0.00     0.176 C 
ATOM     25  C   UNL     1      21.038   2.513  13.243  1.00  0.00     0.177 C 
BRANCH  21  26
ATOM     26  O   UNL     1      22.276   0.727  10.755  1.00  0.00    -0.387 OA
ATOM     27  H   UNL     1      22.814   1.465  11.143  1.00  0.00     0.211 HD
ENDBRANCH  21  26
BRANCH  23  28
ATOM     28  O   UNL     1      20.625   0.181  13.813  1.00  0.00    -0.387 OA
ATOM     29  H   UNL     1      20.706   0.552  14.728  1.00  0.00     0.211 HD
ENDBRANCH  23  28
BRANCH  24  30
ATOM     30  C   UNL     1      21.066   4.875  12.275  1.00  0.00     0.191 C 
BRANCH  30  31
ATOM     31  O   UNL     1      19.911   5.019  13.060  1.00  0.00    -0.394 OA
ATOM     32  H   UNL     1      20.013   5.852  13.588  1.00  0.00     0.210 HD
ENDBRANCH  30  31
ENDBRANCH  24  30
BRANCH  25  33
ATOM     33  O   UNL     1      21.763   2.930  14.375  1.00  0.00    -0.388 OA
ATOM     34  H   UNL     1      21.134   2.989  15.138  1.00  0.00     0.211 HD
ENDBRANCH  25  33
ENDBRANCH  11  20
BRANCH  10  35
ATOM     35  O   UNL     1      18.580  -0.733  11.592  1.00  0.00    -0.507 OA
ATOM     36  H   UNL     1      18.967  -1.274  12.359  1.00  0.00     0.293 HD
ENDBRANCH  10  35
TORSDOF 9
ENDMDL
MODEL 8
REMARK VINA RESULT:    -4.429      3.568      9.138
REMARK INTER + INTRA:          -6.585
REMARK INTER:                  -6.785
REMARK INTRA:                   0.200
REMARK UNBOUND:                -0.603
REMARK SMILES O=c1c(-c2ccc(O)cc2)coc2c([C@H]3O[C@@H](CO)[C@H](O)[C@@H](O)[C@@H]3O)c(O)ccc12
REMARK SMILES IDX 3 1 11 2 12 3 13 4 30 5 2 6 1 7 29 8 28 9 26 10 14 11 4 12
REMARK SMILES IDX 5 13 6 14 7 15 10 16 9 17 8 18 15 20 24 21 16 22 22 23 17 24
REMARK SMILES IDX 20 25 25 26 23 28 18 30 19 31 21 33 27 35
REMARK H PARENT 8 19 25 27 23 29 19 32 21 34 27 36
REMARK Flexibility Score: inf
ROOT
ATOM      1  C   UNL     1      20.396   0.581  15.048  1.00  0.00     0.065 A 
ATOM      2  C   UNL     1      19.000   0.661  15.089  1.00  0.00     0.208 A 
ATOM      3  O   UNL     1      18.366   1.733  14.632  1.00  0.00    -0.463 OA
ATOM      4  C   UNL     1      18.986   2.792  14.112  1.00  0.00     0.147 A 
ATOM      5  C   UNL     1      20.397   2.769  13.986  1.00  0.00     0.066 A 
ATOM      6  C   UNL     1      21.104   1.659  14.485  1.00  0.00     0.200 A 
ATOM      7  O   UNL     1      22.366   1.636  14.443  1.00  0.00    -0.288 OA
ATOM      8  C   UNL     1      21.052   3.828  13.343  1.00  0.00     0.020 A 
ATOM      9  C   UNL     1      20.312   4.840  12.743  1.00  0.00     0.047 A 
ATOM     10  C   UNL     1      18.914   4.861  12.843  1.00  0.00     0.125 A 
ATOM     11  C   UNL     1      18.238   3.917  13.659  1.00  0.00     0.069 A 
ENDROOT
BRANCH   1  12
ATOM     12  C   UNL     1      21.081  -0.621  15.588  1.00  0.00    -0.011 A 
ATOM     13  C   UNL     1      21.402  -0.696  16.955  1.00  0.00     0.013 A 
ATOM     14  C   UNL     1      22.035  -1.829  17.473  1.00  0.00     0.047 A 
ATOM     15  C   UNL     1      22.353  -2.904  16.633  1.00  0.00     0.115 A 
ATOM     16  C   UNL     1      21.397  -1.708  14.751  1.00  0.00     0.013 A 
ATOM     17  C   UNL     1      22.029  -2.841  15.274  1.00  0.00     0.047 A 
BRANCH  15  18
ATOM     18  O   UNL     1      22.986  -4.037  17.141  1.00  0.00    -0.508 OA
ATOM     19  H   UNL     1      22.465  -4.877  17.368  1.00  0.00     0.293 HD
ENDBRANCH  15  18
ENDBRANCH   1  12
BRANCH  11  20
ATOM     20  C   UNL     1      16.722   4.034  13.947  1.00  0.00     0.188 C 
ATOM     21  C   UNL     1      15.912   2.697  14.000  1.00  0.00     0.179 C 
ATOM     22  O   UNL     1      16.087   4.963  13.066  1.00  0.00    -0.362 OA
ATOM     23  C   UNL     1      15.858   2.012  12.613  1.00  0.00     0.177 C 
ATOM     24  C   UNL     1      15.556   4.421  11.851  1.00  0.00     0.176 C 
ATOM     25  C   UNL     1      16.114   3.017  11.467  1.00  0.00     0.177 C 
BRANCH  21  26
ATOM     26  O   UNL     1      14.597   2.990  14.402  1.00  0.00    -0.387 OA
ATOM     27  H   UNL     1      13.999   2.772  13.641  1.00  0.00     0.211 HD
ENDBRANCH  21  26
BRANCH  23  28
ATOM     28  O   UNL     1      16.747   0.922  12.538  1.00  0.00    -0.387 OA
ATOM     29  H   UNL     1      17.671   1.281  12.551  1.00  0.00     0.211 HD
ENDBRANCH  23  28
BRANCH  24  30
ATOM     30  C   UNL     1      15.795   5.437  10.719  1.00  0.00     0.191 C 
BRANCH  30  31
ATOM     31  O   UNL     1      16.831   5.004   9.875  1.00  0.00    -0.394 OA
ATOM     32  H   UNL     1      16.992   5.724   9.212  1.00  0.00     0.210 HD
ENDBRANCH  30  31
ENDBRANCH  24  30
BRANCH  25  33
ATOM     33  O   UNL     1      15.558   2.536  10.268  1.00  0.00    -0.388 OA
ATOM     34  H   UNL     1      15.902   3.094   9.524  1.00  0.00     0.211 HD
ENDBRANCH  25  33
ENDBRANCH  11  20
BRANCH  10  35
ATOM     35  O   UNL     1      18.210   5.810  12.105  1.00  0.00    -0.507 OA
ATOM     36  H   UNL     1      17.400   5.560  11.546  1.00  0.00     0.293 HD
ENDBRANCH  10  35
TORSDOF 9
ENDMDL
MODEL 9
REMARK VINA RESULT:    -4.375      3.283      8.848
REMARK INTER + INTRA:          -6.513
REMARK INTER:                  -6.050
REMARK INTRA:                  -0.463
REMARK UNBOUND:                -0.603
REMARK SMILES O=c1c(-c2ccc(O)cc2)coc2c([C@H]3O[C@@H](CO)[C@H](O)[C@@H](O)[C@@H]3O)c(O)ccc12
REMARK SMILES IDX 3 1 11 2 12 3 13 4 30 5 2 6 1 7 29 8 28 9 26 10 14 11 4 12
REMARK SMILES IDX 5 13 6 14 7 15 10 16 9 17 8 18 15 20 24 21 16 22 22 23 17 24
REMARK SMILES IDX 20 25 25 26 23 28 18 30 19 31 21 33 27 35
REMARK H PARENT 8 19 25 27 23 29 19 32 21 34 27 36
REMARK Flexibility Score: inf
ROOT
ATOM      1  C   UNL     1      20.177   0.794  14.698  1.00  0.00     0.065 A 
ATOM      2  C   UNL     1      18.939   0.675  14.056  1.00  0.00     0.208 A 
ATOM      3  O   UNL     1      18.578   1.530  13.108  1.00  0.00    -0.463 OA
ATOM      4  C   UNL     1      19.341   2.544  12.700  1.00  0.00     0.147 A 
ATOM      5  C   UNL     1      20.631   2.704  13.262  1.00  0.00     0.066 A 
ATOM      6  C   UNL     1      21.036   1.830  14.290  1.00  0.00     0.200 A 
ATOM      7  O   UNL     1      22.156   1.985  14.852  1.00  0.00    -0.288 OA
ATOM      8  C   UNL     1      21.485   3.698  12.765  1.00  0.00     0.020 A 
ATOM      9  C   UNL     1      21.104   4.451  11.661  1.00  0.00     0.047 A 
ATOM     10  C   UNL     1      19.838   4.286  11.083  1.00  0.00     0.125 A 
ATOM     11  C   UNL     1      18.878   3.435  11.689  1.00  0.00     0.069 A 
ENDROOT
BRANCH   1  12
ATOM     12  C   UNL     1      20.545  -0.163  15.772  1.00  0.00    -0.011 A 
ATOM     13  C   UNL     1      20.880  -1.490  15.449  1.00  0.00     0.013 A 
ATOM     14  C   UNL     1      21.239  -2.394  16.453  1.00  0.00     0.047 A 
ATOM     15  C   UNL     1      21.274  -1.983  17.792  1.00  0.00     0.115 A 
ATOM     16  C   UNL     1      20.589   0.245  17.118  1.00  0.00     0.013 A 
ATOM     17  C   UNL     1      20.951  -0.662  18.119  1.00  0.00     0.047 A 
BRANCH  15  18
ATOM     18  O   UNL     1      21.630  -2.877  18.799  1.00  0.00    -0.508 OA
ATOM     19  H   UNL     1      22.264  -2.610  19.545  1.00  0.00     0.293 HD
ENDBRANCH  15  18
ENDBRANCH   1  12
BRANCH  11  20
ATOM     20  C   UNL     1      17.413   3.383  11.191  1.00  0.00     0.188 C 
ATOM     21  C   UNL     1      16.845   4.688  10.543  1.00  0.00     0.179 C 
ATOM     22  O   UNL     1      16.526   2.908  12.206  1.00  0.00    -0.362 OA
ATOM     23  C   UNL     1      16.723   5.830  11.582  1.00  0.00     0.177 C 
ATOM     24  C   UNL     1      15.937   3.905  13.048  1.00  0.00     0.176 C 
ATOM     25  C   UNL     1      16.661   5.285  13.027  1.00  0.00     0.177 C 
BRANCH  21  26
ATOM     26  O   UNL     1      15.564   4.412  10.036  1.00  0.00    -0.387 OA
ATOM     27  H   UNL     1      14.934   5.057  10.450  1.00  0.00     0.211 HD
ENDBRANCH  21  26
BRANCH  23  28
ATOM     28  O   UNL     1      17.760   6.773  11.441  1.00  0.00    -0.387 OA
ATOM     29  H   UNL     1      18.506   6.335  10.958  1.00  0.00     0.211 HD
ENDBRANCH  23  28
BRANCH  24  30
ATOM     30  C   UNL     1      15.858   3.347  14.481  1.00  0.00     0.191 C 
BRANCH  30  31
ATOM     31  O   UNL     1      17.085   3.508  15.145  1.00  0.00    -0.394 OA
ATOM     32  H   UNL     1      17.762   3.748  14.461  1.00  0.00     0.210 HD
ENDBRANCH  30  31
ENDBRANCH  24  30
BRANCH  25  33
ATOM     33  O   UNL     1      16.039   6.223  13.872  1.00  0.00    -0.388 OA
ATOM     34  H   UNL     1      16.189   7.126  13.491  1.00  0.00     0.211 HD
ENDBRANCH  25  33
ENDBRANCH  11  20
BRANCH  10  35
ATOM     35  O   UNL     1      19.558   4.957   9.894  1.00  0.00    -0.507 OA
ATOM     36  H   UNL     1      18.665   4.857   9.421  1.00  0.00     0.293 HD
ENDBRANCH  10  35
TORSDOF 9
ENDMDL
