MODEL 1
REMARK VINA RESULT:    -3.751      0.000      0.000
REMARK INTER + INTRA:          -4.371
REMARK INTER:                  -4.299
REMARK INTRA:                  -0.073
REMARK UNBOUND:                -0.073
REMARK SMILES COc1cc(C(=O)[O-])ccc1O
REMARK SMILES IDX 5 1 9 2 4 3 10 4 3 5 11 6 6 7 7 8 8 9 2 10 1 11 12 12
REMARK H PARENT 12 13
REMARK Flexibility Score: inf
ROOT
ATOM      1  C   UNL     1       4.765  14.971   2.053  1.00  0.00     0.001 A 
ATOM      2  C   UNL     1       5.201  14.182   0.975  1.00  0.00     0.014 A 
ATOM      3  C   UNL     1       5.690  15.803   2.709  1.00  0.00     0.060 A 
ATOM      4  C   UNL     1       6.534  14.225   0.562  1.00  0.00     0.051 A 
ATOM      5  C   UNL     1       7.037  15.849   2.297  1.00  0.00     0.161 A 
ATOM      6  C   UNL     1       7.453  15.051   1.215  1.00  0.00     0.157 A 
ENDROOT
BRANCH   1   7
ATOM      7  C   UNL     1       3.352  14.929   2.493  1.00  0.00     0.072 C 
ATOM      8  O   UNL     1       2.979  14.105   3.369  1.00  0.00    -0.545 OA
ATOM      9  O   UNL     1       2.417  15.799   1.945  1.00  0.00    -0.545 OA
ENDBRANCH   1   7
BRANCH   5  10
ATOM     10  O   UNL     1       7.982  16.669   2.933  1.00  0.00    -0.493 OA
ATOM     11  C   UNL     1       7.681  17.591   3.976  1.00  0.00     0.278 C 
ENDBRANCH   5  10
BRANCH   6  12
ATOM     12  O   UNL     1       8.776  15.066   0.775  1.00  0.00    -0.504 OA
ATOM     13  H   UNL     1       9.051  14.681  -0.120  1.00  0.00     0.293 HD
ENDBRANCH   6  12
TORSDOF 3
ENDMDL
MODEL 2
REMARK VINA RESULT:    -3.708      1.105      2.838
REMARK INTER + INTRA:          -4.322
REMARK INTER:                  -4.227
REMARK INTRA:                  -0.095
REMARK UNBOUND:                -0.073
REMARK SMILES COc1cc(C(=O)[O-])ccc1O
REMARK SMILES IDX 5 1 9 2 4 3 10 4 3 5 11 6 6 7 7 8 8 9 2 10 1 11 12 12
REMARK H PARENT 12 13
REMARK Flexibility Score: inf
ROOT
ATOM      1  C   UNL     1       4.817  14.958   2.029  1.00  0.00     0.001 A 
ATOM      2  C   UNL     1       5.701  15.918   2.550  1.00  0.00     0.014 A 
ATOM      3  C   UNL     1       5.290  14.041   1.074  1.00  0.00     0.060 A 
ATOM      4  C   UNL     1       7.029  15.960   2.125  1.00  0.00     0.051 A 
ATOM      5  C   UNL     1       6.631  14.080   0.641  1.00  0.00     0.161 A 
ATOM      6  C   UNL     1       7.499  15.049   1.175  1.00  0.00     0.157 A 
ENDROOT
BRANCH   1   7
ATOM      7  C   UNL     1       3.407  14.910   2.479  1.00  0.00     0.072 C 
ATOM      8  O   UNL     1       3.045  14.091   3.364  1.00  0.00    -0.545 OA
ATOM      9  O   UNL     1       2.463  15.770   1.929  1.00  0.00    -0.545 OA
ENDBRANCH   1   7
BRANCH   5  10
ATOM     10  O   UNL     1       7.131  13.177  -0.312  1.00  0.00    -0.493 OA
ATOM     11  C   UNL     1       7.426  11.808  -0.052  1.00  0.00     0.278 C 
ENDBRANCH   5  10
BRANCH   6  12
ATOM     12  O   UNL     1       8.833  15.122   0.774  1.00  0.00    -0.504 OA
ATOM     13  H   UNL     1       9.149  14.766  -0.119  1.00  0.00     0.293 HD
ENDBRANCH   6  12
TORSDOF 3
ENDMDL
MODEL 3
REMARK VINA RESULT:    -3.354      8.319     11.129
REMARK INTER + INTRA:          -3.917
REMARK INTER:                  -3.835
REMARK INTRA:                  -0.082
REMARK UNBOUND:                -0.073
REMARK SMILES COc1cc(C(=O)[O-])ccc1O
REMARK SMILES IDX 5 1 9 2 4 3 10 4 3 5 11 6 6 7 7 8 8 9 2 10 1 11 12 12
REMARK H PARENT 12 13
REMARK Flexibility Score: inf
ROOT
ATOM      1  C   UNL     1       0.241  14.248   9.453  1.00  0.00     0.001 A 
ATOM      2  C   UNL     1       0.340  13.956  10.824  1.00  0.00     0.014 A 
ATOM      3  C   UNL     1      -0.988  14.052   8.799  1.00  0.00     0.060 A 
ATOM      4  C   UNL     1      -0.768  13.479  11.525  1.00  0.00     0.051 A 
ATOM      5  C   UNL     1      -2.110  13.569   9.503  1.00  0.00     0.161 A 
ATOM      6  C   UNL     1      -1.990  13.284  10.875  1.00  0.00     0.157 A 
ENDROOT
BRANCH   1   7
ATOM      7  C   UNL     1       1.414  14.755   8.705  1.00  0.00     0.072 C 
ATOM      8  O   UNL     1       2.486  15.031   9.306  1.00  0.00    -0.545 OA
ATOM      9  O   UNL     1       1.349  14.934   7.328  1.00  0.00    -0.545 OA
ENDBRANCH   1   7
BRANCH   5  10
ATOM     10  O   UNL     1      -3.349  13.364   8.876  1.00  0.00    -0.493 OA
ATOM     11  C   UNL     1      -3.525  13.159   7.478  1.00  0.00     0.278 C 
ENDBRANCH   5  10
BRANCH   6  12
ATOM     12  O   UNL     1      -3.074  12.804  11.610  1.00  0.00    -0.504 OA
ATOM     13  H   UNL     1      -3.007  11.981  12.197  1.00  0.00     0.293 HD
ENDBRANCH   6  12
TORSDOF 3
ENDMDL
MODEL 4
REMARK VINA RESULT:    -3.273      7.308     10.017
REMARK INTER + INTRA:          -3.825
REMARK INTER:                  -3.748
REMARK INTRA:                  -0.077
REMARK UNBOUND:                -0.073
REMARK SMILES COc1cc(C(=O)[O-])ccc1O
REMARK SMILES IDX 5 1 9 2 4 3 10 4 3 5 11 6 6 7 7 8 8 9 2 10 1 11 12 12
REMARK H PARENT 12 13
REMARK Flexibility Score: inf
ROOT
ATOM      1  C   UNL     1       0.569  15.459   8.323  1.00  0.00     0.001 A 
ATOM      2  C   UNL     1       1.297  15.104   9.471  1.00  0.00     0.014 A 
ATOM      3  C   UNL     1      -0.692  14.875   8.106  1.00  0.00     0.060 A 
ATOM      4  C   UNL     1       0.775  14.184  10.382  1.00  0.00     0.051 A 
ATOM      5  C   UNL     1      -1.223  13.945   9.022  1.00  0.00     0.161 A 
ATOM      6  C   UNL     1      -0.478  13.603  10.165  1.00  0.00     0.157 A 
ENDROOT
BRANCH   1   7
ATOM      7  C   UNL     1       1.119  16.435   7.355  1.00  0.00     0.072 C 
ATOM      8  O   UNL     1       1.041  16.221   6.116  1.00  0.00    -0.545 OA
ATOM      9  O   UNL     1       1.729  17.601   7.800  1.00  0.00    -0.545 OA
ENDBRANCH   1   7
BRANCH   5  10
ATOM     10  O   UNL     1      -2.479  13.346   8.831  1.00  0.00    -0.493 OA
ATOM     11  C   UNL     1      -3.176  13.308   7.590  1.00  0.00     0.278 C 
ENDBRANCH   5  10
BRANCH   6  12
ATOM     12  O   UNL     1      -0.966  12.687  11.097  1.00  0.00    -0.504 OA
ATOM     13  H   UNL     1      -1.382  11.806  10.822  1.00  0.00     0.293 HD
ENDBRANCH   6  12
TORSDOF 3
ENDMDL
MODEL 5
REMARK VINA RESULT:    -3.254      8.531     10.158
REMARK INTER + INTRA:          -3.803
REMARK INTER:                  -3.721
REMARK INTRA:                  -0.082
REMARK UNBOUND:                -0.073
REMARK SMILES COc1cc(C(=O)[O-])ccc1O
REMARK SMILES IDX 5 1 9 2 4 3 10 4 3 5 11 6 6 7 7 8 8 9 2 10 1 11 12 12
REMARK H PARENT 12 13
REMARK Flexibility Score: inf
ROOT
ATOM      1  C   UNL     1      -0.397  13.491  10.701  1.00  0.00     0.001 A 
ATOM      2  C   UNL     1      -0.798  13.661   9.366  1.00  0.00     0.014 A 
ATOM      3  C   UNL     1       0.750  14.161  11.161  1.00  0.00     0.060 A 
ATOM      4  C   UNL     1      -0.068  14.484   8.508  1.00  0.00     0.051 A 
ATOM      5  C   UNL     1       1.492  14.993  10.298  1.00  0.00     0.161 A 
ATOM      6  C   UNL     1       1.073  15.150   8.965  1.00  0.00     0.157 A 
ENDROOT
BRANCH   1   7
ATOM      7  C   UNL     1      -1.171  12.619  11.614  1.00  0.00     0.072 C 
ATOM      8  O   UNL     1      -2.336  12.938  11.972  1.00  0.00    -0.545 OA
ATOM      9  O   UNL     1      -0.622  11.433  12.090  1.00  0.00    -0.545 OA
ENDBRANCH   1   7
BRANCH   5  10
ATOM     10  O   UNL     1       2.642  15.675  10.730  1.00  0.00    -0.493 OA
ATOM     11  C   UNL     1       2.729  16.434  11.931  1.00  0.00     0.278 C 
ENDBRANCH   5  10
BRANCH   6  12
ATOM     12  O   UNL     1       1.778  15.963   8.078  1.00  0.00    -0.504 OA
ATOM     13  H   UNL     1       2.656  15.676   7.663  1.00  0.00     0.293 HD
ENDBRANCH   6  12
TORSDOF 3
ENDMDL
MODEL 6
REMARK VINA RESULT:    -3.253      1.293      4.167
REMARK INTER + INTRA:          -3.801
REMARK INTER:                  -3.719
REMARK INTRA:                  -0.081
REMARK UNBOUND:                -0.073
REMARK SMILES COc1cc(C(=O)[O-])ccc1O
REMARK SMILES IDX 5 1 9 2 4 3 10 4 3 5 11 6 6 7 7 8 8 9 2 10 1 11 12 12
REMARK H PARENT 12 13
REMARK Flexibility Score: inf
ROOT
ATOM      1  C   UNL     1       6.534  15.713   2.125  1.00  0.00     0.001 A 
ATOM      2  C   UNL     1       6.875  14.818   1.098  1.00  0.00     0.014 A 
ATOM      3  C   UNL     1       5.204  15.757   2.580  1.00  0.00     0.060 A 
ATOM      4  C   UNL     1       5.907  13.983   0.538  1.00  0.00     0.051 A 
ATOM      5  C   UNL     1       4.223  14.916   2.017  1.00  0.00     0.161 A 
ATOM      6  C   UNL     1       4.585  14.027   0.990  1.00  0.00     0.157 A 
ENDROOT
BRANCH   1   7
ATOM      7  C   UNL     1       7.559  16.600   2.722  1.00  0.00     0.072 C 
ATOM      8  O   UNL     1       7.342  17.182   3.818  1.00  0.00    -0.545 OA
ATOM      9  O   UNL     1       8.776  16.802   2.082  1.00  0.00    -0.545 OA
ENDBRANCH   1   7
BRANCH   5  10
ATOM     10  O   UNL     1       2.887  14.938   2.451  1.00  0.00    -0.493 OA
ATOM     11  C   UNL     1       2.254  16.057   3.062  1.00  0.00     0.278 C 
ENDBRANCH   5  10
BRANCH   6  12
ATOM     12  O   UNL     1       3.646  13.178   0.405  1.00  0.00    -0.504 OA
ATOM     13  H   UNL     1       3.736  12.170   0.435  1.00  0.00     0.293 HD
ENDBRANCH   6  12
TORSDOF 3
ENDMDL
MODEL 7
REMARK VINA RESULT:    -3.239      1.672      5.221
REMARK INTER + INTRA:          -3.785
REMARK INTER:                  -3.705
REMARK INTRA:                  -0.080
REMARK UNBOUND:                -0.073
REMARK SMILES COc1cc(C(=O)[O-])ccc1O
REMARK SMILES IDX 5 1 9 2 4 3 10 4 3 5 11 6 6 7 7 8 8 9 2 10 1 11 12 12
REMARK H PARENT 12 13
REMARK Flexibility Score: inf
ROOT
ATOM      1  C   UNL     1       6.993  14.592   0.776  1.00  0.00     0.001 A 
ATOM      2  C   UNL     1       6.606  15.443   1.826  1.00  0.00     0.014 A 
ATOM      3  C   UNL     1       6.040  13.725   0.213  1.00  0.00     0.060 A 
ATOM      4  C   UNL     1       5.294  15.426   2.301  1.00  0.00     0.051 A 
ATOM      5  C   UNL     1       4.714  13.704   0.690  1.00  0.00     0.161 A 
ATOM      6  C   UNL     1       4.347  14.563   1.741  1.00  0.00     0.157 A 
ENDROOT
BRANCH   1   7
ATOM      7  C   UNL     1       8.383  14.608   0.269  1.00  0.00     0.072 C 
ATOM      8  O   UNL     1       9.138  15.591   0.499  1.00  0.00    -0.545 OA
ATOM      9  O   UNL     1       8.877  13.538  -0.467  1.00  0.00    -0.545 OA
ENDBRANCH   1   7
BRANCH   5  10
ATOM     10  O   UNL     1       3.742  12.848   0.146  1.00  0.00    -0.493 OA
ATOM     11  C   UNL     1       3.982  11.912  -0.899  1.00  0.00     0.278 C 
ENDBRANCH   5  10
BRANCH   6  12
ATOM     12  O   UNL     1       3.046  14.575   2.243  1.00  0.00    -0.504 OA
ATOM     13  H   UNL     1       2.758  13.979   3.010  1.00  0.00     0.293 HD
ENDBRANCH   6  12
TORSDOF 3
ENDMDL
MODEL 8
REMARK VINA RESULT:    -3.238      8.384     11.067
REMARK INTER + INTRA:          -3.784
REMARK INTER:                  -3.696
REMARK INTRA:                  -0.088
REMARK UNBOUND:                -0.073
REMARK SMILES COc1cc(C(=O)[O-])ccc1O
REMARK SMILES IDX 5 1 9 2 4 3 10 4 3 5 11 6 6 7 7 8 8 9 2 10 1 11 12 12
REMARK H PARENT 12 13
REMARK Flexibility Score: inf
ROOT
ATOM      1  C   UNL     1      -0.150  14.425   8.878  1.00  0.00     0.001 A 
ATOM      2  C   UNL     1      -1.277  14.729   8.096  1.00  0.00     0.014 A 
ATOM      3  C   UNL     1      -0.327  13.750  10.099  1.00  0.00     0.060 A 
ATOM      4  C   UNL     1      -2.554  14.366   8.526  1.00  0.00     0.051 A 
ATOM      5  C   UNL     1      -1.615  13.381  10.538  1.00  0.00     0.161 A 
ATOM      6  C   UNL     1      -2.730  13.695   9.740  1.00  0.00     0.157 A 
ENDROOT
BRANCH   1   7
ATOM      7  C   UNL     1       1.206  14.809   8.425  1.00  0.00     0.072 C 
ATOM      8  O   UNL     1       1.453  14.957   7.198  1.00  0.00    -0.545 OA
ATOM      9  O   UNL     1       2.226  15.013   9.346  1.00  0.00    -0.545 OA
ENDBRANCH   1   7
BRANCH   5  10
ATOM     10  O   UNL     1      -1.822  12.707  11.752  1.00  0.00    -0.493 OA
ATOM     11  C   UNL     1      -1.104  11.549  12.166  1.00  0.00     0.278 C 
ENDBRANCH   5  10
BRANCH   6  12
ATOM     12  O   UNL     1      -4.022  13.349  10.137  1.00  0.00    -0.504 OA
ATOM     13  H   UNL     1      -4.753  13.135   9.469  1.00  0.00     0.293 HD
ENDBRANCH   6  12
TORSDOF 3
ENDMDL
MODEL 9
REMARK VINA RESULT:    -3.216      7.563      9.487
REMARK INTER + INTRA:          -3.759
REMARK INTER:                  -3.667
REMARK INTRA:                  -0.092
REMARK UNBOUND:                -0.073
REMARK SMILES COc1cc(C(=O)[O-])ccc1O
REMARK SMILES IDX 5 1 9 2 4 3 10 4 3 5 11 6 6 7 7 8 8 9 2 10 1 11 12 12
REMARK H PARENT 12 13
REMARK Flexibility Score: inf
ROOT
ATOM      1  C   UNL     1      -1.296  13.986   9.104  1.00  0.00     0.001 A 
ATOM      2  C   UNL     1      -0.760  13.679  10.366  1.00  0.00     0.014 A 
ATOM      3  C   UNL     1      -0.526  14.739   8.200  1.00  0.00     0.060 A 
ATOM      4  C   UNL     1       0.519  14.115  10.716  1.00  0.00     0.051 A 
ATOM      5  C   UNL     1       0.766  15.183   8.549  1.00  0.00     0.161 A 
ATOM      6  C   UNL     1       1.284  14.864   9.817  1.00  0.00     0.157 A 
ENDROOT
BRANCH   1   7
ATOM      7  C   UNL     1      -2.651  13.525   8.729  1.00  0.00     0.072 C 
ATOM      8  O   UNL     1      -3.567  13.460   9.592  1.00  0.00    -0.545 OA
ATOM      9  O   UNL     1      -2.934  13.156   7.419  1.00  0.00    -0.545 OA
ENDBRANCH   1   7
BRANCH   5  10
ATOM     10  O   UNL     1       1.558  15.936   7.667  1.00  0.00    -0.493 OA
ATOM     11  C   UNL     1       1.174  17.186   7.104  1.00  0.00     0.278 C 
ENDBRANCH   5  10
BRANCH   6  12
ATOM     12  O   UNL     1       2.557  15.283  10.204  1.00  0.00    -0.504 OA
ATOM     13  H   UNL     1       3.332  15.325   9.553  1.00  0.00     0.293 HD
ENDBRANCH   6  12
TORSDOF 3
ENDMDL
