MODEL 1
REMARK VINA RESULT:    -4.627      0.000      0.000
REMARK INTER + INTRA:          -5.272
REMARK INTER:                  -5.032
REMARK INTRA:                  -0.240
REMARK UNBOUND:                -0.240
REMARK SMILES O=C([O-])c1ccccc1O
REMARK SMILES IDX 4 1 9 2 5 3 8 4 6 5 7 6 2 7 1 8 3 9 10 10
REMARK H PARENT 10 11
REMARK Flexibility Score: inf
ROOT
ATOM      1  C   UNL     1       0.348  -0.199 -35.519  1.00  0.00     0.039 A 
ATOM      2  C   UNL     1       1.420   0.270 -36.320  1.00  0.00     0.124 A 
ATOM      3  C   UNL     1      -0.965  -0.114 -36.021  1.00  0.00     0.014 A 
ATOM      4  C   UNL     1       1.151   0.865 -37.560  1.00  0.00     0.047 A 
ATOM      5  C   UNL     1      -1.214   0.461 -37.268  1.00  0.00     0.001 A 
ATOM      6  C   UNL     1      -0.160   0.960 -38.033  1.00  0.00     0.004 A 
ENDROOT
BRANCH   1   7
ATOM      7  C   UNL     1       0.553  -0.741 -34.158  1.00  0.00     0.075 C 
ATOM      8  O   UNL     1      -0.324  -0.568 -33.270  1.00  0.00    -0.545 OA
ATOM      9  O   UNL     1       1.736  -1.385 -33.819  1.00  0.00    -0.545 OA
ENDBRANCH   1   7
BRANCH   2  10
ATOM     10  O   UNL     1       2.757   0.137 -35.941  1.00  0.00    -0.507 OA
ATOM     11  H   UNL     1       3.331  -0.655 -36.199  1.00  0.00     0.293 HD
ENDBRANCH   2  10
TORSDOF 2
ENDMDL
MODEL 2
REMARK VINA RESULT:    -4.369      2.096      3.138
REMARK INTER + INTRA:          -4.991
REMARK INTER:                  -4.780
REMARK INTRA:                  -0.211
REMARK UNBOUND:                -0.240
REMARK SMILES O=C([O-])c1ccccc1O
REMARK SMILES IDX 4 1 9 2 5 3 8 4 6 5 7 6 2 7 1 8 3 9 10 10
REMARK H PARENT 10 11
REMARK Flexibility Score: inf
ROOT
ATOM      1  C   UNL     1      -0.220  -1.259 -35.570  1.00  0.00     0.039 A 
ATOM      2  C   UNL     1       0.307  -0.599 -34.432  1.00  0.00     0.124 A 
ATOM      3  C   UNL     1       0.530  -1.267 -36.762  1.00  0.00     0.014 A 
ATOM      4  C   UNL     1       1.527   0.083 -34.530  1.00  0.00     0.047 A 
ATOM      5  C   UNL     1       1.755  -0.602 -36.836  1.00  0.00     0.001 A 
ATOM      6  C   UNL     1       2.249   0.081 -35.725  1.00  0.00     0.004 A 
ENDROOT
BRANCH   1   7
ATOM      7  C   UNL     1      -1.550  -1.908 -35.566  1.00  0.00     0.075 C 
ATOM      8  O   UNL     1      -2.362  -1.680 -34.630  1.00  0.00    -0.545 OA
ATOM      9  O   UNL     1      -1.897  -2.826 -36.549  1.00  0.00    -0.545 OA
ENDBRANCH   1   7
BRANCH   2  10
ATOM     10  O   UNL     1      -0.325  -0.623 -33.187  1.00  0.00    -0.507 OA
ATOM     11  H   UNL     1      -0.565   0.211 -32.670  1.00  0.00     0.293 HD
ENDBRANCH   2  10
TORSDOF 2
ENDMDL
MODEL 3
REMARK VINA RESULT:    -4.317      2.157      3.848
REMARK INTER + INTRA:          -4.935
REMARK INTER:                  -4.709
REMARK INTRA:                  -0.226
REMARK UNBOUND:                -0.240
REMARK SMILES O=C([O-])c1ccccc1O
REMARK SMILES IDX 4 1 9 2 5 3 8 4 6 5 7 6 2 7 1 8 3 9 10 10
REMARK H PARENT 10 11
REMARK Flexibility Score: inf
ROOT
ATOM      1  C   UNL     1      -0.210  -0.071 -36.015  1.00  0.00     0.039 A 
ATOM      2  C   UNL     1      -0.258  -0.713 -34.752  1.00  0.00     0.124 A 
ATOM      3  C   UNL     1       1.035   0.357 -36.515  1.00  0.00     0.014 A 
ATOM      4  C   UNL     1       0.916  -0.852 -34.001  1.00  0.00     0.047 A 
ATOM      5  C   UNL     1       2.199   0.191 -35.763  1.00  0.00     0.001 A 
ATOM      6  C   UNL     1       2.139  -0.403 -34.503  1.00  0.00     0.004 A 
ENDROOT
BRANCH   1   7
ATOM      7  C   UNL     1      -1.426   0.202 -36.813  1.00  0.00     0.075 C 
ATOM      8  O   UNL     1      -1.463  -0.106 -38.034  1.00  0.00    -0.545 OA
ATOM      9  O   UNL     1      -2.513   0.860 -36.251  1.00  0.00    -0.545 OA
ENDBRANCH   1   7
BRANCH   2  10
ATOM     10  O   UNL     1      -1.433  -1.253 -34.226  1.00  0.00    -0.507 OA
ATOM     11  H   UNL     1      -1.629  -1.298 -33.235  1.00  0.00     0.293 HD
ENDBRANCH   2  10
TORSDOF 2
ENDMDL
MODEL 4
REMARK VINA RESULT:    -4.238      2.281      3.284
REMARK INTER + INTRA:          -4.850
REMARK INTER:                  -4.648
REMARK INTRA:                  -0.202
REMARK UNBOUND:                -0.240
REMARK SMILES O=C([O-])c1ccccc1O
REMARK SMILES IDX 4 1 9 2 5 3 8 4 6 5 7 6 2 7 1 8 3 9 10 10
REMARK H PARENT 10 11
REMARK Flexibility Score: inf
ROOT
ATOM      1  C   UNL     1      -0.276   0.005 -35.983  1.00  0.00     0.039 A 
ATOM      2  C   UNL     1       0.976   0.387 -36.529  1.00  0.00     0.124 A 
ATOM      3  C   UNL     1      -0.311  -0.582 -34.703  1.00  0.00     0.014 A 
ATOM      4  C   UNL     1       2.153   0.117 -35.819  1.00  0.00     0.047 A 
ATOM      5  C   UNL     1       0.870  -0.824 -33.999  1.00  0.00     0.001 A 
ATOM      6  C   UNL     1       2.101  -0.485 -34.560  1.00  0.00     0.004 A 
ENDROOT
BRANCH   1   7
ATOM      7  C   UNL     1      -1.547   0.166 -36.723  1.00  0.00     0.075 C 
ATOM      8  O   UNL     1      -2.509   0.787 -36.200  1.00  0.00    -0.545 OA
ATOM      9  O   UNL     1      -1.722  -0.420 -37.971  1.00  0.00    -0.545 OA
ENDBRANCH   1   7
BRANCH   2  10
ATOM     10  O   UNL     1       1.092   1.060 -37.746  1.00  0.00    -0.507 OA
ATOM     11  H   UNL     1       0.589   1.911 -37.960  1.00  0.00     0.293 HD
ENDBRANCH   2  10
TORSDOF 2
ENDMDL
MODEL 5
REMARK VINA RESULT:    -4.144      2.345      3.033
REMARK INTER + INTRA:          -4.747
REMARK INTER:                  -4.501
REMARK INTRA:                  -0.246
REMARK UNBOUND:                -0.240
REMARK SMILES O=C([O-])c1ccccc1O
REMARK SMILES IDX 4 1 9 2 5 3 8 4 6 5 7 6 2 7 1 8 3 9 10 10
REMARK H PARENT 10 11
REMARK Flexibility Score: inf
ROOT
ATOM      1  C   UNL     1      -0.301  -1.107 -35.397  1.00  0.00     0.039 A 
ATOM      2  C   UNL     1       0.419  -0.872 -36.595  1.00  0.00     0.124 A 
ATOM      3  C   UNL     1       0.251  -0.680 -34.175  1.00  0.00     0.014 A 
ATOM      4  C   UNL     1       1.688  -0.281 -36.536  1.00  0.00     0.047 A 
ATOM      5  C   UNL     1       1.507  -0.072 -34.135  1.00  0.00     0.001 A 
ATOM      6  C   UNL     1       2.230   0.119 -35.313  1.00  0.00     0.004 A 
ENDROOT
BRANCH   1   7
ATOM      7  C   UNL     1      -1.598  -1.820 -35.377  1.00  0.00     0.075 C 
ATOM      8  O   UNL     1      -2.419  -1.614 -34.444  1.00  0.00    -0.545 OA
ATOM      9  O   UNL     1      -1.900  -2.773 -36.342  1.00  0.00    -0.545 OA
ENDBRANCH   1   7
BRANCH   2  10
ATOM     10  O   UNL     1      -0.098  -1.176 -37.856  1.00  0.00    -0.507 OA
ATOM     11  H   UNL     1      -0.921  -1.746 -37.996  1.00  0.00     0.293 HD
ENDBRANCH   2  10
TORSDOF 2
ENDMDL
MODEL 6
REMARK VINA RESULT:    -4.035      1.765      1.876
REMARK INTER + INTRA:          -4.628
REMARK INTER:                  -4.430
REMARK INTRA:                  -0.199
REMARK UNBOUND:                -0.240
REMARK SMILES O=C([O-])c1ccccc1O
REMARK SMILES IDX 4 1 9 2 5 3 8 4 6 5 7 6 2 7 1 8 3 9 10 10
REMARK H PARENT 10 11
REMARK Flexibility Score: inf
ROOT
ATOM      1  C   UNL     1       0.450  -0.974 -35.579  1.00  0.00     0.039 A 
ATOM      2  C   UNL     1       1.345  -1.284 -36.635  1.00  0.00     0.124 A 
ATOM      3  C   UNL     1      -0.898  -1.363 -35.692  1.00  0.00     0.014 A 
ATOM      4  C   UNL     1       0.861  -1.910 -37.791  1.00  0.00     0.047 A 
ATOM      5  C   UNL     1      -1.360  -2.006 -36.842  1.00  0.00     0.001 A 
ATOM      6  C   UNL     1      -0.484  -2.270 -37.895  1.00  0.00     0.004 A 
ENDROOT
BRANCH   1   7
ATOM      7  C   UNL     1       0.872  -0.222 -34.377  1.00  0.00     0.075 C 
ATOM      8  O   UNL     1       0.028   0.083 -33.493  1.00  0.00    -0.545 OA
ATOM      9  O   UNL     1       2.182   0.218 -34.236  1.00  0.00    -0.545 OA
ENDBRANCH   1   7
BRANCH   2  10
ATOM     10  O   UNL     1       2.714  -1.021 -36.563  1.00  0.00    -0.507 OA
ATOM     11  H   UNL     1       3.275  -1.218 -35.745  1.00  0.00     0.293 HD
ENDBRANCH   2  10
TORSDOF 2
ENDMDL
MODEL 7
REMARK VINA RESULT:    -3.982      1.571      3.022
REMARK INTER + INTRA:          -4.570
REMARK INTER:                  -4.346
REMARK INTRA:                  -0.225
REMARK UNBOUND:                -0.240
REMARK SMILES O=C([O-])c1ccccc1O
REMARK SMILES IDX 4 1 9 2 5 3 8 4 6 5 7 6 2 7 1 8 3 9 10 10
REMARK H PARENT 10 11
REMARK Flexibility Score: inf
ROOT
ATOM      1  C   UNL     1       0.771  -0.692 -36.016  1.00  0.00     0.039 A 
ATOM      2  C   UNL     1      -0.297  -0.990 -35.132  1.00  0.00     0.124 A 
ATOM      3  C   UNL     1       0.687  -1.121 -37.355  1.00  0.00     0.014 A 
ATOM      4  C   UNL     1      -1.379  -1.755 -35.586  1.00  0.00     0.047 A 
ATOM      5  C   UNL     1      -0.409  -1.864 -37.796  1.00  0.00     0.001 A 
ATOM      6  C   UNL     1      -1.436  -2.190 -36.911  1.00  0.00     0.004 A 
ENDROOT
BRANCH   1   7
ATOM      7  C   UNL     1       1.990   0.022 -35.576  1.00  0.00     0.075 C 
ATOM      8  O   UNL     1       2.809   0.458 -36.427  1.00  0.00    -0.545 OA
ATOM      9  O   UNL     1       2.284   0.161 -34.225  1.00  0.00    -0.545 OA
ENDBRANCH   1   7
BRANCH   2  10
ATOM     10  O   UNL     1      -0.339  -0.521 -33.818  1.00  0.00    -0.507 OA
ATOM     11  H   UNL     1       0.425  -0.023 -33.381  1.00  0.00     0.293 HD
ENDBRANCH   2  10
TORSDOF 2
ENDMDL
MODEL 8
REMARK VINA RESULT:    -3.969      2.678      3.402
REMARK INTER + INTRA:          -4.557
REMARK INTER:                  -4.313
REMARK INTRA:                  -0.244
REMARK UNBOUND:                -0.240
REMARK SMILES O=C([O-])c1ccccc1O
REMARK SMILES IDX 4 1 9 2 5 3 8 4 6 5 7 6 2 7 1 8 3 9 10 10
REMARK H PARENT 10 11
REMARK Flexibility Score: inf
ROOT
ATOM      1  C   UNL     1      -0.223  -1.523 -35.954  1.00  0.00     0.039 A 
ATOM      2  C   UNL     1       1.111  -1.463 -36.432  1.00  0.00     0.124 A 
ATOM      3  C   UNL     1      -0.540  -0.889 -34.738  1.00  0.00     0.014 A 
ATOM      4  C   UNL     1       2.096  -0.833 -35.660  1.00  0.00     0.047 A 
ATOM      5  C   UNL     1       0.449  -0.247 -33.991  1.00  0.00     0.001 A 
ATOM      6  C   UNL     1       1.768  -0.227 -34.445  1.00  0.00     0.004 A 
ENDROOT
BRANCH   1   7
ATOM      7  C   UNL     1      -1.288  -2.260 -36.668  1.00  0.00     0.075 C 
ATOM      8  O   UNL     1      -1.513  -2.025 -37.885  1.00  0.00    -0.545 OA
ATOM      9  O   UNL     1      -2.098  -3.168 -35.997  1.00  0.00    -0.545 OA
ENDBRANCH   1   7
BRANCH   2  10
ATOM     10  O   UNL     1       1.490  -1.979 -37.672  1.00  0.00    -0.507 OA
ATOM     11  H   UNL     1       1.098  -1.664 -38.549  1.00  0.00     0.293 HD
ENDBRANCH   2  10
TORSDOF 2
ENDMDL
MODEL 9
REMARK VINA RESULT:    -3.699      0.947      2.469
REMARK INTER + INTRA:          -4.263
REMARK INTER:                  -4.052
REMARK INTRA:                  -0.211
REMARK UNBOUND:                -0.240
REMARK SMILES O=C([O-])c1ccccc1O
REMARK SMILES IDX 4 1 9 2 5 3 8 4 6 5 7 6 2 7 1 8 3 9 10 10
REMARK H PARENT 10 11
REMARK Flexibility Score: inf
ROOT
ATOM      1  C   UNL     1       0.514   0.195 -36.045  1.00  0.00     0.039 A 
ATOM      2  C   UNL     1      -0.848  -0.195 -35.986  1.00  0.00     0.124 A 
ATOM      3  C   UNL     1       0.946   1.003 -37.114  1.00  0.00     0.014 A 
ATOM      4  C   UNL     1      -1.719   0.173 -37.020  1.00  0.00     0.047 A 
ATOM      5  C   UNL     1       0.060   1.379 -38.125  1.00  0.00     0.001 A 
ATOM      6  C   UNL     1      -1.269   0.957 -38.084  1.00  0.00     0.004 A 
ENDROOT
BRANCH   1   7
ATOM      7  C   UNL     1       1.509  -0.246 -35.043  1.00  0.00     0.075 C 
ATOM      8  O   UNL     1       2.740  -0.114 -35.274  1.00  0.00    -0.545 OA
ATOM      9  O   UNL     1       1.108  -0.871 -33.869  1.00  0.00    -0.545 OA
ENDBRANCH   1   7
BRANCH   2  10
ATOM     10  O   UNL     1      -1.380  -0.913 -34.914  1.00  0.00    -0.507 OA
ATOM     11  H   UNL     1      -1.157  -1.881 -34.729  1.00  0.00     0.293 HD
ENDBRANCH   2  10
TORSDOF 2
ENDMDL
