MODEL 1
REMARK VINA RESULT:    -2.175      0.000      0.000
REMARK INTER + INTRA:          -2.508
REMARK INTER:                  -2.621
REMARK INTRA:                   0.112
REMARK UNBOUND:                 0.112
REMARK SMILES O=c1c(O)c(-c2ccc(O)c(O)c2)oc2cc(O)cc(O)c12
REMARK SMILES IDX 5 1 3 2 2 3 1 4 22 5 20 6 19 7 17 8 16 9 15 10 14 11 6 12
REMARK SMILES IDX 7 13 8 14 9 15 13 16 11 17 10 18 12 20 4 22 21 24 18 26
REMARK H PARENT 10 19 12 21 4 23 21 25 18 27
REMARK Flexibility Score: inf
ROOT
ATOM      1  C   UNL     1      -9.117  -5.113   3.873  1.00  0.00     0.180 A 
ATOM      2  C   UNL     1      -9.501  -5.542   2.592  1.00  0.00     0.208 A 
ATOM      3  C   UNL     1      -9.215  -6.859   2.200  1.00  0.00     0.238 A 
ATOM      4  O   UNL     1      -9.513  -7.221   1.031  1.00  0.00    -0.285 OA
ATOM      5  C   UNL     1      -8.563  -7.737   3.101  1.00  0.00     0.111 A 
ATOM      6  C   UNL     1      -8.261  -9.104   2.824  1.00  0.00     0.134 A 
ATOM      7  C   UNL     1      -7.498  -9.840   3.739  1.00  0.00     0.093 A 
ATOM      8  C   UNL     1      -7.083  -9.278   4.949  1.00  0.00     0.123 A 
ATOM      9  C   UNL     1      -7.425  -7.963   5.253  1.00  0.00     0.094 A 
ATOM     10  C   UNL     1      -8.154  -7.191   4.345  1.00  0.00     0.146 A 
ATOM     11  O   UNL     1      -8.449  -5.938   4.671  1.00  0.00    -0.452 OA
ENDROOT
BRANCH   1  12
ATOM     12  C   UNL     1      -9.405  -3.746   4.367  1.00  0.00     0.025 A 
ATOM     13  C   UNL     1      -9.879  -3.525   5.673  1.00  0.00     0.016 A 
ATOM     14  C   UNL     1     -10.121  -2.226   6.125  1.00  0.00     0.051 A 
ATOM     15  C   UNL     1      -9.880  -1.129   5.287  1.00  0.00     0.157 A 
ATOM     16  C   UNL     1      -9.146  -2.642   3.539  1.00  0.00     0.062 A 
ATOM     17  C   UNL     1      -9.388  -1.339   3.989  1.00  0.00     0.158 A 
BRANCH  15  18
ATOM     18  O   UNL     1     -10.125   0.167   5.741  1.00  0.00    -0.504 OA
ATOM     19  H   UNL     1     -10.604   0.340   6.617  1.00  0.00     0.293 HD
ENDBRANCH  15  18
BRANCH  17  20
ATOM     20  O   UNL     1      -9.131  -0.268   3.133  1.00  0.00    -0.504 OA
ATOM     21  H   UNL     1      -8.278   0.274   3.190  1.00  0.00     0.293 HD
ENDBRANCH  17  20
ENDBRANCH   1  12
BRANCH   2  22
ATOM     22  O   UNL     1     -10.123  -4.653   1.710  1.00  0.00    -0.502 OA
ATOM     23  H   UNL     1     -10.115  -4.787   0.706  1.00  0.00     0.293 HD
ENDBRANCH   2  22
BRANCH   6  24
ATOM     24  O   UNL     1      -8.705  -9.787   1.689  1.00  0.00    -0.507 OA
ATOM     25  H   UNL     1      -8.223 -10.563   1.260  1.00  0.00     0.293 HD
ENDBRANCH   6  24
BRANCH   8  26
ATOM     26  O   UNL     1      -6.338 -10.022   5.859  1.00  0.00    -0.508 OA
ATOM     27  H   UNL     1      -5.606  -9.598   6.419  1.00  0.00     0.293 HD
ENDBRANCH   8  26
TORSDOF 6
ENDMDL
