MODEL 1
REMARK VINA RESULT:    -3.931      0.000      0.000
REMARK INTER + INTRA:          -5.524
REMARK INTER:                  -5.310
REMARK INTRA:                  -0.215
REMARK UNBOUND:                -0.215
REMARK SMILES CCCCCCCC=O
REMARK SMILES IDX 5 1 4 2 3 3 2 4 1 5 6 6 7 7 8 8 9 9
REMARK H PARENT
REMARK Flexibility Score: inf
ROOT
ATOM      1  C   UNL     1      25.090  58.023  -8.889  1.00  0.00     0.000 C 
ENDROOT
BRANCH   1   2
ATOM      2  C   UNL     1      25.882  56.718  -8.715  1.00  0.00     0.000 C 
BRANCH   2   3
ATOM      3  C   UNL     1      25.098  55.649  -7.939  1.00  0.00    -0.000 C 
BRANCH   3   4
ATOM      4  C   UNL     1      23.597  55.747  -8.238  1.00  0.00    -0.003 C 
ATOM      5  C   UNL     1      22.779  54.969  -7.211  1.00  0.00     0.004 C 
ENDBRANCH   3   4
ENDBRANCH   2   3
ENDBRANCH   1   2
BRANCH   1   6
ATOM      6  C   UNL     1      25.981  59.208  -9.294  1.00  0.00     0.008 C 
BRANCH   6   7
ATOM      7  C   UNL     1      27.070  58.764 -10.277  1.00  0.00     0.072 C 
BRANCH   7   8
ATOM      8  C   UNL     1      28.123  59.820 -10.423  1.00  0.00     0.224 C 
ATOM      9  O   UNL     1      29.207  59.695  -9.873  1.00  0.00    -0.303 OA
ENDBRANCH   7   8
ENDBRANCH   6   7
ENDBRANCH   1   6
TORSDOF 6
ENDMDL
MODEL 2
REMARK VINA RESULT:    -3.793      3.055      5.897
REMARK INTER + INTRA:          -5.339
REMARK INTER:                  -5.258
REMARK INTRA:                  -0.081
REMARK UNBOUND:                -0.215
REMARK SMILES CCCCCCCC=O
REMARK SMILES IDX 5 1 4 2 3 3 2 4 1 5 6 6 7 7 8 8 9 9
REMARK H PARENT
REMARK Flexibility Score: inf
ROOT
ATOM      1  C   UNL     1      25.805  57.298  -8.867  1.00  0.00     0.000 C 
ENDROOT
BRANCH   1   2
ATOM      2  C   UNL     1      26.054  58.749  -9.310  1.00  0.00     0.000 C 
BRANCH   2   3
ATOM      3  C   UNL     1      27.095  58.854 -10.434  1.00  0.00    -0.000 C 
BRANCH   3   4
ATOM      4  C   UNL     1      27.914  60.143 -10.304  1.00  0.00    -0.003 C 
ATOM      5  C   UNL     1      29.257  60.018 -11.018  1.00  0.00     0.004 C 
ENDBRANCH   3   4
ENDBRANCH   2   3
ENDBRANCH   1   2
BRANCH   1   6
ATOM      6  C   UNL     1      24.311  56.955  -8.772  1.00  0.00     0.008 C 
BRANCH   6   7
ATOM      7  C   UNL     1      24.109  55.479  -8.411  1.00  0.00     0.072 C 
BRANCH   7   8
ATOM      8  C   UNL     1      23.494  55.339  -7.051  1.00  0.00     0.224 C 
ATOM      9  O   UNL     1      22.383  54.848  -6.921  1.00  0.00    -0.303 OA
ENDBRANCH   7   8
ENDBRANCH   6   7
ENDBRANCH   1   6
TORSDOF 6
ENDMDL
MODEL 3
REMARK VINA RESULT:    -3.748     16.978     18.186
REMARK INTER + INTRA:          -5.278
REMARK INTER:                  -4.882
REMARK INTRA:                  -0.395
REMARK UNBOUND:                -0.215
REMARK SMILES CCCCCCCC=O
REMARK SMILES IDX 5 1 4 2 3 3 2 4 1 5 6 6 7 7 8 8 9 9
REMARK H PARENT
REMARK Flexibility Score: inf
ROOT
ATOM      1  C   UNL     1      19.510  45.165  -0.008  1.00  0.00     0.000 C 
ENDROOT
BRANCH   1   2
ATOM      2  C   UNL     1      18.148  45.779  -0.370  1.00  0.00     0.000 C 
BRANCH   2   3
ATOM      3  C   UNL     1      16.992  44.779  -0.227  1.00  0.00    -0.000 C 
BRANCH   3   4
ATOM      4  C   UNL     1      15.766  45.447   0.408  1.00  0.00    -0.003 C 
ATOM      5  C   UNL     1      15.552  44.961   1.839  1.00  0.00     0.004 C 
ENDBRANCH   3   4
ENDBRANCH   2   3
ENDBRANCH   1   2
BRANCH   1   6
ATOM      6  C   UNL     1      19.556  44.632   1.433  1.00  0.00     0.008 C 
BRANCH   6   7
ATOM      7  C   UNL     1      19.795  43.119   1.450  1.00  0.00     0.072 C 
BRANCH   7   8
ATOM      8  C   UNL     1      20.444  42.664   0.177  1.00  0.00     0.224 C 
ATOM      9  O   UNL     1      21.598  42.264   0.179  1.00  0.00    -0.303 OA
ENDBRANCH   7   8
ENDBRANCH   6   7
ENDBRANCH   1   6
TORSDOF 6
ENDMDL
MODEL 4
REMARK VINA RESULT:    -3.689     17.593     18.835
REMARK INTER + INTRA:          -5.198
REMARK INTER:                  -4.786
REMARK INTRA:                  -0.412
REMARK UNBOUND:                -0.215
REMARK SMILES CCCCCCCC=O
REMARK SMILES IDX 5 1 4 2 3 3 2 4 1 5 6 6 7 7 8 8 9 9
REMARK H PARENT
REMARK Flexibility Score: inf
ROOT
ATOM      1  C   UNL     1      18.137  42.856   1.503  1.00  0.00     0.000 C 
ENDROOT
BRANCH   1   2
ATOM      2  C   UNL     1      16.663  43.179   1.211  1.00  0.00     0.000 C 
BRANCH   2   3
ATOM      3  C   UNL     1      16.245  44.561   1.735  1.00  0.00    -0.000 C 
BRANCH   3   4
ATOM      4  C   UNL     1      15.673  45.425   0.605  1.00  0.00    -0.003 C 
ATOM      5  C   UNL     1      16.708  45.654  -0.493  1.00  0.00     0.004 C 
ENDBRANCH   3   4
ENDBRANCH   2   3
ENDBRANCH   1   2
BRANCH   1   6
ATOM      6  C   UNL     1      18.871  44.014   2.197  1.00  0.00     0.008 C 
BRANCH   6   7
ATOM      7  C   UNL     1      20.304  44.148   1.669  1.00  0.00     0.072 C 
BRANCH   7   8
ATOM      8  C   UNL     1      20.520  43.267   0.476  1.00  0.00     0.224 C 
ATOM      9  O   UNL     1      21.464  42.493   0.441  1.00  0.00    -0.303 OA
ENDBRANCH   7   8
ENDBRANCH   6   7
ENDBRANCH   1   6
TORSDOF 6
ENDMDL
MODEL 5
REMARK VINA RESULT:    -3.612     17.539     18.797
REMARK INTER + INTRA:          -5.094
REMARK INTER:                  -4.714
REMARK INTRA:                  -0.380
REMARK UNBOUND:                -0.215
REMARK SMILES CCCCCCCC=O
REMARK SMILES IDX 5 1 4 2 3 3 2 4 1 5 6 6 7 7 8 8 9 9
REMARK H PARENT
REMARK Flexibility Score: inf
ROOT
ATOM      1  C   UNL     1      16.877  43.111   1.231  1.00  0.00     0.000 C 
ENDROOT
BRANCH   1   2
ATOM      2  C   UNL     1      18.350  42.782   1.523  1.00  0.00     0.000 C 
BRANCH   2   3
ATOM      3  C   UNL     1      19.073  43.913   2.268  1.00  0.00    -0.000 C 
BRANCH   3   4
ATOM      4  C   UNL     1      20.406  44.251   1.591  1.00  0.00    -0.003 C 
ATOM      5  C   UNL     1      20.980  43.036   0.866  1.00  0.00     0.004 C 
ENDBRANCH   3   4
ENDBRANCH   2   3
ENDBRANCH   1   2
BRANCH   1   6
ATOM      6  C   UNL     1      16.489  44.530   1.672  1.00  0.00     0.008 C 
BRANCH   6   7
ATOM      7  C   UNL     1      15.659  45.232   0.591  1.00  0.00     0.072 C 
BRANCH   7   8
ATOM      8  C   UNL     1      16.499  45.550  -0.609  1.00  0.00     0.224 C 
ATOM      9  O   UNL     1      17.655  45.921  -0.474  1.00  0.00    -0.303 OA
ENDBRANCH   7   8
ENDBRANCH   6   7
ENDBRANCH   1   6
TORSDOF 6
ENDMDL
MODEL 6
REMARK VINA RESULT:    -3.502     16.876     18.770
REMARK INTER + INTRA:          -4.945
REMARK INTER:                  -4.421
REMARK INTRA:                  -0.523
REMARK UNBOUND:                -0.215
REMARK SMILES CCCCCCCC=O
REMARK SMILES IDX 5 1 4 2 3 3 2 4 1 5 6 6 7 7 8 8 9 9
REMARK H PARENT
REMARK Flexibility Score: inf
ROOT
ATOM      1  C   UNL     1      16.485  43.292   1.069  1.00  0.00     0.000 C 
ENDROOT
BRANCH   1   2
ATOM      2  C   UNL     1      17.959  42.983   1.381  1.00  0.00     0.000 C 
BRANCH   2   3
ATOM      3  C   UNL     1      18.676  44.154   2.069  1.00  0.00    -0.000 C 
BRANCH   3   4
ATOM      4  C   UNL     1      19.876  44.625   1.239  1.00  0.00    -0.003 C 
ATOM      5  C   UNL     1      19.422  45.305  -0.051  1.00  0.00     0.004 C 
ENDBRANCH   3   4
ENDBRANCH   2   3
ENDBRANCH   1   2
BRANCH   1   6
ATOM      6  C   UNL     1      15.972  44.538   1.807  1.00  0.00     0.008 C 
BRANCH   6   7
ATOM      7  C   UNL     1      15.407  45.566   0.820  1.00  0.00     0.072 C 
BRANCH   7   8
ATOM      8  C   UNL     1      15.717  45.177  -0.594  1.00  0.00     0.224 C 
ATOM      9  O   UNL     1      15.956  46.031  -1.433  1.00  0.00    -0.303 OA
ENDBRANCH   7   8
ENDBRANCH   6   7
ENDBRANCH   1   6
TORSDOF 6
ENDMDL
MODEL 7
REMARK VINA RESULT:    -3.457     17.459     18.834
REMARK INTER + INTRA:          -4.884
REMARK INTER:                  -4.454
REMARK INTRA:                  -0.431
REMARK UNBOUND:                -0.215
REMARK SMILES CCCCCCCC=O
REMARK SMILES IDX 5 1 4 2 3 3 2 4 1 5 6 6 7 7 8 8 9 9
REMARK H PARENT
REMARK Flexibility Score: inf
ROOT
ATOM      1  C   UNL     1      18.056  44.890   0.007  1.00  0.00     0.000 C 
ENDROOT
BRANCH   1   2
ATOM      2  C   UNL     1      19.588  44.895   0.131  1.00  0.00     0.000 C 
BRANCH   2   3
ATOM      3  C   UNL     1      20.068  44.521   1.541  1.00  0.00    -0.000 C 
BRANCH   3   4
ATOM      4  C   UNL     1      20.950  43.267   1.504  1.00  0.00    -0.003 C 
ATOM      5  C   UNL     1      20.947  42.630   0.117  1.00  0.00     0.004 C 
ENDBRANCH   3   4
ENDBRANCH   2   3
ENDBRANCH   1   2
BRANCH   1   6
ATOM      6  C   UNL     1      17.370  44.148   1.165  1.00  0.00     0.008 C 
BRANCH   6   7
ATOM      7  C   UNL     1      16.897  42.759   0.723  1.00  0.00     0.072 C 
BRANCH   7   8
ATOM      8  C   UNL     1      16.924  42.634  -0.771  1.00  0.00     0.224 C 
ATOM      9  O   UNL     1      17.714  41.878  -1.315  1.00  0.00    -0.303 OA
ENDBRANCH   7   8
ENDBRANCH   6   7
ENDBRANCH   1   6
TORSDOF 6
ENDMDL
MODEL 8
REMARK VINA RESULT:    -3.451     17.197     18.408
REMARK INTER + INTRA:          -4.876
REMARK INTER:                  -4.575
REMARK INTRA:                  -0.302
REMARK UNBOUND:                -0.215
REMARK SMILES CCCCCCCC=O
REMARK SMILES IDX 5 1 4 2 3 3 2 4 1 5 6 6 7 7 8 8 9 9
REMARK H PARENT
REMARK Flexibility Score: inf
ROOT
ATOM      1  C   UNL     1      18.545  45.516  -0.538  1.00  0.00     0.000 C 
ENDROOT
BRANCH   1   2
ATOM      2  C   UNL     1      19.881  45.182   0.144  1.00  0.00     0.000 C 
BRANCH   2   3
ATOM      3  C   UNL     1      19.694  44.500   1.508  1.00  0.00    -0.000 C 
BRANCH   3   4
ATOM      4  C   UNL     1      20.650  43.312   1.661  1.00  0.00    -0.003 C 
ATOM      5  C   UNL     1      21.111  42.795   0.301  1.00  0.00     0.004 C 
ENDBRANCH   3   4
ENDBRANCH   2   3
ENDBRANCH   1   2
BRANCH   1   6
ATOM      6  C   UNL     1      17.347  44.827   0.134  1.00  0.00     0.008 C 
BRANCH   6   7
ATOM      7  C   UNL     1      16.043  45.568  -0.179  1.00  0.00     0.072 C 
BRANCH   7   8
ATOM      8  C   UNL     1      15.090  45.485   0.975  1.00  0.00     0.224 C 
ATOM      9  O   UNL     1      15.430  44.956   2.023  1.00  0.00    -0.303 OA
ENDBRANCH   7   8
ENDBRANCH   6   7
ENDBRANCH   1   6
TORSDOF 6
ENDMDL
MODEL 9
REMARK VINA RESULT:    -3.354      5.174      7.702
REMARK INTER + INTRA:          -4.745
REMARK INTER:                  -4.402
REMARK INTRA:                  -0.343
REMARK UNBOUND:                -0.215
REMARK SMILES CCCCCCCC=O
REMARK SMILES IDX 5 1 4 2 3 3 2 4 1 5 6 6 7 7 8 8 9 9
REMARK H PARENT
REMARK Flexibility Score: inf
ROOT
ATOM      1  C   UNL     1      30.035  57.659 -13.133  1.00  0.00     0.000 C 
ENDROOT
BRANCH   1   2
ATOM      2  C   UNL     1      31.232  56.859 -13.672  1.00  0.00     0.000 C 
BRANCH   2   3
ATOM      3  C   UNL     1      32.423  56.852 -12.703  1.00  0.00    -0.000 C 
BRANCH   3   4
ATOM      4  C   UNL     1      33.744  57.042 -13.458  1.00  0.00    -0.003 C 
ATOM      5  C   UNL     1      33.765  58.372 -14.208  1.00  0.00     0.004 C 
ENDBRANCH   3   4
ENDBRANCH   2   3
ENDBRANCH   1   2
BRANCH   1   6
ATOM      6  C   UNL     1      30.388  59.124 -12.834  1.00  0.00     0.008 C 
BRANCH   6   7
ATOM      7  C   UNL     1      30.300  59.413 -11.331  1.00  0.00     0.072 C 
BRANCH   7   8
ATOM      8  C   UNL     1      28.944  59.936 -10.965  1.00  0.00     0.224 C 
ATOM      9  O   UNL     1      28.044  59.167 -10.662  1.00  0.00    -0.303 OA
ENDBRANCH   7   8
ENDBRANCH   6   7
ENDBRANCH   1   6
TORSDOF 6
ENDMDL
