MODEL 1
REMARK VINA RESULT:    34.112      0.000      0.000
REMARK INTER + INTRA:          40.866
REMARK INTER:                  41.092
REMARK INTRA:                  -0.226
REMARK UNBOUND:                -0.226
REMARK SMILES Oc1cc(O)c2cc(O)c(-c3ccc(O)c(O)c3)[o+]c2c1
REMARK SMILES IDX 10 1 19 2 20 3 21 4 2 5 3 6 4 7 6 8 7 9 8 10 11 11 12 12
REMARK SMILES IDX 13 13 14 14 18 15 16 16 15 17 17 19 9 21 1 23 5 25
REMARK H PARENT 15 18 17 20 9 22 1 24 5 26
REMARK Flexibility Score: inf
ROOT
ATOM      1  C   UNL     1      10.835   1.832  18.765  1.00  0.00     0.402 A 
ATOM      2  O   UNL     1      11.323   2.137  17.563  1.00  0.00    -0.202 OA
ATOM      3  C   UNL     1      11.031   1.446  16.464  1.00  0.00     0.368 A 
ATOM      4  C   UNL     1      11.589   1.828  15.240  1.00  0.00     0.162 A 
ATOM      5  C   UNL     1      11.293   1.107  14.075  1.00  0.00     0.128 A 
ATOM      6  C   UNL     1      10.437   0.002  14.138  1.00  0.00     0.093 A 
ATOM      7  C   UNL     1       9.869  -0.392  15.358  1.00  0.00     0.136 A 
ATOM      8  C   UNL     1      10.168   0.332  16.529  1.00  0.00     0.125 A 
ATOM      9  C   UNL     1       9.624  -0.010  17.772  1.00  0.00     0.078 A 
ATOM     10  C   UNL     1       9.946   0.747  18.903  1.00  0.00     0.223 A 
ENDROOT
BRANCH   1  11
ATOM     11  C   UNL     1      11.239   2.670  19.917  1.00  0.00     0.087 A 
ATOM     12  C   UNL     1      10.914   4.036  19.924  1.00  0.00     0.022 A 
ATOM     13  C   UNL     1      11.302   4.851  20.991  1.00  0.00     0.051 A 
ATOM     14  C   UNL     1      12.034   4.314  22.058  1.00  0.00     0.157 A 
ATOM     15  C   UNL     1      11.993   2.140  20.980  1.00  0.00     0.068 A 
ATOM     16  C   UNL     1      12.384   2.958  22.051  1.00  0.00     0.158 A 
BRANCH  14  17
ATOM     17  O   UNL     1      12.422   5.122  23.125  1.00  0.00    -0.504 OA
ATOM     18  H   UNL     1      12.580   4.739  24.050  1.00  0.00     0.293 HD
ENDBRANCH  14  17
BRANCH  16  19
ATOM     19  O   UNL     1      13.125   2.431  23.106  1.00  0.00    -0.504 OA
ATOM     20  H   UNL     1      13.861   1.752  22.951  1.00  0.00     0.293 HD
ENDBRANCH  16  19
ENDBRANCH   1  11
BRANCH  10  21
ATOM     21  O   UNL     1       9.368   0.442  20.136  1.00  0.00    -0.500 OA
ATOM     22  H   UNL     1       8.988  -0.476  20.332  1.00  0.00     0.294 HD
ENDBRANCH  10  21
BRANCH   5  23
ATOM     23  O   UNL     1      11.844   1.480  12.852  1.00  0.00    -0.507 OA
ATOM     24  H   UNL     1      11.521   1.078  11.980  1.00  0.00     0.293 HD
ENDBRANCH   5  23
BRANCH   7  25
ATOM     25  O   UNL     1       9.017  -1.495  15.407  1.00  0.00    -0.507 OA
ATOM     26  H   UNL     1       8.061  -1.414  15.732  1.00  0.00     0.293 HD
ENDBRANCH   7  25
TORSDOF 6
ENDMDL
MODEL 2
REMARK VINA RESULT:    34.252      0.654      1.473
REMARK INTER + INTRA:          41.035
REMARK INTER:                  41.314
REMARK INTRA:                  -0.279
REMARK UNBOUND:                -0.226
REMARK SMILES Oc1cc(O)c2cc(O)c(-c3ccc(O)c(O)c3)[o+]c2c1
REMARK SMILES IDX 10 1 19 2 20 3 21 4 2 5 3 6 4 7 6 8 7 9 8 10 11 11 12 12
REMARK SMILES IDX 13 13 14 14 18 15 16 16 15 17 17 19 9 21 1 23 5 25
REMARK H PARENT 15 18 17 20 9 22 1 24 5 26
REMARK Flexibility Score: inf
ROOT
ATOM      1  C   UNL     1      10.813   1.591  18.769  1.00  0.00     0.402 A 
ATOM      2  O   UNL     1      11.220   1.889  17.535  1.00  0.00    -0.202 OA
ATOM      3  C   UNL     1      10.862   1.189  16.462  1.00  0.00     0.368 A 
ATOM      4  C   UNL     1      11.336   1.564  15.203  1.00  0.00     0.162 A 
ATOM      5  C   UNL     1      10.970   0.832  14.064  1.00  0.00     0.128 A 
ATOM      6  C   UNL     1      10.127  -0.277  14.191  1.00  0.00     0.093 A 
ATOM      7  C   UNL     1       9.642  -0.664  15.448  1.00  0.00     0.136 A 
ATOM      8  C   UNL     1      10.011   0.070  16.591  1.00  0.00     0.125 A 
ATOM      9  C   UNL     1       9.552  -0.265  17.870  1.00  0.00     0.078 A 
ATOM     10  C   UNL     1       9.942   0.502  18.972  1.00  0.00     0.223 A 
ENDROOT
BRANCH   1  11
ATOM     11  C   UNL     1      11.286   2.440  19.885  1.00  0.00     0.087 A 
ATOM     12  C   UNL     1      12.237   1.931  20.785  1.00  0.00     0.022 A 
ATOM     13  C   UNL     1      12.683   2.707  21.858  1.00  0.00     0.051 A 
ATOM     14  C   UNL     1      12.174   3.997  22.055  1.00  0.00     0.157 A 
ATOM     15  C   UNL     1      10.762   3.728  20.100  1.00  0.00     0.068 A 
ATOM     16  C   UNL     1      11.209   4.507  21.179  1.00  0.00     0.158 A 
BRANCH  14  17
ATOM     17  O   UNL     1      12.618   4.774  23.123  1.00  0.00    -0.504 OA
ATOM     18  H   UNL     1      12.026   5.480  23.547  1.00  0.00     0.293 HD
ENDBRANCH  14  17
BRANCH  16  19
ATOM     19  O   UNL     1      10.693   5.784  21.387  1.00  0.00    -0.504 OA
ATOM     20  H   UNL     1      11.091   6.598  20.932  1.00  0.00     0.293 HD
ENDBRANCH  16  19
ENDBRANCH   1  11
BRANCH  10  21
ATOM     21  O   UNL     1       9.447   0.204  20.242  1.00  0.00    -0.500 OA
ATOM     22  H   UNL     1       8.855   0.852  20.747  1.00  0.00     0.294 HD
ENDBRANCH  10  21
BRANCH   5  23
ATOM     23  O   UNL     1      11.438   1.199  12.805  1.00  0.00    -0.507 OA
ATOM     24  H   UNL     1      11.722   0.506  12.122  1.00  0.00     0.293 HD
ENDBRANCH   5  23
BRANCH   7  25
ATOM     25  O   UNL     1       8.801  -1.772  15.560  1.00  0.00    -0.507 OA
ATOM     26  H   UNL     1       8.492  -2.115  16.462  1.00  0.00     0.293 HD
ENDBRANCH   7  25
TORSDOF 6
ENDMDL
