MODEL 1
REMARK VINA RESULT:    -4.651      0.000      0.000
REMARK INTER + INTRA:          -5.934
REMARK INTER:                  -5.603
REMARK INTRA:                  -0.331
REMARK UNBOUND:                -0.331
REMARK SMILES O=c1c(O)c(-c2ccc(O)c(O)c2)oc2cc(O)cc(O)c12
REMARK SMILES IDX 5 1 3 2 2 3 1 4 22 5 20 6 19 7 17 8 16 9 15 10 14 11 6 12
REMARK SMILES IDX 7 13 8 14 9 15 13 16 11 17 10 18 12 20 4 22 21 24 18 26
REMARK H PARENT 10 19 12 21 4 23 21 25 18 27
REMARK Flexibility Score: inf
ROOT
ATOM      1  C   UNL     1     168.119  82.684  18.726  1.00  0.00     0.180 A 
ATOM      2  C   UNL     1     169.449  83.142  18.801  1.00  0.00     0.208 A 
ATOM      3  C   UNL     1     169.932  83.623  20.028  1.00  0.00     0.238 A 
ATOM      4  O   UNL     1     171.125  84.025  20.110  1.00  0.00    -0.285 OA
ATOM      5  C   UNL     1     169.077  83.659  21.148  1.00  0.00     0.111 A 
ATOM      6  C   UNL     1     169.485  84.133  22.419  1.00  0.00     0.134 A 
ATOM      7  C   UNL     1     168.570  84.145  23.482  1.00  0.00     0.093 A 
ATOM      8  C   UNL     1     167.259  83.692  23.300  1.00  0.00     0.123 A 
ATOM      9  C   UNL     1     166.853  83.222  22.050  1.00  0.00     0.094 A 
ATOM     10  C   UNL     1     167.749  83.202  20.977  1.00  0.00     0.146 A 
ATOM     11  O   UNL     1     167.337  82.746  19.800  1.00  0.00    -0.452 OA
ENDROOT
BRANCH   1  12
ATOM     12  C   UNL     1     167.543  82.144  17.473  1.00  0.00     0.025 A 
ATOM     13  C   UNL     1     167.681  80.789  17.128  1.00  0.00     0.016 A 
ATOM     14  C   UNL     1     167.108  80.297  15.953  1.00  0.00     0.051 A 
ATOM     15  C   UNL     1     166.378  81.147  15.112  1.00  0.00     0.157 A 
ATOM     16  C   UNL     1     166.792  82.988  16.638  1.00  0.00     0.062 A 
ATOM     17  C   UNL     1     166.216  82.499  15.460  1.00  0.00     0.158 A 
BRANCH  15  18
ATOM     18  O   UNL     1     165.808  80.654  13.939  1.00  0.00    -0.504 OA
ATOM     19  H   UNL     1     165.949  81.113  13.047  1.00  0.00     0.293 HD
ENDBRANCH  15  18
BRANCH  17  20
ATOM     20  O   UNL     1     165.489  83.370  14.649  1.00  0.00    -0.504 OA
ATOM     21  H   UNL     1     165.287  83.160  13.679  1.00  0.00     0.293 HD
ENDBRANCH  17  20
ENDBRANCH   1  12
BRANCH   2  22
ATOM     22  O   UNL     1     170.261  83.141  17.664  1.00  0.00    -0.502 OA
ATOM     23  H   UNL     1     170.687  83.986  17.302  1.00  0.00     0.293 HD
ENDBRANCH   2  22
BRANCH   6  24
ATOM     24  O   UNL     1     170.785  84.591  22.631  1.00  0.00    -0.507 OA
ATOM     25  H   UNL     1     171.491  84.010  23.067  1.00  0.00     0.293 HD
ENDBRANCH   6  24
BRANCH   8  26
ATOM     26  O   UNL     1     166.350  83.704  24.356  1.00  0.00    -0.508 OA
ATOM     27  H   UNL     1     165.476  83.192  24.309  1.00  0.00     0.293 HD
ENDBRANCH   8  26
TORSDOF 6
ENDMDL
MODEL 2
REMARK VINA RESULT:    -4.546      1.685      6.882
REMARK INTER + INTRA:          -5.808
REMARK INTER:                  -5.583
REMARK INTRA:                  -0.224
REMARK UNBOUND:                -0.331
REMARK SMILES O=c1c(O)c(-c2ccc(O)c(O)c2)oc2cc(O)cc(O)c12
REMARK SMILES IDX 5 1 3 2 2 3 1 4 22 5 20 6 19 7 17 8 16 9 15 10 14 11 6 12
REMARK SMILES IDX 7 13 8 14 9 15 13 16 11 17 10 18 12 20 4 22 21 24 18 26
REMARK H PARENT 10 19 12 21 4 23 21 25 18 27
REMARK Flexibility Score: inf
ROOT
ATOM      1  C   UNL     1     169.083  82.589  18.403  1.00  0.00     0.180 A 
ATOM      2  C   UNL     1     169.932  81.745  17.660  1.00  0.00     0.208 A 
ATOM      3  C   UNL     1     169.543  81.359  16.368  1.00  0.00     0.238 A 
ATOM      4  O   UNL     1     170.299  80.613  15.690  1.00  0.00    -0.285 OA
ATOM      5  C   UNL     1     168.309  81.804  15.849  1.00  0.00     0.111 A 
ATOM      6  C   UNL     1     167.843  81.458  14.558  1.00  0.00     0.134 A 
ATOM      7  C   UNL     1     166.599  81.935  14.118  1.00  0.00     0.093 A 
ATOM      8  C   UNL     1     165.815  82.749  14.942  1.00  0.00     0.123 A 
ATOM      9  C   UNL     1     166.271  83.094  16.216  1.00  0.00     0.094 A 
ATOM     10  C   UNL     1     167.509  82.630  16.673  1.00  0.00     0.146 A 
ATOM     11  O   UNL     1     167.920  82.977  17.887  1.00  0.00    -0.452 OA
ENDROOT
BRANCH   1  12
ATOM     12  C   UNL     1     169.432  83.054  19.765  1.00  0.00     0.025 A 
ATOM     13  C   UNL     1     170.494  83.949  19.984  1.00  0.00     0.016 A 
ATOM     14  C   UNL     1     170.789  84.393  21.275  1.00  0.00     0.051 A 
ATOM     15  C   UNL     1     170.020  83.961  22.364  1.00  0.00     0.157 A 
ATOM     16  C   UNL     1     168.651  82.642  20.857  1.00  0.00     0.062 A 
ATOM     17  C   UNL     1     168.944  83.084  22.152  1.00  0.00     0.158 A 
BRANCH  15  18
ATOM     18  O   UNL     1     170.318  84.405  23.652  1.00  0.00    -0.504 OA
ATOM     19  H   UNL     1     171.269  84.605  23.937  1.00  0.00     0.293 HD
ENDBRANCH  15  18
BRANCH  17  20
ATOM     20  O   UNL     1     168.155  82.641  23.214  1.00  0.00    -0.504 OA
ATOM     21  H   UNL     1     167.965  83.222  24.021  1.00  0.00     0.293 HD
ENDBRANCH  17  20
ENDBRANCH   1  12
BRANCH   2  22
ATOM     22  O   UNL     1     171.125  81.278  18.217  1.00  0.00    -0.502 OA
ATOM     23  H   UNL     1     171.830  81.902  18.589  1.00  0.00     0.293 HD
ENDBRANCH   2  22
BRANCH   6  24
ATOM     24  O   UNL     1     168.601  80.648  13.713  1.00  0.00    -0.507 OA
ATOM     25  H   UNL     1     169.312  80.021  14.072  1.00  0.00     0.293 HD
ENDBRANCH   6  24
BRANCH   8  26
ATOM     26  O   UNL     1     164.579  83.222  14.506  1.00  0.00    -0.508 OA
ATOM     27  H   UNL     1     163.790  83.302  15.137  1.00  0.00     0.293 HD
ENDBRANCH   8  26
TORSDOF 6
ENDMDL
MODEL 3
REMARK VINA RESULT:    -4.470      1.342      1.342
REMARK INTER + INTRA:          -5.715
REMARK INTER:                  -5.392
REMARK INTRA:                  -0.324
REMARK UNBOUND:                -0.331
REMARK SMILES O=c1c(O)c(-c2ccc(O)c(O)c2)oc2cc(O)cc(O)c12
REMARK SMILES IDX 5 1 3 2 2 3 1 4 22 5 20 6 19 7 17 8 16 9 15 10 14 11 6 12
REMARK SMILES IDX 7 13 8 14 9 15 13 16 11 17 10 18 12 20 4 22 21 24 18 26
REMARK H PARENT 10 19 12 21 4 23 21 25 18 27
REMARK Flexibility Score: inf
ROOT
ATOM      1  C   UNL     1     168.785  82.570  18.679  1.00  0.00     0.180 A 
ATOM      2  C   UNL     1     169.805  83.505  18.939  1.00  0.00     0.208 A 
ATOM      3  C   UNL     1     170.200  83.726  20.268  1.00  0.00     0.238 A 
ATOM      4  O   UNL     1     171.121  84.553  20.512  1.00  0.00    -0.285 OA
ATOM      5  C   UNL     1     169.559  83.027  21.311  1.00  0.00     0.111 A 
ATOM      6  C   UNL     1     169.895  83.196  22.677  1.00  0.00     0.134 A 
ATOM      7  C   UNL     1     169.204  82.469  23.657  1.00  0.00     0.093 A 
ATOM      8  C   UNL     1     168.184  81.580  23.299  1.00  0.00     0.123 A 
ATOM      9  C   UNL     1     167.850  81.410  21.954  1.00  0.00     0.094 A 
ATOM     10  C   UNL     1     168.529  82.124  20.962  1.00  0.00     0.146 A 
ATOM     11  O   UNL     1     168.193  81.940  19.690  1.00  0.00    -0.452 OA
ENDROOT
BRANCH   1  12
ATOM     12  C   UNL     1     168.326  82.268  17.304  1.00  0.00     0.025 A 
ATOM     13  C   UNL     1     168.851  81.184  16.578  1.00  0.00     0.016 A 
ATOM     14  C   UNL     1     168.385  80.904  15.292  1.00  0.00     0.051 A 
ATOM     15  C   UNL     1     167.380  81.693  14.716  1.00  0.00     0.157 A 
ATOM     16  C   UNL     1     167.304  83.042  16.731  1.00  0.00     0.062 A 
ATOM     17  C   UNL     1     166.835  82.765  15.442  1.00  0.00     0.158 A 
BRANCH  15  18
ATOM     18  O   UNL     1     166.918  81.412  13.431  1.00  0.00    -0.504 OA
ATOM     19  H   UNL     1     166.279  80.646  13.253  1.00  0.00     0.293 HD
ENDBRANCH  15  18
BRANCH  17  20
ATOM     20  O   UNL     1     165.829  83.565  14.901  1.00  0.00    -0.504 OA
ATOM     21  H   UNL     1     165.399  84.317  15.426  1.00  0.00     0.293 HD
ENDBRANCH  17  20
ENDBRANCH   1  12
BRANCH   2  22
ATOM     22  O   UNL     1     170.390  84.220  17.892  1.00  0.00    -0.502 OA
ATOM     23  H   UNL     1     169.955  84.302  16.980  1.00  0.00     0.293 HD
ENDBRANCH   2  22
BRANCH   6  24
ATOM     24  O   UNL     1     170.906  84.075  23.064  1.00  0.00    -0.507 OA
ATOM     25  H   UNL     1     171.682  83.774  23.643  1.00  0.00     0.293 HD
ENDBRANCH   6  24
BRANCH   8  26
ATOM     26  O   UNL     1     167.496  80.859  24.273  1.00  0.00    -0.508 OA
ATOM     27  H   UNL     1     167.615  79.857  24.373  1.00  0.00     0.293 HD
ENDBRANCH   8  26
TORSDOF 6
ENDMDL
MODEL 4
REMARK VINA RESULT:    -4.447     10.307     12.861
REMARK INTER + INTRA:          -5.688
REMARK INTER:                  -5.356
REMARK INTRA:                  -0.332
REMARK UNBOUND:                -0.331
REMARK SMILES O=c1c(O)c(-c2ccc(O)c(O)c2)oc2cc(O)cc(O)c12
REMARK SMILES IDX 5 1 3 2 2 3 1 4 22 5 20 6 19 7 17 8 16 9 15 10 14 11 6 12
REMARK SMILES IDX 7 13 8 14 9 15 13 16 11 17 10 18 12 20 4 22 21 24 18 26
REMARK H PARENT 10 19 12 21 4 23 21 25 18 27
REMARK Flexibility Score: inf
ROOT
ATOM      1  C   UNL     1     156.307  83.483  17.564  1.00  0.00     0.180 A 
ATOM      2  C   UNL     1     157.324  84.150  18.276  1.00  0.00     0.208 A 
ATOM      3  C   UNL     1     158.509  84.490  17.606  1.00  0.00     0.238 A 
ATOM      4  O   UNL     1     159.422  85.097  18.231  1.00  0.00    -0.285 OA
ATOM      5  C   UNL     1     158.668  84.142  16.249  1.00  0.00     0.111 A 
ATOM      6  C   UNL     1     159.833  84.444  15.504  1.00  0.00     0.134 A 
ATOM      7  C   UNL     1     159.918  84.056  14.158  1.00  0.00     0.093 A 
ATOM      8  C   UNL     1     158.862  83.372  13.546  1.00  0.00     0.123 A 
ATOM      9  C   UNL     1     157.711  83.072  14.277  1.00  0.00     0.094 A 
ATOM     10  C   UNL     1     157.607  83.452  15.618  1.00  0.00     0.146 A 
ATOM     11  O   UNL     1     156.498  83.158  16.289  1.00  0.00    -0.452 OA
ENDROOT
BRANCH   1  12
ATOM     12  C   UNL     1     155.021  83.108  18.195  1.00  0.00     0.025 A 
ATOM     13  C   UNL     1     153.928  83.991  18.210  1.00  0.00     0.016 A 
ATOM     14  C   UNL     1     152.717  83.605  18.790  1.00  0.00     0.051 A 
ATOM     15  C   UNL     1     152.575  82.329  19.351  1.00  0.00     0.157 A 
ATOM     16  C   UNL     1     154.868  81.822  18.739  1.00  0.00     0.062 A 
ATOM     17  C   UNL     1     153.656  81.433  19.321  1.00  0.00     0.158 A 
BRANCH  15  18
ATOM     18  O   UNL     1     151.365  81.948  19.930  1.00  0.00    -0.504 OA
ATOM     19  H   UNL     1     151.257  81.879  20.934  1.00  0.00     0.293 HD
ENDBRANCH  15  18
BRANCH  17  20
ATOM     20  O   UNL     1     153.546  80.153  19.864  1.00  0.00    -0.504 OA
ATOM     21  H   UNL     1     153.719  79.968  20.845  1.00  0.00     0.293 HD
ENDBRANCH  17  20
ENDBRANCH   1  12
BRANCH   2  22
ATOM     22  O   UNL     1     157.161  84.439  19.633  1.00  0.00    -0.502 OA
ATOM     23  H   UNL     1     157.870  84.221  20.323  1.00  0.00     0.293 HD
ENDBRANCH   2  22
BRANCH   6  24
ATOM     24  O   UNL     1     160.903  85.125  16.087  1.00  0.00    -0.507 OA
ATOM     25  H   UNL     1     161.711  85.410  15.547  1.00  0.00     0.293 HD
ENDBRANCH   6  24
BRANCH   8  26
ATOM     26  O   UNL     1     158.946  82.984  12.210  1.00  0.00    -0.508 OA
ATOM     27  H   UNL     1     158.313  82.296  11.818  1.00  0.00     0.293 HD
ENDBRANCH   8  26
TORSDOF 6
ENDMDL
MODEL 5
REMARK VINA RESULT:    -4.364     18.625     20.718
REMARK INTER + INTRA:          -5.589
REMARK INTER:                  -5.304
REMARK INTRA:                  -0.285
REMARK UNBOUND:                -0.331
REMARK SMILES O=c1c(O)c(-c2ccc(O)c(O)c2)oc2cc(O)cc(O)c12
REMARK SMILES IDX 5 1 3 2 2 3 1 4 22 5 20 6 19 7 17 8 16 9 15 10 14 11 6 12
REMARK SMILES IDX 7 13 8 14 9 15 13 16 11 17 10 18 12 20 4 22 21 24 18 26
REMARK H PARENT 10 19 12 21 4 23 21 25 18 27
REMARK Flexibility Score: inf
ROOT
ATOM      1  C   UNL     1     151.713  70.977  17.772  1.00  0.00     0.180 A 
ATOM      2  C   UNL     1     151.446  71.819  18.869  1.00  0.00     0.208 A 
ATOM      3  C   UNL     1     151.257  71.245  20.135  1.00  0.00     0.238 A 
ATOM      4  O   UNL     1     151.029  71.990  21.126  1.00  0.00    -0.285 OA
ATOM      5  C   UNL     1     151.318  69.843  20.281  1.00  0.00     0.111 A 
ATOM      6  C   UNL     1     151.135  69.186  21.522  1.00  0.00     0.134 A 
ATOM      7  C   UNL     1     151.201  67.786  21.582  1.00  0.00     0.093 A 
ATOM      8  C   UNL     1     151.446  67.033  20.428  1.00  0.00     0.123 A 
ATOM      9  C   UNL     1     151.628  67.677  19.204  1.00  0.00     0.094 A 
ATOM     10  C   UNL     1     151.567  69.072  19.122  1.00  0.00     0.146 A 
ATOM     11  O   UNL     1     151.748  69.658  17.945  1.00  0.00    -0.452 OA
ENDROOT
BRANCH   1  12
ATOM     12  C   UNL     1     151.942  71.508  16.409  1.00  0.00     0.025 A 
ATOM     13  C   UNL     1     150.875  71.938  15.601  1.00  0.00     0.016 A 
ATOM     14  C   UNL     1     151.118  72.458  14.328  1.00  0.00     0.051 A 
ATOM     15  C   UNL     1     152.430  72.571  13.848  1.00  0.00     0.157 A 
ATOM     16  C   UNL     1     153.257  71.643  15.932  1.00  0.00     0.062 A 
ATOM     17  C   UNL     1     153.503  72.164  14.657  1.00  0.00     0.158 A 
BRANCH  15  18
ATOM     18  O   UNL     1     152.669  73.090  12.576  1.00  0.00    -0.504 OA
ATOM     19  H   UNL     1     152.089  72.840  11.784  1.00  0.00     0.293 HD
ENDBRANCH  15  18
BRANCH  17  20
ATOM     20  O   UNL     1     154.821  72.268  14.212  1.00  0.00    -0.504 OA
ATOM     21  H   UNL     1     155.059  72.256  13.227  1.00  0.00     0.293 HD
ENDBRANCH  17  20
ENDBRANCH   1  12
BRANCH   2  22
ATOM     22  O   UNL     1     151.343  73.201  18.688  1.00  0.00    -0.502 OA
ATOM     23  H   UNL     1     151.662  73.864  19.384  1.00  0.00     0.293 HD
ENDBRANCH   2  22
BRANCH   6  24
ATOM     24  O   UNL     1     150.889  69.909  22.689  1.00  0.00    -0.507 OA
ATOM     25  H   UNL     1     151.624  70.113  23.355  1.00  0.00     0.293 HD
ENDBRANCH   6  24
BRANCH   8  26
ATOM     26  O   UNL     1     151.510  65.642  20.488  1.00  0.00    -0.508 OA
ATOM     27  H   UNL     1     150.757  65.094  20.889  1.00  0.00     0.293 HD
ENDBRANCH   8  26
TORSDOF 6
ENDMDL
MODEL 6
REMARK VINA RESULT:    -4.213     10.621     12.699
REMARK INTER + INTRA:          -5.406
REMARK INTER:                  -5.087
REMARK INTRA:                  -0.320
REMARK UNBOUND:                -0.331
REMARK SMILES O=c1c(O)c(-c2ccc(O)c(O)c2)oc2cc(O)cc(O)c12
REMARK SMILES IDX 5 1 3 2 2 3 1 4 22 5 20 6 19 7 17 8 16 9 15 10 14 11 6 12
REMARK SMILES IDX 7 13 8 14 9 15 13 16 11 17 10 18 12 20 4 22 21 24 18 26
REMARK H PARENT 10 19 12 21 4 23 21 25 18 27
REMARK Flexibility Score: inf
ROOT
ATOM      1  C   UNL     1     156.769  82.792  17.290  1.00  0.00     0.180 A 
ATOM      2  C   UNL     1     156.807  81.440  17.685  1.00  0.00     0.208 A 
ATOM      3  C   UNL     1     155.713  80.906  18.383  1.00  0.00     0.238 A 
ATOM      4  O   UNL     1     155.732  79.694  18.732  1.00  0.00    -0.285 OA
ATOM      5  C   UNL     1     154.612  81.732  18.691  1.00  0.00     0.111 A 
ATOM      6  C   UNL     1     153.473  81.272  19.395  1.00  0.00     0.134 A 
ATOM      7  C   UNL     1     152.422  82.159  19.671  1.00  0.00     0.093 A 
ATOM      8  C   UNL     1     152.489  83.494  19.258  1.00  0.00     0.123 A 
ATOM      9  C   UNL     1     153.610  83.952  18.564  1.00  0.00     0.094 A 
ATOM     10  C   UNL     1     154.667  83.083  18.277  1.00  0.00     0.146 A 
ATOM     11  O   UNL     1     155.720  83.544  17.611  1.00  0.00    -0.452 OA
ENDROOT
BRANCH   1  12
ATOM     12  C   UNL     1     157.875  83.423  16.535  1.00  0.00     0.025 A 
ATOM     13  C   UNL     1     158.995  83.962  17.190  1.00  0.00     0.016 A 
ATOM     14  C   UNL     1     160.038  84.530  16.455  1.00  0.00     0.051 A 
ATOM     15  C   UNL     1     159.985  84.556  15.055  1.00  0.00     0.157 A 
ATOM     16  C   UNL     1     157.836  83.431  15.131  1.00  0.00     0.062 A 
ATOM     17  C   UNL     1     158.879  84.000  14.391  1.00  0.00     0.158 A 
BRANCH  15  18
ATOM     18  O   UNL     1     161.027  85.125  14.324  1.00  0.00    -0.504 OA
ATOM     19  H   UNL     1     160.892  85.964  13.773  1.00  0.00     0.293 HD
ENDBRANCH  15  18
BRANCH  17  20
ATOM     20  O   UNL     1     158.798  84.003  12.999  1.00  0.00    -0.504 OA
ATOM     21  H   UNL     1     159.238  83.287  12.433  1.00  0.00     0.293 HD
ENDBRANCH  17  20
ENDBRANCH   1  12
BRANCH   2  22
ATOM     22  O   UNL     1     157.931  80.657  17.410  1.00  0.00    -0.502 OA
ATOM     23  H   UNL     1     158.519  80.276  18.142  1.00  0.00     0.293 HD
ENDBRANCH   2  22
BRANCH   6  24
ATOM     24  O   UNL     1     153.377  79.946  19.820  1.00  0.00    -0.507 OA
ATOM     25  H   UNL     1     152.923  79.697  20.690  1.00  0.00     0.293 HD
ENDBRANCH   6  24
BRANCH   8  26
ATOM     26  O   UNL     1     151.446  84.376  19.533  1.00  0.00    -0.508 OA
ATOM     27  H   UNL     1     151.254  85.173  18.936  1.00  0.00     0.293 HD
ENDBRANCH   8  26
TORSDOF 6
ENDMDL
MODEL 7
REMARK VINA RESULT:    -4.204     10.891     13.010
REMARK INTER + INTRA:          -5.396
REMARK INTER:                  -5.093
REMARK INTRA:                  -0.302
REMARK UNBOUND:                -0.331
REMARK SMILES O=c1c(O)c(-c2ccc(O)c(O)c2)oc2cc(O)cc(O)c12
REMARK SMILES IDX 5 1 3 2 2 3 1 4 22 5 20 6 19 7 17 8 16 9 15 10 14 11 6 12
REMARK SMILES IDX 7 13 8 14 9 15 13 16 11 17 10 18 12 20 4 22 21 24 18 26
REMARK H PARENT 10 19 12 21 4 23 21 25 18 27
REMARK Flexibility Score: inf
ROOT
ATOM      1  C   UNL     1     156.249  83.055  17.585  1.00  0.00     0.180 A 
ATOM      2  C   UNL     1     155.092  83.813  17.850  1.00  0.00     0.208 A 
ATOM      3  C   UNL     1     154.041  83.219  18.565  1.00  0.00     0.238 A 
ATOM      4  O   UNL     1     153.005  83.892  18.819  1.00  0.00    -0.285 OA
ATOM      5  C   UNL     1     154.154  81.877  18.985  1.00  0.00     0.111 A 
ATOM      6  C   UNL     1     153.139  81.204  19.706  1.00  0.00     0.134 A 
ATOM      7  C   UNL     1     153.324  79.864  20.080  1.00  0.00     0.093 A 
ATOM      8  C   UNL     1     154.502  79.187  19.745  1.00  0.00     0.123 A 
ATOM      9  C   UNL     1     155.505  79.847  19.035  1.00  0.00     0.094 A 
ATOM     10  C   UNL     1     155.341  81.183  18.655  1.00  0.00     0.146 A 
ATOM     11  O   UNL     1     156.314  81.788  17.983  1.00  0.00    -0.452 OA
ENDROOT
BRANCH   1  12
ATOM     12  C   UNL     1     157.407  83.617  16.853  1.00  0.00     0.025 A 
ATOM     13  C   UNL     1     158.550  84.073  17.530  1.00  0.00     0.016 A 
ATOM     14  C   UNL     1     159.640  84.577  16.817  1.00  0.00     0.051 A 
ATOM     15  C   UNL     1     159.611  84.620  15.416  1.00  0.00     0.157 A 
ATOM     16  C   UNL     1     157.390  83.642  15.448  1.00  0.00     0.062 A 
ATOM     17  C   UNL     1     158.481  84.146  14.730  1.00  0.00     0.158 A 
BRANCH  15  18
ATOM     18  O   UNL     1     160.700  85.125  14.707  1.00  0.00    -0.504 OA
ATOM     19  H   UNL     1     161.381  85.734  15.144  1.00  0.00     0.293 HD
ENDBRANCH  15  18
BRANCH  17  20
ATOM     20  O   UNL     1     158.421  84.169  13.337  1.00  0.00    -0.504 OA
ATOM     21  H   UNL     1     158.995  83.561  12.764  1.00  0.00     0.293 HD
ENDBRANCH  17  20
ENDBRANCH   1  12
BRANCH   2  22
ATOM     22  O   UNL     1     154.985  85.125  17.381  1.00  0.00    -0.502 OA
ATOM     23  H   UNL     1     155.121  85.929  17.982  1.00  0.00     0.293 HD
ENDBRANCH   2  22
BRANCH   6  24
ATOM     24  O   UNL     1     151.953  81.852  20.053  1.00  0.00    -0.507 OA
ATOM     25  H   UNL     1     151.814  82.840  19.877  1.00  0.00     0.293 HD
ENDBRANCH   6  24
BRANCH   8  26
ATOM     26  O   UNL     1     154.685  77.856  20.115  1.00  0.00    -0.508 OA
ATOM     27  H   UNL     1     155.228  77.604  20.934  1.00  0.00     0.293 HD
ENDBRANCH   8  26
TORSDOF 6
ENDMDL
MODEL 8
REMARK VINA RESULT:    -3.981      2.913      7.230
REMARK INTER + INTRA:          -5.126
REMARK INTER:                  -4.794
REMARK INTRA:                  -0.332
REMARK UNBOUND:                -0.331
REMARK SMILES O=c1c(O)c(-c2ccc(O)c(O)c2)oc2cc(O)cc(O)c12
REMARK SMILES IDX 5 1 3 2 2 3 1 4 22 5 20 6 19 7 17 8 16 9 15 10 14 11 6 12
REMARK SMILES IDX 7 13 8 14 9 15 13 16 11 17 10 18 12 20 4 22 21 24 18 26
REMARK H PARENT 10 19 12 21 4 23 21 25 18 27
REMARK Flexibility Score: inf
ROOT
ATOM      1  C   UNL     1     169.064  81.366  17.907  1.00  0.00     0.180 A 
ATOM      2  C   UNL     1     168.630  81.747  16.622  1.00  0.00     0.208 A 
ATOM      3  C   UNL     1     168.763  80.835  15.563  1.00  0.00     0.238 A 
ATOM      4  O   UNL     1     168.368  81.161  14.411  1.00  0.00    -0.285 OA
ATOM      5  C   UNL     1     169.343  79.571  15.800  1.00  0.00     0.111 A 
ATOM      6  C   UNL     1     169.517  78.598  14.787  1.00  0.00     0.134 A 
ATOM      7  C   UNL     1     170.111  77.366  15.101  1.00  0.00     0.093 A 
ATOM      8  C   UNL     1     170.534  77.091  16.406  1.00  0.00     0.123 A 
ATOM      9  C   UNL     1     170.363  78.048  17.408  1.00  0.00     0.094 A 
ATOM     10  C   UNL     1     169.772  79.281  17.116  1.00  0.00     0.146 A 
ATOM     11  O   UNL     1     169.619  80.171  18.089  1.00  0.00    -0.452 OA
ENDROOT
BRANCH   1  12
ATOM     12  C   UNL     1     168.939  82.264  19.077  1.00  0.00     0.025 A 
ATOM     13  C   UNL     1     167.784  82.269  19.877  1.00  0.00     0.016 A 
ATOM     14  C   UNL     1     167.699  83.108  20.991  1.00  0.00     0.051 A 
ATOM     15  C   UNL     1     168.772  83.944  21.330  1.00  0.00     0.157 A 
ATOM     16  C   UNL     1     170.021  83.087  19.434  1.00  0.00     0.062 A 
ATOM     17  C   UNL     1     169.939  83.929  20.549  1.00  0.00     0.158 A 
BRANCH  15  18
ATOM     18  O   UNL     1     168.684  84.781  22.442  1.00  0.00    -0.504 OA
ATOM     19  H   UNL     1     167.976  85.502  22.508  1.00  0.00     0.293 HD
ENDBRANCH  15  18
BRANCH  17  20
ATOM     20  O   UNL     1     171.027  84.743  20.864  1.00  0.00    -0.504 OA
ATOM     21  H   UNL     1     171.970  84.378  20.932  1.00  0.00     0.293 HD
ENDBRANCH  17  20
ENDBRANCH   1  12
BRANCH   2  22
ATOM     22  O   UNL     1     168.104  83.022  16.404  1.00  0.00    -0.502 OA
ATOM     23  H   UNL     1     168.010  83.420  15.477  1.00  0.00     0.293 HD
ENDBRANCH   2  22
BRANCH   6  24
ATOM     24  O   UNL     1     169.106  78.843  13.476  1.00  0.00    -0.507 OA
ATOM     25  H   UNL     1     168.605  78.148  12.936  1.00  0.00     0.293 HD
ENDBRANCH   6  24
BRANCH   8  26
ATOM     26  O   UNL     1     171.125  75.869  16.718  1.00  0.00    -0.508 OA
ATOM     27  H   UNL     1     170.971  75.045  16.148  1.00  0.00     0.293 HD
ENDBRANCH   8  26
TORSDOF 6
ENDMDL
