MODEL 1
REMARK VINA RESULT:    -1.495      0.000      0.000
REMARK INTER + INTRA:          -0.821
REMARK INTER:                  -1.844
REMARK INTRA:                   1.023
REMARK UNBOUND:                 1.023
REMARK SMILES CC1=CC=CC(C)(C)CC1=O
REMARK SMILES IDX 1 1 2 2 3 3 10 4 11 5 9 6 4 8 5 9 6 10 7 11 8 12
REMARK H PARENT
REMARK Flexibility Score: 80.00
ROOT
ATOM      1  C   UNL     1      29.441  25.094  32.285  1.00  0.00     0.048 C 
ATOM      2  C   UNL     1      30.214  25.008  30.988  1.00  0.00    -0.008 C 
ATOM      3  C   UNL     1      29.513  24.845  29.846  1.00  0.00     0.007 C 
ENDROOT
BRANCH   2   4
ATOM      4  C   UNL     1      31.697  25.058  31.091  1.00  0.00     0.159 C 
ATOM      5  O   UNL     1      32.225  25.006  32.236  1.00  0.00    -0.295 OA
BRANCH   4   6
ATOM      6  C   UNL     1      32.619  25.125  29.911  1.00  0.00     0.091 CG0
ATOM      7  G   UNL     1      32.372  24.020  28.858  1.00  0.00     0.000 G0
ENDBRANCH   4   6
ENDBRANCH   2   4
BRANCH   3   8
ATOM      8  C   UNL     1      29.992  24.741  28.449  1.00  0.00    -0.003 C 
ATOM      9  C   UNL     1      31.217  24.434  28.007  1.00  0.00    -0.020 C 
BRANCH   9  10
ATOM     10  C   UNL     1      32.401  24.047  28.861  1.00  0.00    -0.010 CG0
ATOM     11  C   UNL     1      32.086  22.696  29.543  1.00  0.00     0.016 C 
ATOM     12  C   UNL     1      33.657  23.853  27.981  1.00  0.00     0.016 C 
ATOM     13  G   UNL     1      32.605  25.107  29.968  1.00  0.00     0.000 G0
ENDBRANCH   9  10
ENDBRANCH   3   8
TORSDOF 0
ENDMDL
MODEL 2
REMARK VINA RESULT:    -0.538     18.525     20.866
REMARK INTER + INTRA:           0.359
REMARK INTER:                  -0.474
REMARK INTRA:                   0.833
REMARK UNBOUND:                 1.023
REMARK SMILES CC1=CC=CC(C)(C)CC1=O
REMARK SMILES IDX 1 1 2 2 3 3 10 4 11 5 9 6 4 8 5 9 6 10 7 11 8 12
REMARK H PARENT
REMARK Flexibility Score: 80.00
ROOT
ATOM      1  C   UNL     1      22.732  22.728  45.398  1.00  0.00     0.048 C 
ATOM      2  C   UNL     1      21.374  22.793  46.059  1.00  0.00    -0.008 C 
ATOM      3  C   UNL     1      21.162  22.017  47.143  1.00  0.00     0.007 C 
ENDROOT
BRANCH   2   4
ATOM      4  C   UNL     1      20.362  23.675  45.419  1.00  0.00     0.159 C 
ATOM      5  O   UNL     1      20.707  24.367  44.422  1.00  0.00    -0.295 OA
BRANCH   4   6
ATOM      6  C   UNL     1      18.931  23.770  45.858  1.00  0.00     0.091 CG0
ATOM      7  G   UNL     1      18.756  24.043  47.369  1.00  0.00     0.000 G0
ENDBRANCH   4   6
ENDBRANCH   2   4
BRANCH   3   8
ATOM      8  C   UNL     1      19.955  21.882  47.989  1.00  0.00    -0.003 C 
ATOM      9  C   UNL     1      18.932  22.733  48.125  1.00  0.00    -0.020 C 
BRANCH   9  10
ATOM     10  C   UNL     1      18.743  24.028  47.370  1.00  0.00    -0.010 CG0
ATOM     11  C   UNL     1      17.285  24.499  47.574  1.00  0.00     0.016 C 
ATOM     12  C   UNL     1      19.679  25.120  47.936  1.00  0.00     0.016 C 
ATOM     13  G   UNL     1      18.961  23.777  45.860  1.00  0.00     0.000 G0
ENDBRANCH   9  10
ENDBRANCH   3   8
TORSDOF 0
ENDMDL
MODEL 3
REMARK VINA RESULT:     0.089     19.612     20.795
REMARK INTER + INTRA:           1.133
REMARK INTER:                   0.258
REMARK INTRA:                   0.876
REMARK UNBOUND:                 1.023
REMARK SMILES CC1=CC=CC(C)(C)CC1=O
REMARK SMILES IDX 1 1 2 2 3 3 10 4 11 5 9 6 4 8 5 9 6 10 7 11 8 12
REMARK H PARENT
REMARK Flexibility Score: 80.00
ROOT
ATOM      1  C   UNL     1      17.077  25.049  43.640  1.00  0.00     0.048 C 
ATOM      2  C   UNL     1      17.744  24.788  44.971  1.00  0.00    -0.008 C 
ATOM      3  C   UNL     1      16.951  24.607  46.049  1.00  0.00     0.007 C 
ENDROOT
BRANCH   2   4
ATOM      4  C   UNL     1      19.231  24.806  44.988  1.00  0.00     0.159 C 
ATOM      5  O   UNL     1      19.846  24.951  43.896  1.00  0.00    -0.295 OA
BRANCH   4   6
ATOM      6  C   UNL     1      20.059  24.704  46.234  1.00  0.00     0.091 CG0
ATOM      7  G   UNL     1      19.707  23.489  47.123  1.00  0.00     0.000 G0
ENDBRANCH   4   6
ENDBRANCH   2   4
BRANCH   3   8
ATOM      8  C   UNL     1      17.316  24.328  47.456  1.00  0.00    -0.003 C 
ATOM      9  C   UNL     1      18.461  23.832  47.938  1.00  0.00    -0.020 C 
BRANCH   9  10
ATOM     10  C   UNL     1      19.697  23.500  47.136  1.00  0.00    -0.010 CG0
ATOM     11  C   UNL     1      20.861  23.251  48.122  1.00  0.00     0.016 C 
ATOM     12  C   UNL     1      19.477  22.204  46.323  1.00  0.00     0.016 C 
ATOM     13  G   UNL     1      20.070  24.708  46.247  1.00  0.00     0.000 G0
ENDBRANCH   9  10
ENDBRANCH   3   8
TORSDOF 0
ENDMDL
