MODEL 1
REMARK VINA RESULT:    -3.629      0.000      0.000
REMARK INTER + INTRA:          -5.346
REMARK INTER:                  -4.901
REMARK INTRA:                  -0.445
REMARK UNBOUND:                -0.445
REMARK SMILES CCCCCCCC(=O)[O-]
REMARK SMILES IDX 5 1 6 2 7 3 8 4 9 5 10 6 4 7 3 8 2 9 1 10
REMARK H PARENT
REMARK Flexibility Score: inf
ROOT
ATOM      1  C   UNL     1      -4.922   8.410  -4.609  1.00  0.00     0.000 C 
ENDROOT
BRANCH   1   2
ATOM      2  C   UNL     1      -6.110   9.226  -5.133  1.00  0.00     0.006 C 
BRANCH   2   3
ATOM      3  C   UNL     1      -7.193   9.373  -4.060  1.00  0.00     0.053 C 
BRANCH   3   4
ATOM      4  C   UNL     1      -8.358   8.486  -4.366  1.00  0.00     0.041 C 
ATOM      5  O   UNL     1      -9.310   8.384  -3.548  1.00  0.00    -0.550 OA
ATOM      6  O   UNL     1      -8.414   7.807  -5.576  1.00  0.00    -0.550 OA
ENDBRANCH   3   4
ENDBRANCH   2   3
ENDBRANCH   1   2
BRANCH   1   7
ATOM      7  C   UNL     1      -5.037   8.185  -3.094  1.00  0.00     0.000 C 
BRANCH   7   8
ATOM      8  C   UNL     1      -4.667   6.751  -2.679  1.00  0.00    -0.000 C 
BRANCH   8   9
ATOM      9  C   UNL     1      -5.338   5.689  -3.562  1.00  0.00    -0.003 C 
ATOM     10  C   UNL     1      -6.832   5.594  -3.268  1.00  0.00     0.004 C 
ENDBRANCH   8   9
ENDBRANCH   7   8
ENDBRANCH   1   7
TORSDOF 6
ENDMDL
MODEL 2
REMARK VINA RESULT:    -3.541      2.177      3.917
REMARK INTER + INTRA:          -5.228
REMARK INTER:                  -4.696
REMARK INTRA:                  -0.532
REMARK UNBOUND:                -0.445
REMARK SMILES CCCCCCCC(=O)[O-]
REMARK SMILES IDX 5 1 6 2 7 3 8 4 9 5 10 6 4 7 3 8 2 9 1 10
REMARK H PARENT
REMARK Flexibility Score: inf
ROOT
ATOM      1  C   UNL     1      -6.135   5.672  -3.506  1.00  0.00     0.000 C 
ENDROOT
BRANCH   1   2
ATOM      2  C   UNL     1      -4.978   6.609  -3.138  1.00  0.00     0.006 C 
BRANCH   2   3
ATOM      3  C   UNL     1      -4.158   6.984  -4.377  1.00  0.00     0.053 C 
BRANCH   3   4
ATOM      4  C   UNL     1      -4.547   8.342  -4.869  1.00  0.00     0.041 C 
ATOM      5  O   UNL     1      -4.515   8.603  -6.101  1.00  0.00    -0.550 OA
ATOM      6  O   UNL     1      -4.988   9.307  -3.973  1.00  0.00    -0.550 OA
ENDBRANCH   3   4
ENDBRANCH   2   3
ENDBRANCH   1   2
BRANCH   1   7
ATOM      7  C   UNL     1      -7.487   6.293  -3.128  1.00  0.00     0.000 C 
BRANCH   7   8
ATOM      8  C   UNL     1      -7.935   7.382  -4.116  1.00  0.00    -0.000 C 
BRANCH   8   9
ATOM      9  C   UNL     1      -8.622   8.566  -3.420  1.00  0.00    -0.003 C 
ATOM     10  C   UNL     1      -7.981   8.853  -2.066  1.00  0.00     0.004 C 
ENDBRANCH   8   9
ENDBRANCH   7   8
ENDBRANCH   1   7
TORSDOF 6
ENDMDL
MODEL 3
REMARK VINA RESULT:    -3.531      2.592      3.384
REMARK INTER + INTRA:          -5.214
REMARK INTER:                  -4.671
REMARK INTRA:                  -0.543
REMARK UNBOUND:                -0.445
REMARK SMILES CCCCCCCC(=O)[O-]
REMARK SMILES IDX 5 1 6 2 7 3 8 4 9 5 10 6 4 7 3 8 2 9 1 10
REMARK H PARENT
REMARK Flexibility Score: inf
ROOT
ATOM      1  C   UNL     1      -8.088   7.437  -2.611  1.00  0.00     0.000 C 
ENDROOT
BRANCH   1   2
ATOM      2  C   UNL     1      -7.803   8.944  -2.652  1.00  0.00     0.006 C 
BRANCH   2   3
ATOM      3  C   UNL     1      -6.806   9.344  -1.559  1.00  0.00     0.053 C 
BRANCH   3   4
ATOM      4  C   UNL     1      -5.403   9.224  -2.063  1.00  0.00     0.041 C 
ATOM      5  O   UNL     1      -4.502   8.744  -1.324  1.00  0.00    -0.550 OA
ATOM      6  O   UNL     1      -5.097   9.598  -3.365  1.00  0.00    -0.550 OA
ENDBRANCH   3   4
ENDBRANCH   2   3
ENDBRANCH   1   2
BRANCH   1   7
ATOM      7  C   UNL     1      -7.480   6.730  -3.831  1.00  0.00     0.000 C 
BRANCH   7   8
ATOM      8  C   UNL     1      -6.429   5.677  -3.442  1.00  0.00    -0.000 C 
BRANCH   8   9
ATOM      9  C   UNL     1      -5.008   6.077  -3.864  1.00  0.00    -0.003 C 
ATOM     10  C   UNL     1      -3.977   5.593  -2.849  1.00  0.00     0.004 C 
ENDBRANCH   8   9
ENDBRANCH   7   8
ENDBRANCH   1   7
TORSDOF 6
ENDMDL
MODEL 4
REMARK VINA RESULT:    -3.510      2.799      4.096
REMARK INTER + INTRA:          -5.186
REMARK INTER:                  -4.669
REMARK INTRA:                  -0.517
REMARK UNBOUND:                -0.445
REMARK SMILES CCCCCCCC(=O)[O-]
REMARK SMILES IDX 5 1 6 2 7 3 8 4 9 5 10 6 4 7 3 8 2 9 1 10
REMARK H PARENT
REMARK Flexibility Score: inf
ROOT
ATOM      1  C   UNL     1      -7.631   6.973  -4.271  1.00  0.00     0.000 C 
ENDROOT
BRANCH   1   2
ATOM      2  C   UNL     1      -6.963   6.108  -3.195  1.00  0.00     0.006 C 
BRANCH   2   3
ATOM      3  C   UNL     1      -5.492   5.846  -3.534  1.00  0.00     0.053 C 
BRANCH   3   4
ATOM      4  C   UNL     1      -4.725   7.129  -3.560  1.00  0.00     0.041 C 
ATOM      5  O   UNL     1      -4.528   7.772  -2.494  1.00  0.00    -0.550 OA
ATOM      6  O   UNL     1      -4.186   7.593  -4.753  1.00  0.00    -0.550 OA
ENDBRANCH   3   4
ENDBRANCH   2   3
ENDBRANCH   1   2
BRANCH   1   7
ATOM      7  C   UNL     1      -8.258   8.231  -3.652  1.00  0.00     0.000 C 
BRANCH   7   8
ATOM      8  C   UNL     1      -8.025   8.325  -2.135  1.00  0.00    -0.000 C 
BRANCH   8   9
ATOM      9  C   UNL     1      -9.334   8.438  -1.342  1.00  0.00    -0.003 C 
ATOM     10  C   UNL     1      -9.918   7.060  -1.046  1.00  0.00     0.004 C 
ENDBRANCH   8   9
ENDBRANCH   7   8
ENDBRANCH   1   7
TORSDOF 6
ENDMDL
MODEL 5
REMARK VINA RESULT:    -3.482      2.401      3.663
REMARK INTER + INTRA:          -5.148
REMARK INTER:                  -4.640
REMARK INTRA:                  -0.508
REMARK UNBOUND:                -0.445
REMARK SMILES CCCCCCCC(=O)[O-]
REMARK SMILES IDX 5 1 6 2 7 3 8 4 9 5 10 6 4 7 3 8 2 9 1 10
REMARK H PARENT
REMARK Flexibility Score: inf
ROOT
ATOM      1  C   UNL     1      -5.517   5.944  -3.489  1.00  0.00     0.000 C 
ENDROOT
BRANCH   1   2
ATOM      2  C   UNL     1      -4.474   7.057  -3.650  1.00  0.00     0.006 C 
BRANCH   2   3
ATOM      3  C   UNL     1      -5.142   8.435  -3.686  1.00  0.00     0.053 C 
BRANCH   3   4
ATOM      4  C   UNL     1      -5.186   9.030  -2.314  1.00  0.00     0.041 C 
ATOM      5  O   UNL     1      -5.892  10.048  -2.087  1.00  0.00    -0.550 OA
ATOM      6  O   UNL     1      -4.484   8.433  -1.275  1.00  0.00    -0.550 OA
ENDBRANCH   3   4
ENDBRANCH   2   3
ENDBRANCH   1   2
BRANCH   1   7
ATOM      7  C   UNL     1      -6.914   6.436  -3.896  1.00  0.00     0.000 C 
BRANCH   7   8
ATOM      8  C   UNL     1      -7.975   6.165  -2.817  1.00  0.00    -0.000 C 
BRANCH   8   9
ATOM      9  C   UNL     1      -8.598   7.455  -2.264  1.00  0.00    -0.003 C 
ATOM     10  C   UNL     1      -8.808   8.482  -3.372  1.00  0.00     0.004 C 
ENDBRANCH   8   9
ENDBRANCH   7   8
ENDBRANCH   1   7
TORSDOF 6
ENDMDL
MODEL 6
REMARK VINA RESULT:    -3.468      2.002      3.267
REMARK INTER + INTRA:          -5.129
REMARK INTER:                  -4.695
REMARK INTRA:                  -0.434
REMARK UNBOUND:                -0.445
REMARK SMILES CCCCCCCC(=O)[O-]
REMARK SMILES IDX 5 1 6 2 7 3 8 4 9 5 10 6 4 7 3 8 2 9 1 10
REMARK H PARENT
REMARK Flexibility Score: inf
ROOT
ATOM      1  C   UNL     1      -4.878   7.578  -2.376  1.00  0.00     0.000 C 
ENDROOT
BRANCH   1   2
ATOM      2  C   UNL     1      -5.048   6.728  -3.641  1.00  0.00     0.006 C 
BRANCH   2   3
ATOM      3  C   UNL     1      -6.129   5.660  -3.445  1.00  0.00     0.053 C 
BRANCH   3   4
ATOM      4  C   UNL     1      -7.491   6.264  -3.576  1.00  0.00     0.041 C 
ATOM      5  O   UNL     1      -8.325   6.158  -2.638  1.00  0.00    -0.550 OA
ATOM      6  O   UNL     1      -7.825   6.986  -4.715  1.00  0.00    -0.550 OA
ENDBRANCH   3   4
ENDBRANCH   2   3
ENDBRANCH   1   2
BRANCH   1   7
ATOM      7  C   UNL     1      -5.259   9.042  -2.643  1.00  0.00     0.000 C 
BRANCH   7   8
ATOM      8  C   UNL     1      -6.067   9.663  -1.492  1.00  0.00    -0.000 C 
BRANCH   8   9
ATOM      9  C   UNL     1      -7.579   9.445  -1.647  1.00  0.00    -0.003 C 
ATOM     10  C   UNL     1      -8.273   9.429  -0.288  1.00  0.00     0.004 C 
ENDBRANCH   8   9
ENDBRANCH   7   8
ENDBRANCH   1   7
TORSDOF 6
ENDMDL
MODEL 7
REMARK VINA RESULT:    -3.458     18.711     19.961
REMARK INTER + INTRA:          -5.116
REMARK INTER:                  -4.811
REMARK INTRA:                  -0.305
REMARK UNBOUND:                -0.445
REMARK SMILES CCCCCCCC(=O)[O-]
REMARK SMILES IDX 5 1 6 2 7 3 8 4 9 5 10 6 4 7 3 8 2 9 1 10
REMARK H PARENT
REMARK Flexibility Score: inf
ROOT
ATOM      1  C   UNL     1       1.899  -7.506   4.693  1.00  0.00     0.000 C 
ENDROOT
BRANCH   1   2
ATOM      2  C   UNL     1       1.080  -8.658   4.099  1.00  0.00     0.006 C 
BRANCH   2   3
ATOM      3  C   UNL     1      -0.156  -8.952   4.955  1.00  0.00     0.053 C 
BRANCH   3   4
ATOM      4  C   UNL     1      -1.235  -7.954   4.677  1.00  0.00     0.041 C 
ATOM      5  O   UNL     1      -1.656  -7.201   5.594  1.00  0.00    -0.550 OA
ATOM      6  O   UNL     1      -1.744  -7.822   3.391  1.00  0.00    -0.550 OA
ENDBRANCH   3   4
ENDBRANCH   2   3
ENDBRANCH   1   2
BRANCH   1   7
ATOM      7  C   UNL     1       3.400  -7.829   4.668  1.00  0.00     0.000 C 
BRANCH   7   8
ATOM      8  C   UNL     1       3.738  -8.997   3.726  1.00  0.00    -0.000 C 
BRANCH   8   9
ATOM      9  C   UNL     1       5.231  -9.056   3.371  1.00  0.00    -0.003 C 
ATOM     10  C   UNL     1       5.954  -7.792   3.824  1.00  0.00     0.004 C 
ENDBRANCH   8   9
ENDBRANCH   7   8
ENDBRANCH   1   7
TORSDOF 6
ENDMDL
MODEL 8
REMARK VINA RESULT:    -3.353     12.036     13.289
REMARK INTER + INTRA:          -4.973
REMARK INTER:                  -4.801
REMARK INTRA:                  -0.172
REMARK UNBOUND:                -0.445
REMARK SMILES CCCCCCCC(=O)[O-]
REMARK SMILES IDX 5 1 6 2 7 3 8 4 9 5 10 6 4 7 3 8 2 9 1 10
REMARK H PARENT
REMARK Flexibility Score: inf
ROOT
ATOM      1  C   UNL     1       2.188   7.573   7.381  1.00  0.00     0.000 C 
ENDROOT
BRANCH   1   2
ATOM      2  C   UNL     1       0.960   8.467   7.166  1.00  0.00     0.006 C 
BRANCH   2   3
ATOM      3  C   UNL     1      -0.313   7.783   7.673  1.00  0.00     0.053 C 
BRANCH   3   4
ATOM      4  C   UNL     1      -1.510   8.290   6.931  1.00  0.00     0.041 C 
ATOM      5  O   UNL     1      -1.863   9.493   7.044  1.00  0.00    -0.550 OA
ATOM      6  O   UNL     1      -2.207   7.444   6.078  1.00  0.00    -0.550 OA
ENDBRANCH   3   4
ENDBRANCH   2   3
ENDBRANCH   1   2
BRANCH   1   7
ATOM      7  C   UNL     1       3.188   7.727   6.225  1.00  0.00     0.000 C 
BRANCH   7   8
ATOM      8  C   UNL     1       4.137   6.523   6.099  1.00  0.00    -0.000 C 
BRANCH   8   9
ATOM      9  C   UNL     1       3.403   5.230   5.716  1.00  0.00    -0.003 C 
ATOM     10  C   UNL     1       4.292   4.325   4.868  1.00  0.00     0.004 C 
ENDBRANCH   8   9
ENDBRANCH   7   8
ENDBRANCH   1   7
TORSDOF 6
ENDMDL
MODEL 9
REMARK VINA RESULT:    -3.317      1.303      2.602
REMARK INTER + INTRA:          -4.925
REMARK INTER:                  -4.290
REMARK INTRA:                  -0.636
REMARK UNBOUND:                -0.445
REMARK SMILES CCCCCCCC(=O)[O-]
REMARK SMILES IDX 5 1 6 2 7 3 8 4 9 5 10 6 4 7 3 8 2 9 1 10
REMARK H PARENT
REMARK Flexibility Score: inf
ROOT
ATOM      1  C   UNL     1      -7.720   7.471  -2.390  1.00  0.00     0.000 C 
ENDROOT
BRANCH   1   2
ATOM      2  C   UNL     1      -8.744   8.311  -3.163  1.00  0.00     0.006 C 
BRANCH   2   3
ATOM      3  C   UNL     1      -8.050   9.386  -4.005  1.00  0.00     0.053 C 
BRANCH   3   4
ATOM      4  C   UNL     1      -7.827   8.894  -5.400  1.00  0.00     0.041 C 
ATOM      5  O   UNL     1      -6.964   9.442  -6.136  1.00  0.00    -0.550 OA
ATOM      6  O   UNL     1      -8.538   7.798  -5.872  1.00  0.00    -0.550 OA
ENDBRANCH   3   4
ENDBRANCH   2   3
ENDBRANCH   1   2
BRANCH   1   7
ATOM      7  C   UNL     1      -7.576   6.074  -3.011  1.00  0.00     0.000 C 
BRANCH   7   8
ATOM      8  C   UNL     1      -6.159   5.807  -3.545  1.00  0.00    -0.000 C 
BRANCH   8   9
ATOM      9  C   UNL     1      -5.145   6.866  -3.087  1.00  0.00    -0.003 C 
ATOM     10  C   UNL     1      -4.508   7.568  -4.282  1.00  0.00     0.004 C 
ENDBRANCH   8   9
ENDBRANCH   7   8
ENDBRANCH   1   7
TORSDOF 6
ENDMDL
