MODEL 1
REMARK VINA RESULT:    -2.987      0.000      0.000
REMARK INTER + INTRA:          -3.249
REMARK INTER:                  -3.249
REMARK INTRA:                   0.000
REMARK UNBOUND:                 0.000
REMARK SMILES Oc1cccc(O)c1O
REMARK SMILES IDX 4 1 5 2 6 3 8 4 2 5 3 6 7 7 1 9 9 11
REMARK H PARENT 7 8 1 10 9 12
REMARK Flexibility Score: inf
ROOT
ATOM      1  C   UNL     1       0.012  27.315  31.635  1.00  0.00     0.008 A 
ATOM      2  C   UNL     1      -0.027  26.501  32.767  1.00  0.00     0.050 A 
ATOM      3  C   UNL     1      -0.073  27.063  34.049  1.00  0.00     0.161 A 
ATOM      4  C   UNL     1      -0.080  28.474  34.193  1.00  0.00     0.200 A 
ATOM      5  C   UNL     1      -0.040  29.286  33.043  1.00  0.00     0.161 A 
ATOM      6  C   UNL     1       0.007  28.703  31.773  1.00  0.00     0.050 A 
ENDROOT
BRANCH   3   7
ATOM      7  O   UNL     1      -0.112  26.191  35.139  1.00  0.00    -0.504 OA
ATOM      8  H   UNL     1      -0.823  26.210  35.855  1.00  0.00     0.293 HD
ENDBRANCH   3   7
BRANCH   5   9
ATOM      9  O   UNL     1      -0.044  30.677  33.142  1.00  0.00    -0.504 OA
ATOM     10  H   UNL     1       0.724  31.193  33.553  1.00  0.00     0.293 HD
ENDBRANCH   5   9
BRANCH   4  11
ATOM     11  O   UNL     1      -0.125  29.094  35.444  1.00  0.00    -0.502 OA
ATOM     12  H   UNL     1       0.618  29.049  36.126  1.00  0.00     0.293 HD
ENDBRANCH   4  11
TORSDOF 3
ENDMDL
MODEL 2
REMARK VINA RESULT:    -2.932      4.041      5.642
REMARK INTER + INTRA:          -3.190
REMARK INTER:                  -3.190
REMARK INTRA:                   0.000
REMARK UNBOUND:                 0.000
REMARK SMILES Oc1cccc(O)c1O
REMARK SMILES IDX 4 1 5 2 6 3 8 4 2 5 3 6 7 7 1 9 9 11
REMARK H PARENT 7 8 1 10 9 12
REMARK Flexibility Score: inf
ROOT
ATOM      1  C   UNL     1       0.055  27.677  31.315  1.00  0.00     0.008 A 
ATOM      2  C   UNL     1       0.057  28.643  30.309  1.00  0.00     0.050 A 
ATOM      3  C   UNL     1      -0.002  28.270  28.961  1.00  0.00     0.161 A 
ATOM      4  C   UNL     1      -0.064  26.894  28.620  1.00  0.00     0.200 A 
ATOM      5  C   UNL     1      -0.065  25.927  29.644  1.00  0.00     0.161 A 
ATOM      6  C   UNL     1      -0.005  26.324  30.983  1.00  0.00     0.050 A 
ENDROOT
BRANCH   3   7
ATOM      7  O   UNL     1       0.003  29.286  28.004  1.00  0.00    -0.504 OA
ATOM      8  H   UNL     1      -0.699  30.009  27.942  1.00  0.00     0.293 HD
ENDBRANCH   3   7
BRANCH   5   9
ATOM      9  O   UNL     1      -0.125  24.565  29.350  1.00  0.00    -0.504 OA
ATOM     10  H   UNL     1       0.619  24.085  28.859  1.00  0.00     0.293 HD
ENDBRANCH   5   9
BRANCH   4  11
ATOM     11  O   UNL     1      -0.125  26.458  27.293  1.00  0.00    -0.502 OA
ATOM     12  H   UNL     1      -0.878  26.678  26.658  1.00  0.00     0.293 HD
ENDBRANCH   4  11
TORSDOF 3
ENDMDL
MODEL 3
REMARK VINA RESULT:    -2.901      3.093      3.929
REMARK INTER + INTRA:          -3.155
REMARK INTER:                  -3.155
REMARK INTRA:                   0.000
REMARK UNBOUND:                 0.000
REMARK SMILES Oc1cccc(O)c1O
REMARK SMILES IDX 4 1 5 2 6 3 8 4 2 5 3 6 7 7 1 9 9 11
REMARK H PARENT 7 8 1 10 9 12
REMARK Flexibility Score: inf
ROOT
ATOM      1  C   UNL     1      -0.089  28.148  28.220  1.00  0.00     0.008 A 
ATOM      2  C   UNL     1      -0.097  26.755  28.290  1.00  0.00     0.050 A 
ATOM      3  C   UNL     1      -0.109  26.104  29.529  1.00  0.00     0.161 A 
ATOM      4  C   UNL     1      -0.113  26.871  30.722  1.00  0.00     0.200 A 
ATOM      5  C   UNL     1      -0.105  28.277  30.639  1.00  0.00     0.161 A 
ATOM      6  C   UNL     1      -0.093  28.907  29.390  1.00  0.00     0.050 A 
ENDROOT
BRANCH   3   7
ATOM      7  O   UNL     1      -0.117  24.708  29.529  1.00  0.00    -0.504 OA
ATOM      8  H   UNL     1      -0.582  24.143  30.224  1.00  0.00     0.293 HD
ENDBRANCH   3   7
BRANCH   5   9
ATOM      9  O   UNL     1      -0.109  29.068  31.788  1.00  0.00    -0.504 OA
ATOM     10  H   UNL     1      -0.747  28.902  32.556  1.00  0.00     0.293 HD
ENDBRANCH   5   9
BRANCH   4  11
ATOM     11  O   UNL     1      -0.125  26.280  31.988  1.00  0.00    -0.502 OA
ATOM     12  H   UNL     1      -0.608  25.421  32.208  1.00  0.00     0.293 HD
ENDBRANCH   4  11
TORSDOF 3
ENDMDL
MODEL 4
REMARK VINA RESULT:    -2.865      0.298      2.837
REMARK INTER + INTRA:          -3.116
REMARK INTER:                  -3.116
REMARK INTRA:                   0.000
REMARK UNBOUND:                 0.000
REMARK SMILES Oc1cccc(O)c1O
REMARK SMILES IDX 4 1 5 2 6 3 8 4 2 5 3 6 7 7 1 9 9 11
REMARK H PARENT 7 8 1 10 9 12
REMARK Flexibility Score: inf
ROOT
ATOM      1  C   UNL     1      -0.087  27.698  31.496  1.00  0.00     0.008 A 
ATOM      2  C   UNL     1      -0.100  29.071  31.741  1.00  0.00     0.050 A 
ATOM      3  C   UNL     1      -0.113  29.562  33.051  1.00  0.00     0.161 A 
ATOM      4  C   UNL     1      -0.113  28.651  34.138  1.00  0.00     0.200 A 
ATOM      5  C   UNL     1      -0.100  27.266  33.880  1.00  0.00     0.161 A 
ATOM      6  C   UNL     1      -0.088  26.798  32.562  1.00  0.00     0.050 A 
ENDROOT
BRANCH   3   7
ATOM      7  O   UNL     1      -0.125  30.947  33.226  1.00  0.00    -0.504 OA
ATOM      8  H   UNL     1      -0.965  31.501  33.308  1.00  0.00     0.293 HD
ENDBRANCH   3   7
BRANCH   5   9
ATOM      9  O   UNL     1      -0.099  26.338  34.921  1.00  0.00    -0.504 OA
ATOM     10  H   UNL     1      -0.814  26.329  35.638  1.00  0.00     0.293 HD
ENDBRANCH   5   9
BRANCH   4  11
ATOM     11  O   UNL     1      -0.125  29.079  35.469  1.00  0.00    -0.502 OA
ATOM     12  H   UNL     1       0.695  29.131  36.055  1.00  0.00     0.293 HD
ENDBRANCH   4  11
TORSDOF 3
ENDMDL
MODEL 5
REMARK VINA RESULT:    -2.839      3.256      4.668
REMARK INTER + INTRA:          -3.088
REMARK INTER:                  -3.088
REMARK INTRA:                   0.000
REMARK UNBOUND:                 0.000
REMARK SMILES Oc1cccc(O)c1O
REMARK SMILES IDX 4 1 5 2 6 3 8 4 2 5 3 6 7 7 1 9 9 11
REMARK H PARENT 7 8 1 10 9 12
REMARK Flexibility Score: inf
ROOT
ATOM      1  C   UNL     1      -0.120  28.159  28.069  1.00  0.00     0.008 A 
ATOM      2  C   UNL     1      -0.118  28.887  29.258  1.00  0.00     0.050 A 
ATOM      3  C   UNL     1      -0.118  28.232  30.496  1.00  0.00     0.161 A 
ATOM      4  C   UNL     1      -0.119  26.814  30.535  1.00  0.00     0.200 A 
ATOM      5  C   UNL     1      -0.121  26.089  29.327  1.00  0.00     0.161 A 
ATOM      6  C   UNL     1      -0.122  26.764  28.103  1.00  0.00     0.050 A 
ENDROOT
BRANCH   3   7
ATOM      7  O   UNL     1      -0.116  29.020  31.647  1.00  0.00    -0.504 OA
ATOM      8  H   UNL     1       0.094  28.673  32.572  1.00  0.00     0.293 HD
ENDBRANCH   3   7
BRANCH   5   9
ATOM      9  O   UNL     1      -0.122  24.695  29.324  1.00  0.00    -0.504 OA
ATOM     10  H   UNL     1       0.055  24.151  30.159  1.00  0.00     0.293 HD
ENDBRANCH   5   9
BRANCH   4  11
ATOM     11  O   UNL     1      -0.119  26.103  31.738  1.00  0.00    -0.502 OA
ATOM     12  H   UNL     1       0.216  26.473  32.615  1.00  0.00     0.293 HD
ENDBRANCH   4  11
TORSDOF 3
ENDMDL
MODEL 6
REMARK VINA RESULT:    -2.652      1.925      2.736
REMARK INTER + INTRA:          -2.885
REMARK INTER:                  -2.885
REMARK INTRA:                   0.000
REMARK UNBOUND:                 0.000
REMARK SMILES Oc1cccc(O)c1O
REMARK SMILES IDX 4 1 5 2 6 3 8 4 2 5 3 6 7 7 1 9 9 11
REMARK H PARENT 7 8 1 10 9 12
REMARK Flexibility Score: inf
ROOT
ATOM      1  C   UNL     1      -0.038  29.290  33.752  1.00  0.00     0.008 A 
ATOM      2  C   UNL     1      -0.031  27.992  34.262  1.00  0.00     0.050 A 
ATOM      3  C   UNL     1      -0.055  26.887  33.402  1.00  0.00     0.161 A 
ATOM      4  C   UNL     1      -0.086  27.095  32.000  1.00  0.00     0.200 A 
ATOM      5  C   UNL     1      -0.093  28.410  31.496  1.00  0.00     0.161 A 
ATOM      6  C   UNL     1      -0.070  29.498  32.373  1.00  0.00     0.050 A 
ENDROOT
BRANCH   3   7
ATOM      7  O   UNL     1      -0.045  25.616  33.978  1.00  0.00    -0.504 OA
ATOM      8  H   UNL     1       0.784  25.049  34.088  1.00  0.00     0.293 HD
ENDBRANCH   3   7
BRANCH   5   9
ATOM      9  O   UNL     1      -0.124  28.657  30.124  1.00  0.00    -0.504 OA
ATOM     10  H   UNL     1      -0.914  28.398  29.545  1.00  0.00     0.293 HD
ENDBRANCH   5   9
BRANCH   4  11
ATOM     11  O   UNL     1      -0.110  26.034  31.090  1.00  0.00    -0.502 OA
ATOM     12  H   UNL     1       0.299  25.128  31.265  1.00  0.00     0.293 HD
ENDBRANCH   4  11
TORSDOF 3
ENDMDL
MODEL 7
REMARK VINA RESULT:    -2.625      2.738      4.364
REMARK INTER + INTRA:          -2.855
REMARK INTER:                  -2.855
REMARK INTRA:                   0.000
REMARK UNBOUND:                 0.000
REMARK SMILES Oc1cccc(O)c1O
REMARK SMILES IDX 4 1 5 2 6 3 8 4 2 5 3 6 7 7 1 9 9 11
REMARK H PARENT 7 8 1 10 9 12
REMARK Flexibility Score: inf
ROOT
ATOM      1  C   UNL     1      -0.108  25.864  29.189  1.00  0.00     0.008 A 
ATOM      2  C   UNL     1      -0.108  27.051  28.457  1.00  0.00     0.050 A 
ATOM      3  C   UNL     1      -0.113  28.291  29.107  1.00  0.00     0.161 A 
ATOM      4  C   UNL     1      -0.117  28.336  30.524  1.00  0.00     0.200 A 
ATOM      5  C   UNL     1      -0.117  27.131  31.254  1.00  0.00     0.161 A 
ATOM      6  C   UNL     1      -0.113  25.904  30.583  1.00  0.00     0.050 A 
ENDROOT
BRANCH   3   7
ATOM      7  O   UNL     1      -0.112  29.440  28.314  1.00  0.00    -0.504 OA
ATOM      8  H   UNL     1      -0.608  29.525  27.439  1.00  0.00     0.293 HD
ENDBRANCH   3   7
BRANCH   5   9
ATOM      9  O   UNL     1      -0.121  27.133  32.648  1.00  0.00    -0.504 OA
ATOM     10  H   UNL     1       0.688  26.860  33.192  1.00  0.00     0.293 HD
ENDBRANCH   5   9
BRANCH   4  11
ATOM     11  O   UNL     1      -0.121  29.541  31.231  1.00  0.00    -0.502 OA
ATOM     12  H   UNL     1       0.536  29.772  31.962  1.00  0.00     0.293 HD
ENDBRANCH   4  11
TORSDOF 3
ENDMDL
MODEL 8
REMARK VINA RESULT:    -2.475      3.204      4.056
REMARK INTER + INTRA:          -2.692
REMARK INTER:                  -2.692
REMARK INTRA:                   0.000
REMARK UNBOUND:                 0.000
REMARK SMILES Oc1cccc(O)c1O
REMARK SMILES IDX 4 1 5 2 6 3 8 4 2 5 3 6 7 7 1 9 9 11
REMARK H PARENT 7 8 1 10 9 12
REMARK Flexibility Score: inf
ROOT
ATOM      1  C   UNL     1      -0.050  26.435  28.014  1.00  0.00     0.008 A 
ATOM      2  C   UNL     1      -0.076  26.037  29.351  1.00  0.00     0.050 A 
ATOM      3  C   UNL     1      -0.097  26.988  30.378  1.00  0.00     0.161 A 
ATOM      4  C   UNL     1      -0.091  28.368  30.051  1.00  0.00     0.200 A 
ATOM      5  C   UNL     1      -0.065  28.758  28.698  1.00  0.00     0.161 A 
ATOM      6  C   UNL     1      -0.044  27.791  27.689  1.00  0.00     0.050 A 
ENDROOT
BRANCH   3   7
ATOM      7  O   UNL     1      -0.123  26.523  31.693  1.00  0.00    -0.504 OA
ATOM      8  H   UNL     1      -0.928  26.093  32.127  1.00  0.00     0.293 HD
ENDBRANCH   3   7
BRANCH   5   9
ATOM      9  O   UNL     1      -0.058  30.105  28.335  1.00  0.00    -0.504 OA
ATOM     10  H   UNL     1      -0.275  30.413  27.395  1.00  0.00     0.293 HD
ENDBRANCH   5   9
BRANCH   4  11
ATOM     11  O   UNL     1      -0.112  29.366  31.030  1.00  0.00    -0.502 OA
ATOM     12  H   UNL     1      -0.680  29.330  31.864  1.00  0.00     0.293 HD
ENDBRANCH   4  11
TORSDOF 3
ENDMDL
