MODEL 1
REMARK VINA RESULT:    -5.210      0.000      0.000
REMARK INTER + INTRA:          -7.992
REMARK INTER:                  -7.037
REMARK INTRA:                  -0.955
REMARK UNBOUND:                -0.955
REMARK SMILES CC(=O)CCC=C(C)CCC=C(C)C
REMARK SMILES IDX 7 1 6 2 8 3 9 4 10 5 11 6 13 7 12 8 14 9 5 10 4 11 2 12 3 13
REMARK SMILES IDX 1 14
REMARK H PARENT
REMARK Flexibility Score: inf
ROOT
ATOM      1  C   UNL     1      -2.762 -13.778  -8.394  1.00  0.00    -0.077 C 
ATOM      2  C   UNL     1      -2.200 -13.917  -7.175  1.00  0.00    -0.028 C 
ATOM      3  C   UNL     1      -3.516 -14.913  -9.047  1.00  0.00     0.039 C 
ENDROOT
BRANCH   1   4
ATOM      4  C   UNL     1      -2.636 -12.457  -9.125  1.00  0.00     0.034 C 
BRANCH   4   5
ATOM      5  C   UNL     1      -3.958 -11.675  -9.125  1.00  0.00     0.032 C 
BRANCH   5   6
ATOM      6  C   UNL     1      -4.620 -11.694  -7.768  1.00  0.00    -0.028 C 
ATOM      7  C   UNL     1      -6.375 -12.148  -6.110  1.00  0.00     0.039 C 
ATOM      8  C   UNL     1      -5.822 -12.254  -7.508  1.00  0.00    -0.080 C 
ATOM      9  C   UNL     1      -6.606 -12.995  -8.565  1.00  0.00     0.039 C 
ENDBRANCH   5   6
ENDBRANCH   4   5
ENDBRANCH   1   4
BRANCH   2  10
ATOM     10  C   UNL     1      -2.269 -15.198  -6.374  1.00  0.00     0.035 C 
BRANCH  10  11
ATOM     11  C   UNL     1      -3.358 -15.145  -5.297  1.00  0.00     0.079 C 
BRANCH  11  12
ATOM     12  C   UNL     1      -4.078 -16.465  -5.166  1.00  0.00     0.130 C 
ATOM     13  O   UNL     1      -4.875 -16.628  -4.255  1.00  0.00    -0.300 OA
ATOM     14  C   UNL     1      -3.845 -17.581  -6.141  1.00  0.00     0.087 C 
ENDBRANCH  11  12
ENDBRANCH  10  11
ENDBRANCH   2  10
TORSDOF 6
ENDMDL
MODEL 2
REMARK VINA RESULT:    -4.719      1.759      4.745
REMARK INTER + INTRA:          -7.329
REMARK INTER:                  -6.441
REMARK INTRA:                  -0.888
REMARK UNBOUND:                -0.955
REMARK SMILES CC(=O)CCC=C(C)CCC=C(C)C
REMARK SMILES IDX 7 1 6 2 8 3 9 4 10 5 11 6 13 7 12 8 14 9 5 10 4 11 2 12 3 13
REMARK SMILES IDX 1 14
REMARK H PARENT
REMARK Flexibility Score: inf
ROOT
ATOM      1  C   UNL     1      -2.813 -13.887  -8.191  1.00  0.00    -0.077 C 
ATOM      2  C   UNL     1      -2.996 -12.549  -8.199  1.00  0.00    -0.028 C 
ATOM      3  C   UNL     1      -3.581 -14.792  -9.125  1.00  0.00     0.039 C 
ENDROOT
BRANCH   1   4
ATOM      4  C   UNL     1      -1.816 -14.494  -7.225  1.00  0.00     0.034 C 
BRANCH   4   5
ATOM      5  C   UNL     1      -2.504 -15.069  -5.979  1.00  0.00     0.032 C 
BRANCH   5   6
ATOM      6  C   UNL     1      -2.691 -16.565  -6.081  1.00  0.00    -0.028 C 
ATOM      7  C   UNL     1      -3.784 -18.739  -5.750  1.00  0.00     0.039 C 
ATOM      8  C   UNL     1      -3.767 -17.238  -5.619  1.00  0.00    -0.080 C 
ATOM      9  C   UNL     1      -4.949 -16.530  -5.000  1.00  0.00     0.039 C 
ENDBRANCH   5   6
ENDBRANCH   4   5
ENDBRANCH   1   4
BRANCH   2  10
ATOM     10  C   UNL     1      -3.972 -11.855  -9.122  1.00  0.00     0.035 C 
BRANCH  10  11
ATOM     11  C   UNL     1      -5.217 -11.360  -8.377  1.00  0.00     0.079 C 
BRANCH  11  12
ATOM     12  C   UNL     1      -6.066 -12.506  -7.885  1.00  0.00     0.130 C 
ATOM     13  O   UNL     1      -6.699 -13.173  -8.688  1.00  0.00    -0.300 OA
ATOM     14  C   UNL     1      -6.138 -12.855  -6.428  1.00  0.00     0.087 C 
ENDBRANCH  11  12
ENDBRANCH  10  11
ENDBRANCH   2  10
TORSDOF 6
ENDMDL
MODEL 3
REMARK VINA RESULT:    -4.332      1.946      4.655
REMARK INTER + INTRA:          -6.807
REMARK INTER:                  -5.754
REMARK INTRA:                  -1.053
REMARK UNBOUND:                -0.955
REMARK SMILES CC(=O)CCC=C(C)CCC=C(C)C
REMARK SMILES IDX 7 1 6 2 8 3 9 4 10 5 11 6 13 7 12 8 14 9 5 10 4 11 2 12 3 13
REMARK SMILES IDX 1 14
REMARK H PARENT
REMARK Flexibility Score: inf
ROOT
ATOM      1  C   UNL     1      -3.021 -13.533  -8.361  1.00  0.00    -0.077 C 
ATOM      2  C   UNL     1      -4.261 -14.039  -8.535  1.00  0.00    -0.028 C 
ATOM      3  C   UNL     1      -2.691 -12.109  -8.747  1.00  0.00     0.039 C 
ENDROOT
BRANCH   1   4
ATOM      4  C   UNL     1      -1.938 -14.409  -7.767  1.00  0.00     0.034 C 
BRANCH   4   5
ATOM      5  C   UNL     1      -2.249 -14.798  -6.314  1.00  0.00     0.032 C 
BRANCH   5   6
ATOM      6  C   UNL     1      -2.577 -16.267  -6.185  1.00  0.00    -0.028 C 
ATOM      7  C   UNL     1      -3.941 -18.249  -5.691  1.00  0.00     0.039 C 
ATOM      8  C   UNL     1      -3.783 -16.756  -5.826  1.00  0.00    -0.080 C 
ATOM      9  C   UNL     1      -4.971 -15.856  -5.579  1.00  0.00     0.039 C 
ENDBRANCH   5   6
ENDBRANCH   4   5
ENDBRANCH   1   4
BRANCH   2  10
ATOM     10  C   UNL     1      -5.403 -13.242  -9.125  1.00  0.00     0.035 C 
BRANCH  10  11
ATOM     11  C   UNL     1      -6.550 -13.052  -8.125  1.00  0.00     0.079 C 
BRANCH  11  12
ATOM     12  C   UNL     1      -6.160 -12.127  -6.998  1.00  0.00     0.130 C 
ATOM     13  O   UNL     1      -5.617 -11.064  -7.253  1.00  0.00    -0.300 OA
ATOM     14  C   UNL     1      -6.437 -12.481  -5.567  1.00  0.00     0.087 C 
ENDBRANCH  11  12
ENDBRANCH  10  11
ENDBRANCH   2  10
TORSDOF 6
ENDMDL
MODEL 4
REMARK VINA RESULT:    -3.932      1.293      3.406
REMARK INTER + INTRA:          -6.265
REMARK INTER:                  -5.495
REMARK INTRA:                  -0.770
REMARK UNBOUND:                -0.955
REMARK SMILES CC(=O)CCC=C(C)CCC=C(C)C
REMARK SMILES IDX 7 1 6 2 8 3 9 4 10 5 11 6 13 7 12 8 14 9 5 10 4 11 2 12 3 13
REMARK SMILES IDX 1 14
REMARK H PARENT
REMARK Flexibility Score: inf
ROOT
ATOM      1  C   UNL     1      -6.173 -12.939  -6.890  1.00  0.00    -0.077 C 
ATOM      2  C   UNL     1      -5.829 -14.242  -6.974  1.00  0.00    -0.028 C 
ATOM      3  C   UNL     1      -6.429 -12.277  -5.556  1.00  0.00     0.039 C 
ENDROOT
BRANCH   1   4
ATOM      4  C   UNL     1      -6.306 -12.122  -8.159  1.00  0.00     0.034 C 
BRANCH   4   5
ATOM      5  C   UNL     1      -4.946 -11.604  -8.650  1.00  0.00     0.032 C 
BRANCH   5   6
ATOM      6  C   UNL     1      -4.056 -12.729  -9.125  1.00  0.00    -0.028 C 
ATOM      7  C   UNL     1      -2.157 -14.286  -9.084  1.00  0.00     0.039 C 
ATOM      8  C   UNL     1      -2.977 -13.189  -8.455  1.00  0.00    -0.080 C 
ATOM      9  C   UNL     1      -2.588 -12.653  -7.097  1.00  0.00     0.039 C 
ENDBRANCH   5   6
ENDBRANCH   4   5
ENDBRANCH   1   4
BRANCH   2  10
ATOM     10  C   UNL     1      -5.678 -15.136  -5.764  1.00  0.00     0.035 C 
BRANCH  10  11
ATOM     11  C   UNL     1      -4.487 -16.092  -5.899  1.00  0.00     0.079 C 
BRANCH  11  12
ATOM     12  C   UNL     1      -3.255 -15.548  -5.217  1.00  0.00     0.130 C 
ATOM     13  O   UNL     1      -3.376 -14.882  -4.201  1.00  0.00    -0.300 OA
ATOM     14  C   UNL     1      -1.882 -15.821  -5.754  1.00  0.00     0.087 C 
ENDBRANCH  11  12
ENDBRANCH  10  11
ENDBRANCH   2  10
TORSDOF 6
ENDMDL
MODEL 5
REMARK VINA RESULT:    -3.492      2.136      5.236
REMARK INTER + INTRA:          -5.672
REMARK INTER:                  -5.417
REMARK INTRA:                  -0.254
REMARK UNBOUND:                -0.955
REMARK SMILES CC(=O)CCC=C(C)CCC=C(C)C
REMARK SMILES IDX 7 1 6 2 8 3 9 4 10 5 11 6 13 7 12 8 14 9 5 10 4 11 2 12 3 13
REMARK SMILES IDX 1 14
REMARK H PARENT
REMARK Flexibility Score: inf
ROOT
ATOM      1  C   UNL     1      -3.631 -14.014  -6.779  1.00  0.00    -0.077 C 
ATOM      2  C   UNL     1      -4.966 -13.860  -6.654  1.00  0.00    -0.028 C 
ATOM      3  C   UNL     1      -2.667 -12.971  -6.261  1.00  0.00     0.039 C 
ENDROOT
BRANCH   1   4
ATOM      4  C   UNL     1      -3.085 -15.257  -7.452  1.00  0.00     0.034 C 
BRANCH   4   5
ATOM      5  C   UNL     1      -4.199 -16.258  -7.792  1.00  0.00     0.032 C 
BRANCH   5   6
ATOM      6  C   UNL     1      -3.931 -17.619  -7.195  1.00  0.00    -0.028 C 
ATOM      7  C   UNL     1      -3.699 -19.313  -5.431  1.00  0.00     0.039 C 
ATOM      8  C   UNL     1      -4.051 -17.919  -5.883  1.00  0.00    -0.080 C 
ATOM      9  C   UNL     1      -4.544 -16.911  -4.872  1.00  0.00     0.039 C 
ENDBRANCH   5   6
ENDBRANCH   4   5
ENDBRANCH   1   4
BRANCH   2  10
ATOM     10  C   UNL     1      -5.602 -12.652  -6.004  1.00  0.00     0.035 C 
BRANCH  10  11
ATOM     11  C   UNL     1      -6.162 -11.669  -7.039  1.00  0.00     0.079 C 
BRANCH  11  12
ATOM     12  C   UNL     1      -5.765 -12.051  -8.443  1.00  0.00     0.130 C 
ATOM     13  O   UNL     1      -6.421 -12.885  -9.047  1.00  0.00    -0.300 OA
ATOM     14  C   UNL     1      -4.587 -11.417  -9.122  1.00  0.00     0.087 C 
ENDBRANCH  11  12
ENDBRANCH  10  11
ENDBRANCH   2  10
TORSDOF 6
ENDMDL
MODEL 6
REMARK VINA RESULT:    -3.465      2.164      4.687
REMARK INTER + INTRA:          -5.635
REMARK INTER:                  -4.973
REMARK INTRA:                  -0.662
REMARK UNBOUND:                -0.955
REMARK SMILES CC(=O)CCC=C(C)CCC=C(C)C
REMARK SMILES IDX 7 1 6 2 8 3 9 4 10 5 11 6 13 7 12 8 14 9 5 10 4 11 2 12 3 13
REMARK SMILES IDX 1 14
REMARK H PARENT
REMARK Flexibility Score: inf
ROOT
ATOM      1  C   UNL     1      -3.491 -13.655  -5.722  1.00  0.00    -0.077 C 
ATOM      2  C   UNL     1      -2.753 -12.866  -6.531  1.00  0.00    -0.028 C 
ATOM      3  C   UNL     1      -4.909 -13.291  -5.347  1.00  0.00     0.039 C 
ENDROOT
BRANCH   1   4
ATOM      4  C   UNL     1      -2.886 -14.933  -5.178  1.00  0.00     0.034 C 
BRANCH   4   5
ATOM      5  C   UNL     1      -2.583 -15.943  -6.294  1.00  0.00     0.032 C 
BRANCH   5   6
ATOM      6  C   UNL     1      -3.797 -16.210  -7.153  1.00  0.00    -0.028 C 
ATOM      7  C   UNL     1      -5.254 -16.059  -9.125  1.00  0.00     0.039 C 
ATOM      8  C   UNL     1      -3.962 -15.750  -8.412  1.00  0.00    -0.080 C 
ATOM      9  C   UNL     1      -2.889 -14.960  -9.125  1.00  0.00     0.039 C 
ENDBRANCH   5   6
ENDBRANCH   4   5
ENDBRANCH   1   4
BRANCH   2  10
ATOM     10  C   UNL     1      -3.269 -11.571  -7.117  1.00  0.00     0.035 C 
BRANCH  10  11
ATOM     11  C   UNL     1      -3.976 -11.787  -8.460  1.00  0.00     0.079 C 
BRANCH  11  12
ATOM     12  C   UNL     1      -5.474 -11.875  -8.295  1.00  0.00     0.130 C 
ATOM     13  O   UNL     1      -6.050 -11.062  -7.589  1.00  0.00    -0.300 OA
ATOM     14  C   UNL     1      -6.275 -12.936  -8.990  1.00  0.00     0.087 C 
ENDBRANCH  11  12
ENDBRANCH  10  11
ENDBRANCH   2  10
TORSDOF 6
ENDMDL
MODEL 7
REMARK VINA RESULT:    -3.304      2.390      4.822
REMARK INTER + INTRA:          -5.417
REMARK INTER:                  -4.751
REMARK INTRA:                  -0.666
REMARK UNBOUND:                -0.955
REMARK SMILES CC(=O)CCC=C(C)CCC=C(C)C
REMARK SMILES IDX 7 1 6 2 8 3 9 4 10 5 11 6 13 7 12 8 14 9 5 10 4 11 2 12 3 13
REMARK SMILES IDX 1 14
REMARK H PARENT
REMARK Flexibility Score: inf
ROOT
ATOM      1  C   UNL     1      -4.174 -15.504  -8.509  1.00  0.00    -0.077 C 
ATOM      2  C   UNL     1      -2.979 -14.883  -8.599  1.00  0.00    -0.028 C 
ATOM      3  C   UNL     1      -5.457 -14.801  -8.883  1.00  0.00     0.039 C 
ENDROOT
BRANCH   1   4
ATOM      4  C   UNL     1      -4.230 -16.938  -8.022  1.00  0.00     0.034 C 
BRANCH   4   5
ATOM      5  C   UNL     1      -4.002 -17.037  -6.507  1.00  0.00     0.032 C 
BRANCH   5   6
ATOM      6  C   UNL     1      -4.258 -15.720  -5.814  1.00  0.00    -0.028 C 
ATOM      7  C   UNL     1      -3.728 -13.701  -4.520  1.00  0.00     0.039 C 
ATOM      8  C   UNL     1      -3.308 -14.970  -5.215  1.00  0.00    -0.080 C 
ATOM      9  C   UNL     1      -1.847 -15.355  -5.242  1.00  0.00     0.039 C 
ENDBRANCH   5   6
ENDBRANCH   4   5
ENDBRANCH   1   4
BRANCH   2  10
ATOM     10  C   UNL     1      -2.825 -13.453  -9.068  1.00  0.00     0.035 C 
BRANCH  10  11
ATOM     11  C   UNL     1      -3.056 -12.447  -7.934  1.00  0.00     0.079 C 
BRANCH  11  12
ATOM     12  C   UNL     1      -4.123 -11.442  -8.290  1.00  0.00     0.130 C 
ATOM     13  O   UNL     1      -3.885 -10.582  -9.123  1.00  0.00    -0.300 OA
ATOM     14  C   UNL     1      -5.479 -11.483  -7.650  1.00  0.00     0.087 C 
ENDBRANCH  11  12
ENDBRANCH  10  11
ENDBRANCH   2  10
TORSDOF 6
ENDMDL
