MODEL 1
REMARK VINA RESULT:    -3.601      0.000      0.000
REMARK INTER + INTRA:          -4.199
REMARK INTER:                  -4.127
REMARK INTRA:                  -0.072
REMARK UNBOUND:                -0.072
REMARK SMILES CC(C)[C@@H]([NH3+])C(=O)[O-]
REMARK SMILES IDX 4 1 5 2 6 6 7 7 8 8 2 9 1 10 3 11
REMARK H PARENT 5 3 5 4 5 5
REMARK Flexibility Score: inf
ROOT
ATOM      1  C   UNL     1      24.694   0.480  17.555  1.00  0.00     0.230 C 
ENDROOT
BRANCH   1   2
ATOM      2  N   UNL     1      25.983   1.062  17.152  1.00  0.00    -0.350 N 
ATOM      3  H   UNL     1      26.713   0.314  17.132  1.00  0.00     0.345 HD
ATOM      4  H   UNL     1      25.908   1.468  16.191  1.00  0.00     0.345 HD
ATOM      5  H   UNL     1      26.291   1.809  17.816  1.00  0.00     0.345 HD
ENDBRANCH   1   2
BRANCH   1   6
ATOM      6  C   UNL     1      24.784  -1.025  17.627  1.00  0.00     0.099 C 
ATOM      7  O   UNL     1      25.449  -1.590  18.536  1.00  0.00    -0.544 OA
ATOM      8  O   UNL     1      24.102  -1.803  16.699  1.00  0.00    -0.544 OA
ENDBRANCH   1   6
BRANCH   1   9
ATOM      9  C   UNL     1      24.160   1.116  18.874  1.00  0.00     0.047 C 
ATOM     10  C   UNL     1      24.168   2.651  18.797  1.00  0.00     0.014 C 
ATOM     11  C   UNL     1      22.762   0.616  19.279  1.00  0.00     0.014 C 
ENDBRANCH   1   9
TORSDOF 3
ENDMDL
MODEL 2
REMARK VINA RESULT:    -3.477      1.572      2.019
REMARK INTER + INTRA:          -4.058
REMARK INTER:                  -4.033
REMARK INTRA:                  -0.025
REMARK UNBOUND:                -0.072
REMARK SMILES CC(C)[C@@H]([NH3+])C(=O)[O-]
REMARK SMILES IDX 4 1 5 2 6 6 7 7 8 8 2 9 1 10 3 11
REMARK H PARENT 5 3 5 4 5 5
REMARK Flexibility Score: inf
ROOT
ATOM      1  C   UNL     1      24.024   1.199  17.507  1.00  0.00     0.230 C 
ENDROOT
BRANCH   1   2
ATOM      2  N   UNL     1      24.959   0.895  16.412  1.00  0.00    -0.350 N 
ATOM      3  H   UNL     1      25.587   1.716  16.251  1.00  0.00     0.345 HD
ATOM      4  H   UNL     1      25.556   0.076  16.668  1.00  0.00     0.345 HD
ATOM      5  H   UNL     1      24.451   0.686  15.522  1.00  0.00     0.345 HD
ENDBRANCH   1   2
BRANCH   1   6
ATOM      6  C   UNL     1      23.892   0.021  18.442  1.00  0.00     0.099 C 
ATOM      7  O   UNL     1      22.959  -0.031  19.287  1.00  0.00    -0.544 OA
ATOM      8  O   UNL     1      24.791  -1.035  18.353  1.00  0.00    -0.544 OA
ENDBRANCH   1   6
BRANCH   1   9
ATOM      9  C   UNL     1      24.409   2.516  18.245  1.00  0.00     0.047 C 
ATOM     10  C   UNL     1      25.382   3.362  17.409  1.00  0.00     0.014 C 
ATOM     11  C   UNL     1      23.197   3.367  18.664  1.00  0.00     0.014 C 
ENDBRANCH   1   9
TORSDOF 3
ENDMDL
MODEL 3
REMARK VINA RESULT:    -3.352      2.279      3.239
REMARK INTER + INTRA:          -3.914
REMARK INTER:                  -3.858
REMARK INTRA:                  -0.056
REMARK UNBOUND:                -0.072
REMARK SMILES CC(C)[C@@H]([NH3+])C(=O)[O-]
REMARK SMILES IDX 4 1 5 2 6 6 7 7 8 8 2 9 1 10 3 11
REMARK H PARENT 5 3 5 4 5 5
REMARK Flexibility Score: inf
ROOT
ATOM      1  C   UNL     1      25.237   0.711  18.271  1.00  0.00     0.230 C 
ENDROOT
BRANCH   1   2
ATOM      2  N   UNL     1      26.070   1.307  17.216  1.00  0.00    -0.350 N 
ATOM      3  H   UNL     1      26.647   0.561  16.763  1.00  0.00     0.345 HD
ATOM      4  H   UNL     1      25.463   1.738  16.480  1.00  0.00     0.345 HD
ATOM      5  H   UNL     1      26.713   2.036  17.601  1.00  0.00     0.345 HD
ENDBRANCH   1   2
BRANCH   1   6
ATOM      6  C   UNL     1      24.265   1.725  18.825  1.00  0.00     0.099 C 
ATOM      7  O   UNL     1      24.567   2.946  18.880  1.00  0.00    -0.544 OA
ATOM      8  O   UNL     1      23.008   1.314  19.252  1.00  0.00    -0.544 OA
ENDBRANCH   1   6
BRANCH   1   9
ATOM      9  C   UNL     1      24.537  -0.594  17.787  1.00  0.00     0.047 C 
ATOM     10  C   UNL     1      24.333  -0.587  16.264  1.00  0.00     0.014 C 
ATOM     11  C   UNL     1      25.263  -1.882  18.214  1.00  0.00     0.014 C 
ENDBRANCH   1   9
TORSDOF 3
ENDMDL
MODEL 4
REMARK VINA RESULT:    -3.310      1.035      1.952
REMARK INTER + INTRA:          -3.867
REMARK INTER:                  -3.854
REMARK INTRA:                  -0.013
REMARK UNBOUND:                -0.072
REMARK SMILES CC(C)[C@@H]([NH3+])C(=O)[O-]
REMARK SMILES IDX 4 1 5 2 6 6 7 7 8 8 2 9 1 10 3 11
REMARK H PARENT 5 3 5 4 5 5
REMARK Flexibility Score: inf
ROOT
ATOM      1  C   UNL     1      24.722   1.110  16.969  1.00  0.00     0.230 C 
ENDROOT
BRANCH   1   2
ATOM      2  N   UNL     1      26.145   1.186  17.335  1.00  0.00    -0.350 N 
ATOM      3  H   UNL     1      26.535   2.107  17.031  1.00  0.00     0.345 HD
ATOM      4  H   UNL     1      26.253   1.114  18.372  1.00  0.00     0.345 HD
ATOM      5  H   UNL     1      26.698   0.425  16.878  1.00  0.00     0.345 HD
ENDBRANCH   1   2
BRANCH   1   6
ATOM      6  C   UNL     1      24.306  -0.320  16.724  1.00  0.00     0.099 C 
ATOM      7  O   UNL     1      23.291  -0.587  16.027  1.00  0.00    -0.544 OA
ATOM      8  O   UNL     1      25.066  -1.360  17.247  1.00  0.00    -0.544 OA
ENDBRANCH   1   6
BRANCH   1   9
ATOM      9  C   UNL     1      23.818   1.831  18.014  1.00  0.00     0.047 C 
ATOM     10  C   UNL     1      23.439   0.891  19.169  1.00  0.00     0.014 C 
ATOM     11  C   UNL     1      24.431   3.129  18.571  1.00  0.00     0.014 C 
ENDBRANCH   1   9
TORSDOF 3
ENDMDL
MODEL 5
REMARK VINA RESULT:    -3.281      1.822      2.245
REMARK INTER + INTRA:          -3.833
REMARK INTER:                  -3.786
REMARK INTRA:                  -0.047
REMARK UNBOUND:                -0.072
REMARK SMILES CC(C)[C@@H]([NH3+])C(=O)[O-]
REMARK SMILES IDX 4 1 5 2 6 6 7 7 8 8 2 9 1 10 3 11
REMARK H PARENT 5 3 5 4 5 5
REMARK Flexibility Score: inf
ROOT
ATOM      1  C   UNL     1      23.904  -0.909  16.787  1.00  0.00     0.230 C 
ENDROOT
BRANCH   1   2
ATOM      2  N   UNL     1      25.100  -0.761  15.943  1.00  0.00    -0.350 N 
ATOM      3  H   UNL     1      25.307  -1.670  15.469  1.00  0.00     0.345 HD
ATOM      4  H   UNL     1      24.930  -0.042  15.203  1.00  0.00     0.345 HD
ATOM      5  H   UNL     1      25.935  -0.483  16.508  1.00  0.00     0.345 HD
ENDBRANCH   1   2
BRANCH   1   6
ATOM      6  C   UNL     1      23.372  -2.320  16.721  1.00  0.00     0.099 C 
ATOM      7  O   UNL     1      22.134  -2.541  16.643  1.00  0.00    -0.544 OA
ATOM      8  O   UNL     1      24.256  -3.392  16.715  1.00  0.00    -0.544 OA
ENDBRANCH   1   6
BRANCH   1   9
ATOM      9  C   UNL     1      24.165  -0.430  18.247  1.00  0.00     0.047 C 
ATOM     10  C   UNL     1      25.340   0.558  18.309  1.00  0.00     0.014 C 
ATOM     11  C   UNL     1      22.927   0.180  18.928  1.00  0.00     0.014 C 
ENDBRANCH   1   9
TORSDOF 3
ENDMDL
MODEL 6
REMARK VINA RESULT:    -3.273      9.348     10.004
REMARK INTER + INTRA:          -3.823
REMARK INTER:                  -3.821
REMARK INTRA:                  -0.002
REMARK UNBOUND:                -0.072
REMARK SMILES CC(C)[C@@H]([NH3+])C(=O)[O-]
REMARK SMILES IDX 4 1 5 2 6 6 7 7 8 8 2 9 1 10 3 11
REMARK H PARENT 5 3 5 4 5 5
REMARK Flexibility Score: inf
ROOT
ATOM      1  C   UNL     1      28.894   0.561   9.270  1.00  0.00     0.230 C 
ENDROOT
BRANCH   1   2
ATOM      2  N   UNL     1      29.122   0.791  10.705  1.00  0.00    -0.350 N 
ATOM      3  H   UNL     1      30.150   0.805  10.898  1.00  0.00     0.345 HD
ATOM      4  H   UNL     1      28.727   1.717  10.987  1.00  0.00     0.345 HD
ATOM      5  H   UNL     1      28.686   0.040  11.288  1.00  0.00     0.345 HD
ENDBRANCH   1   2
BRANCH   1   6
ATOM      6  C   UNL     1      28.264  -0.791   9.037  1.00  0.00     0.099 C 
ATOM      7  O   UNL     1      28.306  -1.685   9.923  1.00  0.00    -0.544 OA
ATOM      8  O   UNL     1      27.601  -1.047   7.842  1.00  0.00    -0.544 OA
ENDBRANCH   1   6
BRANCH   1   9
ATOM      9  C   UNL     1      28.086   1.723   8.620  1.00  0.00     0.047 C 
ATOM     10  C   UNL     1      28.033   2.951   9.542  1.00  0.00     0.014 C 
ATOM     11  C   UNL     1      28.602   2.132   7.228  1.00  0.00     0.014 C 
ENDBRANCH   1   9
TORSDOF 3
ENDMDL
MODEL 7
REMARK VINA RESULT:    -3.253      2.282      3.319
REMARK INTER + INTRA:          -3.801
REMARK INTER:                  -3.746
REMARK INTRA:                  -0.055
REMARK UNBOUND:                -0.072
REMARK SMILES CC(C)[C@@H]([NH3+])C(=O)[O-]
REMARK SMILES IDX 4 1 5 2 6 6 7 7 8 8 2 9 1 10 3 11
REMARK H PARENT 5 3 5 4 5 5
REMARK Flexibility Score: inf
ROOT
ATOM      1  C   UNL     1      24.470  -1.345  17.082  1.00  0.00     0.230 C 
ENDROOT
BRANCH   1   2
ATOM      2  N   UNL     1      25.122  -0.754  15.904  1.00  0.00    -0.350 N 
ATOM      3  H   UNL     1      25.275   0.268  16.066  1.00  0.00     0.345 HD
ATOM      4  H   UNL     1      26.055  -1.200  15.748  1.00  0.00     0.345 HD
ATOM      5  H   UNL     1      24.538  -0.869  15.044  1.00  0.00     0.345 HD
ENDBRANCH   1   2
BRANCH   1   6
ATOM      6  C   UNL     1      24.476  -0.379  18.241  1.00  0.00     0.099 C 
ATOM      7  O   UNL     1      25.524   0.245  18.557  1.00  0.00    -0.544 OA
ATOM      8  O   UNL     1      23.305  -0.147  18.953  1.00  0.00    -0.544 OA
ENDBRANCH   1   6
BRANCH   1   9
ATOM      9  C   UNL     1      23.044  -1.877  16.747  1.00  0.00     0.047 C 
ATOM     10  C   UNL     1      22.411  -1.088  15.590  1.00  0.00     0.014 C 
ATOM     11  C   UNL     1      23.002  -3.385  16.441  1.00  0.00     0.014 C 
ENDBRANCH   1   9
TORSDOF 3
ENDMDL
MODEL 8
REMARK VINA RESULT:    -3.216     10.519     11.469
REMARK INTER + INTRA:          -3.758
REMARK INTER:                  -3.715
REMARK INTRA:                  -0.043
REMARK UNBOUND:                -0.072
REMARK SMILES CC(C)[C@@H]([NH3+])C(=O)[O-]
REMARK SMILES IDX 4 1 5 2 6 6 7 7 8 8 2 9 1 10 3 11
REMARK H PARENT 5 3 5 4 5 5
REMARK Flexibility Score: inf
ROOT
ATOM      1  C   UNL     1      27.696   1.009   7.694  1.00  0.00     0.230 C 
ENDROOT
BRANCH   1   2
ATOM      2  N   UNL     1      26.753   1.275   8.791  1.00  0.00    -0.350 N 
ATOM      3  H   UNL     1      26.741   2.300   9.000  1.00  0.00     0.345 HD
ATOM      4  H   UNL     1      25.786   0.991   8.510  1.00  0.00     0.345 HD
ATOM      5  H   UNL     1      27.023   0.762   9.661  1.00  0.00     0.345 HD
ENDBRANCH   1   2
BRANCH   1   6
ATOM      6  C   UNL     1      28.265   2.298   7.151  1.00  0.00     0.099 C 
ATOM      7  O   UNL     1      28.399   2.473   5.911  1.00  0.00    -0.544 OA
ATOM      8  O   UNL     1      28.620   3.318   8.026  1.00  0.00    -0.544 OA
ENDBRANCH   1   6
BRANCH   1   9
ATOM      9  C   UNL     1      28.799  -0.008   8.115  1.00  0.00     0.047 C 
ATOM     10  C   UNL     1      28.723  -0.326   9.616  1.00  0.00     0.014 C 
ATOM     11  C   UNL     1      28.781  -1.313   7.299  1.00  0.00     0.014 C 
ENDBRANCH   1   9
TORSDOF 3
ENDMDL
MODEL 9
REMARK VINA RESULT:    -3.189     10.207     10.960
REMARK INTER + INTRA:          -3.728
REMARK INTER:                  -3.680
REMARK INTRA:                  -0.047
REMARK UNBOUND:                -0.072
REMARK SMILES CC(C)[C@@H]([NH3+])C(=O)[O-]
REMARK SMILES IDX 4 1 5 2 6 6 7 7 8 8 2 9 1 10 3 11
REMARK H PARENT 5 3 5 4 5 5
REMARK Flexibility Score: inf
ROOT
ATOM      1  C   UNL     1      28.430   3.355   8.305  1.00  0.00     0.230 C 
ENDROOT
BRANCH   1   2
ATOM      2  N   UNL     1      28.692   2.603   7.069  1.00  0.00    -0.350 N 
ATOM      3  H   UNL     1      28.750   3.266   6.262  1.00  0.00     0.345 HD
ATOM      4  H   UNL     1      29.607   2.101   7.141  1.00  0.00     0.345 HD
ATOM      5  H   UNL     1      27.934   1.909   6.875  1.00  0.00     0.345 HD
ENDBRANCH   1   2
BRANCH   1   6
ATOM      6  C   UNL     1      27.216   4.239   8.149  1.00  0.00     0.099 C 
ATOM      7  O   UNL     1      26.268   3.906   7.390  1.00  0.00    -0.544 OA
ATOM      8  O   UNL     1      27.126   5.422   8.873  1.00  0.00    -0.544 OA
ENDBRANCH   1   6
BRANCH   1   9
ATOM      9  C   UNL     1      28.337   2.415   9.545  1.00  0.00     0.047 C 
ATOM     10  C   UNL     1      28.776   0.985   9.195  1.00  0.00     0.014 C 
ATOM     11  C   UNL     1      29.123   2.924  10.767  1.00  0.00     0.014 C 
ENDBRANCH   1   9
TORSDOF 3
ENDMDL
