MODEL 1
REMARK VINA RESULT:    -3.676      0.000      0.000
REMARK INTER + INTRA:          -4.306
REMARK INTER:                  -4.213
REMARK INTRA:                  -0.093
REMARK UNBOUND:                -0.093
REMARK SMILES COc1cc(C(=O)[O-])ccc1O
REMARK SMILES IDX 5 1 9 2 4 3 10 4 3 5 11 6 6 7 7 8 8 9 2 10 1 11 12 12
REMARK H PARENT 12 13
REMARK Flexibility Score: inf
ROOT
ATOM      1  C   UNL     1      10.196  10.987 140.039  1.00  0.00     0.001 A 
ATOM      2  C   UNL     1       9.441  11.920 139.309  1.00  0.00     0.014 A 
ATOM      3  C   UNL     1      11.134  11.450 140.978  1.00  0.00     0.060 A 
ATOM      4  C   UNL     1       9.622  13.289 139.514  1.00  0.00     0.051 A 
ATOM      5  C   UNL     1      11.321  12.832 141.189  1.00  0.00     0.161 A 
ATOM      6  C   UNL     1      10.556  13.749 140.447  1.00  0.00     0.157 A 
ENDROOT
BRANCH   1   7
ATOM      7  C   UNL     1      10.007   9.534 139.824  1.00  0.00     0.072 C 
ATOM      8  O   UNL     1       9.050   9.110 139.122  1.00  0.00    -0.545 OA
ATOM      9  O   UNL     1      10.882   8.618 140.396  1.00  0.00    -0.545 OA
ENDBRANCH   1   7
BRANCH   5  10
ATOM     10  O   UNL     1      12.251  13.323 142.120  1.00  0.00    -0.493 OA
ATOM     11  C   UNL     1      13.637  13.002 142.123  1.00  0.00     0.278 C 
ENDBRANCH   5  10
BRANCH   6  12
ATOM     12  O   UNL     1      10.708  15.125 140.623  1.00  0.00    -0.504 OA
ATOM     13  H   UNL     1       9.957  15.711 140.965  1.00  0.00     0.293 HD
ENDBRANCH   6  12
TORSDOF 3
ENDMDL
MODEL 2
REMARK VINA RESULT:    -2.734     22.734     22.901
REMARK INTER + INTRA:          -3.226
REMARK INTER:                  -3.131
REMARK INTRA:                  -0.096
REMARK UNBOUND:                -0.093
REMARK SMILES COc1cc(C(=O)[O-])ccc1O
REMARK SMILES IDX 5 1 9 2 4 3 10 4 3 5 11 6 6 7 7 8 8 9 2 10 1 11 12 12
REMARK H PARENT 12 13
REMARK Flexibility Score: inf
ROOT
ATOM      1  C   UNL     1      24.520  10.984 122.691  1.00  0.00     0.001 A 
ATOM      2  C   UNL     1      23.873  12.045 122.035  1.00  0.00     0.014 A 
ATOM      3  C   UNL     1      25.822  11.178 123.184  1.00  0.00     0.060 A 
ATOM      4  C   UNL     1      24.516  13.274 121.875  1.00  0.00     0.051 A 
ATOM      5  C   UNL     1      26.476  12.417 123.026  1.00  0.00     0.161 A 
ATOM      6  C   UNL     1      25.811  13.465 122.365  1.00  0.00     0.157 A 
ENDROOT
BRANCH   1   7
ATOM      7  C   UNL     1      23.840   9.680 122.861  1.00  0.00     0.072 C 
ATOM      8  O   UNL     1      24.095   8.719 122.088  1.00  0.00    -0.545 OA
ATOM      9  O   UNL     1      22.909   9.499 123.878  1.00  0.00    -0.545 OA
ENDBRANCH   1   7
BRANCH   5  10
ATOM     10  O   UNL     1      27.776  12.638 123.508  1.00  0.00    -0.493 OA
ATOM     11  C   UNL     1      28.103  12.874 124.873  1.00  0.00     0.278 C 
ENDBRANCH   5  10
BRANCH   6  12
ATOM     12  O   UNL     1      26.421  14.707 122.186  1.00  0.00    -0.504 OA
ATOM     13  H   UNL     1      27.168  14.850 121.517  1.00  0.00     0.293 HD
ENDBRANCH   6  12
TORSDOF 3
ENDMDL
MODEL 3
REMARK VINA RESULT:    -2.410     22.108     22.580
REMARK INTER + INTRA:          -2.855
REMARK INTER:                  -2.780
REMARK INTRA:                  -0.074
REMARK UNBOUND:                -0.093
REMARK SMILES COc1cc(C(=O)[O-])ccc1O
REMARK SMILES IDX 5 1 9 2 4 3 10 4 3 5 11 6 6 7 7 8 8 9 2 10 1 11 12 12
REMARK H PARENT 12 13
REMARK Flexibility Score: inf
ROOT
ATOM      1  C   UNL     1      25.590  10.887 122.841  1.00  0.00     0.001 A 
ATOM      2  C   UNL     1      25.507   9.870 121.875  1.00  0.00     0.014 A 
ATOM      3  C   UNL     1      24.574  10.997 123.807  1.00  0.00     0.060 A 
ATOM      4  C   UNL     1      24.431   8.982 121.875  1.00  0.00     0.051 A 
ATOM      5  C   UNL     1      23.485  10.102 123.813  1.00  0.00     0.161 A 
ATOM      6  C   UNL     1      23.421   9.092 122.836  1.00  0.00     0.157 A 
ENDROOT
BRANCH   1   7
ATOM      7  C   UNL     1      26.730  11.831 122.843  1.00  0.00     0.072 C 
ATOM      8  O   UNL     1      27.911  11.409 122.966  1.00  0.00    -0.545 OA
ATOM      9  O   UNL     1      26.514  13.197 122.711  1.00  0.00    -0.545 OA
ENDBRANCH   1   7
BRANCH   5  10
ATOM     10  O   UNL     1      22.456  10.187 124.764  1.00  0.00    -0.493 OA
ATOM     11  C   UNL     1      22.433   9.474 125.996  1.00  0.00     0.278 C 
ENDBRANCH   5  10
BRANCH   6  12
ATOM     12  O   UNL     1      22.361   8.185 122.803  1.00  0.00    -0.504 OA
ATOM     13  H   UNL     1      21.782   8.004 123.614  1.00  0.00     0.293 HD
ENDBRANCH   6  12
TORSDOF 3
ENDMDL
MODEL 4
REMARK VINA RESULT:    -1.469     22.842     23.436
REMARK INTER + INTRA:          -1.777
REMARK INTER:                  -2.430
REMARK INTRA:                   0.653
REMARK UNBOUND:                -0.093
REMARK SMILES COc1cc(C(=O)[O-])ccc1O
REMARK SMILES IDX 5 1 9 2 4 3 10 4 3 5 11 6 6 7 7 8 8 9 2 10 1 11 12 12
REMARK H PARENT 12 13
REMARK Flexibility Score: inf
ROOT
ATOM      1  C   UNL     1      25.742  11.119 122.693  1.00  0.00     0.001 A 
ATOM      2  C   UNL     1      26.616  10.165 122.146  1.00  0.00     0.014 A 
ATOM      3  C   UNL     1      24.413  10.750 122.969  1.00  0.00     0.060 A 
ATOM      4  C   UNL     1      26.170   8.869 121.880  1.00  0.00     0.051 A 
ATOM      5  C   UNL     1      23.958   9.443 122.704  1.00  0.00     0.161 A 
ATOM      6  C   UNL     1      24.849   8.503 122.154  1.00  0.00     0.157 A 
ENDROOT
BRANCH   1   7
ATOM      7  C   UNL     1      26.212  12.494 122.976  1.00  0.00     0.072 C 
ATOM      8  O   UNL     1      25.911  13.445 122.206  1.00  0.00    -0.545 OA
ATOM      9  O   UNL     1      26.993  12.754 124.095  1.00  0.00    -0.545 OA
ENDBRANCH   1   7
BRANCH   5  10
ATOM     10  O   UNL     1      22.637   9.046 122.969  1.00  0.00    -0.493 OA
ATOM     11  C   UNL     1      21.934   8.041 122.247  1.00  0.00     0.278 C 
ENDBRANCH   5  10
BRANCH   6  12
ATOM     12  O   UNL     1      24.441   7.199 121.875  1.00  0.00    -0.504 OA
ATOM     13  H   UNL     1      25.100   6.437 121.776  1.00  0.00     0.293 HD
ENDBRANCH   6  12
TORSDOF 3
ENDMDL
MODEL 5
REMARK VINA RESULT:    -1.333     12.115     13.225
REMARK INTER + INTRA:          -1.621
REMARK INTER:                  -1.539
REMARK INTRA:                  -0.082
REMARK UNBOUND:                -0.093
REMARK SMILES COc1cc(C(=O)[O-])ccc1O
REMARK SMILES IDX 5 1 9 2 4 3 10 4 3 5 11 6 6 7 7 8 8 9 2 10 1 11 12 12
REMARK H PARENT 12 13
REMARK Flexibility Score: inf
ROOT
ATOM      1  C   UNL     1      23.127  11.470 140.991  1.00  0.00     0.001 A 
ATOM      2  C   UNL     1      23.307  10.661 142.125  1.00  0.00     0.014 A 
ATOM      3  C   UNL     1      22.761  10.869 139.773  1.00  0.00     0.060 A 
ATOM      4  C   UNL     1      23.126   9.279 142.043  1.00  0.00     0.051 A 
ATOM      5  C   UNL     1      22.576   9.474 139.685  1.00  0.00     0.161 A 
ATOM      6  C   UNL     1      22.763   8.682 140.832  1.00  0.00     0.157 A 
ENDROOT
BRANCH   1   7
ATOM      7  C   UNL     1      23.318  12.935 141.075  1.00  0.00     0.072 C 
ATOM      8  O   UNL     1      23.988  13.545 140.199  1.00  0.00    -0.545 OA
ATOM      9  O   UNL     1      22.762  13.659 142.123  1.00  0.00    -0.545 OA
ENDBRANCH   1   7
BRANCH   5  10
ATOM     10  O   UNL     1      22.211   8.847 138.483  1.00  0.00    -0.493 OA
ATOM     11  C   UNL     1      23.132   8.332 137.527  1.00  0.00     0.278 C 
ENDBRANCH   5  10
BRANCH   6  12
ATOM     12  O   UNL     1      22.591   7.299 140.790  1.00  0.00    -0.504 OA
ATOM     13  H   UNL     1      23.295   6.657 141.134  1.00  0.00     0.293 HD
ENDBRANCH   6  12
TORSDOF 3
ENDMDL
MODEL 6
REMARK VINA RESULT:    -1.132     23.363     23.783
REMARK INTER + INTRA:          -1.390
REMARK INTER:                  -1.310
REMARK INTRA:                  -0.080
REMARK UNBOUND:                -0.093
REMARK SMILES COc1cc(C(=O)[O-])ccc1O
REMARK SMILES IDX 5 1 9 2 4 3 10 4 3 5 11 6 6 7 7 8 8 9 2 10 1 11 12 12
REMARK H PARENT 12 13
REMARK Flexibility Score: inf
ROOT
ATOM      1  C   UNL     1      26.871  11.671 122.790  1.00  0.00     0.001 A 
ATOM      2  C   UNL     1      26.374  10.358 122.857  1.00  0.00     0.014 A 
ATOM      3  C   UNL     1      25.992  12.719 122.463  1.00  0.00     0.060 A 
ATOM      4  C   UNL     1      25.027  10.099 122.602  1.00  0.00     0.051 A 
ATOM      5  C   UNL     1      24.630  12.463 122.204  1.00  0.00     0.161 A 
ATOM      6  C   UNL     1      24.153  11.141 122.276  1.00  0.00     0.157 A 
ENDROOT
BRANCH   1   7
ATOM      7  C   UNL     1      28.299  11.949 123.060  1.00  0.00     0.072 C 
ATOM      8  O   UNL     1      29.110  11.005 123.258  1.00  0.00    -0.545 OA
ATOM      9  O   UNL     1      28.767  13.257 123.101  1.00  0.00    -0.545 OA
ENDBRANCH   1   7
BRANCH   5  10
ATOM     10  O   UNL     1      23.729  13.489 121.875  1.00  0.00    -0.493 OA
ATOM     11  C   UNL     1      24.046  14.876 121.887  1.00  0.00     0.278 C 
ENDBRANCH   5  10
BRANCH   6  12
ATOM     12  O   UNL     1      22.814  10.843 122.028  1.00  0.00    -0.504 OA
ATOM     13  H   UNL     1      22.132  11.560 121.811  1.00  0.00     0.293 HD
ENDBRANCH   6  12
TORSDOF 3
ENDMDL
MODEL 7
REMARK VINA RESULT:    -0.995      1.321      4.238
REMARK INTER + INTRA:          -1.233
REMARK INTER:                  -1.143
REMARK INTRA:                  -0.090
REMARK UNBOUND:                -0.093
REMARK SMILES COc1cc(C(=O)[O-])ccc1O
REMARK SMILES IDX 5 1 9 2 4 3 10 4 3 5 11 6 6 7 7 8 8 9 2 10 1 11 12 12
REMARK H PARENT 12 13
REMARK Flexibility Score: inf
ROOT
ATOM      1  C   UNL     1      12.108  12.727 140.845  1.00  0.00     0.001 A 
ATOM      2  C   UNL     1      11.289  13.712 140.270  1.00  0.00     0.014 A 
ATOM      3  C   UNL     1      11.838  11.373 140.581  1.00  0.00     0.060 A 
ATOM      4  C   UNL     1      10.222  13.350 139.446  1.00  0.00     0.051 A 
ATOM      5  C   UNL     1      10.761  11.001 139.750  1.00  0.00     0.161 A 
ATOM      6  C   UNL     1       9.953  12.004 139.184  1.00  0.00     0.157 A 
ENDROOT
BRANCH   1   7
ATOM      7  C   UNL     1      13.241  13.108 141.719  1.00  0.00     0.072 C 
ATOM      8  O   UNL     1      13.369  14.294 142.122  1.00  0.00    -0.545 OA
ATOM      9  O   UNL     1      14.182  12.160 142.106  1.00  0.00    -0.545 OA
ENDBRANCH   1   7
BRANCH   5  10
ATOM     10  O   UNL     1      10.468   9.657 139.468  1.00  0.00    -0.493 OA
ATOM     11  C   UNL     1       9.591   8.843 140.239  1.00  0.00     0.278 C 
ENDBRANCH   5  10
BRANCH   6  12
ATOM     12  O   UNL     1       8.877  11.682 138.357  1.00  0.00    -0.504 OA
ATOM     13  H   UNL     1       8.269  12.389 137.962  1.00  0.00     0.293 HD
ENDBRANCH   6  12
TORSDOF 3
ENDMDL
