MODEL 1
REMARK VINA RESULT:    -6.899      0.000      0.000
REMARK INTER + INTRA:          -8.258
REMARK INTER:                  -7.908
REMARK INTRA:                  -0.351
REMARK UNBOUND:                -0.351
REMARK SMILES O=C1C[C@@H](c2ccc(O)cc2)Oc2cc(O)cc(O)c21
REMARK SMILES IDX 3 1 4 2 12 3 13 4 14 5 15 6 17 7 18 8 20 9 2 10 1 11 5 12
REMARK SMILES IDX 6 13 11 14 7 15 10 16 8 17 9 18 19 20 16 22
REMARK H PARENT 9 19 19 21 16 23
REMARK Flexibility Score: inf
ROOT
ATOM      1  C   UNL     1      29.556  12.439  67.675  1.00  0.00     0.131 C 
ATOM      2  C   UNL     1      28.136  12.068  67.207  1.00  0.00     0.211 C 
ATOM      3  O   UNL     1      28.160  11.026  66.223  1.00  0.00    -0.484 OA
ATOM      4  C   UNL     1      29.190  10.866  65.284  1.00  0.00     0.138 A 
ATOM      5  C   UNL     1      29.032   9.940  64.250  1.00  0.00     0.093 A 
ATOM      6  C   UNL     1      30.030   9.789  63.279  1.00  0.00     0.123 A 
ATOM      7  C   UNL     1      31.191  10.565  63.351  1.00  0.00     0.093 A 
ATOM      8  C   UNL     1      31.368  11.487  64.392  1.00  0.00     0.133 A 
ATOM      9  C   UNL     1      30.365  11.637  65.372  1.00  0.00     0.102 A 
ATOM     10  C   UNL     1      30.495  12.568  66.514  1.00  0.00     0.174 C 
ATOM     11  O   UNL     1      31.411  13.433  66.551  1.00  0.00    -0.294 OA
ENDROOT
BRANCH   2  12
ATOM     12  C   UNL     1      27.379  13.286  66.710  1.00  0.00    -0.007 A 
ATOM     13  C   UNL     1      27.052  13.455  65.350  1.00  0.00     0.011 A 
ATOM     14  C   UNL     1      27.049  14.309  67.617  1.00  0.00     0.011 A 
ATOM     15  C   UNL     1      26.388  14.607  64.918  1.00  0.00     0.046 A 
ATOM     16  C   UNL     1      26.385  15.460  67.182  1.00  0.00     0.046 A 
ATOM     17  C   UNL     1      26.051  15.611  65.830  1.00  0.00     0.115 A 
BRANCH  17  18
ATOM     18  O   UNL     1      25.391  16.753  65.385  1.00  0.00    -0.508 OA
ATOM     19  H   UNL     1      24.410  16.732  65.129  1.00  0.00     0.293 HD
ENDBRANCH  17  18
ENDBRANCH   2  12
BRANCH   8  20
ATOM     20  O   UNL     1      32.541  12.241  64.453  1.00  0.00    -0.507 OA
ATOM     21  H   UNL     1      33.428  11.824  64.709  1.00  0.00     0.293 HD
ENDBRANCH   8  20
BRANCH   6  22
ATOM     22  O   UNL     1      29.878   8.873  62.241  1.00  0.00    -0.508 OA
ATOM     23  H   UNL     1      30.679   8.483  61.759  1.00  0.00     0.293 HD
ENDBRANCH   6  22
TORSDOF 4
ENDMDL
MODEL 2
REMARK VINA RESULT:    -6.108      5.519      8.764
REMARK INTER + INTRA:          -7.351
REMARK INTER:                  -7.074
REMARK INTRA:                  -0.277
REMARK UNBOUND:                -0.351
REMARK SMILES O=C1C[C@@H](c2ccc(O)cc2)Oc2cc(O)cc(O)c21
REMARK SMILES IDX 3 1 4 2 12 3 13 4 14 5 15 6 17 7 18 8 20 9 2 10 1 11 5 12
REMARK SMILES IDX 6 13 11 14 7 15 10 16 8 17 9 18 19 20 16 22
REMARK H PARENT 9 19 19 21 16 23
REMARK Flexibility Score: inf
ROOT
ATOM      1  C   UNL     1      35.304   9.974  59.997  1.00  0.00     0.131 C 
ATOM      2  C   UNL     1      34.934  10.335  61.448  1.00  0.00     0.211 C 
ATOM      3  O   UNL     1      35.835   9.734  62.388  1.00  0.00    -0.484 OA
ATOM      4  C   UNL     1      36.450   8.488  62.189  1.00  0.00     0.138 A 
ATOM      5  C   UNL     1      37.160   7.903  63.241  1.00  0.00     0.093 A 
ATOM      6  C   UNL     1      37.750   6.644  63.079  1.00  0.00     0.123 A 
ATOM      7  C   UNL     1      37.631   5.973  61.858  1.00  0.00     0.093 A 
ATOM      8  C   UNL     1      36.933   6.555  60.790  1.00  0.00     0.133 A 
ATOM      9  C   UNL     1      36.342   7.826  60.952  1.00  0.00     0.102 A 
ATOM     10  C   UNL     1      35.615   8.514  59.862  1.00  0.00     0.174 C 
ATOM     11  O   UNL     1      35.300   7.908  58.803  1.00  0.00    -0.294 OA
ENDROOT
BRANCH   2  12
ATOM     12  C   UNL     1      33.491   9.982  61.758  1.00  0.00    -0.007 A 
ATOM     13  C   UNL     1      32.617   9.488  60.770  1.00  0.00     0.011 A 
ATOM     14  C   UNL     1      32.988  10.216  63.051  1.00  0.00     0.011 A 
ATOM     15  C   UNL     1      31.282   9.210  61.078  1.00  0.00     0.046 A 
ATOM     16  C   UNL     1      31.652   9.938  63.356  1.00  0.00     0.046 A 
ATOM     17  C   UNL     1      30.796   9.431  62.370  1.00  0.00     0.115 A 
BRANCH  17  18
ATOM     18  O   UNL     1      29.464   9.150  62.662  1.00  0.00    -0.508 OA
ATOM     19  H   UNL     1      28.706   9.675  62.240  1.00  0.00     0.293 HD
ENDBRANCH  17  18
ENDBRANCH   2  12
BRANCH   8  20
ATOM     20  O   UNL     1      36.838   5.875  59.576  1.00  0.00    -0.507 OA
ATOM     21  H   UNL     1      37.661   5.627  59.040  1.00  0.00     0.293 HD
ENDBRANCH   8  20
BRANCH   6  22
ATOM     22  O   UNL     1      38.454   6.050  64.123  1.00  0.00    -0.508 OA
ATOM     23  H   UNL     1      39.461   5.937  64.086  1.00  0.00     0.293 HD
ENDBRANCH   6  22
TORSDOF 4
ENDMDL
MODEL 3
REMARK VINA RESULT:    -6.085      1.560      2.140
REMARK INTER + INTRA:          -7.325
REMARK INTER:                  -6.877
REMARK INTRA:                  -0.448
REMARK UNBOUND:                -0.351
REMARK SMILES O=C1C[C@@H](c2ccc(O)cc2)Oc2cc(O)cc(O)c21
REMARK SMILES IDX 3 1 4 2 12 3 13 4 14 5 15 6 17 7 18 8 20 9 2 10 1 11 5 12
REMARK SMILES IDX 6 13 11 14 7 15 10 16 8 17 9 18 19 20 16 22
REMARK H PARENT 9 19 19 21 16 23
REMARK Flexibility Score: inf
ROOT
ATOM      1  C   UNL     1      30.747  10.482  66.661  1.00  0.00     0.131 C 
ATOM      2  C   UNL     1      29.372  10.383  65.975  1.00  0.00     0.211 C 
ATOM      3  O   UNL     1      29.494   9.986  64.603  1.00  0.00    -0.484 OA
ATOM      4  C   UNL     1      30.578  10.337  63.785  1.00  0.00     0.138 A 
ATOM      5  C   UNL     1      30.516  10.063  62.416  1.00  0.00     0.093 A 
ATOM      6  C   UNL     1      31.569  10.437  61.573  1.00  0.00     0.123 A 
ATOM      7  C   UNL     1      32.688  11.084  62.105  1.00  0.00     0.093 A 
ATOM      8  C   UNL     1      32.770  11.352  63.479  1.00  0.00     0.133 A 
ATOM      9  C   UNL     1      31.711  10.971  64.330  1.00  0.00     0.102 A 
ATOM     10  C   UNL     1      31.739  11.196  65.792  1.00  0.00     0.174 C 
ATOM     11  O   UNL     1      32.612  11.933  66.323  1.00  0.00    -0.294 OA
ENDROOT
BRANCH   2  12
ATOM     12  C   UNL     1      28.587  11.675  66.113  1.00  0.00    -0.007 A 
ATOM     13  C   UNL     1      27.965  12.288  65.007  1.00  0.00     0.011 A 
ATOM     14  C   UNL     1      28.533  12.318  67.362  1.00  0.00     0.011 A 
ATOM     15  C   UNL     1      27.282  13.499  65.159  1.00  0.00     0.046 A 
ATOM     16  C   UNL     1      27.850  13.529  67.511  1.00  0.00     0.046 A 
ATOM     17  C   UNL     1      27.221  14.121  66.409  1.00  0.00     0.115 A 
BRANCH  17  18
ATOM     18  O   UNL     1      26.538  15.327  66.545  1.00  0.00    -0.508 OA
ATOM     19  H   UNL     1      25.673  15.391  67.069  1.00  0.00     0.293 HD
ENDBRANCH  17  18
ENDBRANCH   2  12
BRANCH   8  20
ATOM     20  O   UNL     1      33.902  11.985  63.992  1.00  0.00    -0.507 OA
ATOM     21  H   UNL     1      34.046  12.983  63.891  1.00  0.00     0.293 HD
ENDBRANCH   8  20
BRANCH   6  22
ATOM     22  O   UNL     1      31.513  10.174  60.206  1.00  0.00    -0.508 OA
ATOM     23  H   UNL     1      30.717  10.457  59.646  1.00  0.00     0.293 HD
ENDBRANCH   6  22
TORSDOF 4
ENDMDL
MODEL 4
REMARK VINA RESULT:    -5.986      5.007      7.608
REMARK INTER + INTRA:          -7.211
REMARK INTER:                  -6.753
REMARK INTRA:                  -0.459
REMARK UNBOUND:                -0.351
REMARK SMILES O=C1C[C@@H](c2ccc(O)cc2)Oc2cc(O)cc(O)c21
REMARK SMILES IDX 3 1 4 2 12 3 13 4 14 5 15 6 17 7 18 8 20 9 2 10 1 11 5 12
REMARK SMILES IDX 6 13 11 14 7 15 10 16 8 17 9 18 19 20 16 22
REMARK H PARENT 9 19 19 21 16 23
REMARK Flexibility Score: inf
ROOT
ATOM      1  C   UNL     1      35.559   9.245  62.525  1.00  0.00     0.131 C 
ATOM      2  C   UNL     1      35.257  10.363  63.540  1.00  0.00     0.211 C 
ATOM      3  O   UNL     1      33.910  10.286  64.025  1.00  0.00    -0.484 OA
ATOM      4  C   UNL     1      32.830   9.832  63.253  1.00  0.00     0.138 A 
ATOM      5  C   UNL     1      31.531   9.971  63.750  1.00  0.00     0.093 A 
ATOM      6  C   UNL     1      30.434   9.560  62.982  1.00  0.00     0.123 A 
ATOM      7  C   UNL     1      30.642   9.005  61.716  1.00  0.00     0.093 A 
ATOM      8  C   UNL     1      31.941   8.847  61.211  1.00  0.00     0.133 A 
ATOM      9  C   UNL     1      33.046   9.257  61.986  1.00  0.00     0.102 A 
ATOM     10  C   UNL     1      34.445   9.096  61.532  1.00  0.00     0.174 C 
ATOM     11  O   UNL     1      34.714   8.784  60.341  1.00  0.00    -0.294 OA
ENDROOT
BRANCH   2  12
ATOM     12  C   UNL     1      35.563  11.734  62.965  1.00  0.00    -0.007 A 
ATOM     13  C   UNL     1      36.587  11.931  62.018  1.00  0.00     0.011 A 
ATOM     14  C   UNL     1      34.853  12.852  63.438  1.00  0.00     0.011 A 
ATOM     15  C   UNL     1      36.871  13.213  61.537  1.00  0.00     0.046 A 
ATOM     16  C   UNL     1      35.140  14.133  62.955  1.00  0.00     0.046 A 
ATOM     17  C   UNL     1      36.149  14.316  62.001  1.00  0.00     0.115 A 
BRANCH  17  18
ATOM     18  O   UNL     1      36.443  15.587  61.514  1.00  0.00    -0.508 OA
ATOM     19  H   UNL     1      37.299  15.774  61.004  1.00  0.00     0.293 HD
ENDBRANCH  17  18
ENDBRANCH   2  12
BRANCH   8  20
ATOM     20  O   UNL     1      32.127   8.277  59.952  1.00  0.00    -0.507 OA
ATOM     21  H   UNL     1      32.782   7.518  59.803  1.00  0.00     0.293 HD
ENDBRANCH   8  20
BRANCH   6  22
ATOM     22  O   UNL     1      29.136   9.701  63.466  1.00  0.00    -0.508 OA
ATOM     23  H   UNL     1      28.920   9.568  64.447  1.00  0.00     0.293 HD
ENDBRANCH   6  22
TORSDOF 4
ENDMDL
MODEL 5
REMARK VINA RESULT:    -5.874      1.925      2.685
REMARK INTER + INTRA:          -7.083
REMARK INTER:                  -6.662
REMARK INTRA:                  -0.421
REMARK UNBOUND:                -0.351
REMARK SMILES O=C1C[C@@H](c2ccc(O)cc2)Oc2cc(O)cc(O)c21
REMARK SMILES IDX 3 1 4 2 12 3 13 4 14 5 15 6 17 7 18 8 20 9 2 10 1 11 5 12
REMARK SMILES IDX 6 13 11 14 7 15 10 16 8 17 9 18 19 20 16 22
REMARK H PARENT 9 19 19 21 16 23
REMARK Flexibility Score: inf
ROOT
ATOM      1  C   UNL     1      28.069  13.362  69.107  1.00  0.00     0.131 C 
ATOM      2  C   UNL     1      27.292  12.672  67.970  1.00  0.00     0.211 C 
ATOM      3  O   UNL     1      28.060  11.622  67.368  1.00  0.00    -0.484 OA
ATOM      4  C   UNL     1      29.457  11.653  67.244  1.00  0.00     0.138 A 
ATOM      5  C   UNL     1      30.095  10.675  66.477  1.00  0.00     0.093 A 
ATOM      6  C   UNL     1      31.485  10.707  66.306  1.00  0.00     0.123 A 
ATOM      7  C   UNL     1      32.235  11.720  66.910  1.00  0.00     0.093 A 
ATOM      8  C   UNL     1      31.609  12.700  67.694  1.00  0.00     0.133 A 
ATOM      9  C   UNL     1      30.210  12.665  67.869  1.00  0.00     0.102 A 
ATOM     10  C   UNL     1      29.484  13.648  68.704  1.00  0.00     0.174 C 
ATOM     11  O   UNL     1      30.050  14.692  69.125  1.00  0.00    -0.294 OA
ENDROOT
BRANCH   2  12
ATOM     12  C   UNL     1      26.813  13.674  66.936  1.00  0.00    -0.007 A 
ATOM     13  C   UNL     1      26.132  14.853  67.301  1.00  0.00     0.011 A 
ATOM     14  C   UNL     1      26.991  13.391  65.570  1.00  0.00     0.011 A 
ATOM     15  C   UNL     1      25.668  15.736  66.322  1.00  0.00     0.046 A 
ATOM     16  C   UNL     1      26.525  14.277  64.593  1.00  0.00     0.046 A 
ATOM     17  C   UNL     1      25.864  15.453  64.967  1.00  0.00     0.115 A 
BRANCH  17  18
ATOM     18  O   UNL     1      25.396  16.342  64.004  1.00  0.00    -0.508 OA
ATOM     19  H   UNL     1      24.762  17.096  64.241  1.00  0.00     0.293 HD
ENDBRANCH  17  18
ENDBRANCH   2  12
BRANCH   8  20
ATOM     20  O   UNL     1      32.378  13.693  68.300  1.00  0.00    -0.507 OA
ATOM     21  H   UNL     1      33.305  13.928  67.965  1.00  0.00     0.293 HD
ENDBRANCH   8  20
BRANCH   6  22
ATOM     22  O   UNL     1      32.129   9.739  65.538  1.00  0.00    -0.508 OA
ATOM     23  H   UNL     1      32.621   8.965  65.968  1.00  0.00     0.293 HD
ENDBRANCH   6  22
TORSDOF 4
ENDMDL
MODEL 6
REMARK VINA RESULT:    -5.847      4.341      7.079
REMARK INTER + INTRA:          -7.052
REMARK INTER:                  -6.598
REMARK INTRA:                  -0.453
REMARK UNBOUND:                -0.351
REMARK SMILES O=C1C[C@@H](c2ccc(O)cc2)Oc2cc(O)cc(O)c21
REMARK SMILES IDX 3 1 4 2 12 3 13 4 14 5 15 6 17 7 18 8 20 9 2 10 1 11 5 12
REMARK SMILES IDX 6 13 11 14 7 15 10 16 8 17 9 18 19 20 16 22
REMARK H PARENT 9 19 19 21 16 23
REMARK Flexibility Score: inf
ROOT
ATOM      1  C   UNL     1      32.117  11.470  65.407  1.00  0.00     0.131 C 
ATOM      2  C   UNL     1      33.587  11.019  65.330  1.00  0.00     0.211 C 
ATOM      3  O   UNL     1      33.954  10.640  63.997  1.00  0.00    -0.484 OA
ATOM      4  C   UNL     1      33.068  10.047  63.085  1.00  0.00     0.138 A 
ATOM      5  C   UNL     1      33.566   9.544  61.880  1.00  0.00     0.093 A 
ATOM      6  C   UNL     1      32.708   8.913  60.970  1.00  0.00     0.123 A 
ATOM      7  C   UNL     1      31.348   8.792  61.269  1.00  0.00     0.093 A 
ATOM      8  C   UNL     1      30.833   9.306  62.468  1.00  0.00     0.133 A 
ATOM      9  C   UNL     1      31.696   9.944  63.383  1.00  0.00     0.102 A 
ATOM     10  C   UNL     1      31.220  10.535  64.653  1.00  0.00     0.174 C 
ATOM     11  O   UNL     1      30.058  10.307  65.084  1.00  0.00    -0.294 OA
ENDROOT
BRANCH   2  12
ATOM     12  C   UNL     1      33.881   9.911  66.324  1.00  0.00    -0.007 A 
ATOM     13  C   UNL     1      33.172   9.790  67.536  1.00  0.00     0.011 A 
ATOM     14  C   UNL     1      34.935   9.015  66.065  1.00  0.00     0.011 A 
ATOM     15  C   UNL     1      33.494   8.781  68.449  1.00  0.00     0.046 A 
ATOM     16  C   UNL     1      35.254   8.008  66.980  1.00  0.00     0.046 A 
ATOM     17  C   UNL     1      34.532   7.887  68.174  1.00  0.00     0.115 A 
BRANCH  17  18
ATOM     18  O   UNL     1      34.841   6.888  69.093  1.00  0.00    -0.508 OA
ATOM     19  H   UNL     1      35.723   6.881  69.593  1.00  0.00     0.293 HD
ENDBRANCH  17  18
ENDBRANCH   2  12
BRANCH   8  20
ATOM     20  O   UNL     1      29.470   9.188  62.739  1.00  0.00    -0.507 OA
ATOM     21  H   UNL     1      29.113   8.492  63.384  1.00  0.00     0.293 HD
ENDBRANCH   8  20
BRANCH   6  22
ATOM     22  O   UNL     1      33.197   8.403  59.770  1.00  0.00    -0.508 OA
ATOM     23  H   UNL     1      34.124   7.999  59.706  1.00  0.00     0.293 HD
ENDBRANCH   6  22
TORSDOF 4
ENDMDL
MODEL 7
REMARK VINA RESULT:    -5.770      4.201      8.737
REMARK INTER + INTRA:          -6.964
REMARK INTER:                  -6.637
REMARK INTRA:                  -0.327
REMARK UNBOUND:                -0.351
REMARK SMILES O=C1C[C@@H](c2ccc(O)cc2)Oc2cc(O)cc(O)c21
REMARK SMILES IDX 3 1 4 2 12 3 13 4 14 5 15 6 17 7 18 8 20 9 2 10 1 11 5 12
REMARK SMILES IDX 6 13 11 14 7 15 10 16 8 17 9 18 19 20 16 22
REMARK H PARENT 9 19 19 21 16 23
REMARK Flexibility Score: inf
ROOT
ATOM      1  C   UNL     1      34.544  11.075  61.132  1.00  0.00     0.131 C 
ATOM      2  C   UNL     1      34.212   9.650  60.652  1.00  0.00     0.211 C 
ATOM      3  O   UNL     1      32.829   9.332  60.860  1.00  0.00    -0.484 OA
ATOM      4  C   UNL     1      32.071   9.825  61.932  1.00  0.00     0.138 A 
ATOM      5  C   UNL     1      30.790   9.310  62.155  1.00  0.00     0.093 A 
ATOM      6  C   UNL     1      30.029   9.759  63.241  1.00  0.00     0.123 A 
ATOM      7  C   UNL     1      30.552  10.728  64.103  1.00  0.00     0.093 A 
ATOM      8  C   UNL     1      31.829  11.263  63.882  1.00  0.00     0.133 A 
ATOM      9  C   UNL     1      32.595  10.814  62.786  1.00  0.00     0.102 A 
ATOM     10  C   UNL     1      33.937  11.352  62.475  1.00  0.00     0.174 C 
ATOM     11  O   UNL     1      34.556  12.081  63.296  1.00  0.00    -0.294 OA
ENDROOT
BRANCH   2  12
ATOM     12  C   UNL     1      35.122   8.620  61.294  1.00  0.00    -0.007 A 
ATOM     13  C   UNL     1      34.662   7.741  62.295  1.00  0.00     0.011 A 
ATOM     14  C   UNL     1      36.481   8.581  60.931  1.00  0.00     0.011 A 
ATOM     15  C   UNL     1      35.537   6.830  62.895  1.00  0.00     0.046 A 
ATOM     16  C   UNL     1      37.353   7.669  61.534  1.00  0.00     0.046 A 
ATOM     17  C   UNL     1      36.881   6.789  62.516  1.00  0.00     0.115 A 
BRANCH  17  18
ATOM     18  O   UNL     1      37.740   5.876  63.123  1.00  0.00    -0.508 OA
ATOM     19  H   UNL     1      37.389   5.053  63.599  1.00  0.00     0.293 HD
ENDBRANCH  17  18
ENDBRANCH   2  12
BRANCH   8  20
ATOM     20  O   UNL     1      32.326  12.240  64.745  1.00  0.00    -0.507 OA
ATOM     21  H   UNL     1      33.290  12.237  65.054  1.00  0.00     0.293 HD
ENDBRANCH   8  20
BRANCH   6  22
ATOM     22  O   UNL     1      28.755   9.247  63.475  1.00  0.00    -0.508 OA
ATOM     23  H   UNL     1      28.144   8.980  62.711  1.00  0.00     0.293 HD
ENDBRANCH   6  22
TORSDOF 4
ENDMDL
MODEL 8
REMARK VINA RESULT:    -5.685      4.817      7.839
REMARK INTER + INTRA:          -6.867
REMARK INTER:                  -6.622
REMARK INTRA:                  -0.245
REMARK UNBOUND:                -0.351
REMARK SMILES O=C1C[C@@H](c2ccc(O)cc2)Oc2cc(O)cc(O)c21
REMARK SMILES IDX 3 1 4 2 12 3 13 4 14 5 15 6 17 7 18 8 20 9 2 10 1 11 5 12
REMARK SMILES IDX 6 13 11 14 7 15 10 16 8 17 9 18 19 20 16 22
REMARK H PARENT 9 19 19 21 16 23
REMARK Flexibility Score: inf
ROOT
ATOM      1  C   UNL     1      34.727  10.192  61.056  1.00  0.00     0.131 C 
ATOM      2  C   UNL     1      34.298  10.454  62.511  1.00  0.00     0.211 C 
ATOM      3  O   UNL     1      35.137   9.757  63.442  1.00  0.00    -0.484 OA
ATOM      4  C   UNL     1      35.726   8.512  63.177  1.00  0.00     0.138 A 
ATOM      5  C   UNL     1      36.370   7.828  64.212  1.00  0.00     0.093 A 
ATOM      6  C   UNL     1      36.934   6.567  63.981  1.00  0.00     0.123 A 
ATOM      7  C   UNL     1      36.855   5.994  62.708  1.00  0.00     0.093 A 
ATOM      8  C   UNL     1      36.224   6.676  61.658  1.00  0.00     0.133 A 
ATOM      9  C   UNL     1      35.660   7.948  61.889  1.00  0.00     0.102 A 
ATOM     10  C   UNL     1      35.005   8.738  60.823  1.00  0.00     0.174 C 
ATOM     11  O   UNL     1      34.725   8.223  59.707  1.00  0.00    -0.294 OA
ENDROOT
BRANCH   2  12
ATOM     12  C   UNL     1      32.832  10.123  62.727  1.00  0.00    -0.007 A 
ATOM     13  C   UNL     1      32.012   9.659  61.679  1.00  0.00     0.011 A 
ATOM     14  C   UNL     1      32.255  10.346  63.990  1.00  0.00     0.011 A 
ATOM     15  C   UNL     1      30.656   9.400  61.902  1.00  0.00     0.046 A 
ATOM     16  C   UNL     1      30.898  10.086  64.209  1.00  0.00     0.046 A 
ATOM     17  C   UNL     1      30.096   9.611  63.165  1.00  0.00     0.115 A 
BRANCH  17  18
ATOM     18  O   UNL     1      28.744   9.349  63.371  1.00  0.00    -0.508 OA
ATOM     19  H   UNL     1      28.410   8.415  63.579  1.00  0.00     0.293 HD
ENDBRANCH  17  18
ENDBRANCH   2  12
BRANCH   8  20
ATOM     20  O   UNL     1      36.170   6.092  60.392  1.00  0.00    -0.507 OA
ATOM     21  H   UNL     1      36.212   6.650  59.547  1.00  0.00     0.293 HD
ENDBRANCH   8  20
BRANCH   6  22
ATOM     22  O   UNL     1      37.571   5.876  65.008  1.00  0.00    -0.508 OA
ATOM     23  H   UNL     1      38.372   6.266  65.491  1.00  0.00     0.293 HD
ENDBRANCH   6  22
TORSDOF 4
ENDMDL
MODEL 9
REMARK VINA RESULT:    -5.567      3.601      6.399
REMARK INTER + INTRA:          -6.731
REMARK INTER:                  -6.491
REMARK INTRA:                  -0.241
REMARK UNBOUND:                -0.351
REMARK SMILES O=C1C[C@@H](c2ccc(O)cc2)Oc2cc(O)cc(O)c21
REMARK SMILES IDX 3 1 4 2 12 3 13 4 14 5 15 6 17 7 18 8 20 9 2 10 1 11 5 12
REMARK SMILES IDX 6 13 11 14 7 15 10 16 8 17 9 18 19 20 16 22
REMARK H PARENT 9 19 19 21 16 23
REMARK Flexibility Score: inf
ROOT
ATOM      1  C   UNL     1      34.306   9.996  63.649  1.00  0.00     0.131 C 
ATOM      2  C   UNL     1      34.452  10.615  65.051  1.00  0.00     0.211 C 
ATOM      3  O   UNL     1      33.268  10.426  65.838  1.00  0.00    -0.484 OA
ATOM      4  C   UNL     1      31.973  10.394  65.299  1.00  0.00     0.138 A 
ATOM      5  C   UNL     1      30.875  10.394  66.163  1.00  0.00     0.093 A 
ATOM      6  C   UNL     1      29.572  10.400  65.649  1.00  0.00     0.123 A 
ATOM      7  C   UNL     1      29.372  10.402  64.266  1.00  0.00     0.093 A 
ATOM      8  C   UNL     1      30.465  10.388  63.388  1.00  0.00     0.133 A 
ATOM      9  C   UNL     1      31.778  10.377  63.905  1.00  0.00     0.102 A 
ATOM     10  C   UNL     1      32.978  10.334  63.041  1.00  0.00     0.174 C 
ATOM     11  O   UNL     1      32.895  10.523  61.798  1.00  0.00    -0.294 OA
ENDROOT
BRANCH   2  12
ATOM     12  C   UNL     1      34.841  12.080  64.975  1.00  0.00    -0.007 A 
ATOM     13  C   UNL     1      35.047  12.732  63.743  1.00  0.00     0.011 A 
ATOM     14  C   UNL     1      35.067  12.795  66.165  1.00  0.00     0.011 A 
ATOM     15  C   UNL     1      35.443  14.073  63.708  1.00  0.00     0.046 A 
ATOM     16  C   UNL     1      35.464  14.135  66.126  1.00  0.00     0.046 A 
ATOM     17  C   UNL     1      35.651  14.778  64.896  1.00  0.00     0.115 A 
BRANCH  17  18
ATOM     18  O   UNL     1      36.046  16.112  64.845  1.00  0.00    -0.508 OA
ATOM     19  H   UNL     1      35.779  16.773  65.566  1.00  0.00     0.293 HD
ENDBRANCH  17  18
ENDBRANCH   2  12
BRANCH   8  20
ATOM     20  O   UNL     1      30.243  10.375  62.010  1.00  0.00    -0.507 OA
ATOM     21  H   UNL     1      29.309  10.311  61.622  1.00  0.00     0.293 HD
ENDBRANCH   8  20
BRANCH   6  22
ATOM     22  O   UNL     1      28.472  10.406  66.503  1.00  0.00    -0.508 OA
ATOM     23  H   UNL     1      27.832  11.191  66.535  1.00  0.00     0.293 HD
ENDBRANCH   6  22
TORSDOF 4
ENDMDL
