MODEL 1
REMARK VINA RESULT:    -4.456      0.000      0.000
REMARK INTER + INTRA:          -5.210
REMARK INTER:                  -4.977
REMARK INTRA:                  -0.233
REMARK UNBOUND:                -0.233
REMARK SMILES COc1cc2c(cc1C(C)=O)C=CC(C)(C)O2
REMARK SMILES IDX 8 1 3 2 4 3 5 4 6 5 7 6 12 7 13 8 14 9 17 10 15 11 16 12
REMARK SMILES IDX 9 13 10 14 11 15 2 16 1 17
REMARK H PARENT
REMARK Flexibility Score: inf
ROOT
ATOM      1  C   UNL     1      18.556 -15.223  36.607  1.00  0.00     0.060 A 
ATOM      2  C   UNL     1      18.042 -15.433  37.911  1.00  0.00     0.133 A 
ATOM      3  C   UNL     1      16.724 -15.031  38.207  1.00  0.00     0.094 A 
ATOM      4  C   UNL     1      15.923 -14.445  37.226  1.00  0.00     0.131 A 
ATOM      5  C   UNL     1      16.418 -14.264  35.934  1.00  0.00     0.017 A 
ATOM      6  C   UNL     1      17.724 -14.655  35.623  1.00  0.00     0.027 A 
ATOM      7  C   UNL     1      15.527 -13.697  34.908  1.00  0.00     0.012 C 
ATOM      8  C   UNL     1      14.307 -13.259  35.232  1.00  0.00     0.021 C 
ATOM      9  C   UNL     1      13.832 -13.207  36.674  1.00  0.00     0.122 C 
ATOM     10  O   UNL     1      14.613 -14.058  37.525  1.00  0.00    -0.483 OA
ATOM     11  C   UNL     1      13.951 -11.765  37.185  1.00  0.00     0.061 C 
ATOM     12  C   UNL     1      12.371 -13.665  36.744  1.00  0.00     0.061 C 
ENDROOT
BRANCH   1  13
ATOM     13  C   UNL     1      19.944 -15.601  36.230  1.00  0.00     0.163 C 
ATOM     14  C   UNL     1      20.270 -16.911  35.578  1.00  0.00     0.093 C 
ATOM     15  O   UNL     1      20.889 -14.800  36.467  1.00  0.00    -0.294 OA
ENDBRANCH   1  13
BRANCH   2  16
ATOM     16  O   UNL     1      18.846 -16.057  38.880  1.00  0.00    -0.496 OA
ATOM     17  C   UNL     1      18.371 -16.587  40.113  1.00  0.00     0.278 C 
ENDBRANCH   2  16
TORSDOF 2
ENDMDL
MODEL 2
REMARK VINA RESULT:    -4.448     16.250     18.042
REMARK INTER + INTRA:          -5.201
REMARK INTER:                  -4.992
REMARK INTRA:                  -0.208
REMARK UNBOUND:                -0.233
REMARK SMILES COc1cc2c(cc1C(C)=O)C=CC(C)(C)O2
REMARK SMILES IDX 8 1 3 2 4 3 5 4 6 5 7 6 12 7 13 8 14 9 17 10 15 11 16 12
REMARK SMILES IDX 9 13 10 14 11 15 2 16 1 17
REMARK H PARENT
REMARK Flexibility Score: inf
ROOT
ATOM      1  C   UNL     1      17.713  -3.851  22.307  1.00  0.00     0.060 A 
ATOM      2  C   UNL     1      16.853  -2.767  22.004  1.00  0.00     0.133 A 
ATOM      3  C   UNL     1      16.297  -2.011  23.056  1.00  0.00     0.094 A 
ATOM      4  C   UNL     1      16.597  -2.315  24.384  1.00  0.00     0.131 A 
ATOM      5  C   UNL     1      17.466  -3.365  24.684  1.00  0.00     0.017 A 
ATOM      6  C   UNL     1      18.026  -4.126  23.652  1.00  0.00     0.027 A 
ATOM      7  C   UNL     1      17.808  -3.620  26.092  1.00  0.00     0.012 C 
ATOM      8  C   UNL     1      17.211  -2.936  27.073  1.00  0.00     0.021 C 
ATOM      9  C   UNL     1      16.076  -1.965  26.796  1.00  0.00     0.122 C 
ATOM     10  O   UNL     1      16.048  -1.554  25.421  1.00  0.00    -0.483 OA
ATOM     11  C   UNL     1      14.744  -2.650  27.128  1.00  0.00     0.061 C 
ATOM     12  C   UNL     1      16.252  -0.716  27.668  1.00  0.00     0.061 C 
ENDROOT
BRANCH   1  13
ATOM     13  C   UNL     1      18.318  -4.705  21.250  1.00  0.00     0.163 C 
ATOM     14  C   UNL     1      19.764  -4.605  20.867  1.00  0.00     0.093 C 
ATOM     15  O   UNL     1      17.597  -5.544  20.645  1.00  0.00    -0.294 OA
ENDBRANCH   1  13
BRANCH   2  16
ATOM     16  O   UNL     1      16.587  -2.449  20.661  1.00  0.00    -0.496 OA
ATOM     17  C   UNL     1      16.149  -1.175  20.198  1.00  0.00     0.278 C 
ENDBRANCH   2  16
TORSDOF 2
ENDMDL
MODEL 3
REMARK VINA RESULT:    -4.367      1.548      6.078
REMARK INTER + INTRA:          -5.110
REMARK INTER:                  -4.867
REMARK INTRA:                  -0.243
REMARK UNBOUND:                -0.233
REMARK SMILES COc1cc2c(cc1C(C)=O)C=CC(C)(C)O2
REMARK SMILES IDX 8 1 3 2 4 3 5 4 6 5 7 6 12 7 13 8 14 9 17 10 15 11 16 12
REMARK SMILES IDX 9 13 10 14 11 15 2 16 1 17
REMARK H PARENT
REMARK Flexibility Score: inf
ROOT
ATOM      1  C   UNL     1      14.498 -13.709  36.699  1.00  0.00     0.060 A 
ATOM      2  C   UNL     1      14.906 -13.598  35.346  1.00  0.00     0.133 A 
ATOM      3  C   UNL     1      16.195 -14.035  34.976  1.00  0.00     0.094 A 
ATOM      4  C   UNL     1      17.059 -14.581  35.925  1.00  0.00     0.131 A 
ATOM      5  C   UNL     1      16.648 -14.717  37.252  1.00  0.00     0.017 A 
ATOM      6  C   UNL     1      15.374 -14.288  37.637  1.00  0.00     0.027 A 
ATOM      7  C   UNL     1      17.562 -15.353  38.214  1.00  0.00     0.012 C 
ATOM      8  C   UNL     1      18.804 -15.690  37.854  1.00  0.00     0.021 C 
ATOM      9  C   UNL     1      19.369 -15.327  36.492  1.00  0.00     0.122 C 
ATOM     10  O   UNL     1      18.332 -15.020  35.548  1.00  0.00    -0.483 OA
ATOM     11  C   UNL     1      20.273 -14.096  36.641  1.00  0.00     0.061 C 
ATOM     12  C   UNL     1      20.182 -16.507  35.948  1.00  0.00     0.061 C 
ENDROOT
BRANCH   1  13
ATOM     13  C   UNL     1      13.162 -13.250  37.165  1.00  0.00     0.163 C 
ATOM     14  C   UNL     1      12.980 -12.007  37.981  1.00  0.00     0.093 C 
ATOM     15  O   UNL     1      12.139 -13.927  36.870  1.00  0.00    -0.294 OA
ENDBRANCH   1  13
BRANCH   2  16
ATOM     16  O   UNL     1      14.014 -13.079  34.394  1.00  0.00    -0.496 OA
ATOM     17  C   UNL     1      13.306 -13.856  33.433  1.00  0.00     0.278 C 
ENDBRANCH   2  16
TORSDOF 2
ENDMDL
MODEL 4
REMARK VINA RESULT:    -4.316     15.380     17.383
REMARK INTER + INTRA:          -5.054
REMARK INTER:                  -4.809
REMARK INTRA:                  -0.245
REMARK UNBOUND:                -0.233
REMARK SMILES COc1cc2c(cc1C(C)=O)C=CC(C)(C)O2
REMARK SMILES IDX 8 1 3 2 4 3 5 4 6 5 7 6 12 7 13 8 14 9 17 10 15 11 16 12
REMARK SMILES IDX 9 13 10 14 11 15 2 16 1 17
REMARK H PARENT
REMARK Flexibility Score: inf
ROOT
ATOM      1  C   UNL     1      16.403  -2.258  26.103  1.00  0.00     0.060 A 
ATOM      2  C   UNL     1      17.402  -3.177  26.511  1.00  0.00     0.133 A 
ATOM      3  C   UNL     1      18.112  -3.903  25.533  1.00  0.00     0.094 A 
ATOM      4  C   UNL     1      17.847  -3.714  24.177  1.00  0.00     0.131 A 
ATOM      5  C   UNL     1      16.884  -2.789  23.773  1.00  0.00     0.017 A 
ATOM      6  C   UNL     1      16.169  -2.061  24.729  1.00  0.00     0.027 A 
ATOM      7  C   UNL     1      16.672  -2.572  22.333  1.00  0.00     0.012 C 
ATOM      8  C   UNL     1      17.306  -3.324  21.429  1.00  0.00     0.021 C 
ATOM      9  C   UNL     1      18.167  -4.508  21.835  1.00  0.00     0.122 C 
ATOM     10  O   UNL     1      18.563  -4.433  23.214  1.00  0.00    -0.483 OA
ATOM     11  C   UNL     1      17.366  -5.800  21.628  1.00  0.00     0.061 C 
ATOM     12  C   UNL     1      19.433  -4.536  20.972  1.00  0.00     0.061 C 
ENDROOT
BRANCH   1  13
ATOM     13  C   UNL     1      15.601  -1.473  27.079  1.00  0.00     0.163 C 
ATOM     14  C   UNL     1      16.151  -0.276  27.793  1.00  0.00     0.093 C 
ATOM     15  O   UNL     1      14.413  -1.822  27.325  1.00  0.00    -0.294 OA
ENDBRANCH   1  13
BRANCH   2  16
ATOM     16  O   UNL     1      17.684  -3.332  27.878  1.00  0.00    -0.496 OA
ATOM     17  C   UNL     1      18.851  -2.840  28.530  1.00  0.00     0.278 C 
ENDBRANCH   2  16
TORSDOF 2
ENDMDL
MODEL 5
REMARK VINA RESULT:    -4.215      1.456      5.542
REMARK INTER + INTRA:          -4.941
REMARK INTER:                  -4.933
REMARK INTRA:                  -0.008
REMARK UNBOUND:                -0.233
REMARK SMILES COc1cc2c(cc1C(C)=O)C=CC(C)(C)O2
REMARK SMILES IDX 8 1 3 2 4 3 5 4 6 5 7 6 12 7 13 8 14 9 17 10 15 11 16 12
REMARK SMILES IDX 9 13 10 14 11 15 2 16 1 17
REMARK H PARENT
REMARK Flexibility Score: inf
ROOT
ATOM      1  C   UNL     1      16.386 -14.162  36.675  1.00  0.00     0.060 A 
ATOM      2  C   UNL     1      16.766 -14.869  37.844  1.00  0.00     0.133 A 
ATOM      3  C   UNL     1      18.050 -15.448  37.914  1.00  0.00     0.094 A 
ATOM      4  C   UNL     1      18.945 -15.319  36.852  1.00  0.00     0.131 A 
ATOM      5  C   UNL     1      18.582 -14.600  35.712  1.00  0.00     0.017 A 
ATOM      6  C   UNL     1      17.313 -14.020  35.625  1.00  0.00     0.027 A 
ATOM      7  C   UNL     1      19.573 -14.433  34.636  1.00  0.00     0.012 C 
ATOM      8  C   UNL     1      20.755 -15.052  34.696  1.00  0.00     0.021 C 
ATOM      9  C   UNL     1      21.084 -16.045  35.798  1.00  0.00     0.122 C 
ATOM     10  O   UNL     1      20.220 -15.889  36.933  1.00  0.00    -0.483 OA
ATOM     11  C   UNL     1      20.918 -17.469  35.250  1.00  0.00     0.061 C 
ATOM     12  C   UNL     1      22.530 -15.830  36.260  1.00  0.00     0.061 C 
ENDROOT
BRANCH   1  13
ATOM     13  C   UNL     1      15.042 -13.545  36.524  1.00  0.00     0.163 C 
ATOM     14  C   UNL     1      14.505 -12.540  37.498  1.00  0.00     0.093 C 
ATOM     15  O   UNL     1      14.317 -13.873  35.545  1.00  0.00    -0.294 OA
ENDBRANCH   1  13
BRANCH   2  16
ATOM     16  O   UNL     1      15.868 -14.961  38.920  1.00  0.00    -0.496 OA
ATOM     17  C   UNL     1      16.113 -15.680  40.125  1.00  0.00     0.278 C 
ENDBRANCH   2  16
TORSDOF 2
ENDMDL
MODEL 6
REMARK VINA RESULT:    -4.125     15.911     18.044
REMARK INTER + INTRA:          -4.840
REMARK INTER:                  -4.629
REMARK INTRA:                  -0.211
REMARK UNBOUND:                -0.233
REMARK SMILES COc1cc2c(cc1C(C)=O)C=CC(C)(C)O2
REMARK SMILES IDX 8 1 3 2 4 3 5 4 6 5 7 6 12 7 13 8 14 9 17 10 15 11 16 12
REMARK SMILES IDX 9 13 10 14 11 15 2 16 1 17
REMARK H PARENT
REMARK Flexibility Score: inf
ROOT
ATOM      1  C   UNL     1      16.067  -1.989  23.105  1.00  0.00     0.060 A 
ATOM      2  C   UNL     1      16.871  -2.992  22.508  1.00  0.00     0.133 A 
ATOM      3  C   UNL     1      17.689  -3.798  23.326  1.00  0.00     0.094 A 
ATOM      4  C   UNL     1      17.702  -3.622  24.710  1.00  0.00     0.131 A 
ATOM      5  C   UNL     1      16.890  -2.654  25.301  1.00  0.00     0.017 A 
ATOM      6  C   UNL     1      16.073  -1.845  24.505  1.00  0.00     0.027 A 
ATOM      7  C   UNL     1      16.883  -2.537  26.768  1.00  0.00     0.012 C 
ATOM      8  C   UNL     1      17.721  -3.262  27.514  1.00  0.00     0.021 C 
ATOM      9  C   UNL     1      18.794  -4.139  26.891  1.00  0.00     0.122 C 
ATOM     10  O   UNL     1      18.510  -4.432  25.514  1.00  0.00    -0.483 OA
ATOM     11  C   UNL     1      20.140  -3.406  26.966  1.00  0.00     0.061 C 
ATOM     12  C   UNL     1      18.878  -5.463  27.658  1.00  0.00     0.061 C 
ENDROOT
BRANCH   1  13
ATOM     13  C   UNL     1      15.196  -1.089  22.303  1.00  0.00     0.163 C 
ATOM     14  C   UNL     1      15.747   0.028  21.469  1.00  0.00     0.093 C 
ATOM     15  O   UNL     1      13.946  -1.260  22.321  1.00  0.00    -0.294 OA
ENDBRANCH   1  13
BRANCH   2  16
ATOM     16  O   UNL     1      16.822  -3.182  21.117  1.00  0.00    -0.496 OA
ATOM     17  C   UNL     1      16.304  -4.341  20.472  1.00  0.00     0.278 C 
ENDBRANCH   2  16
TORSDOF 2
ENDMDL
MODEL 7
REMARK VINA RESULT:    -4.109     16.181     17.891
REMARK INTER + INTRA:          -4.822
REMARK INTER:                  -4.597
REMARK INTRA:                  -0.225
REMARK UNBOUND:                -0.233
REMARK SMILES COc1cc2c(cc1C(C)=O)C=CC(C)(C)O2
REMARK SMILES IDX 8 1 3 2 4 3 5 4 6 5 7 6 12 7 13 8 14 9 17 10 15 11 16 12
REMARK SMILES IDX 9 13 10 14 11 15 2 16 1 17
REMARK H PARENT
REMARK Flexibility Score: inf
ROOT
ATOM      1  C   UNL     1      18.003  -4.482  24.601  1.00  0.00     0.060 A 
ATOM      2  C   UNL     1      18.399  -5.024  23.352  1.00  0.00     0.133 A 
ATOM      3  C   UNL     1      17.975  -4.399  22.162  1.00  0.00     0.094 A 
ATOM      4  C   UNL     1      17.185  -3.250  22.206  1.00  0.00     0.131 A 
ATOM      5  C   UNL     1      16.818  -2.699  23.434  1.00  0.00     0.017 A 
ATOM      6  C   UNL     1      17.228  -3.307  24.625  1.00  0.00     0.027 A 
ATOM      7  C   UNL     1      16.034  -1.453  23.444  1.00  0.00     0.012 C 
ATOM      8  C   UNL     1      15.584  -0.921  22.305  1.00  0.00     0.021 C 
ATOM      9  C   UNL     1      15.748  -1.631  20.971  1.00  0.00     0.122 C 
ATOM     10  O   UNL     1      16.777  -2.631  21.021  1.00  0.00    -0.483 OA
ATOM     11  C   UNL     1      14.423  -2.312  20.604  1.00  0.00     0.061 C 
ATOM     12  C   UNL     1      16.123  -0.607  19.894  1.00  0.00     0.061 C 
ENDROOT
BRANCH   1  13
ATOM     13  C   UNL     1      18.395  -5.100  25.895  1.00  0.00     0.163 C 
ATOM     14  C   UNL     1      17.714  -6.319  26.442  1.00  0.00     0.093 C 
ATOM     15  O   UNL     1      19.331  -4.587  26.567  1.00  0.00    -0.294 OA
ENDBRANCH   1  13
BRANCH   2  16
ATOM     16  O   UNL     1      19.224  -6.160  23.322  1.00  0.00    -0.496 OA
ATOM     17  C   UNL     1      19.106  -7.227  22.386  1.00  0.00     0.278 C 
ENDBRANCH   2  16
TORSDOF 2
ENDMDL
MODEL 8
REMARK VINA RESULT:    -4.095      2.332      3.859
REMARK INTER + INTRA:          -4.806
REMARK INTER:                  -4.590
REMARK INTRA:                  -0.216
REMARK UNBOUND:                -0.233
REMARK SMILES COc1cc2c(cc1C(C)=O)C=CC(C)(C)O2
REMARK SMILES IDX 8 1 3 2 4 3 5 4 6 5 7 6 12 7 13 8 14 9 17 10 15 11 16 12
REMARK SMILES IDX 9 13 10 14 11 15 2 16 1 17
REMARK H PARENT
REMARK Flexibility Score: inf
ROOT
ATOM      1  C   UNL     1      20.241 -15.461  35.366  1.00  0.00     0.060 A 
ATOM      2  C   UNL     1      20.282 -14.512  34.314  1.00  0.00     0.133 A 
ATOM      3  C   UNL     1      19.176 -13.662  34.107  1.00  0.00     0.094 A 
ATOM      4  C   UNL     1      18.055 -13.742  34.934  1.00  0.00     0.131 A 
ATOM      5  C   UNL     1      18.025 -14.657  35.987  1.00  0.00     0.017 A 
ATOM      6  C   UNL     1      19.112 -15.508  36.206  1.00  0.00     0.027 A 
ATOM      7  C   UNL     1      16.852 -14.673  36.876  1.00  0.00     0.012 C 
ATOM      8  C   UNL     1      15.788 -13.909  36.615  1.00  0.00     0.021 C 
ATOM      9  C   UNL     1      15.683 -13.091  35.339  1.00  0.00     0.122 C 
ATOM     10  O   UNL     1      16.967 -12.889  34.727  1.00  0.00    -0.483 OA
ATOM     11  C   UNL     1      14.781 -13.834  34.345  1.00  0.00     0.061 C 
ATOM     12  C   UNL     1      15.083 -11.719  35.662  1.00  0.00     0.061 C 
ENDROOT
BRANCH   1  13
ATOM     13  C   UNL     1      21.361 -16.403  35.629  1.00  0.00     0.163 C 
ATOM     14  C   UNL     1      22.634 -15.972  36.292  1.00  0.00     0.093 C 
ATOM     15  O   UNL     1      21.248 -17.611  35.283  1.00  0.00    -0.294 OA
ENDBRANCH   1  13
BRANCH   2  16
ATOM     16  O   UNL     1      21.431 -14.417  33.511  1.00  0.00    -0.496 OA
ATOM     17  C   UNL     1      21.563 -14.982  32.211  1.00  0.00     0.278 C 
ENDBRANCH   2  16
TORSDOF 2
ENDMDL
MODEL 9
REMARK VINA RESULT:    -3.966     15.595     17.662
REMARK INTER + INTRA:          -4.662
REMARK INTER:                  -4.674
REMARK INTRA:                   0.011
REMARK UNBOUND:                -0.233
REMARK SMILES COc1cc2c(cc1C(C)=O)C=CC(C)(C)O2
REMARK SMILES IDX 8 1 3 2 4 3 5 4 6 5 7 6 12 7 13 8 14 9 17 10 15 11 16 12
REMARK SMILES IDX 9 13 10 14 11 15 2 16 1 17
REMARK H PARENT
REMARK Flexibility Score: inf
ROOT
ATOM      1  C   UNL     1      17.299  -3.577  23.476  1.00  0.00     0.060 A 
ATOM      2  C   UNL     1      17.255  -4.627  24.427  1.00  0.00     0.133 A 
ATOM      3  C   UNL     1      17.996  -5.803  24.192  1.00  0.00     0.094 A 
ATOM      4  C   UNL     1      18.777  -5.932  23.043  1.00  0.00     0.131 A 
ATOM      5  C   UNL     1      18.844  -4.888  22.120  1.00  0.00     0.017 A 
ATOM      6  C   UNL     1      18.114  -3.715  22.336  1.00  0.00     0.027 A 
ATOM      7  C   UNL     1      19.724  -5.034  20.950  1.00  0.00     0.012 C 
ATOM      8  C   UNL     1      20.359  -6.186  20.713  1.00  0.00     0.021 C 
ATOM      9  C   UNL     1      20.110  -7.425  21.557  1.00  0.00     0.122 C 
ATOM     10  O   UNL     1      19.516  -7.098  22.823  1.00  0.00    -0.483 OA
ATOM     11  C   UNL     1      19.159  -8.360  20.798  1.00  0.00     0.061 C 
ATOM     12  C   UNL     1      21.442  -8.137  21.819  1.00  0.00     0.061 C 
ENDROOT
BRANCH   1  13
ATOM     13  C   UNL     1      16.527  -2.317  23.647  1.00  0.00     0.163 C 
ATOM     14  C   UNL     1      15.736  -1.702  22.533  1.00  0.00     0.093 C 
ATOM     15  O   UNL     1      16.534  -1.735  24.766  1.00  0.00    -0.294 OA
ENDBRANCH   1  13
BRANCH   2  16
ATOM     16  O   UNL     1      16.493  -4.470  25.596  1.00  0.00    -0.496 OA
ATOM     17  C   UNL     1      16.995  -4.617  26.921  1.00  0.00     0.278 C 
ENDBRANCH   2  16
TORSDOF 2
ENDMDL
