MODEL 1
REMARK VINA RESULT:    -1.962      0.000      0.000
REMARK INTER + INTRA:          -1.962
REMARK INTER:                  -1.962
REMARK INTRA:                   0.000
REMARK UNBOUND:                 0.000
REMARK SMILES CC(=O)[O-]
REMARK SMILES IDX 1 1 2 2 3 3 4 4
REMARK H PARENT
REMARK Flexibility Score: inf
ROOT
ATOM      1  C   UNL     1      45.680  18.889  77.360  1.00  0.00     0.063 C 
ATOM      2  C   UNL     1      46.024  17.904  76.294  1.00  0.00     0.038 C 
ATOM      3  O   UNL     1      46.029  16.672  76.550  1.00  0.00    -0.550 OA
ATOM      4  O   UNL     1      46.286  18.341  75.002  1.00  0.00    -0.550 OA
ENDROOT
TORSDOF 0
ENDMDL
MODEL 2
REMARK VINA RESULT:    -1.929      1.382      2.145
REMARK INTER + INTRA:          -1.929
REMARK INTER:                  -1.929
REMARK INTRA:                   0.000
REMARK UNBOUND:                 0.000
REMARK SMILES CC(=O)[O-]
REMARK SMILES IDX 1 1 2 2 3 3 4 4
REMARK H PARENT
REMARK Flexibility Score: inf
ROOT
ATOM      1  C   UNL     1      46.182  16.593  76.402  1.00  0.00     0.063 C 
ATOM      2  C   UNL     1      46.061  18.074  76.266  1.00  0.00     0.038 C 
ATOM      3  O   UNL     1      46.431  18.644  75.206  1.00  0.00    -0.550 OA
ATOM      4  O   UNL     1      45.489  18.821  77.287  1.00  0.00    -0.550 OA
ENDROOT
TORSDOF 0
ENDMDL
MODEL 3
REMARK VINA RESULT:    -1.835      8.263      8.685
REMARK INTER + INTRA:          -1.835
REMARK INTER:                  -1.835
REMARK INTRA:                   0.000
REMARK UNBOUND:                 0.000
REMARK SMILES CC(=O)[O-]
REMARK SMILES IDX 1 1 2 2 3 3 4 4
REMARK H PARENT
REMARK Flexibility Score: inf
ROOT
ATOM      1  C   UNL     1      37.342  19.824  80.444  1.00  0.00     0.063 C 
ATOM      2  C   UNL     1      38.418  18.879  80.028  1.00  0.00     0.038 C 
ATOM      3  O   UNL     1      39.625  19.229  80.089  1.00  0.00    -0.550 OA
ATOM      4  O   UNL     1      38.094  17.592  79.621  1.00  0.00    -0.550 OA
ENDROOT
TORSDOF 0
ENDMDL
MODEL 4
REMARK VINA RESULT:    -1.834      8.357      8.779
REMARK INTER + INTRA:          -1.834
REMARK INTER:                  -1.834
REMARK INTRA:                   0.000
REMARK UNBOUND:                 0.000
REMARK SMILES CC(=O)[O-]
REMARK SMILES IDX 1 1 2 2 3 3 4 4
REMARK H PARENT
REMARK Flexibility Score: inf
ROOT
ATOM      1  C   UNL     1      39.577  19.545  79.679  1.00  0.00     0.063 C 
ATOM      2  C   UNL     1      38.293  18.896  80.074  1.00  0.00     0.038 C 
ATOM      3  O   UNL     1      37.444  19.535  80.749  1.00  0.00    -0.550 OA
ATOM      4  O   UNL     1      38.009  17.604  79.653  1.00  0.00    -0.550 OA
ENDROOT
TORSDOF 0
ENDMDL
MODEL 5
REMARK VINA RESULT:    -1.833     18.075     18.260
REMARK INTER + INTRA:          -1.833
REMARK INTER:                  -1.833
REMARK INTRA:                   0.000
REMARK UNBOUND:                 0.000
REMARK SMILES CC(=O)[O-]
REMARK SMILES IDX 1 1 2 2 3 3 4 4
REMARK H PARENT
REMARK Flexibility Score: inf
ROOT
ATOM      1  C   UNL     1      39.954  30.677  88.327  1.00  0.00     0.063 C 
ATOM      2  C   UNL     1      41.387  30.977  88.043  1.00  0.00     0.038 C 
ATOM      3  O   UNL     1      41.700  31.674  87.042  1.00  0.00    -0.550 OA
ATOM      4  O   UNL     1      42.375  30.533  88.910  1.00  0.00    -0.550 OA
ENDROOT
TORSDOF 0
ENDMDL
MODEL 6
REMARK VINA RESULT:    -1.773     18.125     18.372
REMARK INTER + INTRA:          -1.773
REMARK INTER:                  -1.773
REMARK INTRA:                   0.000
REMARK UNBOUND:                 0.000
REMARK SMILES CC(=O)[O-]
REMARK SMILES IDX 1 1 2 2 3 3 4 4
REMARK H PARENT
REMARK Flexibility Score: inf
ROOT
ATOM      1  C   UNL     1      41.765  31.327  87.253  1.00  0.00     0.063 C 
ATOM      2  C   UNL     1      40.914  30.752  88.335  1.00  0.00     0.038 C 
ATOM      3  O   UNL     1      39.664  30.894  88.298  1.00  0.00    -0.550 OA
ATOM      4  O   UNL     1      41.495  30.012  89.356  1.00  0.00    -0.550 OA
ENDROOT
TORSDOF 0
ENDMDL
MODEL 7
REMARK VINA RESULT:    -1.758     12.936     13.283
REMARK INTER + INTRA:          -1.758
REMARK INTER:                  -1.758
REMARK INTRA:                   0.000
REMARK UNBOUND:                 0.000
REMARK SMILES CC(=O)[O-]
REMARK SMILES IDX 1 1 2 2 3 3 4 4
REMARK H PARENT
REMARK Flexibility Score: inf
ROOT
ATOM      1  C   UNL     1      56.125  16.242  85.831  1.00  0.00     0.063 C 
ATOM      2  C   UNL     1      55.369  17.466  85.439  1.00  0.00     0.038 C 
ATOM      3  O   UNL     1      55.401  17.874  84.249  1.00  0.00    -0.550 OA
ATOM      4  O   UNL     1      54.584  18.127  86.373  1.00  0.00    -0.550 OA
ENDROOT
TORSDOF 0
ENDMDL
MODEL 8
REMARK VINA RESULT:    -1.655     12.201     12.601
REMARK INTER + INTRA:          -1.655
REMARK INTER:                  -1.655
REMARK INTRA:                   0.000
REMARK UNBOUND:                 0.000
REMARK SMILES CC(=O)[O-]
REMARK SMILES IDX 1 1 2 2 3 3 4 4
REMARK H PARENT
REMARK Flexibility Score: inf
ROOT
ATOM      1  C   UNL     1      55.304  17.883  84.546  1.00  0.00     0.063 C 
ATOM      2  C   UNL     1      54.242  18.155  85.557  1.00  0.00     0.038 C 
ATOM      3  O   UNL     1      53.031  18.172  85.213  1.00  0.00    -0.550 OA
ATOM      4  O   UNL     1      54.582  18.337  86.890  1.00  0.00    -0.550 OA
ENDROOT
TORSDOF 0
ENDMDL
