MODEL 1
REMARK VINA RESULT:    -3.583      0.000      0.000
REMARK INTER + INTRA:          -4.253
REMARK INTER:                  -4.212
REMARK INTRA:                  -0.041
REMARK UNBOUND:                -0.041
REMARK SMILES CCCCC(=O)[O-]
REMARK SMILES IDX 4 1 5 2 6 3 7 4 3 5 2 6 1 7
REMARK H PARENT
REMARK Flexibility Score: inf
ROOT
ATOM      1  C   UNL     1      19.619   2.602  40.586  1.00  0.00     0.053 C 
ENDROOT
BRANCH   1   2
ATOM      2  C   UNL     1      20.772   3.095  41.405  1.00  0.00     0.041 C 
ATOM      3  O   UNL     1      20.780   4.275  41.844  1.00  0.00    -0.550 OA
ATOM      4  O   UNL     1      21.825   2.241  41.710  1.00  0.00    -0.550 OA
ENDBRANCH   1   2
BRANCH   1   5
ATOM      5  C   UNL     1      18.261   2.833  41.272  1.00  0.00     0.006 C 
BRANCH   5   6
ATOM      6  C   UNL     1      17.180   3.406  40.338  1.00  0.00    -0.003 C 
ATOM      7  C   UNL     1      16.664   4.773  40.781  1.00  0.00     0.004 C 
ENDBRANCH   5   6
ENDBRANCH   1   5
TORSDOF 3
ENDMDL
MODEL 2
REMARK VINA RESULT:    -3.553      2.514      3.919
REMARK INTER + INTRA:          -4.217
REMARK INTER:                  -4.116
REMARK INTRA:                  -0.101
REMARK UNBOUND:                -0.041
REMARK SMILES CCCCC(=O)[O-]
REMARK SMILES IDX 4 1 5 2 6 3 7 4 3 5 2 6 1 7
REMARK H PARENT
REMARK Flexibility Score: inf
ROOT
ATOM      1  C   UNL     1      16.986   3.421  40.234  1.00  0.00     0.053 C 
ENDROOT
BRANCH   1   2
ATOM      2  C   UNL     1      16.810   4.660  41.057  1.00  0.00     0.041 C 
ATOM      3  O   UNL     1      17.037   4.638  42.295  1.00  0.00    -0.550 OA
ATOM      4  O   UNL     1      16.423   5.849  40.451  1.00  0.00    -0.550 OA
ENDBRANCH   1   2
BRANCH   1   5
ATOM      5  C   UNL     1      17.940   2.405  40.887  1.00  0.00     0.006 C 
BRANCH   5   6
ATOM      6  C   UNL     1      19.376   2.454  40.334  1.00  0.00    -0.003 C 
ATOM      7  C   UNL     1      20.386   3.015  41.332  1.00  0.00     0.004 C 
ENDBRANCH   5   6
ENDBRANCH   1   5
TORSDOF 3
ENDMDL
MODEL 3
REMARK VINA RESULT:    -3.547      2.662      3.836
REMARK INTER + INTRA:          -4.210
REMARK INTER:                  -4.133
REMARK INTRA:                  -0.077
REMARK UNBOUND:                -0.041
REMARK SMILES CCCCC(=O)[O-]
REMARK SMILES IDX 4 1 5 2 6 3 7 4 3 5 2 6 1 7
REMARK H PARENT
REMARK Flexibility Score: inf
ROOT
ATOM      1  C   UNL     1      16.930   3.408  40.247  1.00  0.00     0.053 C 
ENDROOT
BRANCH   1   2
ATOM      2  C   UNL     1      16.750   4.629  41.097  1.00  0.00     0.041 C 
ATOM      3  O   UNL     1      16.590   5.758  40.562  1.00  0.00    -0.550 OA
ATOM      4  O   UNL     1      16.729   4.516  42.481  1.00  0.00    -0.550 OA
ENDBRANCH   1   2
BRANCH   1   5
ATOM      5  C   UNL     1      17.936   2.409  40.847  1.00  0.00     0.006 C 
BRANCH   5   6
ATOM      6  C   UNL     1      19.360   2.542  40.279  1.00  0.00    -0.003 C 
ATOM      7  C   UNL     1      20.383   2.999  41.317  1.00  0.00     0.004 C 
ENDBRANCH   5   6
ENDBRANCH   1   5
TORSDOF 3
ENDMDL
MODEL 4
REMARK VINA RESULT:    -3.438      8.094      8.732
REMARK INTER + INTRA:          -4.082
REMARK INTER:                  -4.015
REMARK INTRA:                  -0.067
REMARK UNBOUND:                -0.041
REMARK SMILES CCCCC(=O)[O-]
REMARK SMILES IDX 4 1 5 2 6 3 7 4 3 5 2 6 1 7
REMARK H PARENT
REMARK Flexibility Score: inf
ROOT
ATOM      1  C   UNL     1      14.346  -2.794  40.587  1.00  0.00     0.053 C 
ENDROOT
BRANCH   1   2
ATOM      2  C   UNL     1      13.665  -3.770  39.678  1.00  0.00     0.041 C 
ATOM      3  O   UNL     1      14.334  -4.652  39.077  1.00  0.00    -0.550 OA
ATOM      4  O   UNL     1      12.286  -3.726  39.518  1.00  0.00    -0.550 OA
ENDBRANCH   1   2
BRANCH   1   5
ATOM      5  C   UNL     1      13.969  -1.333  40.280  1.00  0.00     0.006 C 
BRANCH   5   6
ATOM      6  C   UNL     1      13.481  -0.544  41.508  1.00  0.00    -0.003 C 
ATOM      7  C   UNL     1      11.971  -0.316  41.516  1.00  0.00     0.004 C 
ENDBRANCH   5   6
ENDBRANCH   1   5
TORSDOF 3
ENDMDL
MODEL 5
REMARK VINA RESULT:    -3.398      7.593      8.400
REMARK INTER + INTRA:          -4.034
REMARK INTER:                  -3.948
REMARK INTRA:                  -0.086
REMARK UNBOUND:                -0.041
REMARK SMILES CCCCC(=O)[O-]
REMARK SMILES IDX 4 1 5 2 6 3 7 4 3 5 2 6 1 7
REMARK H PARENT
REMARK Flexibility Score: inf
ROOT
ATOM      1  C   UNL     1      13.523  -0.781  39.822  1.00  0.00     0.053 C 
ENDROOT
BRANCH   1   2
ATOM      2  C   UNL     1      12.281  -0.174  40.398  1.00  0.00     0.041 C 
ATOM      3  O   UNL     1      11.475   0.448  39.656  1.00  0.00    -0.550 OA
ATOM      4  O   UNL     1      11.998  -0.320  41.750  1.00  0.00    -0.550 OA
ENDBRANCH   1   2
BRANCH   1   5
ATOM      5  C   UNL     1      14.533  -1.206  40.903  1.00  0.00     0.006 C 
BRANCH   5   6
ATOM      6  C   UNL     1      14.670  -2.731  41.064  1.00  0.00    -0.003 C 
ATOM      7  C   UNL     1      13.899  -3.519  40.007  1.00  0.00     0.004 C 
ENDBRANCH   5   6
ENDBRANCH   1   5
TORSDOF 3
ENDMDL
MODEL 6
REMARK VINA RESULT:    -3.357      3.123      4.207
REMARK INTER + INTRA:          -3.987
REMARK INTER:                  -3.959
REMARK INTRA:                  -0.027
REMARK UNBOUND:                -0.041
REMARK SMILES CCCCC(=O)[O-]
REMARK SMILES IDX 4 1 5 2 6 3 7 4 3 5 2 6 1 7
REMARK H PARENT
REMARK Flexibility Score: inf
ROOT
ATOM      1  C   UNL     1      17.567   4.205  41.485  1.00  0.00     0.053 C 
ENDROOT
BRANCH   1   2
ATOM      2  C   UNL     1      16.453   5.021  40.906  1.00  0.00     0.041 C 
ATOM      3  O   UNL     1      16.669   6.193  40.499  1.00  0.00    -0.550 OA
ATOM      4  O   UNL     1      15.180   4.476  40.788  1.00  0.00    -0.550 OA
ENDBRANCH   1   2
BRANCH   1   5
ATOM      5  C   UNL     1      17.708   2.828  40.810  1.00  0.00     0.006 C 
BRANCH   5   6
ATOM      6  C   UNL     1      19.116   2.549  40.253  1.00  0.00    -0.003 C 
ATOM      7  C   UNL     1      20.234   2.943  41.215  1.00  0.00     0.004 C 
ENDBRANCH   5   6
ENDBRANCH   1   5
TORSDOF 3
ENDMDL
MODEL 7
REMARK VINA RESULT:    -3.341      5.537      6.125
REMARK INTER + INTRA:          -3.967
REMARK INTER:                  -3.951
REMARK INTRA:                  -0.016
REMARK UNBOUND:                -0.041
REMARK SMILES CCCCC(=O)[O-]
REMARK SMILES IDX 4 1 5 2 6 3 7 4 3 5 2 6 1 7
REMARK H PARENT
REMARK Flexibility Score: inf
ROOT
ATOM      1  C   UNL     1      15.457  -0.132  41.024  1.00  0.00     0.053 C 
ENDROOT
BRANCH   1   2
ATOM      2  C   UNL     1      14.046  -0.570  40.779  1.00  0.00     0.041 C 
ATOM      3  O   UNL     1      13.256  -0.738  41.746  1.00  0.00    -0.550 OA
ATOM      4  O   UNL     1      13.592  -0.763  39.480  1.00  0.00    -0.550 OA
ENDBRANCH   1   2
BRANCH   1   5
ATOM      5  C   UNL     1      15.688   1.350  40.678  1.00  0.00     0.006 C 
BRANCH   5   6
ATOM      6  C   UNL     1      17.169   1.768  40.684  1.00  0.00    -0.003 C 
ATOM      7  C   UNL     1      17.381   3.240  40.337  1.00  0.00     0.004 C 
ENDBRANCH   5   6
ENDBRANCH   1   5
TORSDOF 3
ENDMDL
MODEL 8
REMARK VINA RESULT:    -3.278      2.637      3.905
REMARK INTER + INTRA:          -3.893
REMARK INTER:                  -3.826
REMARK INTRA:                  -0.067
REMARK UNBOUND:                -0.041
REMARK SMILES CCCCC(=O)[O-]
REMARK SMILES IDX 4 1 5 2 6 3 7 4 3 5 2 6 1 7
REMARK H PARENT
REMARK Flexibility Score: inf
ROOT
ATOM      1  C   UNL     1      16.408   4.299  40.627  1.00  0.00     0.053 C 
ENDROOT
BRANCH   1   2
ATOM      2  C   UNL     1      16.878   5.665  41.024  1.00  0.00     0.041 C 
ATOM      3  O   UNL     1      16.430   6.686  40.438  1.00  0.00    -0.550 OA
ATOM      4  O   UNL     1      17.788   5.813  42.064  1.00  0.00    -0.550 OA
ENDBRANCH   1   2
BRANCH   1   5
ATOM      5  C   UNL     1      17.055   3.181  41.465  1.00  0.00     0.006 C 
BRANCH   5   6
ATOM      6  C   UNL     1      17.710   2.071  40.623  1.00  0.00    -0.003 C 
ATOM      7  C   UNL     1      19.125   2.417  40.164  1.00  0.00     0.004 C 
ENDBRANCH   5   6
ENDBRANCH   1   5
TORSDOF 3
ENDMDL
MODEL 9
REMARK VINA RESULT:    -3.239      1.361      1.944
REMARK INTER + INTRA:          -3.847
REMARK INTER:                  -3.798
REMARK INTRA:                  -0.050
REMARK UNBOUND:                -0.041
REMARK SMILES CCCCC(=O)[O-]
REMARK SMILES IDX 4 1 5 2 6 3 7 4 3 5 2 6 1 7
REMARK H PARENT
REMARK Flexibility Score: inf
ROOT
ATOM      1  C   UNL     1      17.937   2.921  41.567  1.00  0.00     0.053 C 
ENDROOT
BRANCH   1   2
ATOM      2  C   UNL     1      19.279   2.772  40.919  1.00  0.00     0.041 C 
ATOM      3  O   UNL     1      19.394   2.148  39.831  1.00  0.00    -0.550 OA
ATOM      4  O   UNL     1      20.401   3.349  41.502  1.00  0.00    -0.550 OA
ENDBRANCH   1   2
BRANCH   1   5
ATOM      5  C   UNL     1      16.798   3.080  40.544  1.00  0.00     0.006 C 
BRANCH   5   6
ATOM      6  C   UNL     1      15.854   4.260  40.841  1.00  0.00    -0.003 C 
ATOM      7  C   UNL     1      16.557   5.615  40.807  1.00  0.00     0.004 C 
ENDBRANCH   5   6
ENDBRANCH   1   5
TORSDOF 3
ENDMDL
