MODEL 1
REMARK VINA RESULT:    -2.479      0.000      0.000
REMARK INTER + INTRA:         -13.157
REMARK INTER:                  -6.536
REMARK INTRA:                  -6.621
REMARK UNBOUND:                -6.621
REMARK SMILES CCCCCCCCCCCCCCCCCCCCCCCCCCCCCC(=O)[O-]
REMARK SMILES IDX 16 1 17 2 18 3 19 4 20 5 21 6 22 7 23 8 24 9 25 10 26 11
REMARK SMILES IDX 27 12 28 13 29 14 30 15 31 16 32 17 15 18 14 19 13 20 12 21
REMARK SMILES IDX 11 22 10 23 9 24 8 25 7 26 6 27 5 28 4 29 3 30 2 31 1 32
REMARK H PARENT
REMARK Flexibility Score: inf
ROOT
ATOM      1  C   UNL     1      -5.135   9.227  -4.652  1.00  0.00     0.000 C 
ENDROOT
BRANCH   1   2
ATOM      2  C   UNL     1      -5.985   7.956  -4.832  1.00  0.00     0.000 C 
BRANCH   2   3
ATOM      3  C   UNL     1      -7.365   8.240  -5.456  1.00  0.00     0.000 C 
BRANCH   3   4
ATOM      4  C   UNL     1      -7.641   7.460  -6.754  1.00  0.00     0.000 C 
BRANCH   4   5
ATOM      5  C   UNL     1      -7.510   8.327  -8.016  1.00  0.00     0.000 C 
BRANCH   5   6
ATOM      6  C   UNL     1      -6.054   8.405  -8.494  1.00  0.00     0.000 C 
BRANCH   6   7
ATOM      7  C   UNL     1      -5.513   9.837  -8.374  1.00  0.00     0.000 C 
BRANCH   7   8
ATOM      8  C   UNL     1      -6.598  10.862  -8.006  1.00  0.00     0.000 C 
BRANCH   8   9
ATOM      9  C   UNL     1      -6.127  11.866  -6.944  1.00  0.00     0.000 C 
BRANCH   9  10
ATOM     10  C   UNL     1      -7.139  11.981  -5.795  1.00  0.00     0.000 C 
BRANCH  10  11
ATOM     11  C   UNL     1      -6.790  13.116  -4.808  1.00  0.00     0.000 C 
BRANCH  11  12
ATOM     12  C   UNL     1      -5.292  13.222  -4.466  1.00  0.00     0.000 C 
BRANCH  12  13
ATOM     13  C   UNL     1      -4.866  12.527  -3.163  1.00  0.00     0.006 C 
BRANCH  13  14
ATOM     14  C   UNL     1      -3.358  12.243  -3.102  1.00  0.00     0.053 C 
BRANCH  14  15
ATOM     15  C   UNL     1      -2.647  13.337  -2.368  1.00  0.00     0.041 C 
ATOM     16  O   UNL     1      -1.968  14.190  -2.999  1.00  0.00    -0.550 OA
ATOM     17  O   UNL     1      -2.727  13.408  -0.984  1.00  0.00    -0.550 OA
ENDBRANCH  14  15
ENDBRANCH  13  14
ENDBRANCH  12  13
ENDBRANCH  11  12
ENDBRANCH  10  11
ENDBRANCH   9  10
ENDBRANCH   8   9
ENDBRANCH   7   8
ENDBRANCH   6   7
ENDBRANCH   5   6
ENDBRANCH   4   5
ENDBRANCH   3   4
ENDBRANCH   2   3
ENDBRANCH   1   2
BRANCH   1  18
ATOM     18  C   UNL     1      -3.678   9.004  -5.094  1.00  0.00     0.000 C 
BRANCH  18  19
ATOM     19  C   UNL     1      -3.499   7.678  -5.856  1.00  0.00     0.000 C 
BRANCH  19  20
ATOM     20  C   UNL     1      -2.613   7.845  -7.102  1.00  0.00     0.000 C 
BRANCH  20  21
ATOM     21  C   UNL     1      -1.714   9.092  -7.009  1.00  0.00     0.000 C 
BRANCH  21  22
ATOM     22  C   UNL     1      -1.560   9.805  -8.360  1.00  0.00     0.000 C 
BRANCH  22  23
ATOM     23  C   UNL     1      -2.082  11.252  -8.331  1.00  0.00     0.000 C 
BRANCH  23  24
ATOM     24  C   UNL     1      -2.578  11.673  -6.939  1.00  0.00    -0.000 C 
BRANCH  24  25
ATOM     25  C   UNL     1      -2.021  13.042  -6.503  1.00  0.00    -0.000 C 
BRANCH  25  26
ATOM     26  C   UNL     1      -0.540  12.975  -6.101  1.00  0.00    -0.000 C 
BRANCH  26  27
ATOM     27  C   UNL     1      -0.261  11.878  -5.064  1.00  0.00    -0.000 C 
BRANCH  27  28
ATOM     28  C   UNL     1       0.932  11.011  -5.485  1.00  0.00    -0.000 C 
BRANCH  28  29
ATOM     29  C   UNL     1       1.674  11.564  -6.713  1.00  0.00    -0.000 C 
BRANCH  29  30
ATOM     30  C   UNL     1       2.342  10.473  -7.577  1.00  0.00    -0.000 C 
BRANCH  30  31
ATOM     31  C   UNL     1       2.009   9.053  -7.093  1.00  0.00    -0.003 C 
ATOM     32  C   UNL     1       3.258   8.346  -6.574  1.00  0.00     0.004 C 
ENDBRANCH  30  31
ENDBRANCH  29  30
ENDBRANCH  28  29
ENDBRANCH  27  28
ENDBRANCH  26  27
ENDBRANCH  25  26
ENDBRANCH  24  25
ENDBRANCH  23  24
ENDBRANCH  22  23
ENDBRANCH  21  22
ENDBRANCH  20  21
ENDBRANCH  19  20
ENDBRANCH  18  19
ENDBRANCH   1  18
TORSDOF 28
ENDMDL
MODEL 2
REMARK VINA RESULT:    -2.465      2.145      6.386
REMARK INTER + INTRA:         -13.122
REMARK INTER:                  -7.013
REMARK INTRA:                  -6.108
REMARK UNBOUND:                -6.621
REMARK SMILES CCCCCCCCCCCCCCCCCCCCCCCCCCCCCC(=O)[O-]
REMARK SMILES IDX 16 1 17 2 18 3 19 4 20 5 21 6 22 7 23 8 24 9 25 10 26 11
REMARK SMILES IDX 27 12 28 13 29 14 30 15 31 16 32 17 15 18 14 19 13 20 12 21
REMARK SMILES IDX 11 22 10 23 9 24 8 25 7 26 6 27 5 28 4 29 3 30 2 31 1 32
REMARK H PARENT
REMARK Flexibility Score: inf
ROOT
ATOM      1  C   UNL     1      -3.406  10.089  -4.489  1.00  0.00     0.000 C 
ENDROOT
BRANCH   1   2
ATOM      2  C   UNL     1      -3.935   8.756  -5.047  1.00  0.00     0.000 C 
BRANCH   2   3
ATOM      3  C   UNL     1      -3.019   8.150  -6.127  1.00  0.00     0.000 C 
BRANCH   3   4
ATOM      4  C   UNL     1      -3.775   7.486  -7.293  1.00  0.00     0.000 C 
BRANCH   4   5
ATOM      5  C   UNL     1      -3.817   8.361  -8.557  1.00  0.00     0.000 C 
BRANCH   5   6
ATOM      6  C   UNL     1      -5.103   9.195  -8.618  1.00  0.00     0.000 C 
BRANCH   6   7
ATOM      7  C   UNL     1      -4.792  10.659  -8.959  1.00  0.00     0.000 C 
BRANCH   7   8
ATOM      8  C   UNL     1      -3.795  11.305  -7.984  1.00  0.00     0.000 C 
BRANCH   8   9
ATOM      9  C   UNL     1      -2.783  12.218  -8.691  1.00  0.00     0.000 C 
BRANCH   9  10
ATOM     10  C   UNL     1      -1.339  11.774  -8.413  1.00  0.00     0.000 C 
BRANCH  10  11
ATOM     11  C   UNL     1      -0.995  10.423  -9.077  1.00  0.00     0.000 C 
BRANCH  11  12
ATOM     12  C   UNL     1      -0.215   9.451  -8.172  1.00  0.00     0.000 C 
BRANCH  12  13
ATOM     13  C   UNL     1       0.709  10.116  -7.138  1.00  0.00     0.006 C 
BRANCH  13  14
ATOM     14  C   UNL     1       2.054   9.391  -6.985  1.00  0.00     0.053 C 
BRANCH  14  15
ATOM     15  C   UNL     1       2.548   9.491  -5.576  1.00  0.00     0.041 C 
ATOM     16  O   UNL     1       3.302   8.601  -5.100  1.00  0.00    -0.550 OA
ATOM     17  O   UNL     1       2.168  10.567  -4.784  1.00  0.00    -0.550 OA
ENDBRANCH  14  15
ENDBRANCH  13  14
ENDBRANCH  12  13
ENDBRANCH  11  12
ENDBRANCH  10  11
ENDBRANCH   9  10
ENDBRANCH   8   9
ENDBRANCH   7   8
ENDBRANCH   6   7
ENDBRANCH   5   6
ENDBRANCH   4   5
ENDBRANCH   3   4
ENDBRANCH   2   3
ENDBRANCH   1   2
BRANCH   1  18
ATOM     18  C   UNL     1      -2.016  10.430  -5.053  1.00  0.00     0.000 C 
BRANCH  18  19
ATOM     19  C   UNL     1      -1.534  11.823  -4.606  1.00  0.00     0.000 C 
BRANCH  19  20
ATOM     20  C   UNL     1      -2.670  12.859  -4.627  1.00  0.00     0.000 C 
BRANCH  20  21
ATOM     21  C   UNL     1      -2.632  13.784  -3.396  1.00  0.00     0.000 C 
BRANCH  21  22
ATOM     22  C   UNL     1      -3.083  13.070  -2.114  1.00  0.00     0.000 C 
BRANCH  22  23
ATOM     23  C   UNL     1      -4.543  12.591  -2.181  1.00  0.00     0.000 C 
BRANCH  23  24
ATOM     24  C   UNL     1      -5.550  13.739  -2.009  1.00  0.00    -0.000 C 
BRANCH  24  25
ATOM     25  C   UNL     1      -6.421  13.952  -3.261  1.00  0.00    -0.000 C 
BRANCH  25  26
ATOM     26  C   UNL     1      -6.287  12.807  -4.275  1.00  0.00    -0.000 C 
BRANCH  26  27
ATOM     27  C   UNL     1      -6.823  13.185  -5.664  1.00  0.00    -0.000 C 
BRANCH  27  28
ATOM     28  C   UNL     1      -7.158  11.935  -6.486  1.00  0.00    -0.000 C 
BRANCH  28  29
ATOM     29  C   UNL     1      -6.909  10.626  -5.718  1.00  0.00    -0.000 C 
BRANCH  29  30
ATOM     30  C   UNL     1      -7.983   9.545  -5.970  1.00  0.00    -0.000 C 
BRANCH  30  31
ATOM     31  C   UNL     1      -7.404   8.122  -5.935  1.00  0.00    -0.003 C 
ATOM     32  C   UNL     1      -7.290   7.614  -4.500  1.00  0.00     0.004 C 
ENDBRANCH  30  31
ENDBRANCH  29  30
ENDBRANCH  28  29
ENDBRANCH  27  28
ENDBRANCH  26  27
ENDBRANCH  25  26
ENDBRANCH  24  25
ENDBRANCH  23  24
ENDBRANCH  22  23
ENDBRANCH  21  22
ENDBRANCH  20  21
ENDBRANCH  19  20
ENDBRANCH  18  19
ENDBRANCH   1  18
TORSDOF 28
ENDMDL
MODEL 3
REMARK VINA RESULT:    -2.419      3.707      6.229
REMARK INTER + INTRA:         -13.001
REMARK INTER:                  -9.463
REMARK INTRA:                  -3.537
REMARK UNBOUND:                -6.621
REMARK SMILES CCCCCCCCCCCCCCCCCCCCCCCCCCCCCC(=O)[O-]
REMARK SMILES IDX 16 1 17 2 18 3 19 4 20 5 21 6 22 7 23 8 24 9 25 10 26 11
REMARK SMILES IDX 27 12 28 13 29 14 30 15 31 16 32 17 15 18 14 19 13 20 12 21
REMARK SMILES IDX 11 22 10 23 9 24 8 25 7 26 6 27 5 28 4 29 3 30 2 31 1 32
REMARK H PARENT
REMARK Flexibility Score: inf
ROOT
ATOM      1  C   UNL     1       1.904  10.092  -5.437  1.00  0.00     0.000 C 
ENDROOT
BRANCH   1   2
ATOM      2  C   UNL     1       0.833  11.171  -5.676  1.00  0.00     0.000 C 
BRANCH   2   3
ATOM      3  C   UNL     1      -0.594  10.681  -5.366  1.00  0.00     0.000 C 
BRANCH   3   4
ATOM      4  C   UNL     1      -1.477  10.484  -6.612  1.00  0.00     0.000 C 
BRANCH   4   5
ATOM      5  C   UNL     1      -1.579   9.014  -7.049  1.00  0.00     0.000 C 
BRANCH   5   6
ATOM      6  C   UNL     1      -3.034   8.527  -7.041  1.00  0.00     0.000 C 
BRANCH   6   7
ATOM      7  C   UNL     1      -3.437   8.028  -5.646  1.00  0.00     0.000 C 
BRANCH   7   8
ATOM      8  C   UNL     1      -4.819   8.535  -5.201  1.00  0.00     0.000 C 
BRANCH   8   9
ATOM      9  C   UNL     1      -4.788   9.994  -4.725  1.00  0.00     0.000 C 
BRANCH   9  10
ATOM     10  C   UNL     1      -3.698  10.213  -3.664  1.00  0.00     0.000 C 
BRANCH  10  11
ATOM     11  C   UNL     1      -3.638  11.673  -3.167  1.00  0.00     0.000 C 
BRANCH  11  12
ATOM     12  C   UNL     1      -4.911  12.494  -3.452  1.00  0.00     0.000 C 
BRANCH  12  13
ATOM     13  C   UNL     1      -5.061  13.779  -2.621  1.00  0.00     0.006 C 
BRANCH  13  14
ATOM     14  C   UNL     1      -5.872  13.568  -1.334  1.00  0.00     0.053 C 
BRANCH  14  15
ATOM     15  C   UNL     1      -4.972  13.575  -0.139  1.00  0.00     0.041 C 
ATOM     16  O   UNL     1      -5.355  13.068   0.950  1.00  0.00    -0.550 OA
ATOM     17  O   UNL     1      -3.711  14.150  -0.224  1.00  0.00    -0.550 OA
ENDBRANCH  14  15
ENDBRANCH  13  14
ENDBRANCH  12  13
ENDBRANCH  11  12
ENDBRANCH  10  11
ENDBRANCH   9  10
ENDBRANCH   8   9
ENDBRANCH   7   8
ENDBRANCH   6   7
ENDBRANCH   5   6
ENDBRANCH   4   5
ENDBRANCH   3   4
ENDBRANCH   2   3
ENDBRANCH   1   2
BRANCH   1  18
ATOM     18  C   UNL     1       2.170   9.264  -6.706  1.00  0.00     0.000 C 
BRANCH  18  19
ATOM     19  C   UNL     1       3.409   8.360  -6.560  1.00  0.00     0.000 C 
BRANCH  19  20
ATOM     20  C   UNL     1       3.645   7.938  -5.100  1.00  0.00     0.000 C 
BRANCH  20  21
ATOM     21  C   UNL     1       5.126   8.056  -4.695  1.00  0.00     0.000 C 
BRANCH  21  22
ATOM     22  C   UNL     1       5.942   8.886  -5.697  1.00  0.00     0.000 C 
BRANCH  22  23
ATOM     23  C   UNL     1       6.341  10.264  -5.142  1.00  0.00     0.000 C 
BRANCH  23  24
ATOM     24  C   UNL     1       5.322  11.359  -5.494  1.00  0.00    -0.000 C 
BRANCH  24  25
ATOM     25  C   UNL     1       5.178  12.412  -4.379  1.00  0.00    -0.000 C 
BRANCH  25  26
ATOM     26  C   UNL     1       5.172  11.788  -2.975  1.00  0.00    -0.000 C 
BRANCH  26  27
ATOM     27  C   UNL     1       6.361  12.250  -2.121  1.00  0.00    -0.000 C 
BRANCH  27  28
ATOM     28  C   UNL     1       5.993  12.277  -0.632  1.00  0.00    -0.000 C 
BRANCH  28  29
ATOM     29  C   UNL     1       6.737  11.212   0.191  1.00  0.00    -0.000 C 
BRANCH  29  30
ATOM     30  C   UNL     1       6.194   9.781  -0.012  1.00  0.00    -0.000 C 
BRANCH  30  31
ATOM     31  C   UNL     1       7.293   8.788  -0.425  1.00  0.00    -0.003 C 
ATOM     32  C   UNL     1       7.482   8.782  -1.940  1.00  0.00     0.004 C 
ENDBRANCH  30  31
ENDBRANCH  29  30
ENDBRANCH  28  29
ENDBRANCH  27  28
ENDBRANCH  26  27
ENDBRANCH  25  26
ENDBRANCH  24  25
ENDBRANCH  23  24
ENDBRANCH  22  23
ENDBRANCH  21  22
ENDBRANCH  20  21
ENDBRANCH  19  20
ENDBRANCH  18  19
ENDBRANCH   1  18
TORSDOF 28
ENDMDL
MODEL 4
REMARK VINA RESULT:    -2.406      1.598      3.923
REMARK INTER + INTRA:         -12.967
REMARK INTER:                  -7.362
REMARK INTRA:                  -5.604
REMARK UNBOUND:                -6.621
REMARK SMILES CCCCCCCCCCCCCCCCCCCCCCCCCCCCCC(=O)[O-]
REMARK SMILES IDX 16 1 17 2 18 3 19 4 20 5 21 6 22 7 23 8 24 9 25 10 26 11
REMARK SMILES IDX 27 12 28 13 29 14 30 15 31 16 32 17 15 18 14 19 13 20 12 21
REMARK SMILES IDX 11 22 10 23 9 24 8 25 7 26 6 27 5 28 4 29 3 30 2 31 1 32
REMARK H PARENT
REMARK Flexibility Score: inf
ROOT
ATOM      1  C   UNL     1      -2.673  10.829  -8.273  1.00  0.00     0.000 C 
ENDROOT
BRANCH   1   2
ATOM      2  C   UNL     1      -3.585   9.635  -7.937  1.00  0.00     0.000 C 
BRANCH   2   3
ATOM      3  C   UNL     1      -2.819   8.448  -7.322  1.00  0.00     0.000 C 
BRANCH   3   4
ATOM      4  C   UNL     1      -3.334   8.017  -5.937  1.00  0.00     0.000 C 
BRANCH   4   5
ATOM      5  C   UNL     1      -4.091   9.135  -5.203  1.00  0.00     0.000 C 
BRANCH   5   6
ATOM      6  C   UNL     1      -5.505   8.688  -4.808  1.00  0.00     0.000 C 
BRANCH   6   7
ATOM      7  C   UNL     1      -6.503   8.959  -5.943  1.00  0.00     0.000 C 
BRANCH   7   8
ATOM      8  C   UNL     1      -7.181  10.334  -5.833  1.00  0.00     0.000 C 
BRANCH   8   9
ATOM      9  C   UNL     1      -6.615  11.355  -6.831  1.00  0.00     0.000 C 
BRANCH   9  10
ATOM     10  C   UNL     1      -6.186  12.649  -6.123  1.00  0.00     0.000 C 
BRANCH  10  11
ATOM     11  C   UNL     1      -5.962  12.452  -4.609  1.00  0.00     0.000 C 
BRANCH  11  12
ATOM     12  C   UNL     1      -4.495  12.594  -4.161  1.00  0.00     0.000 C 
BRANCH  12  13
ATOM     13  C   UNL     1      -4.222  12.241  -2.689  1.00  0.00     0.006 C 
BRANCH  13  14
ATOM     14  C   UNL     1      -4.973  13.152  -1.707  1.00  0.00     0.053 C 
BRANCH  14  15
ATOM     15  C   UNL     1      -4.402  13.024  -0.329  1.00  0.00     0.041 C 
ATOM     16  O   UNL     1      -3.164  12.861  -0.166  1.00  0.00    -0.550 OA
ATOM     17  O   UNL     1      -5.241  13.076   0.776  1.00  0.00    -0.550 OA
ENDBRANCH  14  15
ENDBRANCH  13  14
ENDBRANCH  12  13
ENDBRANCH  11  12
ENDBRANCH  10  11
ENDBRANCH   9  10
ENDBRANCH   8   9
ENDBRANCH   7   8
ENDBRANCH   6   7
ENDBRANCH   5   6
ENDBRANCH   4   5
ENDBRANCH   3   4
ENDBRANCH   2   3
ENDBRANCH   1   2
BRANCH   1  18
ATOM     18  C   UNL     1      -2.795  11.952  -7.228  1.00  0.00     0.000 C 
BRANCH  18  19
ATOM     19  C   UNL     1      -1.436  12.311  -6.599  1.00  0.00     0.000 C 
BRANCH  19  20
ATOM     20  C   UNL     1      -1.132  11.455  -5.359  1.00  0.00     0.000 C 
BRANCH  20  21
ATOM     21  C   UNL     1      -0.178  10.289  -5.680  1.00  0.00     0.000 C 
BRANCH  21  22
ATOM     22  C   UNL     1       0.619  10.523  -6.971  1.00  0.00     0.000 C 
BRANCH  22  23
ATOM     23  C   UNL     1       0.850   9.230  -7.772  1.00  0.00     0.000 C 
BRANCH  23  24
ATOM     24  C   UNL     1       2.102   9.302  -8.660  1.00  0.00    -0.000 C 
BRANCH  24  25
ATOM     25  C   UNL     1       2.988   8.049  -8.533  1.00  0.00    -0.000 C 
BRANCH  25  26
ATOM     26  C   UNL     1       4.222   8.286  -7.651  1.00  0.00    -0.000 C 
BRANCH  26  27
ATOM     27  C   UNL     1       3.943   8.017  -6.165  1.00  0.00    -0.000 C 
BRANCH  27  28
ATOM     28  C   UNL     1       3.826   9.329  -5.378  1.00  0.00    -0.000 C 
BRANCH  28  29
ATOM     29  C   UNL     1       4.675  10.464  -5.973  1.00  0.00    -0.000 C 
BRANCH  29  30
ATOM     30  C   UNL     1       4.088  11.871  -5.731  1.00  0.00    -0.000 C 
BRANCH  30  31
ATOM     31  C   UNL     1       3.031  11.883  -4.615  1.00  0.00    -0.003 C 
ATOM     32  C   UNL     1       2.178  13.147  -4.685  1.00  0.00     0.004 C 
ENDBRANCH  30  31
ENDBRANCH  29  30
ENDBRANCH  28  29
ENDBRANCH  27  28
ENDBRANCH  26  27
ENDBRANCH  25  26
ENDBRANCH  24  25
ENDBRANCH  23  24
ENDBRANCH  22  23
ENDBRANCH  21  22
ENDBRANCH  20  21
ENDBRANCH  19  20
ENDBRANCH  18  19
ENDBRANCH   1  18
TORSDOF 28
ENDMDL
MODEL 5
REMARK VINA RESULT:    -2.393      2.300      6.691
REMARK INTER + INTRA:         -12.932
REMARK INTER:                  -7.637
REMARK INTRA:                  -5.294
REMARK UNBOUND:                -6.621
REMARK SMILES CCCCCCCCCCCCCCCCCCCCCCCCCCCCCC(=O)[O-]
REMARK SMILES IDX 16 1 17 2 18 3 19 4 20 5 21 6 22 7 23 8 24 9 25 10 26 11
REMARK SMILES IDX 27 12 28 13 29 14 30 15 31 16 32 17 15 18 14 19 13 20 12 21
REMARK SMILES IDX 11 22 10 23 9 24 8 25 7 26 6 27 5 28 4 29 3 30 2 31 1 32
REMARK H PARENT
REMARK Flexibility Score: inf
ROOT
ATOM      1  C   UNL     1      -3.630  10.567  -3.863  1.00  0.00     0.000 C 
ENDROOT
BRANCH   1   2
ATOM      2  C   UNL     1      -4.293   9.396  -4.611  1.00  0.00     0.000 C 
BRANCH   2   3
ATOM      3  C   UNL     1      -3.327   8.671  -5.568  1.00  0.00     0.000 C 
BRANCH   3   4
ATOM      4  C   UNL     1      -4.012   8.040  -6.794  1.00  0.00     0.000 C 
BRANCH   4   5
ATOM      5  C   UNL     1      -3.891   8.902  -8.060  1.00  0.00     0.000 C 
BRANCH   5   6
ATOM      6  C   UNL     1      -5.041   9.913  -8.162  1.00  0.00     0.000 C 
BRANCH   6   7
ATOM      7  C   UNL     1      -4.508  11.322  -8.461  1.00  0.00     0.000 C 
BRANCH   7   8
ATOM      8  C   UNL     1      -3.261  11.681  -7.637  1.00  0.00     0.000 C 
BRANCH   8   9
ATOM      9  C   UNL     1      -2.154  12.320  -8.489  1.00  0.00     0.000 C 
BRANCH   9  10
ATOM     10  C   UNL     1      -0.792  11.663  -8.220  1.00  0.00     0.000 C 
BRANCH  10  11
ATOM     11  C   UNL     1      -0.859  10.121  -8.258  1.00  0.00     0.000 C 
BRANCH  11  12
ATOM     12  C   UNL     1       0.036   9.421  -7.219  1.00  0.00     0.000 C 
BRANCH  12  13
ATOM     13  C   UNL     1       0.739  10.357  -6.222  1.00  0.00     0.006 C 
BRANCH  13  14
ATOM     14  C   UNL     1       2.177   9.922  -5.906  1.00  0.00     0.053 C 
BRANCH  14  15
ATOM     15  C   UNL     1       2.857  10.939  -5.043  1.00  0.00     0.041 C 
ATOM     16  O   UNL     1       2.177  11.772  -4.385  1.00  0.00    -0.550 OA
ATOM     17  O   UNL     1       4.243  10.972  -4.971  1.00  0.00    -0.550 OA
ENDBRANCH  14  15
ENDBRANCH  13  14
ENDBRANCH  12  13
ENDBRANCH  11  12
ENDBRANCH  10  11
ENDBRANCH   9  10
ENDBRANCH   8   9
ENDBRANCH   7   8
ENDBRANCH   6   7
ENDBRANCH   5   6
ENDBRANCH   4   5
ENDBRANCH   3   4
ENDBRANCH   2   3
ENDBRANCH   1   2
BRANCH   1  18
ATOM     18  C   UNL     1      -2.284  10.959  -4.497  1.00  0.00     0.000 C 
BRANCH  18  19
ATOM     19  C   UNL     1      -1.896  12.416  -4.182  1.00  0.00     0.000 C 
BRANCH  19  20
ATOM     20  C   UNL     1      -3.035  13.177  -3.484  1.00  0.00     0.000 C 
BRANCH  20  21
ATOM     21  C   UNL     1      -2.539  13.964  -2.257  1.00  0.00     0.000 C 
BRANCH  21  22
ATOM     22  C   UNL     1      -2.811  13.227  -0.939  1.00  0.00     0.000 C 
BRANCH  22  23
ATOM     23  C   UNL     1      -4.221  12.613  -0.879  1.00  0.00     0.000 C 
BRANCH  23  24
ATOM     24  C   UNL     1      -5.093  13.245   0.218  1.00  0.00    -0.000 C 
BRANCH  24  25
ATOM     25  C   UNL     1      -6.332  13.960  -0.352  1.00  0.00    -0.000 C 
BRANCH  25  26
ATOM     26  C   UNL     1      -6.356  13.966  -1.887  1.00  0.00    -0.000 C 
BRANCH  26  27
ATOM     27  C   UNL     1      -7.582  14.697  -2.453  1.00  0.00    -0.000 C 
BRANCH  27  28
ATOM     28  C   UNL     1      -7.663  14.541  -3.977  1.00  0.00    -0.000 C 
BRANCH  28  29
ATOM     29  C   UNL     1      -6.290  14.320  -4.633  1.00  0.00    -0.000 C 
BRANCH  29  30
ATOM     30  C   UNL     1      -6.324  13.348  -5.831  1.00  0.00    -0.000 C 
BRANCH  30  31
ATOM     31  C   UNL     1      -6.689  11.914  -5.415  1.00  0.00    -0.003 C 
ATOM     32  C   UNL     1      -7.885  11.401  -6.213  1.00  0.00     0.004 C 
ENDBRANCH  30  31
ENDBRANCH  29  30
ENDBRANCH  28  29
ENDBRANCH  27  28
ENDBRANCH  26  27
ENDBRANCH  25  26
ENDBRANCH  24  25
ENDBRANCH  23  24
ENDBRANCH  22  23
ENDBRANCH  21  22
ENDBRANCH  20  21
ENDBRANCH  19  20
ENDBRANCH  18  19
ENDBRANCH   1  18
TORSDOF 28
ENDMDL
MODEL 6
REMARK VINA RESULT:    -2.370      2.795      5.356
REMARK INTER + INTRA:         -12.871
REMARK INTER:                  -7.347
REMARK INTRA:                  -5.523
REMARK UNBOUND:                -6.621
REMARK SMILES CCCCCCCCCCCCCCCCCCCCCCCCCCCCCC(=O)[O-]
REMARK SMILES IDX 16 1 17 2 18 3 19 4 20 5 21 6 22 7 23 8 24 9 25 10 26 11
REMARK SMILES IDX 27 12 28 13 29 14 30 15 31 16 32 17 15 18 14 19 13 20 12 21
REMARK SMILES IDX 11 22 10 23 9 24 8 25 7 26 6 27 5 28 4 29 3 30 2 31 1 32
REMARK H PARENT
REMARK Flexibility Score: inf
ROOT
ATOM      1  C   UNL     1      -2.943  12.616  -3.038  1.00  0.00     0.000 C 
ENDROOT
BRANCH   1   2
ATOM      2  C   UNL     1      -2.877  13.159  -1.599  1.00  0.00     0.000 C 
BRANCH   2   3
ATOM      3  C   UNL     1      -3.841  12.437  -0.639  1.00  0.00     0.000 C 
BRANCH   3   4
ATOM      4  C   UNL     1      -4.928  13.346  -0.036  1.00  0.00     0.000 C 
BRANCH   4   5
ATOM      5  C   UNL     1      -6.090  13.617  -1.005  1.00  0.00     0.000 C 
BRANCH   5   6
ATOM      6  C   UNL     1      -5.996  15.022  -1.614  1.00  0.00     0.000 C 
BRANCH   6   7
ATOM      7  C   UNL     1      -6.663  15.067  -2.996  1.00  0.00     0.000 C 
BRANCH   7   8
ATOM      8  C   UNL     1      -6.556  13.737  -3.759  1.00  0.00     0.000 C 
BRANCH   8   9
ATOM      9  C   UNL     1      -5.755  13.865  -5.063  1.00  0.00     0.000 C 
BRANCH   9  10
ATOM     10  C   UNL     1      -5.962  12.642  -5.969  1.00  0.00     0.000 C 
BRANCH  10  11
ATOM     11  C   UNL     1      -7.269  11.884  -5.653  1.00  0.00     0.000 C 
BRANCH  11  12
ATOM     12  C   UNL     1      -7.326  10.453  -6.222  1.00  0.00     0.000 C 
BRANCH  12  13
ATOM     13  C   UNL     1      -8.230   9.477  -5.450  1.00  0.00     0.006 C 
BRANCH  13  14
ATOM     14  C   UNL     1      -8.385   8.122  -6.155  1.00  0.00     0.053 C 
BRANCH  14  15
ATOM     15  C   UNL     1      -7.984   7.006  -5.242  1.00  0.00     0.041 C 
ATOM     16  O   UNL     1      -8.349   5.824  -5.482  1.00  0.00    -0.550 OA
ATOM     17  O   UNL     1      -7.214   7.273  -4.118  1.00  0.00    -0.550 OA
ENDBRANCH  14  15
ENDBRANCH  13  14
ENDBRANCH  12  13
ENDBRANCH  11  12
ENDBRANCH  10  11
ENDBRANCH   9  10
ENDBRANCH   8   9
ENDBRANCH   7   8
ENDBRANCH   6   7
ENDBRANCH   5   6
ENDBRANCH   4   5
ENDBRANCH   3   4
ENDBRANCH   2   3
ENDBRANCH   1   2
BRANCH   1  18
ATOM     18  C   UNL     1      -3.853  11.379  -3.138  1.00  0.00     0.000 C 
BRANCH  18  19
ATOM     19  C   UNL     1      -3.295  10.327  -4.116  1.00  0.00     0.000 C 
BRANCH  19  20
ATOM     20  C   UNL     1      -4.388   9.362  -4.607  1.00  0.00     0.000 C 
BRANCH  20  21
ATOM     21  C   UNL     1      -3.826   8.287  -5.555  1.00  0.00     0.000 C 
BRANCH  21  22
ATOM     22  C   UNL     1      -2.653   8.806  -6.399  1.00  0.00     0.000 C 
BRANCH  22  23
ATOM     23  C   UNL     1      -3.033   9.032  -7.873  1.00  0.00     0.000 C 
BRANCH  23  24
ATOM     24  C   UNL     1      -3.696  10.399  -8.107  1.00  0.00    -0.000 C 
BRANCH  24  25
ATOM     25  C   UNL     1      -2.887  11.559  -7.498  1.00  0.00    -0.000 C 
BRANCH  25  26
ATOM     26  C   UNL     1      -1.602  11.859  -8.283  1.00  0.00    -0.000 C 
BRANCH  26  27
ATOM     27  C   UNL     1      -0.525  12.527  -7.416  1.00  0.00    -0.000 C 
BRANCH  27  28
ATOM     28  C   UNL     1      -0.691  12.148  -5.939  1.00  0.00    -0.000 C 
BRANCH  28  29
ATOM     29  C   UNL     1       0.179  10.950  -5.524  1.00  0.00    -0.000 C 
BRANCH  29  30
ATOM     30  C   UNL     1       1.453  10.783  -6.379  1.00  0.00    -0.000 C 
BRANCH  30  31
ATOM     31  C   UNL     1       1.638   9.343  -6.884  1.00  0.00    -0.003 C 
ATOM     32  C   UNL     1       0.778   9.082  -8.118  1.00  0.00     0.004 C 
ENDBRANCH  30  31
ENDBRANCH  29  30
ENDBRANCH  28  29
ENDBRANCH  27  28
ENDBRANCH  26  27
ENDBRANCH  25  26
ENDBRANCH  24  25
ENDBRANCH  23  24
ENDBRANCH  22  23
ENDBRANCH  21  22
ENDBRANCH  20  21
ENDBRANCH  19  20
ENDBRANCH  18  19
ENDBRANCH   1  18
TORSDOF 28
ENDMDL
MODEL 7
REMARK VINA RESULT:    -2.314      8.942     13.568
REMARK INTER + INTRA:         -12.722
REMARK INTER:                  -7.556
REMARK INTRA:                  -5.166
REMARK UNBOUND:                -6.621
REMARK SMILES CCCCCCCCCCCCCCCCCCCCCCCCCCCCCC(=O)[O-]
REMARK SMILES IDX 16 1 17 2 18 3 19 4 20 5 21 6 22 7 23 8 24 9 25 10 26 11
REMARK SMILES IDX 27 12 28 13 29 14 30 15 31 16 32 17 15 18 14 19 13 20 12 21
REMARK SMILES IDX 11 22 10 23 9 24 8 25 7 26 6 27 5 28 4 29 3 30 2 31 1 32
REMARK H PARENT
REMARK Flexibility Score: inf
ROOT
ATOM      1  C   UNL     1       6.983   9.682   2.288  1.00  0.00     0.000 C 
ENDROOT
BRANCH   1   2
ATOM      2  C   UNL     1       6.428   8.905   1.081  1.00  0.00     0.000 C 
BRANCH   2   3
ATOM      3  C   UNL     1       6.046   9.820  -0.099  1.00  0.00     0.000 C 
BRANCH   3   4
ATOM      4  C   UNL     1       6.602   9.358  -1.458  1.00  0.00     0.000 C 
BRANCH   4   5
ATOM      5  C   UNL     1       7.816  10.178  -1.922  1.00  0.00     0.000 C 
BRANCH   5   6
ATOM      6  C   UNL     1       9.107   9.351  -1.864  1.00  0.00     0.000 C 
BRANCH   6   7
ATOM      7  C   UNL     1       8.852   7.905  -2.311  1.00  0.00     0.000 C 
BRANCH   7   8
ATOM      8  C   UNL     1       9.525   6.866  -1.400  1.00  0.00     0.000 C 
BRANCH   8   9
ATOM      9  C   UNL     1       9.415   7.226   0.089  1.00  0.00     0.000 C 
BRANCH   9  10
ATOM     10  C   UNL     1       9.243   5.970   0.957  1.00  0.00     0.000 C 
BRANCH  10  11
ATOM     11  C   UNL     1       9.933   6.099   2.332  1.00  0.00     0.000 C 
BRANCH  11  12
ATOM     12  C   UNL     1       9.769   7.478   2.998  1.00  0.00     0.000 C 
BRANCH  12  13
ATOM     13  C   UNL     1      10.010   7.506   4.516  1.00  0.00     0.006 C 
BRANCH  13  14
ATOM     14  C   UNL     1       9.991   8.926   5.099  1.00  0.00     0.053 C 
BRANCH  14  15
ATOM     15  C   UNL     1       8.857   9.085   6.061  1.00  0.00     0.041 C 
ATOM     16  O   UNL     1       7.666   9.083   5.649  1.00  0.00    -0.550 OA
ATOM     17  O   UNL     1       9.115   9.244   7.417  1.00  0.00    -0.550 OA
ENDBRANCH  14  15
ENDBRANCH  13  14
ENDBRANCH  12  13
ENDBRANCH  11  12
ENDBRANCH  10  11
ENDBRANCH   9  10
ENDBRANCH   8   9
ENDBRANCH   7   8
ENDBRANCH   6   7
ENDBRANCH   5   6
ENDBRANCH   4   5
ENDBRANCH   3   4
ENDBRANCH   2   3
ENDBRANCH   1   2
BRANCH   1  18
ATOM     18  C   UNL     1       8.196  10.544   1.901  1.00  0.00     0.000 C 
BRANCH  18  19
ATOM     19  C   UNL     1       8.285  11.833   2.741  1.00  0.00     0.000 C 
BRANCH  19  20
ATOM     20  C   UNL     1       7.716  13.049   1.992  1.00  0.00     0.000 C 
BRANCH  20  21
ATOM     21  C   UNL     1       8.078  13.028   0.495  1.00  0.00     0.000 C 
BRANCH  21  22
ATOM     22  C   UNL     1       6.902  13.447  -0.398  1.00  0.00     0.000 C 
BRANCH  22  23
ATOM     23  C   UNL     1       5.594  13.639   0.391  1.00  0.00     0.000 C 
BRANCH  23  24
ATOM     24  C   UNL     1       4.357  13.676  -0.520  1.00  0.00    -0.000 C 
BRANCH  24  25
ATOM     25  C   UNL     1       4.239  12.424  -1.408  1.00  0.00    -0.000 C 
BRANCH  25  26
ATOM     26  C   UNL     1       4.158  12.765  -2.903  1.00  0.00    -0.000 C 
BRANCH  26  27
ATOM     27  C   UNL     1       5.203  12.010  -3.736  1.00  0.00    -0.000 C 
BRANCH  27  28
ATOM     28  C   UNL     1       4.544  10.925  -4.597  1.00  0.00    -0.000 C 
BRANCH  28  29
ATOM     29  C   UNL     1       5.506   9.784  -4.968  1.00  0.00    -0.000 C 
BRANCH  29  30
ATOM     30  C   UNL     1       4.977   8.382  -4.597  1.00  0.00    -0.000 C 
BRANCH  30  31
ATOM     31  C   UNL     1       3.638   8.059  -5.280  1.00  0.00    -0.003 C 
ATOM     32  C   UNL     1       3.803   7.986  -6.796  1.00  0.00     0.004 C 
ENDBRANCH  30  31
ENDBRANCH  29  30
ENDBRANCH  28  29
ENDBRANCH  27  28
ENDBRANCH  26  27
ENDBRANCH  25  26
ENDBRANCH  24  25
ENDBRANCH  23  24
ENDBRANCH  22  23
ENDBRANCH  21  22
ENDBRANCH  20  21
ENDBRANCH  19  20
ENDBRANCH  18  19
ENDBRANCH   1  18
TORSDOF 28
ENDMDL
MODEL 8
REMARK VINA RESULT:    -2.290      4.365      6.806
REMARK INTER + INTRA:         -12.658
REMARK INTER:                  -9.099
REMARK INTRA:                  -3.559
REMARK UNBOUND:                -6.621
REMARK SMILES CCCCCCCCCCCCCCCCCCCCCCCCCCCCCC(=O)[O-]
REMARK SMILES IDX 16 1 17 2 18 3 19 4 20 5 21 6 22 7 23 8 24 9 25 10 26 11
REMARK SMILES IDX 27 12 28 13 29 14 30 15 31 16 32 17 15 18 14 19 13 20 12 21
REMARK SMILES IDX 11 22 10 23 9 24 8 25 7 26 6 27 5 28 4 29 3 30 2 31 1 32
REMARK H PARENT
REMARK Flexibility Score: inf
ROOT
ATOM      1  C   UNL     1       1.729  10.235  -5.367  1.00  0.00     0.000 C 
ENDROOT
BRANCH   1   2
ATOM      2  C   UNL     1       0.576  11.253  -5.443  1.00  0.00     0.000 C 
BRANCH   2   3
ATOM      3  C   UNL     1      -0.814  10.591  -5.383  1.00  0.00     0.000 C 
BRANCH   3   4
ATOM      4  C   UNL     1      -1.768  11.028  -6.509  1.00  0.00     0.000 C 
BRANCH   4   5
ATOM      5  C   UNL     1      -1.313  10.555  -7.899  1.00  0.00     0.000 C 
BRANCH   5   6
ATOM      6  C   UNL     1      -2.169   9.386  -8.402  1.00  0.00     0.000 C 
BRANCH   6   7
ATOM      7  C   UNL     1      -1.715   8.062  -7.771  1.00  0.00     0.000 C 
BRANCH   7   8
ATOM      8  C   UNL     1      -2.880   7.233  -7.206  1.00  0.00     0.000 C 
BRANCH   8   9
ATOM      9  C   UNL     1      -3.283   7.669  -5.790  1.00  0.00     0.000 C 
BRANCH   9  10
ATOM     10  C   UNL     1      -4.571   8.506  -5.808  1.00  0.00     0.000 C 
BRANCH  10  11
ATOM     11  C   UNL     1      -4.634   9.524  -4.649  1.00  0.00     0.000 C 
BRANCH  11  12
ATOM     12  C   UNL     1      -5.247  10.884  -5.031  1.00  0.00     0.000 C 
BRANCH  12  13
ATOM     13  C   UNL     1      -4.588  12.108  -4.372  1.00  0.00     0.006 C 
BRANCH  13  14
ATOM     14  C   UNL     1      -3.845  11.760  -3.074  1.00  0.00     0.053 C 
BRANCH  14  15
ATOM     15  C   UNL     1      -2.849  12.824  -2.737  1.00  0.00     0.041 C 
ATOM     16  O   UNL     1      -2.131  13.333  -3.639  1.00  0.00    -0.550 OA
ATOM     17  O   UNL     1      -2.707  13.249  -1.422  1.00  0.00    -0.550 OA
ENDBRANCH  14  15
ENDBRANCH  13  14
ENDBRANCH  12  13
ENDBRANCH  11  12
ENDBRANCH  10  11
ENDBRANCH   9  10
ENDBRANCH   8   9
ENDBRANCH   7   8
ENDBRANCH   6   7
ENDBRANCH   5   6
ENDBRANCH   4   5
ENDBRANCH   3   4
ENDBRANCH   2   3
ENDBRANCH   1   2
BRANCH   1  18
ATOM     18  C   UNL     1       2.126   9.719  -6.760  1.00  0.00     0.000 C 
BRANCH  18  19
ATOM     19  C   UNL     1       3.310   8.735  -6.699  1.00  0.00     0.000 C 
BRANCH  19  20
ATOM     20  C   UNL     1       3.377   8.000  -5.350  1.00  0.00     0.000 C 
BRANCH  20  21
ATOM     21  C   UNL     1       4.786   8.056  -4.730  1.00  0.00     0.000 C 
BRANCH  21  22
ATOM     22  C   UNL     1       5.729   8.988  -5.504  1.00  0.00     0.000 C 
BRANCH  22  23
ATOM     23  C   UNL     1       6.343  10.085  -4.616  1.00  0.00     0.000 C 
BRANCH  23  24
ATOM     24  C   UNL     1       5.300  11.104  -4.131  1.00  0.00    -0.000 C 
BRANCH  24  25
ATOM     25  C   UNL     1       5.575  11.592  -2.696  1.00  0.00    -0.000 C 
BRANCH  25  26
ATOM     26  C   UNL     1       6.165  10.492  -1.801  1.00  0.00    -0.000 C 
BRANCH  26  27
ATOM     27  C   UNL     1       7.086  11.053  -0.709  1.00  0.00    -0.000 C 
BRANCH  27  28
ATOM     28  C   UNL     1       6.591  10.659   0.688  1.00  0.00    -0.000 C 
BRANCH  28  29
ATOM     29  C   UNL     1       6.545   9.137   0.903  1.00  0.00    -0.000 C 
BRANCH  29  30
ATOM     30  C   UNL     1       7.033   8.693   2.298  1.00  0.00    -0.000 C 
BRANCH  30  31
ATOM     31  C   UNL     1       8.391   7.974   2.246  1.00  0.00    -0.003 C 
ATOM     32  C   UNL     1       8.448   7.000   1.072  1.00  0.00     0.004 C 
ENDBRANCH  30  31
ENDBRANCH  29  30
ENDBRANCH  28  29
ENDBRANCH  27  28
ENDBRANCH  26  27
ENDBRANCH  25  26
ENDBRANCH  24  25
ENDBRANCH  23  24
ENDBRANCH  22  23
ENDBRANCH  21  22
ENDBRANCH  20  21
ENDBRANCH  19  20
ENDBRANCH  18  19
ENDBRANCH   1  18
TORSDOF 28
ENDMDL
MODEL 9
REMARK VINA RESULT:    -2.284      8.935     12.731
REMARK INTER + INTRA:         -12.643
REMARK INTER:                  -6.060
REMARK INTRA:                  -6.583
REMARK UNBOUND:                -6.621
REMARK SMILES CCCCCCCCCCCCCCCCCCCCCCCCCCCCCC(=O)[O-]
REMARK SMILES IDX 16 1 17 2 18 3 19 4 20 5 21 6 22 7 23 8 24 9 25 10 26 11
REMARK SMILES IDX 27 12 28 13 29 14 30 15 31 16 32 17 15 18 14 19 13 20 12 21
REMARK SMILES IDX 11 22 10 23 9 24 8 25 7 26 6 27 5 28 4 29 3 30 2 31 1 32
REMARK H PARENT
REMARK Flexibility Score: inf
ROOT
ATOM      1  C   UNL     1       8.495   7.709  -0.031  1.00  0.00     0.000 C 
ENDROOT
BRANCH   1   2
ATOM      2  C   UNL     1       8.106   7.288   1.397  1.00  0.00     0.000 C 
BRANCH   2   3
ATOM      3  C   UNL     1       6.985   8.158   1.997  1.00  0.00     0.000 C 
BRANCH   3   4
ATOM      4  C   UNL     1       6.422   9.214   1.028  1.00  0.00     0.000 C 
BRANCH   4   5
ATOM      5  C   UNL     1       6.703  10.656   1.481  1.00  0.00     0.000 C 
BRANCH   5   6
ATOM      6  C   UNL     1       7.620  10.688   2.710  1.00  0.00     0.000 C 
BRANCH   6   7
ATOM      7  C   UNL     1       8.519  11.933   2.692  1.00  0.00     0.000 C 
BRANCH   7   8
ATOM      8  C   UNL     1       8.009  13.029   1.743  1.00  0.00     0.000 C 
BRANCH   8   9
ATOM      9  C   UNL     1       9.130  13.640   0.888  1.00  0.00     0.000 C 
BRANCH   9  10
ATOM     10  C   UNL     1       8.563  14.369  -0.339  1.00  0.00     0.000 C 
BRANCH  10  11
ATOM     11  C   UNL     1       7.155  13.868  -0.729  1.00  0.00     0.000 C 
BRANCH  11  12
ATOM     12  C   UNL     1       7.098  13.116  -2.073  1.00  0.00     0.000 C 
BRANCH  12  13
ATOM     13  C   UNL     1       6.278  11.815  -2.061  1.00  0.00     0.006 C 
BRANCH  13  14
ATOM     14  C   UNL     1       4.912  11.975  -1.380  1.00  0.00     0.053 C 
BRANCH  14  15
ATOM     15  C   UNL     1       3.975  12.746  -2.256  1.00  0.00     0.041 C 
ATOM     16  O   UNL     1       3.493  12.218  -3.294  1.00  0.00    -0.550 OA
ATOM     17  O   UNL     1       3.640  14.054  -1.931  1.00  0.00    -0.550 OA
ENDBRANCH  14  15
ENDBRANCH  13  14
ENDBRANCH  12  13
ENDBRANCH  11  12
ENDBRANCH  10  11
ENDBRANCH   9  10
ENDBRANCH   8   9
ENDBRANCH   7   8
ENDBRANCH   6   7
ENDBRANCH   5   6
ENDBRANCH   4   5
ENDBRANCH   3   4
ENDBRANCH   2   3
ENDBRANCH   1   2
BRANCH   1  18
ATOM     18  C   UNL     1      10.014   7.619  -0.259  1.00  0.00     0.000 C 
BRANCH  18  19
ATOM     19  C   UNL     1      10.648   9.003  -0.496  1.00  0.00     0.000 C 
BRANCH  19  20
ATOM     20  C   UNL     1       9.585  10.099  -0.684  1.00  0.00     0.000 C 
BRANCH  20  21
ATOM     21  C   UNL     1      10.012  11.147  -1.728  1.00  0.00     0.000 C 
BRANCH  21  22
ATOM     22  C   UNL     1      10.512  10.505  -3.030  1.00  0.00     0.000 C 
BRANCH  22  23
ATOM     23  C   UNL     1       9.367  10.125  -3.985  1.00  0.00     0.000 C 
BRANCH  23  24
ATOM     24  C   UNL     1       9.447   8.662  -4.449  1.00  0.00    -0.000 C 
BRANCH  24  25
ATOM     25  C   UNL     1       8.417   7.762  -3.743  1.00  0.00    -0.000 C 
BRANCH  25  26
ATOM     26  C   UNL     1       7.185   8.542  -3.260  1.00  0.00    -0.000 C 
BRANCH  26  27
ATOM     27  C   UNL     1       5.910   8.159  -4.025  1.00  0.00    -0.000 C 
BRANCH  27  28
ATOM     28  C   UNL     1       5.373   9.347  -4.833  1.00  0.00    -0.000 C 
BRANCH  28  29
ATOM     29  C   UNL     1       5.600   9.197  -6.347  1.00  0.00    -0.000 C 
BRANCH  29  30
ATOM     30  C   UNL     1       6.899   9.863  -6.848  1.00  0.00    -0.000 C 
BRANCH  30  31
ATOM     31  C   UNL     1       7.692   8.958  -7.806  1.00  0.00    -0.003 C 
ATOM     32  C   UNL     1       7.506   7.486  -7.446  1.00  0.00     0.004 C 
ENDBRANCH  30  31
ENDBRANCH  29  30
ENDBRANCH  28  29
ENDBRANCH  27  28
ENDBRANCH  26  27
ENDBRANCH  25  26
ENDBRANCH  24  25
ENDBRANCH  23  24
ENDBRANCH  22  23
ENDBRANCH  21  22
ENDBRANCH  20  21
ENDBRANCH  19  20
ENDBRANCH  18  19
ENDBRANCH   1  18
TORSDOF 28
ENDMDL
