MODEL 1
REMARK VINA RESULT:    -6.478      0.000      0.000
REMARK INTER + INTRA:          -7.879
REMARK INTER:                  -7.614
REMARK INTRA:                  -0.266
REMARK UNBOUND:                -0.266
REMARK SMILES O=c1cc(-c2ccc(O)c(O)c2)oc2cc(O)cc(O)c12
REMARK SMILES IDX 4 1 3 2 2 3 1 4 21 5 19 6 18 7 16 8 15 9 14 10 13 11 5 12
REMARK SMILES IDX 6 13 7 14 8 15 12 16 10 17 9 18 11 20 20 22 17 24
REMARK H PARENT 9 19 11 21 20 23 17 25
REMARK Flexibility Score: inf
ROOT
ATOM      1  C   UNL     1     135.643 101.692  94.284  1.00  0.00     0.138 A 
ATOM      2  C   UNL     1     136.286 102.874  93.891  1.00  0.00     0.100 A 
ATOM      3  C   UNL     1     135.575 104.074  93.882  1.00  0.00     0.197 A 
ATOM      4  O   UNL     1     136.194 105.127  93.579  1.00  0.00    -0.289 OA
ATOM      5  C   UNL     1     134.204 104.084  94.234  1.00  0.00     0.107 A 
ATOM      6  C   UNL     1     133.370 105.243  94.228  1.00  0.00     0.134 A 
ATOM      7  C   UNL     1     132.052 105.147  94.690  1.00  0.00     0.093 A 
ATOM      8  C   UNL     1     131.520 103.923  95.105  1.00  0.00     0.123 A 
ATOM      9  C   UNL     1     132.311 102.777  95.066  1.00  0.00     0.094 A 
ATOM     10  C   UNL     1     133.640 102.846  94.643  1.00  0.00     0.146 A 
ATOM     11  O   UNL     1     134.364 101.732  94.639  1.00  0.00    -0.456 OA
ENDROOT
BRANCH   1  12
ATOM     12  C   UNL     1     136.350 100.385  94.309  1.00  0.00     0.021 A 
ATOM     13  C   UNL     1     135.914  99.291  93.536  1.00  0.00     0.016 A 
ATOM     14  C   UNL     1     136.606  98.078  93.573  1.00  0.00     0.051 A 
ATOM     15  C   UNL     1     137.745  97.937  94.374  1.00  0.00     0.157 A 
ATOM     16  C   UNL     1     137.504 100.239  95.100  1.00  0.00     0.062 A 
ATOM     17  C   UNL     1     138.196  99.019  95.137  1.00  0.00     0.158 A 
BRANCH  15  18
ATOM     18  O   UNL     1     138.435  96.727  94.414  1.00  0.00    -0.504 OA
ATOM     19  H   UNL     1     137.990  95.873  94.729  1.00  0.00     0.293 HD
ENDBRANCH  15  18
BRANCH  17  20
ATOM     20  O   UNL     1     139.333  98.878  95.932  1.00  0.00    -0.504 OA
ATOM     21  H   UNL     1     140.110  98.295  95.646  1.00  0.00     0.293 HD
ENDBRANCH  17  20
ENDBRANCH   1  12
BRANCH   6  22
ATOM     22  O   UNL     1     133.774 106.498  93.760  1.00  0.00    -0.507 OA
ATOM     23  H   UNL     1     134.324 106.658  92.931  1.00  0.00     0.293 HD
ENDBRANCH   6  22
BRANCH   8  24
ATOM     24  O   UNL     1     130.202 103.834  95.548  1.00  0.00    -0.508 OA
ATOM     25  H   UNL     1     129.477 103.418  94.975  1.00  0.00     0.293 HD
ENDBRANCH   8  24
TORSDOF 5
ENDMDL
MODEL 2
REMARK VINA RESULT:    -6.252      1.691      6.605
REMARK INTER + INTRA:          -7.614
REMARK INTER:                  -7.350
REMARK INTRA:                  -0.264
REMARK UNBOUND:                -0.266
REMARK SMILES O=c1cc(-c2ccc(O)c(O)c2)oc2cc(O)cc(O)c12
REMARK SMILES IDX 4 1 3 2 2 3 1 4 21 5 19 6 18 7 16 8 15 9 14 10 13 11 5 12
REMARK SMILES IDX 6 13 7 14 8 15 12 16 10 17 9 18 11 20 20 22 17 24
REMARK H PARENT 9 19 11 21 20 23 17 25
REMARK Flexibility Score: inf
ROOT
ATOM      1  C   UNL     1     134.699 102.034  94.079  1.00  0.00     0.138 A 
ATOM      2  C   UNL     1     135.604 103.104  94.080  1.00  0.00     0.100 A 
ATOM      3  C   UNL     1     136.963 102.857  94.280  1.00  0.00     0.197 A 
ATOM      4  O   UNL     1     137.757 103.831  94.221  1.00  0.00    -0.289 OA
ATOM      5  C   UNL     1     137.412 101.535  94.515  1.00  0.00     0.107 A 
ATOM      6  C   UNL     1     138.768 101.168  94.765  1.00  0.00     0.134 A 
ATOM      7  C   UNL     1     139.106  99.814  94.886  1.00  0.00     0.093 A 
ATOM      8  C   UNL     1     138.128  98.819  94.823  1.00  0.00     0.123 A 
ATOM      9  C   UNL     1     136.795  99.170  94.630  1.00  0.00     0.094 A 
ATOM     10  C   UNL     1     136.430 100.509  94.471  1.00  0.00     0.146 A 
ATOM     11  O   UNL     1     135.149 100.799  94.270  1.00  0.00    -0.456 OA
ENDROOT
BRANCH   1  12
ATOM     12  C   UNL     1     133.242 102.239  93.874  1.00  0.00     0.021 A 
ATOM     13  C   UNL     1     132.579 101.756  92.728  1.00  0.00     0.016 A 
ATOM     14  C   UNL     1     131.205 101.955  92.568  1.00  0.00     0.051 A 
ATOM     15  C   UNL     1     130.470 102.631  93.549  1.00  0.00     0.157 A 
ATOM     16  C   UNL     1     132.492 102.904  94.861  1.00  0.00     0.062 A 
ATOM     17  C   UNL     1     131.113 103.104  94.698  1.00  0.00     0.158 A 
BRANCH  15  18
ATOM     18  O   UNL     1     129.100 102.833  93.391  1.00  0.00    -0.504 OA
ATOM     19  H   UNL     1     128.535 102.215  92.819  1.00  0.00     0.293 HD
ENDBRANCH  15  18
BRANCH  17  20
ATOM     20  O   UNL     1     130.378 103.774  95.675  1.00  0.00    -0.504 OA
ATOM     21  H   UNL     1     129.861 104.619  95.464  1.00  0.00     0.293 HD
ENDBRANCH  17  20
ENDBRANCH   1  12
BRANCH   6  22
ATOM     22  O   UNL     1     139.812 102.085  94.926  1.00  0.00    -0.507 OA
ATOM     23  H   UNL     1     140.415 102.143  95.732  1.00  0.00     0.293 HD
ENDBRANCH   6  22
BRANCH   8  24
ATOM     24  O   UNL     1     138.471  97.475  94.961  1.00  0.00    -0.508 OA
ATOM     25  H   UNL     1     138.330  96.812  94.208  1.00  0.00     0.293 HD
ENDBRANCH   8  24
TORSDOF 5
ENDMDL
MODEL 3
REMARK VINA RESULT:    -6.156      1.901      2.353
REMARK INTER + INTRA:          -7.501
REMARK INTER:                  -7.203
REMARK INTRA:                  -0.298
REMARK UNBOUND:                -0.266
REMARK SMILES O=c1cc(-c2ccc(O)c(O)c2)oc2cc(O)cc(O)c12
REMARK SMILES IDX 4 1 3 2 2 3 1 4 21 5 19 6 18 7 16 8 15 9 14 10 13 11 5 12
REMARK SMILES IDX 6 13 7 14 8 15 12 16 10 17 9 18 11 20 20 22 17 24
REMARK H PARENT 9 19 11 21 20 23 17 25
REMARK Flexibility Score: inf
ROOT
ATOM      1  C   UNL     1     135.171 100.961  93.714  1.00  0.00     0.138 A 
ATOM      2  C   UNL     1     134.838 100.924  92.352  1.00  0.00     0.100 A 
ATOM      3  C   UNL     1     133.729 101.635  91.895  1.00  0.00     0.197 A 
ATOM      4  O   UNL     1     133.489 101.627  90.659  1.00  0.00    -0.289 OA
ATOM      5  C   UNL     1     132.927 102.358  92.811  1.00  0.00     0.107 A 
ATOM      6  C   UNL     1     131.753 103.091  92.464  1.00  0.00     0.134 A 
ATOM      7  C   UNL     1     131.098 103.848  93.443  1.00  0.00     0.093 A 
ATOM      8  C   UNL     1     131.541 103.852  94.768  1.00  0.00     0.123 A 
ATOM      9  C   UNL     1     132.656 103.099  95.127  1.00  0.00     0.094 A 
ATOM     10  C   UNL     1     133.352 102.361  94.167  1.00  0.00     0.146 A 
ATOM     11  O   UNL     1     134.422 101.671  94.549  1.00  0.00    -0.456 OA
ENDROOT
BRANCH   1  12
ATOM     12  C   UNL     1     136.339 100.221  94.256  1.00  0.00     0.021 A 
ATOM     13  C   UNL     1     136.680  98.934  93.796  1.00  0.00     0.016 A 
ATOM     14  C   UNL     1     137.792  98.266  94.319  1.00  0.00     0.051 A 
ATOM     15  C   UNL     1     138.583  98.873  95.301  1.00  0.00     0.157 A 
ATOM     16  C   UNL     1     137.149 100.828  95.234  1.00  0.00     0.062 A 
ATOM     17  C   UNL     1     138.262 100.156  95.758  1.00  0.00     0.158 A 
BRANCH  15  18
ATOM     18  O   UNL     1     139.691  98.208  95.826  1.00  0.00    -0.504 OA
ATOM     19  H   UNL     1     139.648  97.229  96.082  1.00  0.00     0.293 HD
ENDBRANCH  15  18
BRANCH  17  20
ATOM     20  O   UNL     1     139.054 100.759  96.734  1.00  0.00    -0.504 OA
ATOM     21  H   UNL     1     139.529 100.215  97.444  1.00  0.00     0.293 HD
ENDBRANCH  17  20
ENDBRANCH   1  12
BRANCH   6  22
ATOM     22  O   UNL     1     131.178 103.093  91.189  1.00  0.00    -0.507 OA
ATOM     23  H   UNL     1     131.538 102.595  90.390  1.00  0.00     0.293 HD
ENDBRANCH   6  22
BRANCH   8  24
ATOM     24  O   UNL     1     130.873 104.595  95.739  1.00  0.00    -0.508 OA
ATOM     25  H   UNL     1     130.522 105.526  95.545  1.00  0.00     0.293 HD
ENDBRANCH   8  24
TORSDOF 5
ENDMDL
MODEL 4
REMARK VINA RESULT:    -5.853      1.754      7.158
REMARK INTER + INTRA:          -7.145
REMARK INTER:                  -6.883
REMARK INTRA:                  -0.263
REMARK UNBOUND:                -0.266
REMARK SMILES O=c1cc(-c2ccc(O)c(O)c2)oc2cc(O)cc(O)c12
REMARK SMILES IDX 4 1 3 2 2 3 1 4 21 5 19 6 18 7 16 8 15 9 14 10 13 11 5 12
REMARK SMILES IDX 6 13 7 14 8 15 12 16 10 17 9 18 11 20 20 22 17 24
REMARK H PARENT 9 19 11 21 20 23 17 25
REMARK Flexibility Score: inf
ROOT
ATOM      1  C   UNL     1     133.988 101.790  93.521  1.00  0.00     0.138 A 
ATOM      2  C   UNL     1     133.879 101.181  92.264  1.00  0.00     0.100 A 
ATOM      3  C   UNL     1     134.812 100.215  91.883  1.00  0.00     0.197 A 
ATOM      4  O   UNL     1     134.655  99.647  90.771  1.00  0.00    -0.289 OA
ATOM      5  C   UNL     1     135.880  99.885  92.752  1.00  0.00     0.107 A 
ATOM      6  C   UNL     1     136.909  98.941  92.455  1.00  0.00     0.134 A 
ATOM      7  C   UNL     1     137.858  98.626  93.435  1.00  0.00     0.093 A 
ATOM      8  C   UNL     1     137.850  99.262  94.679  1.00  0.00     0.123 A 
ATOM      9  C   UNL     1     136.881 100.220  94.959  1.00  0.00     0.094 A 
ATOM     10  C   UNL     1     135.898 100.533  94.016  1.00  0.00     0.146 A 
ATOM     11  O   UNL     1     134.981 101.441  94.332  1.00  0.00    -0.456 OA
ENDROOT
BRANCH   1  12
ATOM     12  C   UNL     1     133.026 102.826  93.978  1.00  0.00     0.021 A 
ATOM     13  C   UNL     1     131.876 102.493  94.721  1.00  0.00     0.016 A 
ATOM     14  C   UNL     1     130.994 103.491  95.145  1.00  0.00     0.051 A 
ATOM     15  C   UNL     1     131.247 104.834  94.843  1.00  0.00     0.157 A 
ATOM     16  C   UNL     1     133.279 104.180  93.691  1.00  0.00     0.062 A 
ATOM     17  C   UNL     1     132.392 105.179  94.116  1.00  0.00     0.158 A 
BRANCH  15  18
ATOM     18  O   UNL     1     130.368 105.831  95.263  1.00  0.00    -0.504 OA
ATOM     19  H   UNL     1     129.443 105.926  94.860  1.00  0.00     0.293 HD
ENDBRANCH  15  18
BRANCH  17  20
ATOM     20  O   UNL     1     132.644 106.518  93.819  1.00  0.00    -0.504 OA
ATOM     21  H   UNL     1     133.540 106.822  93.457  1.00  0.00     0.293 HD
ENDBRANCH  17  20
ENDBRANCH   1  12
BRANCH   6  22
ATOM     22  O   UNL     1     137.058  98.307  91.218  1.00  0.00    -0.507 OA
ATOM     23  H   UNL     1     136.601  98.586  90.364  1.00  0.00     0.293 HD
ENDBRANCH   6  22
BRANCH   8  24
ATOM     24  O   UNL     1     138.809  98.953  95.641  1.00  0.00    -0.508 OA
ATOM     25  H   UNL     1     138.680  99.198  96.616  1.00  0.00     0.293 HD
ENDBRANCH   8  24
TORSDOF 5
ENDMDL
MODEL 5
REMARK VINA RESULT:    -5.704      4.546      6.365
REMARK INTER + INTRA:          -6.970
REMARK INTER:                  -6.707
REMARK INTRA:                  -0.263
REMARK UNBOUND:                -0.266
REMARK SMILES O=c1cc(-c2ccc(O)c(O)c2)oc2cc(O)cc(O)c12
REMARK SMILES IDX 4 1 3 2 2 3 1 4 21 5 19 6 18 7 16 8 15 9 14 10 13 11 5 12
REMARK SMILES IDX 6 13 7 14 8 15 12 16 10 17 9 18 11 20 20 22 17 24
REMARK H PARENT 9 19 11 21 20 23 17 25
REMARK Flexibility Score: inf
ROOT
ATOM      1  C   UNL     1     136.047  99.256  92.037  1.00  0.00     0.138 A 
ATOM      2  C   UNL     1     136.963  99.753  91.099  1.00  0.00     0.100 A 
ATOM      3  C   UNL     1     138.141 100.356  91.538  1.00  0.00     0.197 A 
ATOM      4  O   UNL     1     138.968 100.742  90.672  1.00  0.00    -0.289 OA
ATOM      5  C   UNL     1     138.387 100.495  92.926  1.00  0.00     0.107 A 
ATOM      6  C   UNL     1     139.538 101.124  93.490  1.00  0.00     0.134 A 
ATOM      7  C   UNL     1     139.718 101.114  94.878  1.00  0.00     0.093 A 
ATOM      8  C   UNL     1     138.761 100.549  95.726  1.00  0.00     0.123 A 
ATOM      9  C   UNL     1     137.612  99.979  95.188  1.00  0.00     0.094 A 
ATOM     10  C   UNL     1     137.418  99.941  93.805  1.00  0.00     0.146 A 
ATOM     11  O   UNL     1     136.315  99.371  93.333  1.00  0.00    -0.456 OA
ENDROOT
BRANCH   1  12
ATOM     12  C   UNL     1     134.776  98.607  91.626  1.00  0.00     0.021 A 
ATOM     13  C   UNL     1     133.599  99.352  91.413  1.00  0.00     0.016 A 
ATOM     14  C   UNL     1     132.420  98.715  91.016  1.00  0.00     0.051 A 
ATOM     15  C   UNL     1     132.397  97.329  90.818  1.00  0.00     0.157 A 
ATOM     16  C   UNL     1     134.747  97.218  91.411  1.00  0.00     0.062 A 
ATOM     17  C   UNL     1     133.562  96.580  91.014  1.00  0.00     0.158 A 
BRANCH  15  18
ATOM     18  O   UNL     1     131.222  96.691  90.425  1.00  0.00    -0.504 OA
ATOM     19  H   UNL     1     130.843  96.806  89.492  1.00  0.00     0.293 HD
ENDBRANCH  15  18
BRANCH  17  20
ATOM     20  O   UNL     1     133.538  95.200  90.813  1.00  0.00    -0.504 OA
ATOM     21  H   UNL     1     133.025  94.785  90.045  1.00  0.00     0.293 HD
ENDBRANCH  17  20
ENDBRANCH   1  12
BRANCH   6  22
ATOM     22  O   UNL     1     140.515 101.788  92.741  1.00  0.00    -0.507 OA
ATOM     23  H   UNL     1     140.380 102.661  92.256  1.00  0.00     0.293 HD
ENDBRANCH   6  22
BRANCH   8  24
ATOM     24  O   UNL     1     138.942 100.559  97.108  1.00  0.00    -0.508 OA
ATOM     25  H   UNL     1     138.651  99.779  97.686  1.00  0.00     0.293 HD
ENDBRANCH   8  24
TORSDOF 5
ENDMDL
MODEL 6
REMARK VINA RESULT:    -5.574      1.869      3.481
REMARK INTER + INTRA:          -6.817
REMARK INTER:                  -6.503
REMARK INTRA:                  -0.314
REMARK UNBOUND:                -0.266
REMARK SMILES O=c1cc(-c2ccc(O)c(O)c2)oc2cc(O)cc(O)c12
REMARK SMILES IDX 4 1 3 2 2 3 1 4 21 5 19 6 18 7 16 8 15 9 14 10 13 11 5 12
REMARK SMILES IDX 6 13 7 14 8 15 12 16 10 17 9 18 11 20 20 22 17 24
REMARK H PARENT 9 19 11 21 20 23 17 25
REMARK Flexibility Score: inf
ROOT
ATOM      1  C   UNL     1     134.746 102.891  94.454  1.00  0.00     0.138 A 
ATOM      2  C   UNL     1     133.694 102.206  95.077  1.00  0.00     0.100 A 
ATOM      3  C   UNL     1     132.423 102.779  95.113  1.00  0.00     0.197 A 
ATOM      4  O   UNL     1     131.488 102.114  95.630  1.00  0.00    -0.289 OA
ATOM      5  C   UNL     1     132.212 104.062  94.553  1.00  0.00     0.107 A 
ATOM      6  C   UNL     1     130.967 104.760  94.561  1.00  0.00     0.134 A 
ATOM      7  C   UNL     1     130.857 105.983  93.888  1.00  0.00     0.093 A 
ATOM      8  C   UNL     1     131.961 106.560  93.257  1.00  0.00     0.123 A 
ATOM      9  C   UNL     1     133.192 105.911  93.287  1.00  0.00     0.094 A 
ATOM     10  C   UNL     1     133.327 104.673  93.919  1.00  0.00     0.146 A 
ATOM     11  O   UNL     1     134.516 104.080  93.908  1.00  0.00    -0.456 OA
ENDROOT
BRANCH   1  12
ATOM     12  C   UNL     1     136.120 102.330  94.390  1.00  0.00     0.021 A 
ATOM     13  C   UNL     1     136.368 100.956  94.574  1.00  0.00     0.016 A 
ATOM     14  C   UNL     1     137.671 100.455  94.497  1.00  0.00     0.051 A 
ATOM     15  C   UNL     1     138.744 101.314  94.229  1.00  0.00     0.157 A 
ATOM     16  C   UNL     1     137.202 103.183  94.106  1.00  0.00     0.062 A 
ATOM     17  C   UNL     1     138.509 102.679  94.031  1.00  0.00     0.158 A 
BRANCH  15  18
ATOM     18  O   UNL     1     140.044 100.817  94.154  1.00  0.00    -0.504 OA
ATOM     19  H   UNL     1     140.634 100.996  93.350  1.00  0.00     0.293 HD
ENDBRANCH  15  18
BRANCH  17  20
ATOM     20  O   UNL     1     139.578 103.531  93.760  1.00  0.00    -0.504 OA
ATOM     21  H   UNL     1     140.287 103.731  94.456  1.00  0.00     0.293 HD
ENDBRANCH  17  20
ENDBRANCH   1  12
BRANCH   6  22
ATOM     22  O   UNL     1     129.822 104.312  95.229  1.00  0.00    -0.507 OA
ATOM     23  H   UNL     1     129.709 104.281  96.230  1.00  0.00     0.293 HD
ENDBRANCH   6  22
BRANCH   8  24
ATOM     24  O   UNL     1     131.846 107.786  92.604  1.00  0.00    -0.508 OA
ATOM     25  H   UNL     1     131.219 108.508  92.938  1.00  0.00     0.293 HD
ENDBRANCH   8  24
TORSDOF 5
ENDMDL
MODEL 7
REMARK VINA RESULT:    -5.561      2.296      3.484
REMARK INTER + INTRA:          -6.801
REMARK INTER:                  -6.529
REMARK INTRA:                  -0.273
REMARK UNBOUND:                -0.266
REMARK SMILES O=c1cc(-c2ccc(O)c(O)c2)oc2cc(O)cc(O)c12
REMARK SMILES IDX 4 1 3 2 2 3 1 4 21 5 19 6 18 7 16 8 15 9 14 10 13 11 5 12
REMARK SMILES IDX 6 13 7 14 8 15 12 16 10 17 9 18 11 20 20 22 17 24
REMARK H PARENT 9 19 11 21 20 23 17 25
REMARK Flexibility Score: inf
ROOT
ATOM      1  C   UNL     1     134.441 101.967  94.238  1.00  0.00     0.138 A 
ATOM      2  C   UNL     1     133.803 102.733  95.222  1.00  0.00     0.100 A 
ATOM      3  C   UNL     1     132.449 103.041  95.087  1.00  0.00     0.197 A 
ATOM      4  O   UNL     1     131.892 103.683  96.014  1.00  0.00    -0.289 OA
ATOM      5  C   UNL     1     131.740 102.608  93.941  1.00  0.00     0.107 A 
ATOM      6  C   UNL     1     130.365 102.892  93.678  1.00  0.00     0.134 A 
ATOM      7  C   UNL     1     129.746 102.326  92.557  1.00  0.00     0.093 A 
ATOM      8  C   UNL     1     130.466 101.535  91.658  1.00  0.00     0.123 A 
ATOM      9  C   UNL     1     131.819 101.295  91.878  1.00  0.00     0.094 A 
ATOM     10  C   UNL     1     132.458 101.815  93.006  1.00  0.00     0.146 A 
ATOM     11  O   UNL     1     133.747 101.546  93.187  1.00  0.00    -0.456 OA
ENDROOT
BRANCH   1  12
ATOM     12  C   UNL     1     135.881 101.612  94.329  1.00  0.00     0.021 A 
ATOM     13  C   UNL     1     136.891 102.594  94.282  1.00  0.00     0.016 A 
ATOM     14  C   UNL     1     138.237 102.231  94.381  1.00  0.00     0.051 A 
ATOM     15  C   UNL     1     138.597 100.887  94.536  1.00  0.00     0.157 A 
ATOM     16  C   UNL     1     136.252 100.266  94.500  1.00  0.00     0.062 A 
ATOM     17  C   UNL     1     137.604  99.904  94.597  1.00  0.00     0.158 A 
BRANCH  15  18
ATOM     18  O   UNL     1     139.939 100.522  94.633  1.00  0.00    -0.504 OA
ATOM     19  H   UNL     1     140.487 100.296  93.811  1.00  0.00     0.293 HD
ENDBRANCH  15  18
BRANCH  17  20
ATOM     20  O   UNL     1     137.965  98.566  94.756  1.00  0.00    -0.504 OA
ATOM     21  H   UNL     1     137.559  97.989  95.483  1.00  0.00     0.293 HD
ENDBRANCH  17  20
ENDBRANCH   1  12
BRANCH   6  22
ATOM     22  O   UNL     1     129.574 103.734  94.467  1.00  0.00    -0.507 OA
ATOM     23  H   UNL     1     129.717 104.725  94.581  1.00  0.00     0.293 HD
ENDBRANCH   6  22
BRANCH   8  24
ATOM     24  O   UNL     1     129.845 100.990  90.536  1.00  0.00    -0.508 OA
ATOM     25  H   UNL     1     129.567 101.567  89.751  1.00  0.00     0.293 HD
ENDBRANCH   8  24
TORSDOF 5
ENDMDL
MODEL 8
REMARK VINA RESULT:    -5.553      3.277      4.161
REMARK INTER + INTRA:          -6.792
REMARK INTER:                  -6.521
REMARK INTRA:                  -0.271
REMARK UNBOUND:                -0.266
REMARK SMILES O=c1cc(-c2ccc(O)c(O)c2)oc2cc(O)cc(O)c12
REMARK SMILES IDX 4 1 3 2 2 3 1 4 21 5 19 6 18 7 16 8 15 9 14 10 13 11 5 12
REMARK SMILES IDX 6 13 7 14 8 15 12 16 10 17 9 18 11 20 20 22 17 24
REMARK H PARENT 9 19 11 21 20 23 17 25
REMARK Flexibility Score: inf
ROOT
ATOM      1  C   UNL     1     133.744 100.876  92.177  1.00  0.00     0.138 A 
ATOM      2  C   UNL     1     132.439 101.064  91.702  1.00  0.00     0.100 A 
ATOM      3  C   UNL     1     131.553 101.866  92.422  1.00  0.00     0.197 A 
ATOM      4  O   UNL     1     130.406 102.061  91.941  1.00  0.00    -0.289 OA
ATOM      5  C   UNL     1     131.965 102.454  93.642  1.00  0.00     0.107 A 
ATOM      6  C   UNL     1     131.137 103.263  94.478  1.00  0.00     0.134 A 
ATOM      7  C   UNL     1     131.687 103.870  95.613  1.00  0.00     0.093 A 
ATOM      8  C   UNL     1     133.019 103.653  95.974  1.00  0.00     0.123 A 
ATOM      9  C   UNL     1     133.820 102.825  95.193  1.00  0.00     0.094 A 
ATOM     10  C   UNL     1     133.312 102.232  94.035  1.00  0.00     0.146 A 
ATOM     11  O   UNL     1     134.117 101.463  93.309  1.00  0.00    -0.456 OA
ENDROOT
BRANCH   1  12
ATOM     12  C   UNL     1     134.728 100.030  91.454  1.00  0.00     0.021 A 
ATOM     13  C   UNL     1     136.026 100.492  91.158  1.00  0.00     0.016 A 
ATOM     14  C   UNL     1     136.934  99.669  90.485  1.00  0.00     0.051 A 
ATOM     15  C   UNL     1     136.566  98.373  90.105  1.00  0.00     0.157 A 
ATOM     16  C   UNL     1     134.373  98.722  91.080  1.00  0.00     0.062 A 
ATOM     17  C   UNL     1     135.284  97.898  90.404  1.00  0.00     0.158 A 
BRANCH  15  18
ATOM     18  O   UNL     1     137.469  97.552  89.432  1.00  0.00    -0.504 OA
ATOM     19  H   UNL     1     137.619  96.589  89.710  1.00  0.00     0.293 HD
ENDBRANCH  15  18
BRANCH  17  20
ATOM     20  O   UNL     1     134.922  96.606  90.027  1.00  0.00    -0.504 OA
ATOM     21  H   UNL     1     134.143  96.434  89.402  1.00  0.00     0.293 HD
ENDBRANCH  17  20
ENDBRANCH   1  12
BRANCH   6  22
ATOM     22  O   UNL     1     129.774 103.481  94.254  1.00  0.00    -0.507 OA
ATOM     23  H   UNL     1     129.134 103.884  94.920  1.00  0.00     0.293 HD
ENDBRANCH   6  22
BRANCH   8  24
ATOM     24  O   UNL     1     133.553 104.249  97.114  1.00  0.00    -0.508 OA
ATOM     25  H   UNL     1     134.370 104.845  97.067  1.00  0.00     0.293 HD
ENDBRANCH   8  24
TORSDOF 5
ENDMDL
MODEL 9
REMARK VINA RESULT:    -5.505      1.892      7.031
REMARK INTER + INTRA:          -6.736
REMARK INTER:                  -6.474
REMARK INTRA:                  -0.262
REMARK UNBOUND:                -0.266
REMARK SMILES O=c1cc(-c2ccc(O)c(O)c2)oc2cc(O)cc(O)c12
REMARK SMILES IDX 4 1 3 2 2 3 1 4 21 5 19 6 18 7 16 8 15 9 14 10 13 11 5 12
REMARK SMILES IDX 6 13 7 14 8 15 12 16 10 17 9 18 11 20 20 22 17 24
REMARK H PARENT 9 19 11 21 20 23 17 25
REMARK Flexibility Score: inf
ROOT
ATOM      1  C   UNL     1     134.327 102.277  94.093  1.00  0.00     0.138 A 
ATOM      2  C   UNL     1     135.530 102.360  94.808  1.00  0.00     0.100 A 
ATOM      3  C   UNL     1     136.573 101.484  94.506  1.00  0.00     0.197 A 
ATOM      4  O   UNL     1     137.659 101.620  95.128  1.00  0.00    -0.289 OA
ATOM      5  C   UNL     1     136.397 100.497  93.507  1.00  0.00     0.107 A 
ATOM      6  C   UNL     1     137.379  99.528  93.138  1.00  0.00     0.134 A 
ATOM      7  C   UNL     1     137.126  98.663  92.066  1.00  0.00     0.093 A 
ATOM      8  C   UNL     1     135.905  98.694  91.387  1.00  0.00     0.123 A 
ATOM      9  C   UNL     1     134.922  99.601  91.772  1.00  0.00     0.094 A 
ATOM     10  C   UNL     1     135.157 100.501  92.815  1.00  0.00     0.146 A 
ATOM     11  O   UNL     1     134.198 101.362  93.139  1.00  0.00    -0.456 OA
ENDROOT
BRANCH   1  12
ATOM     12  C   UNL     1     133.182 103.181  94.374  1.00  0.00     0.021 A 
ATOM     13  C   UNL     1     132.140 102.809  95.245  1.00  0.00     0.016 A 
ATOM     14  C   UNL     1     131.081 103.686  95.499  1.00  0.00     0.051 A 
ATOM     15  C   UNL     1     131.049 104.948  94.894  1.00  0.00     0.157 A 
ATOM     16  C   UNL     1     133.148 104.457  93.782  1.00  0.00     0.062 A 
ATOM     17  C   UNL     1     132.084 105.335  94.036  1.00  0.00     0.158 A 
BRANCH  15  18
ATOM     18  O   UNL     1     129.993 105.823  95.143  1.00  0.00    -0.504 OA
ATOM     19  H   UNL     1     129.267 105.600  95.814  1.00  0.00     0.293 HD
ENDBRANCH  15  18
BRANCH  17  20
ATOM     20  O   UNL     1     132.051 106.594  93.438  1.00  0.00    -0.504 OA
ATOM     21  H   UNL     1     131.292 106.872  92.828  1.00  0.00     0.293 HD
ENDBRANCH  17  20
ENDBRANCH   1  12
BRANCH   6  22
ATOM     22  O   UNL     1     138.599  99.357  93.800  1.00  0.00    -0.507 OA
ATOM     23  H   UNL     1     138.704  99.029  94.747  1.00  0.00     0.293 HD
ENDBRANCH   6  22
BRANCH   8  24
ATOM     24  O   UNL     1     135.657  97.819  90.332  1.00  0.00    -0.508 OA
ATOM     25  H   UNL     1     136.370  97.187  89.988  1.00  0.00     0.293 HD
ENDBRANCH   8  24
TORSDOF 5
ENDMDL
