MODEL 1
REMARK VINA RESULT:    -3.627      0.000      0.000
REMARK INTER + INTRA:          -4.428
REMARK INTER:                  -4.369
REMARK INTRA:                  -0.059
REMARK UNBOUND:                -0.059
REMARK SMILES Oc1cc(O)c2cc(O)c(-c3ccc(O)c(O)c3)[o+]c2c1
REMARK SMILES IDX 10 1 19 2 20 3 21 4 2 5 3 6 4 7 6 8 7 9 8 10 11 11 12 12
REMARK SMILES IDX 13 13 14 14 18 15 16 16 15 17 17 19 9 21 1 23 5 25
REMARK H PARENT 15 18 17 20 9 22 1 24 5 26
REMARK Flexibility Score: inf
ROOT
ATOM      1  C   UNL     1       6.839   4.928  13.241  1.00  0.00     0.402 A 
ATOM      2  O   UNL     1       6.515   5.277  14.483  1.00  0.00    -0.202 OA
ATOM      3  C   UNL     1       6.552   6.531  14.921  1.00  0.00     0.368 A 
ATOM      4  C   UNL     1       6.196   6.799  16.246  1.00  0.00     0.162 A 
ATOM      5  C   UNL     1       6.229   8.108  16.734  1.00  0.00     0.128 A 
ATOM      6  C   UNL     1       6.621   9.154  15.895  1.00  0.00     0.093 A 
ATOM      7  C   UNL     1       6.982   8.911  14.564  1.00  0.00     0.136 A 
ATOM      8  C   UNL     1       6.948   7.584  14.063  1.00  0.00     0.125 A 
ATOM      9  C   UNL     1       7.280   7.250  12.740  1.00  0.00     0.078 A 
ATOM     10  C   UNL     1       7.218   5.918  12.316  1.00  0.00     0.223 A 
ENDROOT
BRANCH   1  11
ATOM     11  C   UNL     1       6.767   3.494  12.875  1.00  0.00     0.087 A 
ATOM     12  C   UNL     1       5.972   3.100  11.790  1.00  0.00     0.022 A 
ATOM     13  C   UNL     1       5.876   1.751  11.438  1.00  0.00     0.051 A 
ATOM     14  C   UNL     1       6.554   0.772  12.170  1.00  0.00     0.157 A 
ATOM     15  C   UNL     1       7.432   2.512  13.627  1.00  0.00     0.068 A 
ATOM     16  C   UNL     1       7.338   1.157  13.284  1.00  0.00     0.158 A 
BRANCH  14  17
ATOM     17  O   UNL     1       6.422  -0.557  11.763  1.00  0.00    -0.504 OA
ATOM     18  H   UNL     1       6.365  -0.848  10.797  1.00  0.00     0.293 HD
ENDBRANCH  14  17
BRANCH  16  19
ATOM     19  O   UNL     1       8.028   0.235  14.075  1.00  0.00    -0.504 OA
ATOM     20  H   UNL     1       8.177  -0.730  13.817  1.00  0.00     0.293 HD
ENDBRANCH  16  19
ENDBRANCH   1  11
BRANCH  10  21
ATOM     21  O   UNL     1       7.499   5.592  10.990  1.00  0.00    -0.500 OA
ATOM     22  H   UNL     1       7.908   4.700  10.735  1.00  0.00     0.294 HD
ENDBRANCH  10  21
BRANCH   5  23
ATOM     23  O   UNL     1       5.875   8.383  18.054  1.00  0.00    -0.507 OA
ATOM     24  H   UNL     1       5.741   7.642  18.731  1.00  0.00     0.293 HD
ENDBRANCH   5  23
BRANCH   7  25
ATOM     25  O   UNL     1       7.364  10.011  13.790  1.00  0.00    -0.507 OA
ATOM     26  H   UNL     1       7.478  10.948  14.146  1.00  0.00     0.293 HD
ENDBRANCH   7  25
TORSDOF 6
ENDMDL
MODEL 2
REMARK VINA RESULT:    -3.350      2.796      8.386
REMARK INTER + INTRA:          -4.094
REMARK INTER:                  -3.841
REMARK INTRA:                  -0.253
REMARK UNBOUND:                -0.059
REMARK SMILES Oc1cc(O)c2cc(O)c(-c3ccc(O)c(O)c3)[o+]c2c1
REMARK SMILES IDX 10 1 19 2 20 3 21 4 2 5 3 6 4 7 6 8 7 9 8 10 11 11 12 12
REMARK SMILES IDX 13 13 14 14 18 15 16 16 15 17 17 19 9 21 1 23 5 25
REMARK H PARENT 15 18 17 20 9 22 1 24 5 26
REMARK Flexibility Score: inf
ROOT
ATOM      1  C   UNL     1       6.572   1.111  13.052  1.00  0.00     0.402 A 
ATOM      2  O   UNL     1       6.796   0.403  11.947  1.00  0.00    -0.202 OA
ATOM      3  C   UNL     1       6.693  -0.920  11.896  1.00  0.00     0.368 A 
ATOM      4  C   UNL     1       6.951  -1.576  10.689  1.00  0.00     0.162 A 
ATOM      5  C   UNL     1       6.853  -2.968  10.607  1.00  0.00     0.128 A 
ATOM      6  C   UNL     1       6.497  -3.707  11.738  1.00  0.00     0.093 A 
ATOM      7  C   UNL     1       6.233  -3.074  12.958  1.00  0.00     0.136 A 
ATOM      8  C   UNL     1       6.329  -1.661  13.046  1.00  0.00     0.125 A 
ATOM      9  C   UNL     1       6.070  -0.941  14.223  1.00  0.00     0.078 A 
ATOM     10  C   UNL     1       6.180   0.453  14.232  1.00  0.00     0.223 A 
ENDROOT
BRANCH   1  11
ATOM     11  C   UNL     1       6.730   2.582  12.985  1.00  0.00     0.087 A 
ATOM     12  C   UNL     1       5.875   3.330  12.163  1.00  0.00     0.022 A 
ATOM     13  C   UNL     1       6.018   4.716  12.071  1.00  0.00     0.051 A 
ATOM     14  C   UNL     1       7.024   5.380  12.781  1.00  0.00     0.157 A 
ATOM     15  C   UNL     1       7.756   3.242  13.682  1.00  0.00     0.068 A 
ATOM     16  C   UNL     1       7.909   4.631  13.593  1.00  0.00     0.158 A 
BRANCH  14  17
ATOM     17  O   UNL     1       7.108   6.767  12.651  1.00  0.00    -0.504 OA
ATOM     18  H   UNL     1       6.308   7.373  12.535  1.00  0.00     0.293 HD
ENDBRANCH  14  17
BRANCH  16  19
ATOM     19  O   UNL     1       8.949   5.221  14.316  1.00  0.00    -0.504 OA
ATOM     20  H   UNL     1       8.830   6.011  14.932  1.00  0.00     0.293 HD
ENDBRANCH  16  19
ENDBRANCH   1  11
BRANCH  10  21
ATOM     21  O   UNL     1       5.875   1.172  15.387  1.00  0.00    -0.500 OA
ATOM     22  H   UNL     1       6.475   1.915  15.727  1.00  0.00     0.294 HD
ENDBRANCH  10  21
BRANCH   5  23
ATOM     23  O   UNL     1       7.108  -3.628   9.408  1.00  0.00    -0.507 OA
ATOM     24  H   UNL     1       6.357  -3.975   8.823  1.00  0.00     0.293 HD
ENDBRANCH   5  23
BRANCH   7  25
ATOM     25  O   UNL     1       5.885  -3.885  14.043  1.00  0.00    -0.507 OA
ATOM     26  H   UNL     1       5.273  -3.603  14.793  1.00  0.00     0.293 HD
ENDBRANCH   7  25
TORSDOF 6
ENDMDL
MODEL 3
REMARK VINA RESULT:    -2.789      1.882      7.002
REMARK INTER + INTRA:          -3.419
REMARK INTER:                  -3.100
REMARK INTRA:                  -0.319
REMARK UNBOUND:                -0.059
REMARK SMILES Oc1cc(O)c2cc(O)c(-c3ccc(O)c(O)c3)[o+]c2c1
REMARK SMILES IDX 10 1 19 2 20 3 21 4 2 5 3 6 4 7 6 8 7 9 8 10 11 11 12 12
REMARK SMILES IDX 13 13 14 14 18 15 16 16 15 17 17 19 9 21 1 23 5 25
REMARK H PARENT 15 18 17 20 9 22 1 24 5 26
REMARK Flexibility Score: inf
ROOT
ATOM      1  C   UNL     1       6.771   3.434  12.744  1.00  0.00     0.402 A 
ATOM      2  O   UNL     1       6.636   2.465  13.645  1.00  0.00    -0.202 OA
ATOM      3  C   UNL     1       6.400   1.198  13.323  1.00  0.00     0.368 A 
ATOM      4  C   UNL     1       6.271   0.250  14.342  1.00  0.00     0.162 A 
ATOM      5  C   UNL     1       6.018  -1.090  14.032  1.00  0.00     0.128 A 
ATOM      6  C   UNL     1       5.892  -1.482  12.697  1.00  0.00     0.093 A 
ATOM      7  C   UNL     1       6.017  -0.552  11.659  1.00  0.00     0.136 A 
ATOM      8  C   UNL     1       6.276   0.808  11.968  1.00  0.00     0.125 A 
ATOM      9  C   UNL     1       6.429   1.806  10.992  1.00  0.00     0.078 A 
ATOM     10  C   UNL     1       6.688   3.127  11.374  1.00  0.00     0.223 A 
ENDROOT
BRANCH   1  11
ATOM     11  C   UNL     1       7.023   4.811  13.229  1.00  0.00     0.087 A 
ATOM     12  C   UNL     1       5.970   5.736  13.254  1.00  0.00     0.022 A 
ATOM     13  C   UNL     1       6.189   7.045  13.690  1.00  0.00     0.051 A 
ATOM     14  C   UNL     1       7.463   7.460  14.091  1.00  0.00     0.157 A 
ATOM     15  C   UNL     1       8.309   5.230  13.610  1.00  0.00     0.068 A 
ATOM     16  C   UNL     1       8.539   6.542  14.044  1.00  0.00     0.158 A 
BRANCH  14  17
ATOM     17  O   UNL     1       7.614   8.779  14.523  1.00  0.00    -0.504 OA
ATOM     18  H   UNL     1       7.138   9.169  15.324  1.00  0.00     0.293 HD
ENDBRANCH  14  17
BRANCH  16  19
ATOM     19  O   UNL     1       9.842   6.888  14.410  1.00  0.00    -0.504 OA
ATOM     20  H   UNL     1      10.584   6.219  14.553  1.00  0.00     0.293 HD
ENDBRANCH  16  19
ENDBRANCH   1  11
BRANCH  10  21
ATOM     21  O   UNL     1       6.889   4.109  10.404  1.00  0.00    -0.500 OA
ATOM     22  H   UNL     1       7.206   3.878   9.470  1.00  0.00     0.294 HD
ENDBRANCH  10  21
BRANCH   5  23
ATOM     23  O   UNL     1       5.889  -2.040  15.042  1.00  0.00    -0.507 OA
ATOM     24  H   UNL     1       6.329  -2.950  14.973  1.00  0.00     0.293 HD
ENDBRANCH   5  23
BRANCH   7  25
ATOM     25  O   UNL     1       5.875  -1.025  10.350  1.00  0.00    -0.507 OA
ATOM     26  H   UNL     1       5.514  -1.935  10.108  1.00  0.00     0.293 HD
ENDBRANCH   7  25
TORSDOF 6
ENDMDL
MODEL 4
REMARK VINA RESULT:    -2.775      3.176      8.694
REMARK INTER + INTRA:          -3.402
REMARK INTER:                  -3.393
REMARK INTRA:                  -0.009
REMARK UNBOUND:                -0.059
REMARK SMILES Oc1cc(O)c2cc(O)c(-c3ccc(O)c(O)c3)[o+]c2c1
REMARK SMILES IDX 10 1 19 2 20 3 21 4 2 5 3 6 4 7 6 8 7 9 8 10 11 11 12 12
REMARK SMILES IDX 13 13 14 14 18 15 16 16 15 17 17 19 9 21 1 23 5 25
REMARK H PARENT 15 18 17 20 9 22 1 24 5 26
REMARK Flexibility Score: inf
ROOT
ATOM      1  C   UNL     1       6.731  -0.011  12.827  1.00  0.00     0.402 A 
ATOM      2  O   UNL     1       7.131  -0.835  13.791  1.00  0.00    -0.202 OA
ATOM      3  C   UNL     1       7.075  -2.159  13.689  1.00  0.00     0.368 A 
ATOM      4  C   UNL     1       7.517  -2.943  14.758  1.00  0.00     0.162 A 
ATOM      5  C   UNL     1       7.466  -4.337  14.680  1.00  0.00     0.128 A 
ATOM      6  C   UNL     1       6.969  -4.951  13.527  1.00  0.00     0.093 A 
ATOM      7  C   UNL     1       6.520  -4.188  12.443  1.00  0.00     0.136 A 
ATOM      8  C   UNL     1       6.572  -2.772  12.516  1.00  0.00     0.125 A 
ATOM      9  C   UNL     1       6.156  -1.928  11.474  1.00  0.00     0.078 A 
ATOM     10  C   UNL     1       6.242  -0.540  11.618  1.00  0.00     0.223 A 
ENDROOT
BRANCH   1  11
ATOM     11  C   UNL     1       6.835   1.448  13.064  1.00  0.00     0.087 A 
ATOM     12  C   UNL     1       6.269   1.999  14.222  1.00  0.00     0.022 A 
ATOM     13  C   UNL     1       6.340   3.374  14.457  1.00  0.00     0.051 A 
ATOM     14  C   UNL     1       6.958   4.225  13.535  1.00  0.00     0.157 A 
ATOM     15  C   UNL     1       7.437   2.301  12.125  1.00  0.00     0.068 A 
ATOM     16  C   UNL     1       7.509   3.682  12.349  1.00  0.00     0.158 A 
BRANCH  14  17
ATOM     17  O   UNL     1       7.001   5.589  13.832  1.00  0.00    -0.504 OA
ATOM     18  H   UNL     1       6.419   6.283  13.385  1.00  0.00     0.293 HD
ENDBRANCH  14  17
BRANCH  16  19
ATOM     19  O   UNL     1       8.124   4.471  11.374  1.00  0.00    -0.504 OA
ATOM     20  H   UNL     1       7.637   5.148  10.807  1.00  0.00     0.293 HD
ENDBRANCH  16  19
ENDBRANCH   1  11
BRANCH  10  21
ATOM     21  O   UNL     1       5.876   0.297  10.564  1.00  0.00    -0.500 OA
ATOM     22  H   UNL     1       5.721  -0.060   9.629  1.00  0.00     0.294 HD
ENDBRANCH  10  21
BRANCH   5  23
ATOM     23  O   UNL     1       7.905  -5.125  15.741  1.00  0.00    -0.507 OA
ATOM     24  H   UNL     1       7.501  -5.040  16.667  1.00  0.00     0.293 HD
ENDBRANCH   5  23
BRANCH   7  25
ATOM     25  O   UNL     1       6.034  -4.877  11.327  1.00  0.00    -0.507 OA
ATOM     26  H   UNL     1       6.169  -5.863  11.162  1.00  0.00     0.293 HD
ENDBRANCH   7  25
TORSDOF 6
ENDMDL
MODEL 5
REMARK VINA RESULT:    -2.476      2.323      4.310
REMARK INTER + INTRA:          -3.042
REMARK INTER:                  -2.972
REMARK INTRA:                  -0.070
REMARK UNBOUND:                -0.059
REMARK SMILES Oc1cc(O)c2cc(O)c(-c3ccc(O)c(O)c3)[o+]c2c1
REMARK SMILES IDX 10 1 19 2 20 3 21 4 2 5 3 6 4 7 6 8 7 9 8 10 11 11 12 12
REMARK SMILES IDX 13 13 14 14 18 15 16 16 15 17 17 19 9 21 1 23 5 25
REMARK H PARENT 15 18 17 20 9 22 1 24 5 26
REMARK Flexibility Score: inf
ROOT
ATOM      1  C   UNL     1       6.793   1.502  13.065  1.00  0.00     0.402 A 
ATOM      2  O   UNL     1       7.312   2.439  12.277  1.00  0.00    -0.202 OA
ATOM      3  C   UNL     1       7.431   3.712  12.638  1.00  0.00     0.368 A 
ATOM      4  C   UNL     1       7.987   4.625  11.738  1.00  0.00     0.162 A 
ATOM      5  C   UNL     1       8.122   5.971  12.091  1.00  0.00     0.128 A 
ATOM      6  C   UNL     1       7.697   6.406  13.348  1.00  0.00     0.093 A 
ATOM      7  C   UNL     1       7.136   5.511  14.268  1.00  0.00     0.136 A 
ATOM      8  C   UNL     1       7.000   4.144  13.916  1.00  0.00     0.125 A 
ATOM      9  C   UNL     1       6.462   3.174  14.777  1.00  0.00     0.078 A 
ATOM     10  C   UNL     1       6.364   1.842  14.361  1.00  0.00     0.223 A 
ENDROOT
BRANCH   1  11
ATOM     11  C   UNL     1       6.704   0.118  12.545  1.00  0.00     0.087 A 
ATOM     12  C   UNL     1       5.995  -0.128  11.361  1.00  0.00     0.022 A 
ATOM     13  C   UNL     1       5.883  -1.428  10.861  1.00  0.00     0.051 A 
ATOM     14  C   UNL     1       6.460  -2.506  11.540  1.00  0.00     0.157 A 
ATOM     15  C   UNL     1       7.266  -0.965  13.241  1.00  0.00     0.068 A 
ATOM     16  C   UNL     1       7.155  -2.272  12.751  1.00  0.00     0.158 A 
BRANCH  14  17
ATOM     17  O   UNL     1       6.318  -3.779  10.984  1.00  0.00    -0.504 OA
ATOM     18  H   UNL     1       6.955  -4.544  11.155  1.00  0.00     0.293 HD
ENDBRANCH  14  17
BRANCH  16  19
ATOM     19  O   UNL     1       7.740  -3.300  13.494  1.00  0.00    -0.504 OA
ATOM     20  H   UNL     1       7.387  -3.625  14.382  1.00  0.00     0.293 HD
ENDBRANCH  16  19
ENDBRANCH   1  11
BRANCH  10  21
ATOM     21  O   UNL     1       5.876   0.871  15.235  1.00  0.00    -0.500 OA
ATOM     22  H   UNL     1       4.888   0.652  15.291  1.00  0.00     0.294 HD
ENDBRANCH  10  21
BRANCH   5  23
ATOM     23  O   UNL     1       8.676   6.887  11.199  1.00  0.00    -0.507 OA
ATOM     24  H   UNL     1       8.436   6.878  10.214  1.00  0.00     0.293 HD
ENDBRANCH   5  23
BRANCH   7  25
ATOM     25  O   UNL     1       6.733   6.026  15.504  1.00  0.00    -0.507 OA
ATOM     26  H   UNL     1       7.219   6.754  16.004  1.00  0.00     0.293 HD
ENDBRANCH   7  25
TORSDOF 6
ENDMDL
MODEL 6
REMARK VINA RESULT:    -2.137      1.360      1.804
REMARK INTER + INTRA:          -2.633
REMARK INTER:                  -2.599
REMARK INTRA:                  -0.034
REMARK UNBOUND:                -0.059
REMARK SMILES Oc1cc(O)c2cc(O)c(-c3ccc(O)c(O)c3)[o+]c2c1
REMARK SMILES IDX 10 1 19 2 20 3 21 4 2 5 3 6 4 7 6 8 7 9 8 10 11 11 12 12
REMARK SMILES IDX 13 13 14 14 18 15 16 16 15 17 17 19 9 21 1 23 5 25
REMARK H PARENT 15 18 17 20 9 22 1 24 5 26
REMARK Flexibility Score: inf
ROOT
ATOM      1  C   UNL     1       6.768   3.290  12.979  1.00  0.00     0.402 A 
ATOM      2  O   UNL     1       6.763   3.882  14.171  1.00  0.00    -0.202 OA
ATOM      3  C   UNL     1       6.706   5.200  14.330  1.00  0.00     0.368 A 
ATOM      4  C   UNL     1       6.709   5.729  15.623  1.00  0.00     0.162 A 
ATOM      5  C   UNL     1       6.654   7.112  15.820  1.00  0.00     0.128 A 
ATOM      6  C   UNL     1       6.596   7.969  14.718  1.00  0.00     0.093 A 
ATOM      7  C   UNL     1       6.592   7.463  13.413  1.00  0.00     0.136 A 
ATOM      8  C   UNL     1       6.646   6.061  13.208  1.00  0.00     0.125 A 
ATOM      9  C   UNL     1       6.632   5.465  11.936  1.00  0.00     0.078 A 
ATOM     10  C   UNL     1       6.683   4.072  11.813  1.00  0.00     0.223 A 
ENDROOT
BRANCH   1  11
ATOM     11  C   UNL     1       6.844   1.811  12.932  1.00  0.00     0.087 A 
ATOM     12  C   UNL     1       5.875   1.094  12.215  1.00  0.00     0.022 A 
ATOM     13  C   UNL     1       5.917  -0.301  12.172  1.00  0.00     0.051 A 
ATOM     14  C   UNL     1       6.913  -1.007  12.855  1.00  0.00     0.157 A 
ATOM     15  C   UNL     1       7.833   1.105  13.637  1.00  0.00     0.068 A 
ATOM     16  C   UNL     1       7.880  -0.294  13.603  1.00  0.00     0.158 A 
BRANCH  14  17
ATOM     17  O   UNL     1       6.904  -2.400  12.766  1.00  0.00    -0.504 OA
ATOM     18  H   UNL     1       6.481  -2.915  12.006  1.00  0.00     0.293 HD
ENDBRANCH  14  17
BRANCH  16  19
ATOM     19  O   UNL     1       8.892  -0.930  14.326  1.00  0.00    -0.504 OA
ATOM     20  H   UNL     1       9.813  -1.122  13.958  1.00  0.00     0.293 HD
ENDBRANCH  16  19
ENDBRANCH   1  11
BRANCH  10  21
ATOM     21  O   UNL     1       6.620   3.479  10.553  1.00  0.00    -0.500 OA
ATOM     22  H   UNL     1       5.971   2.727  10.349  1.00  0.00     0.294 HD
ENDBRANCH  10  21
BRANCH   5  23
ATOM     23  O   UNL     1       6.656   7.646  17.106  1.00  0.00    -0.507 OA
ATOM     24  H   UNL     1       6.408   7.086  17.913  1.00  0.00     0.293 HD
ENDBRANCH   5  23
BRANCH   7  25
ATOM     25  O   UNL     1       6.535   8.387  12.364  1.00  0.00    -0.507 OA
ATOM     26  H   UNL     1       5.901   8.325  11.582  1.00  0.00     0.293 HD
ENDBRANCH   7  25
TORSDOF 6
ENDMDL
MODEL 7
REMARK VINA RESULT:    -1.586      2.995      5.673
REMARK INTER + INTRA:          -1.970
REMARK INTER:                  -1.618
REMARK INTRA:                  -0.351
REMARK UNBOUND:                -0.059
REMARK SMILES Oc1cc(O)c2cc(O)c(-c3ccc(O)c(O)c3)[o+]c2c1
REMARK SMILES IDX 10 1 19 2 20 3 21 4 2 5 3 6 4 7 6 8 7 9 8 10 11 11 12 12
REMARK SMILES IDX 13 13 14 14 18 15 16 16 15 17 17 19 9 21 1 23 5 25
REMARK H PARENT 15 18 17 20 9 22 1 24 5 26
REMARK Flexibility Score: inf
ROOT
ATOM      1  C   UNL     1       6.756  -0.268  13.283  1.00  0.00     0.402 A 
ATOM      2  O   UNL     1       6.992   0.872  13.928  1.00  0.00    -0.202 OA
ATOM      3  C   UNL     1       6.848   2.069  13.370  1.00  0.00     0.368 A 
ATOM      4  C   UNL     1       7.123   3.210  14.128  1.00  0.00     0.162 A 
ATOM      5  C   UNL     1       6.983   4.482  13.565  1.00  0.00     0.128 A 
ATOM      6  C   UNL     1       6.567   4.613  12.238  1.00  0.00     0.093 A 
ATOM      7  C   UNL     1       6.285   3.485  11.458  1.00  0.00     0.136 A 
ATOM      8  C   UNL     1       6.423   2.192  12.025  1.00  0.00     0.125 A 
ATOM      9  C   UNL     1       6.150   1.007  11.323  1.00  0.00     0.078 A 
ATOM     10  C   UNL     1       6.305  -0.233  11.951  1.00  0.00     0.223 A 
ENDROOT
BRANCH   1  11
ATOM     11  C   UNL     1       6.963  -1.541  14.012  1.00  0.00     0.087 A 
ATOM     12  C   UNL     1       5.907  -2.090  14.753  1.00  0.00     0.022 A 
ATOM     13  C   UNL     1       6.086  -3.280  15.462  1.00  0.00     0.051 A 
ATOM     14  C   UNL     1       7.322  -3.934  15.460  1.00  0.00     0.157 A 
ATOM     15  C   UNL     1       8.213  -2.183  14.025  1.00  0.00     0.068 A 
ATOM     16  C   UNL     1       8.402  -3.375  14.736  1.00  0.00     0.158 A 
BRANCH  14  17
ATOM     17  O   UNL     1       7.433  -5.123  16.183  1.00  0.00    -0.504 OA
ATOM     18  H   UNL     1       8.250  -5.387  16.715  1.00  0.00     0.293 HD
ENDBRANCH  14  17
BRANCH  16  19
ATOM     19  O   UNL     1       9.670  -3.960  14.703  1.00  0.00    -0.504 OA
ATOM     20  H   UNL     1       9.952  -4.655  14.028  1.00  0.00     0.293 HD
ENDBRANCH  16  19
ENDBRANCH   1  11
BRANCH  10  21
ATOM     21  O   UNL     1       5.987  -1.407  11.270  1.00  0.00    -0.500 OA
ATOM     22  H   UNL     1       5.056  -1.576  10.905  1.00  0.00     0.294 HD
ENDBRANCH  10  21
BRANCH   5  23
ATOM     23  O   UNL     1       7.255   5.624  14.315  1.00  0.00    -0.507 OA
ATOM     24  H   UNL     1       7.050   6.551  13.962  1.00  0.00     0.293 HD
ENDBRANCH   5  23
BRANCH   7  25
ATOM     25  O   UNL     1       5.877   3.700  10.138  1.00  0.00    -0.507 OA
ATOM     26  H   UNL     1       6.409   4.215   9.452  1.00  0.00     0.293 HD
ENDBRANCH   7  25
TORSDOF 6
ENDMDL
