MODEL 1
REMARK VINA RESULT:    -4.784      0.000      0.000
REMARK INTER + INTRA:          -5.063
REMARK INTER:                  -5.063
REMARK INTRA:                   0.000
REMARK UNBOUND:                 0.000
REMARK SMILES O=c1ccc2cc(O)c(O)cc2o1
REMARK SMILES IDX 4 1 3 2 2 3 1 4 13 5 12 6 11 7 9 8 7 9 6 10 5 11 8 12 10 14
REMARK H PARENT 8 13 10 15
REMARK Flexibility Score: inf
ROOT
ATOM      1  C   UNL     1     -13.550 -22.246  12.973  1.00  0.00     0.019 A 
ATOM      2  C   UNL     1     -12.471 -21.641  13.616  1.00  0.00     0.094 A 
ATOM      3  C   UNL     1     -12.580 -20.303  14.008  1.00  0.00     0.336 A 
ATOM      4  O   UNL     1     -11.617 -19.738  14.590  1.00  0.00    -0.246 OA
ATOM      5  O   UNL     1     -13.696 -19.620  13.771  1.00  0.00    -0.423 OA
ATOM      6  C   UNL     1     -14.749 -20.158  13.159  1.00  0.00     0.142 A 
ATOM      7  C   UNL     1     -15.897 -19.391  12.936  1.00  0.00     0.098 A 
ATOM      8  C   UNL     1     -17.009 -19.951  12.295  1.00  0.00     0.161 A 
ATOM      9  C   UNL     1     -16.973 -21.293  11.872  1.00  0.00     0.158 A 
ATOM     10  C   UNL     1     -15.824 -22.066  12.094  1.00  0.00     0.062 A 
ATOM     11  C   UNL     1     -14.712 -21.504  12.736  1.00  0.00     0.022 A 
ENDROOT
BRANCH   9  12
ATOM     12  O   UNL     1     -18.079 -21.852  11.233  1.00  0.00    -0.504 OA
ATOM     13  H   UNL     1     -19.020 -21.524  11.416  1.00  0.00     0.293 HD
ENDBRANCH   9  12
BRANCH   8  14
ATOM     14  O   UNL     1     -18.138 -19.161  12.087  1.00  0.00    -0.504 OA
ATOM     15  H   UNL     1     -19.039 -19.559  11.853  1.00  0.00     0.293 HD
ENDBRANCH   8  14
TORSDOF 2
ENDMDL
MODEL 2
REMARK VINA RESULT:    -4.755      2.289      2.751
REMARK INTER + INTRA:          -5.033
REMARK INTER:                  -5.033
REMARK INTRA:                   0.000
REMARK UNBOUND:                 0.000
REMARK SMILES O=c1ccc2cc(O)c(O)cc2o1
REMARK SMILES IDX 4 1 3 2 2 3 1 4 13 5 12 6 11 7 9 8 7 9 6 10 5 11 8 12 10 14
REMARK H PARENT 8 13 10 15
REMARK Flexibility Score: inf
ROOT
ATOM      1  C   UNL     1     -16.186 -19.137  14.569  1.00  0.00     0.019 A 
ATOM      2  C   UNL     1     -15.179 -18.186  14.730  1.00  0.00     0.094 A 
ATOM      3  C   UNL     1     -14.275 -17.974  13.683  1.00  0.00     0.336 A 
ATOM      4  O   UNL     1     -13.359 -17.120  13.809  1.00  0.00    -0.246 OA
ATOM      5  O   UNL     1     -14.376 -18.669  12.554  1.00  0.00    -0.423 OA
ATOM      6  C   UNL     1     -15.321 -19.586  12.359  1.00  0.00     0.142 A 
ATOM      7  C   UNL     1     -15.379 -20.287  11.150  1.00  0.00     0.098 A 
ATOM      8  C   UNL     1     -16.371 -21.251  10.938  1.00  0.00     0.161 A 
ATOM      9  C   UNL     1     -17.316 -21.519  11.945  1.00  0.00     0.158 A 
ATOM     10  C   UNL     1     -17.263 -20.819  13.159  1.00  0.00     0.062 A 
ATOM     11  C   UNL     1     -16.269 -19.853  13.371  1.00  0.00     0.022 A 
ENDROOT
BRANCH   9  12
ATOM     12  O   UNL     1     -18.305 -22.480  11.735  1.00  0.00    -0.504 OA
ATOM     13  H   UNL     1     -19.101 -22.300  11.136  1.00  0.00     0.293 HD
ENDBRANCH   9  12
BRANCH   8  14
ATOM     14  O   UNL     1     -16.402 -21.933   9.722  1.00  0.00    -0.504 OA
ATOM     15  H   UNL     1     -17.245 -22.008   9.168  1.00  0.00     0.293 HD
ENDBRANCH   8  14
TORSDOF 2
ENDMDL
MODEL 3
REMARK VINA RESULT:    -4.582      1.003      2.252
REMARK INTER + INTRA:          -4.850
REMARK INTER:                  -4.850
REMARK INTRA:                   0.000
REMARK UNBOUND:                 0.000
REMARK SMILES O=c1ccc2cc(O)c(O)cc2o1
REMARK SMILES IDX 4 1 3 2 2 3 1 4 13 5 12 6 11 7 9 8 7 9 6 10 5 11 8 12 10 14
REMARK H PARENT 8 13 10 15
REMARK Flexibility Score: inf
ROOT
ATOM      1  C   UNL     1     -13.930 -18.921  14.150  1.00  0.00     0.019 A 
ATOM      2  C   UNL     1     -12.745 -19.584  14.468  1.00  0.00     0.094 A 
ATOM      3  C   UNL     1     -12.577 -20.908  14.050  1.00  0.00     0.336 A 
ATOM      4  O   UNL     1     -11.514 -21.524  14.326  1.00  0.00    -0.246 OA
ATOM      5  O   UNL     1     -13.533 -21.524  13.361  1.00  0.00    -0.423 OA
ATOM      6  C   UNL     1     -14.680 -20.929  13.038  1.00  0.00     0.142 A 
ATOM      7  C   UNL     1     -15.650 -21.626  12.311  1.00  0.00     0.098 A 
ATOM      8  C   UNL     1     -16.857 -21.006  11.967  1.00  0.00     0.161 A 
ATOM      9  C   UNL     1     -17.098 -19.675  12.352  1.00  0.00     0.158 A 
ATOM     10  C   UNL     1     -16.127 -18.971  13.081  1.00  0.00     0.062 A 
ATOM     11  C   UNL     1     -14.919 -19.593  13.425  1.00  0.00     0.022 A 
ENDROOT
BRANCH   9  12
ATOM     12  O   UNL     1     -18.300 -19.057  12.010  1.00  0.00    -0.504 OA
ATOM     13  H   UNL     1     -19.193 -19.509  12.168  1.00  0.00     0.293 HD
ENDBRANCH   9  12
BRANCH   8  14
ATOM     14  O   UNL     1     -17.804 -21.729  11.242  1.00  0.00    -0.504 OA
ATOM     15  H   UNL     1     -18.029 -22.692  11.459  1.00  0.00     0.293 HD
ENDBRANCH   8  14
TORSDOF 2
ENDMDL
MODEL 4
REMARK VINA RESULT:    -4.364      3.275      5.541
REMARK INTER + INTRA:          -4.619
REMARK INTER:                  -4.619
REMARK INTRA:                   0.000
REMARK UNBOUND:                 0.000
REMARK SMILES O=c1ccc2cc(O)c(O)cc2o1
REMARK SMILES IDX 4 1 3 2 2 3 1 4 13 5 12 6 11 7 9 8 7 9 6 10 5 11 8 12 10 14
REMARK H PARENT 8 13 10 15
REMARK Flexibility Score: inf
ROOT
ATOM      1  C   UNL     1     -15.481 -15.398  12.349  1.00  0.00     0.019 A 
ATOM      2  C   UNL     1     -15.904 -15.035  11.071  1.00  0.00     0.094 A 
ATOM      3  C   UNL     1     -16.682 -15.935  10.334  1.00  0.00     0.336 A 
ATOM      4  O   UNL     1     -17.074 -15.626   9.179  1.00  0.00    -0.246 OA
ATOM      5  O   UNL     1     -17.012 -17.117  10.846  1.00  0.00    -0.423 OA
ATOM      6  C   UNL     1     -16.628 -17.503  12.062  1.00  0.00     0.142 A 
ATOM      7  C   UNL     1     -17.005 -18.759  12.548  1.00  0.00     0.098 A 
ATOM      8  C   UNL     1     -16.607 -19.171  13.826  1.00  0.00     0.161 A 
ATOM      9  C   UNL     1     -15.823 -18.319  14.625  1.00  0.00     0.158 A 
ATOM     10  C   UNL     1     -15.443 -17.059  14.142  1.00  0.00     0.062 A 
ATOM     11  C   UNL     1     -15.842 -16.647  12.863  1.00  0.00     0.022 A 
ENDROOT
BRANCH   9  12
ATOM     12  O   UNL     1     -15.425 -18.729  15.898  1.00  0.00    -0.504 OA
ATOM     13  H   UNL     1     -16.085 -19.118  16.561  1.00  0.00     0.293 HD
ENDBRANCH   9  12
BRANCH   8  14
ATOM     14  O   UNL     1     -16.999 -20.429  14.282  1.00  0.00    -0.504 OA
ATOM     15  H   UNL     1     -17.972 -20.675  14.412  1.00  0.00     0.293 HD
ENDBRANCH   8  14
TORSDOF 2
ENDMDL
MODEL 5
REMARK VINA RESULT:    -4.330      2.306      3.836
REMARK INTER + INTRA:          -4.584
REMARK INTER:                  -4.584
REMARK INTRA:                   0.000
REMARK UNBOUND:                 0.000
REMARK SMILES O=c1ccc2cc(O)c(O)cc2o1
REMARK SMILES IDX 4 1 3 2 2 3 1 4 13 5 12 6 11 7 9 8 7 9 6 10 5 11 8 12 10 14
REMARK H PARENT 8 13 10 15
REMARK Flexibility Score: inf
ROOT
ATOM      1  C   UNL     1     -17.053 -16.992  12.277  1.00  0.00     0.019 A 
ATOM      2  C   UNL     1     -16.227 -15.969  12.740  1.00  0.00     0.094 A 
ATOM      3  C   UNL     1     -14.987 -16.300  13.297  1.00  0.00     0.336 A 
ATOM      4  O   UNL     1     -14.226 -15.390  13.720  1.00  0.00    -0.246 OA
ATOM      5  O   UNL     1     -14.604 -17.570  13.383  1.00  0.00    -0.423 OA
ATOM      6  C   UNL     1     -15.362 -18.577  12.955  1.00  0.00     0.142 A 
ATOM      7  C   UNL     1     -14.907 -19.895  13.071  1.00  0.00     0.098 A 
ATOM      8  C   UNL     1     -15.697 -20.958  12.621  1.00  0.00     0.161 A 
ATOM      9  C   UNL     1     -16.957 -20.704  12.049  1.00  0.00     0.158 A 
ATOM     10  C   UNL     1     -17.418 -19.384  11.930  1.00  0.00     0.062 A 
ATOM     11  C   UNL     1     -16.625 -18.320  12.380  1.00  0.00     0.022 A 
ENDROOT
BRANCH   9  12
ATOM     12  O   UNL     1     -17.747 -21.763  11.601  1.00  0.00    -0.504 OA
ATOM     13  H   UNL     1     -18.141 -21.773  10.668  1.00  0.00     0.293 HD
ENDBRANCH   9  12
BRANCH   8  14
ATOM     14  O   UNL     1     -15.216 -22.260  12.752  1.00  0.00    -0.504 OA
ATOM     15  H   UNL     1     -14.544 -22.653  12.105  1.00  0.00     0.293 HD
ENDBRANCH   8  14
TORSDOF 2
ENDMDL
MODEL 6
REMARK VINA RESULT:    -4.314      1.469      2.460
REMARK INTER + INTRA:          -4.566
REMARK INTER:                  -4.566
REMARK INTRA:                   0.000
REMARK UNBOUND:                 0.000
REMARK SMILES O=c1ccc2cc(O)c(O)cc2o1
REMARK SMILES IDX 4 1 3 2 2 3 1 4 13 5 12 6 11 7 9 8 7 9 6 10 5 11 8 12 10 14
REMARK H PARENT 8 13 10 15
REMARK Flexibility Score: inf
ROOT
ATOM      1  C   UNL     1     -12.916 -19.523  13.578  1.00  0.00     0.019 A 
ATOM      2  C   UNL     1     -11.709 -20.191  13.374  1.00  0.00     0.094 A 
ATOM      3  C   UNL     1     -11.732 -21.481  12.835  1.00  0.00     0.336 A 
ATOM      4  O   UNL     1     -10.653 -22.100  12.642  1.00  0.00    -0.246 OA
ATOM      5  O   UNL     1     -12.887 -22.061  12.523  1.00  0.00    -0.423 OA
ATOM      6  C   UNL     1     -14.062 -21.461  12.703  1.00  0.00     0.142 A 
ATOM      7  C   UNL     1     -15.245 -22.119  12.356  1.00  0.00     0.098 A 
ATOM      8  C   UNL     1     -16.484 -21.494  12.541  1.00  0.00     0.161 A 
ATOM      9  C   UNL     1     -16.540 -20.195  13.079  1.00  0.00     0.158 A 
ATOM     10  C   UNL     1     -15.356 -19.529  13.428  1.00  0.00     0.062 A 
ATOM     11  C   UNL     1     -14.116 -20.157  13.242  1.00  0.00     0.022 A 
ENDROOT
BRANCH   9  12
ATOM     12  O   UNL     1     -17.774 -19.570  13.265  1.00  0.00    -0.504 OA
ATOM     13  H   UNL     1     -18.459 -19.933  13.916  1.00  0.00     0.293 HD
ENDBRANCH   9  12
BRANCH   8  14
ATOM     14  O   UNL     1     -17.646 -22.177  12.186  1.00  0.00    -0.504 OA
ATOM     15  H   UNL     1     -18.532 -21.704  12.060  1.00  0.00     0.293 HD
ENDBRANCH   8  14
TORSDOF 2
ENDMDL
MODEL 7
REMARK VINA RESULT:    -4.266      2.333      3.377
REMARK INTER + INTRA:          -4.516
REMARK INTER:                  -4.516
REMARK INTRA:                   0.000
REMARK UNBOUND:                 0.000
REMARK SMILES O=c1ccc2cc(O)c(O)cc2o1
REMARK SMILES IDX 4 1 3 2 2 3 1 4 13 5 12 6 11 7 9 8 7 9 6 10 5 11 8 12 10 14
REMARK H PARENT 8 13 10 15
REMARK Flexibility Score: inf
ROOT
ATOM      1  C   UNL     1     -13.616 -18.266  13.131  1.00  0.00     0.019 A 
ATOM      2  C   UNL     1     -13.955 -16.936  13.375  1.00  0.00     0.094 A 
ATOM      3  C   UNL     1     -15.305 -16.596  13.517  1.00  0.00     0.336 A 
ATOM      4  O   UNL     1     -15.631 -15.401  13.738  1.00  0.00    -0.246 OA
ATOM      5  O   UNL     1     -16.249 -17.528  13.419  1.00  0.00    -0.423 OA
ATOM      6  C   UNL     1     -15.969 -18.809  13.186  1.00  0.00     0.142 A 
ATOM      7  C   UNL     1     -17.003 -19.745  13.093  1.00  0.00     0.098 A 
ATOM      8  C   UNL     1     -16.716 -21.094  12.849  1.00  0.00     0.161 A 
ATOM      9  C   UNL     1     -15.382 -21.511  12.695  1.00  0.00     0.158 A 
ATOM     10  C   UNL     1     -14.341 -20.575  12.788  1.00  0.00     0.062 A 
ATOM     11  C   UNL     1     -14.629 -19.226  13.032  1.00  0.00     0.022 A 
ENDROOT
BRANCH   9  12
ATOM     12  O   UNL     1     -15.095 -22.854  12.451  1.00  0.00    -0.504 OA
ATOM     13  H   UNL     1     -14.546 -23.142  11.650  1.00  0.00     0.293 HD
ENDBRANCH   9  12
BRANCH   8  14
ATOM     14  O   UNL     1     -17.770 -22.003  12.761  1.00  0.00    -0.504 OA
ATOM     15  H   UNL     1     -17.618 -22.987  12.579  1.00  0.00     0.293 HD
ENDBRANCH   8  14
TORSDOF 2
ENDMDL
MODEL 8
REMARK VINA RESULT:    -4.248      1.745      4.832
REMARK INTER + INTRA:          -4.497
REMARK INTER:                  -4.497
REMARK INTRA:                   0.000
REMARK UNBOUND:                 0.000
REMARK SMILES O=c1ccc2cc(O)c(O)cc2o1
REMARK SMILES IDX 4 1 3 2 2 3 1 4 13 5 12 6 11 7 9 8 7 9 6 10 5 11 8 12 10 14
REMARK H PARENT 8 13 10 15
REMARK Flexibility Score: inf
ROOT
ATOM      1  C   UNL     1     -14.585 -18.741  14.521  1.00  0.00     0.019 A 
ATOM      2  C   UNL     1     -15.871 -18.426  14.085  1.00  0.00     0.094 A 
ATOM      3  C   UNL     1     -16.466 -19.222  13.101  1.00  0.00     0.336 A 
ATOM      4  O   UNL     1     -17.627 -18.955  12.694  1.00  0.00    -0.246 OA
ATOM      5  O   UNL     1     -15.815 -20.263  12.591  1.00  0.00    -0.423 OA
ATOM      6  C   UNL     1     -14.586 -20.599  12.978  1.00  0.00     0.142 A 
ATOM      7  C   UNL     1     -13.949 -21.704  12.406  1.00  0.00     0.098 A 
ATOM      8  C   UNL     1     -12.657 -22.063  12.809  1.00  0.00     0.161 A 
ATOM      9  C   UNL     1     -11.994 -21.309  13.794  1.00  0.00     0.158 A 
ATOM     10  C   UNL     1     -12.629 -20.200  14.372  1.00  0.00     0.062 A 
ATOM     11  C   UNL     1     -13.922 -19.841  13.967  1.00  0.00     0.022 A 
ENDROOT
BRANCH   9  12
ATOM     12  O   UNL     1     -10.707 -21.665  14.196  1.00  0.00    -0.504 OA
ATOM     13  H   UNL     1     -10.034 -20.971  14.499  1.00  0.00     0.293 HD
ENDBRANCH   9  12
BRANCH   8  14
ATOM     14  O   UNL     1     -12.049 -23.170  12.219  1.00  0.00    -0.504 OA
ATOM     15  H   UNL     1     -11.764 -23.175  11.247  1.00  0.00     0.293 HD
ENDBRANCH   8  14
TORSDOF 2
ENDMDL
MODEL 9
REMARK VINA RESULT:    -4.194     14.381     15.811
REMARK INTER + INTRA:          -4.439
REMARK INTER:                  -4.439
REMARK INTRA:                   0.000
REMARK UNBOUND:                 0.000
REMARK SMILES O=c1ccc2cc(O)c(O)cc2o1
REMARK SMILES IDX 4 1 3 2 2 3 1 4 13 5 12 6 11 7 9 8 7 9 6 10 5 11 8 12 10 14
REMARK H PARENT 8 13 10 15
REMARK Flexibility Score: inf
ROOT
ATOM      1  C   UNL     1     -18.068  -8.433   2.238  1.00  0.00     0.019 A 
ATOM      2  C   UNL     1     -18.819  -9.299   1.444  1.00  0.00     0.094 A 
ATOM      3  C   UNL     1     -19.776 -10.117   2.054  1.00  0.00     0.336 A 
ATOM      4  O   UNL     1     -20.466 -10.905   1.354  1.00  0.00    -0.246 OA
ATOM      5  O   UNL     1     -19.965 -10.069   3.369  1.00  0.00    -0.423 OA
ATOM      6  C   UNL     1     -19.269  -9.259   4.164  1.00  0.00     0.142 A 
ATOM      7  C   UNL     1     -19.511  -9.251   5.541  1.00  0.00     0.098 A 
ATOM      8  C   UNL     1     -18.784  -8.401   6.382  1.00  0.00     0.161 A 
ATOM      9  C   UNL     1     -17.804  -7.548   5.841  1.00  0.00     0.158 A 
ATOM     10  C   UNL     1     -17.558  -7.552   4.460  1.00  0.00     0.062 A 
ATOM     11  C   UNL     1     -18.287  -8.404   3.619  1.00  0.00     0.022 A 
ENDROOT
BRANCH   9  12
ATOM     12  O   UNL     1     -17.078  -6.701   6.678  1.00  0.00    -0.504 OA
ATOM     13  H   UNL     1     -17.022  -5.704   6.505  1.00  0.00     0.293 HD
ENDBRANCH   9  12
BRANCH   8  14
ATOM     14  O   UNL     1     -19.048  -8.417   7.751  1.00  0.00    -0.504 OA
ATOM     15  H   UNL     1     -18.942  -9.254   8.310  1.00  0.00     0.293 HD
ENDBRANCH   8  14
TORSDOF 2
ENDMDL
