MODEL 1
REMARK VINA RESULT:    -5.009      0.000      0.000
REMARK INTER + INTRA:          -6.027
REMARK INTER:                  -5.888
REMARK INTRA:                  -0.139
REMARK UNBOUND:                -0.139
REMARK SMILES O=C([O-])C=Cc1ccc(O)c(O)c1
REMARK SMILES IDX 6 1 13 2 7 3 11 4 8 5 9 6 5 7 4 8 2 9 1 10 3 11 12 12 10 14
REMARK H PARENT 12 13 10 15
REMARK Flexibility Score: inf
ROOT
ATOM      1  C   UNL     1      25.478  48.145  34.024  1.00  0.00    -0.022 A 
ATOM      2  C   UNL     1      24.832  47.888  35.251  1.00  0.00     0.058 A 
ATOM      3  C   UNL     1      26.402  49.201  33.954  1.00  0.00     0.012 A 
ATOM      4  C   UNL     1      25.090  48.688  36.374  1.00  0.00     0.157 A 
ATOM      5  C   UNL     1      26.658  49.998  35.072  1.00  0.00     0.051 A 
ATOM      6  C   UNL     1      26.001  49.746  36.283  1.00  0.00     0.157 A 
ENDROOT
BRANCH   1   7
ATOM      7  C   UNL     1      25.248  47.321  32.812  1.00  0.00     0.010 C 
ATOM      8  C   UNL     1      26.229  46.715  32.126  1.00  0.00     0.025 C 
BRANCH   8   9
ATOM      9  C   UNL     1      25.962  45.895  30.933  1.00  0.00     0.064 C 
ATOM     10  O   UNL     1      24.901  46.037  30.267  1.00  0.00    -0.545 OA
ATOM     11  O   UNL     1      26.897  44.948  30.533  1.00  0.00    -0.545 OA
ENDBRANCH   8   9
ENDBRANCH   1   7
BRANCH   4  12
ATOM     12  O   UNL     1      24.446  48.434  37.584  1.00  0.00    -0.504 OA
ATOM     13  H   UNL     1      23.610  48.936  37.856  1.00  0.00     0.293 HD
ENDBRANCH   4  12
BRANCH   6  14
ATOM     14  O   UNL     1      26.252  50.541  37.402  1.00  0.00    -0.504 OA
ATOM     15  H   UNL     1      26.169  50.173  38.341  1.00  0.00     0.293 HD
ENDBRANCH   6  14
TORSDOF 4
ENDMDL
MODEL 2
REMARK VINA RESULT:    -4.956     11.176     13.195
REMARK INTER + INTRA:          -5.965
REMARK INTER:                  -5.836
REMARK INTRA:                  -0.129
REMARK UNBOUND:                -0.139
REMARK SMILES O=C([O-])C=Cc1ccc(O)c(O)c1
REMARK SMILES IDX 6 1 13 2 7 3 11 4 8 5 9 6 5 7 4 8 2 9 1 10 3 11 12 12 10 14
REMARK H PARENT 12 13 10 15
REMARK Flexibility Score: inf
ROOT
ATOM      1  C   UNL     1      20.887  47.867  44.514  1.00  0.00    -0.022 A 
ATOM      2  C   UNL     1      21.543  46.619  44.522  1.00  0.00     0.058 A 
ATOM      3  C   UNL     1      19.746  48.028  43.711  1.00  0.00     0.012 A 
ATOM      4  C   UNL     1      21.076  45.564  43.723  1.00  0.00     0.157 A 
ATOM      5  C   UNL     1      19.283  46.979  42.914  1.00  0.00     0.051 A 
ATOM      6  C   UNL     1      19.947  45.746  42.915  1.00  0.00     0.157 A 
ENDROOT
BRANCH   1   7
ATOM      7  C   UNL     1      21.334  49.008  45.350  1.00  0.00     0.010 C 
ATOM      8  C   UNL     1      20.759  49.351  46.512  1.00  0.00     0.025 C 
BRANCH   8   9
ATOM      9  C   UNL     1      21.236  50.484  47.322  1.00  0.00     0.064 C 
ATOM     10  O   UNL     1      20.431  51.316  47.819  1.00  0.00    -0.545 OA
ATOM     11  O   UNL     1      22.599  50.639  47.542  1.00  0.00    -0.545 OA
ENDBRANCH   8   9
ENDBRANCH   1   7
BRANCH   4  12
ATOM     12  O   UNL     1      21.728  44.332  43.729  1.00  0.00    -0.504 OA
ATOM     13  H   UNL     1      21.312  43.514  44.156  1.00  0.00     0.293 HD
ENDBRANCH   4  12
BRANCH   6  14
ATOM     14  O   UNL     1      19.490  44.696  42.120  1.00  0.00    -0.504 OA
ATOM     15  H   UNL     1      18.590  44.260  42.285  1.00  0.00     0.293 HD
ENDBRANCH   6  14
TORSDOF 4
ENDMDL
MODEL 3
REMARK VINA RESULT:    -4.950     11.122     13.031
REMARK INTER + INTRA:          -5.957
REMARK INTER:                  -5.832
REMARK INTRA:                  -0.126
REMARK UNBOUND:                -0.139
REMARK SMILES O=C([O-])C=Cc1ccc(O)c(O)c1
REMARK SMILES IDX 6 1 13 2 7 3 11 4 8 5 9 6 5 7 4 8 2 9 1 10 3 11 12 12 10 14
REMARK H PARENT 12 13 10 15
REMARK Flexibility Score: inf
ROOT
ATOM      1  C   UNL     1      20.978  47.741  44.424  1.00  0.00    -0.022 A 
ATOM      2  C   UNL     1      19.921  48.005  43.530  1.00  0.00     0.058 A 
ATOM      3  C   UNL     1      21.482  46.432  44.509  1.00  0.00     0.012 A 
ATOM      4  C   UNL     1      19.367  46.974  42.755  1.00  0.00     0.157 A 
ATOM      5  C   UNL     1      20.930  45.406  43.739  1.00  0.00     0.051 A 
ATOM      6  C   UNL     1      19.870  45.672  42.863  1.00  0.00     0.157 A 
ENDROOT
BRANCH   1   7
ATOM      7  C   UNL     1      21.605  48.798  45.255  1.00  0.00     0.010 C 
ATOM      8  C   UNL     1      21.011  49.360  46.318  1.00  0.00     0.025 C 
BRANCH   8   9
ATOM      9  C   UNL     1      21.669  50.400  47.127  1.00  0.00     0.064 C 
ATOM     10  O   UNL     1      20.996  51.215  47.814  1.00  0.00    -0.545 OA
ATOM     11  O   UNL     1      23.055  50.484  47.134  1.00  0.00    -0.545 OA
ENDBRANCH   8   9
ENDBRANCH   1   7
BRANCH   4  12
ATOM     12  O   UNL     1      18.320  47.238  41.875  1.00  0.00    -0.504 OA
ATOM     13  H   UNL     1      18.360  48.009  41.218  1.00  0.00     0.293 HD
ENDBRANCH   4  12
BRANCH   6  14
ATOM     14  O   UNL     1      19.315  44.650  42.095  1.00  0.00    -0.504 OA
ATOM     15  H   UNL     1      18.705  44.850  41.310  1.00  0.00     0.293 HD
ENDBRANCH   6  14
TORSDOF 4
ENDMDL
MODEL 4
REMARK VINA RESULT:    -4.860     11.199     12.867
REMARK INTER + INTRA:          -5.852
REMARK INTER:                  -5.726
REMARK INTRA:                  -0.126
REMARK UNBOUND:                -0.139
REMARK SMILES O=C([O-])C=Cc1ccc(O)c(O)c1
REMARK SMILES IDX 6 1 13 2 7 3 11 4 8 5 9 6 5 7 4 8 2 9 1 10 3 11 12 12 10 14
REMARK H PARENT 12 13 10 15
REMARK Flexibility Score: inf
ROOT
ATOM      1  C   UNL     1      19.613  48.003  43.761  1.00  0.00    -0.022 A 
ATOM      2  C   UNL     1      19.187  46.897  42.997  1.00  0.00     0.058 A 
ATOM      3  C   UNL     1      20.820  47.909  44.474  1.00  0.00     0.012 A 
ATOM      4  C   UNL     1      19.944  45.717  42.969  1.00  0.00     0.157 A 
ATOM      5  C   UNL     1      21.572  46.733  44.447  1.00  0.00     0.051 A 
ATOM      6  C   UNL     1      21.136  45.633  43.698  1.00  0.00     0.157 A 
ENDROOT
BRANCH   1   7
ATOM      7  C   UNL     1      18.855  49.277  43.814  1.00  0.00     0.010 C 
ATOM      8  C   UNL     1      17.759  49.462  44.565  1.00  0.00     0.025 C 
BRANCH   8   9
ATOM      9  C   UNL     1      17.038  50.745  44.602  1.00  0.00     0.064 C 
ATOM     10  O   UNL     1      15.779  50.785  44.645  1.00  0.00    -0.545 OA
ATOM     11  O   UNL     1      17.758  51.933  44.590  1.00  0.00    -0.545 OA
ENDBRANCH   8   9
ENDBRANCH   1   7
BRANCH   4  12
ATOM     12  O   UNL     1      19.518  44.624  42.215  1.00  0.00    -0.504 OA
ATOM     13  H   UNL     1      19.743  44.538  41.231  1.00  0.00     0.293 HD
ENDBRANCH   4  12
BRANCH   6  14
ATOM     14  O   UNL     1      21.883  44.456  43.670  1.00  0.00    -0.504 OA
ATOM     15  H   UNL     1      21.727  43.714  44.341  1.00  0.00     0.293 HD
ENDBRANCH   6  14
TORSDOF 4
ENDMDL
MODEL 5
REMARK VINA RESULT:    -4.846      1.132      5.846
REMARK INTER + INTRA:          -5.835
REMARK INTER:                  -5.697
REMARK INTRA:                  -0.138
REMARK UNBOUND:                -0.139
REMARK SMILES O=C([O-])C=Cc1ccc(O)c(O)c1
REMARK SMILES IDX 6 1 13 2 7 3 11 4 8 5 9 6 5 7 4 8 2 9 1 10 3 11 12 12 10 14
REMARK H PARENT 12 13 10 15
REMARK Flexibility Score: inf
ROOT
ATOM      1  C   UNL     1      25.138  47.667  34.044  1.00  0.00    -0.022 A 
ATOM      2  C   UNL     1      23.973  47.607  33.252  1.00  0.00     0.058 A 
ATOM      3  C   UNL     1      26.353  47.221  33.497  1.00  0.00     0.012 A 
ATOM      4  C   UNL     1      24.023  47.088  31.950  1.00  0.00     0.157 A 
ATOM      5  C   UNL     1      26.402  46.702  32.202  1.00  0.00     0.051 A 
ATOM      6  C   UNL     1      25.238  46.631  31.425  1.00  0.00     0.157 A 
ENDROOT
BRANCH   1   7
ATOM      7  C   UNL     1      25.140  48.219  35.421  1.00  0.00     0.010 C 
ATOM      8  C   UNL     1      25.887  49.264  35.804  1.00  0.00     0.025 C 
BRANCH   8   9
ATOM      9  C   UNL     1      25.854  49.793  37.178  1.00  0.00     0.064 C 
ATOM     10  O   UNL     1      26.679  50.665  37.562  1.00  0.00    -0.545 OA
ATOM     11  O   UNL     1      24.897  49.322  38.068  1.00  0.00    -0.545 OA
ENDBRANCH   8   9
ENDBRANCH   1   7
BRANCH   4  12
ATOM     12  O   UNL     1      22.869  47.026  31.170  1.00  0.00    -0.504 OA
ATOM     13  H   UNL     1      21.980  47.374  31.509  1.00  0.00     0.293 HD
ENDBRANCH   4  12
BRANCH   6  14
ATOM     14  O   UNL     1      25.282  46.112  30.132  1.00  0.00    -0.504 OA
ATOM     15  H   UNL     1      25.327  45.115  29.963  1.00  0.00     0.293 HD
ENDBRANCH   6  14
TORSDOF 4
ENDMDL
MODEL 6
REMARK VINA RESULT:    -4.762     10.897     13.325
REMARK INTER + INTRA:          -5.737
REMARK INTER:                  -5.601
REMARK INTRA:                  -0.135
REMARK UNBOUND:                -0.139
REMARK SMILES O=C([O-])C=Cc1ccc(O)c(O)c1
REMARK SMILES IDX 6 1 13 2 7 3 11 4 8 5 9 6 5 7 4 8 2 9 1 10 3 11 12 12 10 14
REMARK H PARENT 12 13 10 15
REMARK Flexibility Score: inf
ROOT
ATOM      1  C   UNL     1      17.389  49.727  43.436  1.00  0.00    -0.022 A 
ATOM      2  C   UNL     1      16.572  49.709  42.287  1.00  0.00     0.058 A 
ATOM      3  C   UNL     1      16.779  49.706  44.701  1.00  0.00     0.012 A 
ATOM      4  C   UNL     1      15.175  49.695  42.406  1.00  0.00     0.157 A 
ATOM      5  C   UNL     1      15.387  49.695  44.820  1.00  0.00     0.051 A 
ATOM      6  C   UNL     1      14.581  49.692  43.674  1.00  0.00     0.157 A 
ENDROOT
BRANCH   1   7
ATOM      7  C   UNL     1      18.871  49.730  43.363  1.00  0.00     0.010 C 
ATOM      8  C   UNL     1      19.639  48.714  43.783  1.00  0.00     0.025 C 
BRANCH   8   9
ATOM      9  C   UNL     1      21.108  48.747  43.684  1.00  0.00     0.064 C 
ATOM     10  O   UNL     1      21.746  47.811  43.130  1.00  0.00    -0.545 OA
ATOM     11  O   UNL     1      21.804  49.828  44.210  1.00  0.00    -0.545 OA
ENDBRANCH   8   9
ENDBRANCH   1   7
BRANCH   4  12
ATOM     12  O   UNL     1      14.370  49.682  41.269  1.00  0.00    -0.504 OA
ATOM     13  H   UNL     1      13.641  50.371  41.125  1.00  0.00     0.293 HD
ENDBRANCH   4  12
BRANCH   6  14
ATOM     14  O   UNL     1      13.192  49.682  43.788  1.00  0.00    -0.504 OA
ATOM     15  H   UNL     1      12.611  49.169  43.135  1.00  0.00     0.293 HD
ENDBRANCH   6  14
TORSDOF 4
ENDMDL
MODEL 7
REMARK VINA RESULT:    -4.624     11.983     13.938
REMARK INTER + INTRA:          -5.574
REMARK INTER:                  -5.447
REMARK INTRA:                  -0.127
REMARK UNBOUND:                -0.139
REMARK SMILES O=C([O-])C=Cc1ccc(O)c(O)c1
REMARK SMILES IDX 6 1 13 2 7 3 11 4 8 5 9 6 5 7 4 8 2 9 1 10 3 11 12 12 10 14
REMARK H PARENT 12 13 10 15
REMARK Flexibility Score: inf
ROOT
ATOM      1  C   UNL     1      17.440  50.283  44.168  1.00  0.00    -0.022 A 
ATOM      2  C   UNL     1      17.816  50.334  42.810  1.00  0.00     0.058 A 
ATOM      3  C   UNL     1      16.118  49.937  44.492  1.00  0.00     0.012 A 
ATOM      4  C   UNL     1      16.879  50.067  41.801  1.00  0.00     0.157 A 
ATOM      5  C   UNL     1      15.184  49.674  43.487  1.00  0.00     0.051 A 
ATOM      6  C   UNL     1      15.560  49.740  42.140  1.00  0.00     0.157 A 
ENDROOT
BRANCH   1   7
ATOM      7  C   UNL     1      18.396  50.544  45.272  1.00  0.00     0.010 C 
ATOM      8  C   UNL     1      19.678  50.150  45.256  1.00  0.00     0.025 C 
BRANCH   8   9
ATOM      9  C   UNL     1      20.602  50.438  46.366  1.00  0.00     0.064 C 
ATOM     10  O   UNL     1      20.265  51.192  47.317  1.00  0.00    -0.545 OA
ATOM     11  O   UNL     1      21.869  49.867  46.365  1.00  0.00    -0.545 OA
ENDBRANCH   8   9
ENDBRANCH   1   7
BRANCH   4  12
ATOM     12  O   UNL     1      17.252  50.122  40.459  1.00  0.00    -0.504 OA
ATOM     13  H   UNL     1      16.997  49.391  39.807  1.00  0.00     0.293 HD
ENDBRANCH   4  12
BRANCH   6  14
ATOM     14  O   UNL     1      14.631  49.480  41.133  1.00  0.00    -0.504 OA
ATOM     15  H   UNL     1      14.886  48.965  40.299  1.00  0.00     0.293 HD
ENDBRANCH   6  14
TORSDOF 4
ENDMDL
MODEL 8
REMARK VINA RESULT:    -4.575     12.118     15.328
REMARK INTER + INTRA:          -5.516
REMARK INTER:                  -5.364
REMARK INTRA:                  -0.153
REMARK UNBOUND:                -0.139
REMARK SMILES O=C([O-])C=Cc1ccc(O)c(O)c1
REMARK SMILES IDX 6 1 13 2 7 3 11 4 8 5 9 6 5 7 4 8 2 9 1 10 3 11 12 12 10 14
REMARK H PARENT 12 13 10 15
REMARK Flexibility Score: inf
ROOT
ATOM      1  C   UNL     1      16.120  49.617  44.497  1.00  0.00    -0.022 A 
ATOM      2  C   UNL     1      15.176  49.511  43.456  1.00  0.00     0.058 A 
ATOM      3  C   UNL     1      17.440  49.977  44.181  1.00  0.00     0.012 A 
ATOM      4  C   UNL     1      15.555  49.737  42.124  1.00  0.00     0.157 A 
ATOM      5  C   UNL     1      17.818  50.201  42.855  1.00  0.00     0.051 A 
ATOM      6  C   UNL     1      16.879  50.079  41.823  1.00  0.00     0.157 A 
ENDROOT
BRANCH   1   7
ATOM      7  C   UNL     1      15.766  49.399  45.922  1.00  0.00     0.010 C 
ATOM      8  C   UNL     1      16.564  49.730  46.947  1.00  0.00     0.025 C 
BRANCH   8   9
ATOM      9  C   UNL     1      16.174  49.510  48.350  1.00  0.00     0.064 C 
ATOM     10  O   UNL     1      16.968  49.765  49.295  1.00  0.00    -0.545 OA
ATOM     11  O   UNL     1      14.909  49.013  48.637  1.00  0.00    -0.545 OA
ENDBRANCH   8   9
ENDBRANCH   1   7
BRANCH   4  12
ATOM     12  O   UNL     1      14.621  49.628  41.096  1.00  0.00    -0.504 OA
ATOM     13  H   UNL     1      13.631  49.523  41.287  1.00  0.00     0.293 HD
ENDBRANCH   4  12
BRANCH   6  14
ATOM     14  O   UNL     1      17.252  50.300  40.498  1.00  0.00    -0.504 OA
ATOM     15  H   UNL     1      17.482  51.227  40.161  1.00  0.00     0.293 HD
ENDBRANCH   6  14
TORSDOF 4
ENDMDL
