MODEL 1
REMARK VINA RESULT:    -3.665      0.000      0.000
REMARK INTER + INTRA:          -9.364
REMARK INTER:                  -7.093
REMARK INTRA:                  -2.271
REMARK UNBOUND:                -2.271
REMARK SMILES CCCCCCCCCCCCCCCCCC(=O)[O-]
REMARK SMILES IDX 10 1 11 2 12 3 13 4 14 5 15 6 16 7 17 8 18 9 19 10 20 11
REMARK SMILES IDX 9 12 8 13 7 14 6 15 5 16 4 17 3 18 2 19 1 20
REMARK H PARENT
REMARK Flexibility Score: inf
ROOT
ATOM      1  C   UNL     1      40.218  24.121 222.121  1.00  0.00     0.000 C 
ENDROOT
BRANCH   1   2
ATOM      2  C   UNL     1      39.987  22.640 221.766  1.00  0.00     0.000 C 
BRANCH   2   3
ATOM      3  C   UNL     1      41.258  21.787 221.895  1.00  0.00     0.000 C 
BRANCH   3   4
ATOM      4  C   UNL     1      41.842  21.880 223.310  1.00  0.00     0.000 C 
BRANCH   4   5
ATOM      5  C   UNL     1      41.575  20.590 224.100  1.00  0.00     0.000 C 
BRANCH   5   6
ATOM      6  C   UNL     1      40.356  20.708 225.030  1.00  0.00     0.000 C 
BRANCH   6   7
ATOM      7  C   UNL     1      39.078  20.131 224.404  1.00  0.00     0.006 C 
BRANCH   7   8
ATOM      8  C   UNL     1      38.994  18.618 224.625  1.00  0.00     0.053 C 
BRANCH   8   9
ATOM      9  C   UNL     1      38.957  18.303 226.087  1.00  0.00     0.041 C 
ATOM     10  O   UNL     1      39.861  17.596 226.606  1.00  0.00    -0.550 OA
ATOM     11  O   UNL     1      37.896  18.745 226.867  1.00  0.00    -0.550 OA
ENDBRANCH   8   9
ENDBRANCH   7   8
ENDBRANCH   6   7
ENDBRANCH   5   6
ENDBRANCH   4   5
ENDBRANCH   3   4
ENDBRANCH   2   3
ENDBRANCH   1   2
BRANCH   1  12
ATOM     12  C   UNL     1      39.124  24.760 222.995  1.00  0.00     0.000 C 
BRANCH  12  13
ATOM     13  C   UNL     1      38.570  23.855 224.113  1.00  0.00    -0.000 C 
BRANCH  13  14
ATOM     14  C   UNL     1      37.074  24.086 224.419  1.00  0.00    -0.000 C 
BRANCH  14  15
ATOM     15  C   UNL     1      36.376  24.930 223.338  1.00  0.00    -0.000 C 
BRANCH  15  16
ATOM     16  C   UNL     1      35.396  24.105 222.487  1.00  0.00    -0.000 C 
BRANCH  16  17
ATOM     17  C   UNL     1      36.085  22.929 221.773  1.00  0.00    -0.000 C 
BRANCH  17  18
ATOM     18  C   UNL     1      36.571  23.291 220.358  1.00  0.00    -0.000 C 
BRANCH  18  19
ATOM     19  C   UNL     1      35.842  24.479 219.705  1.00  0.00    -0.003 C 
ATOM     20  C   UNL     1      34.696  24.049 218.791  1.00  0.00     0.004 C 
ENDBRANCH  18  19
ENDBRANCH  17  18
ENDBRANCH  16  17
ENDBRANCH  15  16
ENDBRANCH  14  15
ENDBRANCH  13  14
ENDBRANCH  12  13
ENDBRANCH   1  12
TORSDOF 16
ENDMDL
MODEL 2
REMARK VINA RESULT:    -3.653      3.634      4.890
REMARK INTER + INTRA:          -9.341
REMARK INTER:                  -6.749
REMARK INTRA:                  -2.591
REMARK UNBOUND:                -2.271
REMARK SMILES CCCCCCCCCCCCCCCCCC(=O)[O-]
REMARK SMILES IDX 10 1 11 2 12 3 13 4 14 5 15 6 16 7 17 8 18 9 19 10 20 11
REMARK SMILES IDX 9 12 8 13 7 14 6 15 5 16 4 17 3 18 2 19 1 20
REMARK H PARENT
REMARK Flexibility Score: inf
ROOT
ATOM      1  C   UNL     1      41.453  22.342 222.888  1.00  0.00     0.000 C 
ENDROOT
BRANCH   1   2
ATOM      2  C   UNL     1      41.480  21.132 223.840  1.00  0.00     0.000 C 
BRANCH   2   3
ATOM      3  C   UNL     1      40.147  20.912 224.570  1.00  0.00     0.000 C 
BRANCH   3   4
ATOM      4  C   UNL     1      40.229  21.393 226.024  1.00  0.00     0.000 C 
BRANCH   4   5
ATOM      5  C   UNL     1      39.664  22.814 226.166  1.00  0.00     0.000 C 
BRANCH   5   6
ATOM      6  C   UNL     1      40.766  23.883 226.259  1.00  0.00     0.000 C 
BRANCH   6   7
ATOM      7  C   UNL     1      40.426  25.152 225.464  1.00  0.00     0.006 C 
BRANCH   7   8
ATOM      8  C   UNL     1      41.630  25.623 224.643  1.00  0.00     0.053 C 
BRANCH   8   9
ATOM      9  C   UNL     1      42.133  26.935 225.155  1.00  0.00     0.041 C 
ATOM     10  O   UNL     1      41.352  27.920 225.250  1.00  0.00    -0.550 OA
ATOM     11  O   UNL     1      43.476  27.088 225.476  1.00  0.00    -0.550 OA
ENDBRANCH   8   9
ENDBRANCH   7   8
ENDBRANCH   6   7
ENDBRANCH   5   6
ENDBRANCH   4   5
ENDBRANCH   3   4
ENDBRANCH   2   3
ENDBRANCH   1   2
BRANCH   1  12
ATOM     12  C   UNL     1      40.164  22.492 222.060  1.00  0.00     0.000 C 
BRANCH  12  13
ATOM     13  C   UNL     1      39.711  23.943 221.814  1.00  0.00    -0.000 C 
BRANCH  13  14
ATOM     14  C   UNL     1      38.416  24.327 222.563  1.00  0.00    -0.000 C 
BRANCH  14  15
ATOM     15  C   UNL     1      37.647  23.098 223.079  1.00  0.00    -0.000 C 
BRANCH  15  16
ATOM     16  C   UNL     1      36.332  22.862 222.317  1.00  0.00    -0.000 C 
BRANCH  16  17
ATOM     17  C   UNL     1      35.781  24.152 221.684  1.00  0.00    -0.000 C 
BRANCH  17  18
ATOM     18  C   UNL     1      35.057  23.901 220.349  1.00  0.00    -0.000 C 
BRANCH  18  19
ATOM     19  C   UNL     1      35.871  24.261 219.092  1.00  0.00    -0.003 C 
ATOM     20  C   UNL     1      37.047  23.316 218.850  1.00  0.00     0.004 C 
ENDBRANCH  18  19
ENDBRANCH  17  18
ENDBRANCH  16  17
ENDBRANCH  15  16
ENDBRANCH  14  15
ENDBRANCH  13  14
ENDBRANCH  12  13
ENDBRANCH   1  12
TORSDOF 16
ENDMDL
MODEL 3
REMARK VINA RESULT:    -3.643      3.120      6.585
REMARK INTER + INTRA:          -9.321
REMARK INTER:                  -6.800
REMARK INTRA:                  -2.521
REMARK UNBOUND:                -2.271
REMARK SMILES CCCCCCCCCCCCCCCCCC(=O)[O-]
REMARK SMILES IDX 10 1 11 2 12 3 13 4 14 5 15 6 16 7 17 8 18 9 19 10 20 11
REMARK SMILES IDX 9 12 8 13 7 14 6 15 5 16 4 17 3 18 2 19 1 20
REMARK H PARENT
REMARK Flexibility Score: inf
ROOT
ATOM      1  C   UNL     1      43.889  21.851 225.229  1.00  0.00     0.000 C 
ENDROOT
BRANCH   1   2
ATOM      2  C   UNL     1      42.443  22.316 225.487  1.00  0.00     0.000 C 
BRANCH   2   3
ATOM      3  C   UNL     1      41.885  23.193 224.356  1.00  0.00     0.000 C 
BRANCH   3   4
ATOM      4  C   UNL     1      40.472  23.688 224.691  1.00  0.00     0.000 C 
BRANCH   4   5
ATOM      5  C   UNL     1      39.880  24.492 223.523  1.00  0.00     0.000 C 
BRANCH   5   6
ATOM      6  C   UNL     1      40.348  23.976 222.153  1.00  0.00     0.000 C 
BRANCH   6   7
ATOM      7  C   UNL     1      39.204  23.362 221.331  1.00  0.00     0.006 C 
BRANCH   7   8
ATOM      8  C   UNL     1      37.870  23.486 222.072  1.00  0.00     0.053 C 
BRANCH   8   9
ATOM      9  C   UNL     1      36.734  23.546 221.100  1.00  0.00     0.041 C 
ATOM     10  O   UNL     1      35.571  23.815 221.501  1.00  0.00    -0.550 OA
ATOM     11  O   UNL     1      36.950  23.251 219.760  1.00  0.00    -0.550 OA
ENDBRANCH   8   9
ENDBRANCH   7   8
ENDBRANCH   6   7
ENDBRANCH   5   6
ENDBRANCH   4   5
ENDBRANCH   3   4
ENDBRANCH   2   3
ENDBRANCH   1   2
BRANCH   1  12
ATOM     12  C   UNL     1      44.024  20.421 224.675  1.00  0.00     0.000 C 
BRANCH  12  13
ATOM     13  C   UNL     1      44.583  20.326 223.242  1.00  0.00    -0.000 C 
BRANCH  13  14
ATOM     14  C   UNL     1      43.494  20.311 222.148  1.00  0.00    -0.000 C 
BRANCH  14  15
ATOM     15  C   UNL     1      42.225  19.559 222.590  1.00  0.00    -0.000 C 
BRANCH  15  16
ATOM     16  C   UNL     1      40.946  20.385 222.373  1.00  0.00    -0.000 C 
BRANCH  16  17
ATOM     17  C   UNL     1      39.901  20.147 223.478  1.00  0.00    -0.000 C 
BRANCH  17  18
ATOM     18  C   UNL     1      40.405  19.206 224.586  1.00  0.00    -0.000 C 
BRANCH  18  19
ATOM     19  C   UNL     1      39.513  17.980 224.852  1.00  0.00    -0.003 C 
ATOM     20  C   UNL     1      38.031  18.332 224.965  1.00  0.00     0.004 C 
ENDBRANCH  18  19
ENDBRANCH  17  18
ENDBRANCH  16  17
ENDBRANCH  15  16
ENDBRANCH  14  15
ENDBRANCH  13  14
ENDBRANCH  12  13
ENDBRANCH   1  12
TORSDOF 16
ENDMDL
MODEL 4
REMARK VINA RESULT:    -3.615      3.138      6.688
REMARK INTER + INTRA:          -9.267
REMARK INTER:                  -6.766
REMARK INTRA:                  -2.501
REMARK UNBOUND:                -2.271
REMARK SMILES CCCCCCCCCCCCCCCCCC(=O)[O-]
REMARK SMILES IDX 10 1 11 2 12 3 13 4 14 5 15 6 16 7 17 8 18 9 19 10 20 11
REMARK SMILES IDX 9 12 8 13 7 14 6 15 5 16 4 17 3 18 2 19 1 20
REMARK H PARENT
REMARK Flexibility Score: inf
ROOT
ATOM      1  C   UNL     1      40.237  22.658 225.533  1.00  0.00     0.000 C 
ENDROOT
BRANCH   1   2
ATOM      2  C   UNL     1      41.351  23.658 225.171  1.00  0.00     0.000 C 
BRANCH   2   3
ATOM      3  C   UNL     1      40.975  24.575 223.998  1.00  0.00     0.000 C 
BRANCH   3   4
ATOM      4  C   UNL     1      40.625  23.756 222.750  1.00  0.00     0.000 C 
BRANCH   4   5
ATOM      5  C   UNL     1      39.353  24.294 222.078  1.00  0.00     0.000 C 
BRANCH   5   6
ATOM      6  C   UNL     1      38.296  24.754 223.096  1.00  0.00     0.000 C 
BRANCH   6   7
ATOM      7  C   UNL     1      37.393  23.606 223.571  1.00  0.00     0.006 C 
BRANCH   7   8
ATOM      8  C   UNL     1      36.559  23.050 222.413  1.00  0.00     0.053 C 
BRANCH   8   9
ATOM      9  C   UNL     1      35.375  23.925 222.152  1.00  0.00     0.041 C 
ATOM     10  O   UNL     1      34.890  24.628 223.078  1.00  0.00    -0.550 OA
ATOM     11  O   UNL     1      34.773  23.926 220.900  1.00  0.00    -0.550 OA
ENDBRANCH   8   9
ENDBRANCH   7   8
ENDBRANCH   6   7
ENDBRANCH   5   6
ENDBRANCH   4   5
ENDBRANCH   3   4
ENDBRANCH   2   3
ENDBRANCH   1   2
BRANCH   1  12
ATOM     12  C   UNL     1      40.662  21.178 225.525  1.00  0.00     0.000 C 
BRANCH  12  13
ATOM     13  C   UNL     1      39.864  20.275 224.565  1.00  0.00    -0.000 C 
BRANCH  13  14
ATOM     14  C   UNL     1      40.687  19.105 223.982  1.00  0.00    -0.000 C 
BRANCH  14  15
ATOM     15  C   UNL     1      40.760  19.146 222.445  1.00  0.00    -0.000 C 
BRANCH  15  16
ATOM     16  C   UNL     1      41.286  20.491 221.915  1.00  0.00    -0.000 C 
BRANCH  16  17
ATOM     17  C   UNL     1      42.823  20.555 221.900  1.00  0.00    -0.000 C 
BRANCH  17  18
ATOM     18  C   UNL     1      43.405  21.255 223.141  1.00  0.00    -0.000 C 
BRANCH  18  19
ATOM     19  C   UNL     1      44.264  20.356 224.050  1.00  0.00    -0.003 C 
ATOM     20  C   UNL     1      44.563  18.992 223.432  1.00  0.00     0.004 C 
ENDBRANCH  18  19
ENDBRANCH  17  18
ENDBRANCH  16  17
ENDBRANCH  15  16
ENDBRANCH  14  15
ENDBRANCH  13  14
ENDBRANCH  12  13
ENDBRANCH   1  12
TORSDOF 16
ENDMDL
MODEL 5
REMARK VINA RESULT:    -3.611      1.416      2.405
REMARK INTER + INTRA:          -9.260
REMARK INTER:                  -7.416
REMARK INTRA:                  -1.844
REMARK UNBOUND:                -2.271
REMARK SMILES CCCCCCCCCCCCCCCCCC(=O)[O-]
REMARK SMILES IDX 10 1 11 2 12 3 13 4 14 5 15 6 16 7 17 8 18 9 19 10 20 11
REMARK SMILES IDX 9 12 8 13 7 14 6 15 5 16 4 17 3 18 2 19 1 20
REMARK H PARENT
REMARK Flexibility Score: inf
ROOT
ATOM      1  C   UNL     1      41.646  22.098 222.201  1.00  0.00     0.000 C 
ENDROOT
BRANCH   1   2
ATOM      2  C   UNL     1      41.125  20.929 223.058  1.00  0.00     0.000 C 
BRANCH   2   3
ATOM      3  C   UNL     1      41.335  21.149 224.564  1.00  0.00     0.000 C 
BRANCH   3   4
ATOM      4  C   UNL     1      40.153  20.599 225.371  1.00  0.00     0.000 C 
BRANCH   4   5
ATOM      5  C   UNL     1      39.110  19.952 224.447  1.00  0.00     0.000 C 
BRANCH   5   6
ATOM      6  C   UNL     1      38.374  18.780 225.115  1.00  0.00     0.000 C 
BRANCH   6   7
ATOM      7  C   UNL     1      39.030  18.344 226.434  1.00  0.00     0.006 C 
BRANCH   7   8
ATOM      8  C   UNL     1      37.978  17.856 227.434  1.00  0.00     0.053 C 
BRANCH   8   9
ATOM      9  C   UNL     1      37.464  16.508 227.038  1.00  0.00     0.041 C 
ATOM     10  O   UNL     1      38.238  15.514 227.021  1.00  0.00    -0.550 OA
ATOM     11  O   UNL     1      36.143  16.359 226.633  1.00  0.00    -0.550 OA
ENDBRANCH   8   9
ENDBRANCH   7   8
ENDBRANCH   6   7
ENDBRANCH   5   6
ENDBRANCH   4   5
ENDBRANCH   3   4
ENDBRANCH   2   3
ENDBRANCH   1   2
BRANCH   1  12
ATOM     12  C   UNL     1      40.718  23.326 222.141  1.00  0.00     0.000 C 
BRANCH  12  13
ATOM     13  C   UNL     1      39.237  23.011 221.859  1.00  0.00    -0.000 C 
BRANCH  13  14
ATOM     14  C   UNL     1      38.305  23.264 223.065  1.00  0.00    -0.000 C 
BRANCH  14  15
ATOM     15  C   UNL     1      36.859  22.812 222.796  1.00  0.00    -0.000 C 
BRANCH  15  16
ATOM     16  C   UNL     1      35.860  23.981 222.828  1.00  0.00    -0.000 C 
BRANCH  16  17
ATOM     17  C   UNL     1      35.811  24.747 221.494  1.00  0.00    -0.000 C 
BRANCH  17  18
ATOM     18  C   UNL     1      35.337  23.872 220.320  1.00  0.00    -0.000 C 
BRANCH  18  19
ATOM     19  C   UNL     1      36.059  24.131 218.985  1.00  0.00    -0.003 C 
ATOM     20  C   UNL     1      37.177  23.127 218.705  1.00  0.00     0.004 C 
ENDBRANCH  18  19
ENDBRANCH  17  18
ENDBRANCH  16  17
ENDBRANCH  15  16
ENDBRANCH  14  15
ENDBRANCH  13  14
ENDBRANCH  12  13
ENDBRANCH   1  12
TORSDOF 16
ENDMDL
MODEL 6
REMARK VINA RESULT:    -3.575      3.288      6.599
REMARK INTER + INTRA:          -9.191
REMARK INTER:                  -7.309
REMARK INTRA:                  -1.882
REMARK UNBOUND:                -2.271
REMARK SMILES CCCCCCCCCCCCCCCCCC(=O)[O-]
REMARK SMILES IDX 10 1 11 2 12 3 13 4 14 5 15 6 16 7 17 8 18 9 19 10 20 11
REMARK SMILES IDX 9 12 8 13 7 14 6 15 5 16 4 17 3 18 2 19 1 20
REMARK H PARENT
REMARK Flexibility Score: inf
ROOT
ATOM      1  C   UNL     1      41.324  24.624 224.109  1.00  0.00     0.000 C 
ENDROOT
BRANCH   1   2
ATOM      2  C   UNL     1      40.014  24.817 224.896  1.00  0.00     0.000 C 
BRANCH   2   3
ATOM      3  C   UNL     1      39.144  25.956 224.342  1.00  0.00     0.000 C 
BRANCH   3   4
ATOM      4  C   UNL     1      38.442  25.532 223.046  1.00  0.00     0.000 C 
BRANCH   4   5
ATOM      5  C   UNL     1      37.026  25.012 223.333  1.00  0.00     0.000 C 
BRANCH   5   6
ATOM      6  C   UNL     1      36.943  23.477 223.310  1.00  0.00     0.000 C 
BRANCH   6   7
ATOM      7  C   UNL     1      36.161  22.945 222.100  1.00  0.00     0.006 C 
BRANCH   7   8
ATOM      8  C   UNL     1      35.610  24.098 221.255  1.00  0.00     0.053 C 
BRANCH   8   9
ATOM      9  C   UNL     1      35.984  23.919 219.818  1.00  0.00     0.041 C 
ATOM     10  O   UNL     1      35.169  24.228 218.908  1.00  0.00    -0.550 OA
ATOM     11  O   UNL     1      37.210  23.360 219.482  1.00  0.00    -0.550 OA
ENDBRANCH   8   9
ENDBRANCH   7   8
ENDBRANCH   6   7
ENDBRANCH   5   6
ENDBRANCH   4   5
ENDBRANCH   3   4
ENDBRANCH   2   3
ENDBRANCH   1   2
BRANCH   1  12
ATOM     12  C   UNL     1      41.596  23.183 223.640  1.00  0.00     0.000 C 
BRANCH  12  13
ATOM     13  C   UNL     1      40.553  22.607 222.664  1.00  0.00    -0.000 C 
BRANCH  13  14
ATOM     14  C   UNL     1      39.986  21.236 223.095  1.00  0.00    -0.000 C 
BRANCH  14  15
ATOM     15  C   UNL     1      39.810  21.125 224.620  1.00  0.00    -0.000 C 
BRANCH  15  16
ATOM     16  C   UNL     1      38.481  20.458 225.012  1.00  0.00    -0.000 C 
BRANCH  16  17
ATOM     17  C   UNL     1      38.543  18.924 224.913  1.00  0.00    -0.000 C 
BRANCH  17  18
ATOM     18  C   UNL     1      37.150  18.271 224.866  1.00  0.00    -0.000 C 
BRANCH  18  19
ATOM     19  C   UNL     1      36.549  17.924 226.241  1.00  0.00    -0.003 C 
ATOM     20  C   UNL     1      37.603  17.514 227.268  1.00  0.00     0.004 C 
ENDBRANCH  18  19
ENDBRANCH  17  18
ENDBRANCH  16  17
ENDBRANCH  15  16
ENDBRANCH  14  15
ENDBRANCH  13  14
ENDBRANCH  12  13
ENDBRANCH   1  12
TORSDOF 16
ENDMDL
MODEL 7
REMARK VINA RESULT:    -3.535      4.177      7.230
REMARK INTER + INTRA:          -9.112
REMARK INTER:                  -7.465
REMARK INTRA:                  -1.647
REMARK UNBOUND:                -2.271
REMARK SMILES CCCCCCCCCCCCCCCCCC(=O)[O-]
REMARK SMILES IDX 10 1 11 2 12 3 13 4 14 5 15 6 16 7 17 8 18 9 19 10 20 11
REMARK SMILES IDX 9 12 8 13 7 14 6 15 5 16 4 17 3 18 2 19 1 20
REMARK H PARENT
REMARK Flexibility Score: inf
ROOT
ATOM      1  C   UNL     1      39.610  22.158 222.874  1.00  0.00     0.000 C 
ENDROOT
BRANCH   1   2
ATOM      2  C   UNL     1      39.029  23.339 223.673  1.00  0.00     0.000 C 
BRANCH   2   3
ATOM      3  C   UNL     1      39.053  24.661 222.891  1.00  0.00     0.000 C 
BRANCH   3   4
ATOM      4  C   UNL     1      37.983  25.628 223.412  1.00  0.00     0.000 C 
BRANCH   4   5
ATOM      5  C   UNL     1      36.772  25.669 222.469  1.00  0.00     0.000 C 
BRANCH   5   6
ATOM      6  C   UNL     1      35.807  24.493 222.695  1.00  0.00     0.000 C 
BRANCH   6   7
ATOM      7  C   UNL     1      35.314  23.872 221.379  1.00  0.00     0.006 C 
BRANCH   7   8
ATOM      8  C   UNL     1      36.469  23.700 220.388  1.00  0.00     0.053 C 
BRANCH   8   9
ATOM      9  C   UNL     1      35.974  23.822 218.982  1.00  0.00     0.041 C 
ATOM     10  O   UNL     1      36.745  23.578 218.015  1.00  0.00    -0.550 OA
ATOM     11  O   UNL     1      34.679  24.258 218.735  1.00  0.00    -0.550 OA
ENDBRANCH   8   9
ENDBRANCH   7   8
ENDBRANCH   6   7
ENDBRANCH   5   6
ENDBRANCH   4   5
ENDBRANCH   3   4
ENDBRANCH   2   3
ENDBRANCH   1   2
BRANCH   1  12
ATOM     12  C   UNL     1      40.942  21.601 223.409  1.00  0.00     0.000 C 
BRANCH  12  13
ATOM     13  C   UNL     1      42.145  22.555 223.286  1.00  0.00    -0.000 C 
BRANCH  13  14
ATOM     14  C   UNL     1      42.640  23.111 224.639  1.00  0.00    -0.000 C 
BRANCH  14  15
ATOM     15  C   UNL     1      42.484  24.639 224.740  1.00  0.00    -0.000 C 
BRANCH  15  16
ATOM     16  C   UNL     1      43.139  25.216 226.006  1.00  0.00    -0.000 C 
BRANCH  16  17
ATOM     17  C   UNL     1      43.415  26.725 225.889  1.00  0.00    -0.000 C 
BRANCH  17  18
ATOM     18  C   UNL     1      42.636  27.388 224.739  1.00  0.00    -0.000 C 
BRANCH  18  19
ATOM     19  C   UNL     1      41.670  28.507 225.170  1.00  0.00    -0.003 C 
ATOM     20  C   UNL     1      40.200  28.124 225.008  1.00  0.00     0.004 C 
ENDBRANCH  18  19
ENDBRANCH  17  18
ENDBRANCH  16  17
ENDBRANCH  15  16
ENDBRANCH  14  15
ENDBRANCH  13  14
ENDBRANCH  12  13
ENDBRANCH   1  12
TORSDOF 16
ENDMDL
MODEL 8
REMARK VINA RESULT:    -3.484      1.558      2.112
REMARK INTER + INTRA:          -9.015
REMARK INTER:                  -7.307
REMARK INTRA:                  -1.708
REMARK UNBOUND:                -2.271
REMARK SMILES CCCCCCCCCCCCCCCCCC(=O)[O-]
REMARK SMILES IDX 10 1 11 2 12 3 13 4 14 5 15 6 16 7 17 8 18 9 19 10 20 11
REMARK SMILES IDX 9 12 8 13 7 14 6 15 5 16 4 17 3 18 2 19 1 20
REMARK H PARENT
REMARK Flexibility Score: inf
ROOT
ATOM      1  C   UNL     1      39.810  22.844 221.811  1.00  0.00     0.000 C 
ENDROOT
BRANCH   1   2
ATOM      2  C   UNL     1      40.874  22.094 222.634  1.00  0.00     0.000 C 
BRANCH   2   3
ATOM      3  C   UNL     1      41.862  21.307 221.760  1.00  0.00     0.000 C 
BRANCH   3   4
ATOM      4  C   UNL     1      43.170  21.037 222.516  1.00  0.00     0.000 C 
BRANCH   4   5
ATOM      5  C   UNL     1      43.315  19.544 222.848  1.00  0.00     0.000 C 
BRANCH   5   6
ATOM      6  C   UNL     1      43.599  19.296 224.339  1.00  0.00     0.000 C 
BRANCH   6   7
ATOM      7  C   UNL     1      42.436  18.590 225.052  1.00  0.00     0.006 C 
BRANCH   7   8
ATOM      8  C   UNL     1      41.387  19.602 225.524  1.00  0.00     0.053 C 
BRANCH   8   9
ATOM      9  C   UNL     1      40.059  19.308 224.904  1.00  0.00     0.041 C 
ATOM     10  O   UNL     1      38.996  19.561 225.532  1.00  0.00    -0.550 OA
ATOM     11  O   UNL     1      39.992  18.704 223.655  1.00  0.00    -0.550 OA
ENDBRANCH   8   9
ENDBRANCH   7   8
ENDBRANCH   6   7
ENDBRANCH   5   6
ENDBRANCH   4   5
ENDBRANCH   3   4
ENDBRANCH   2   3
ENDBRANCH   1   2
BRANCH   1  12
ATOM     12  C   UNL     1      39.713  24.355 222.093  1.00  0.00     0.000 C 
BRANCH  12  13
ATOM     13  C   UNL     1      39.748  24.743 223.583  1.00  0.00    -0.000 C 
BRANCH  13  14
ATOM     14  C   UNL     1      38.434  25.373 224.095  1.00  0.00    -0.000 C 
BRANCH  14  15
ATOM     15  C   UNL     1      37.341  25.416 223.012  1.00  0.00    -0.000 C 
BRANCH  15  16
ATOM     16  C   UNL     1      36.184  24.445 223.303  1.00  0.00    -0.000 C 
BRANCH  16  17
ATOM     17  C   UNL     1      35.362  24.118 222.045  1.00  0.00    -0.000 C 
BRANCH  17  18
ATOM     18  C   UNL     1      36.225  23.581 220.889  1.00  0.00    -0.000 C 
BRANCH  18  19
ATOM     19  C   UNL     1      35.769  24.012 219.483  1.00  0.00    -0.003 C 
ATOM     20  C   UNL     1      36.729  23.568 218.380  1.00  0.00     0.004 C 
ENDBRANCH  18  19
ENDBRANCH  17  18
ENDBRANCH  16  17
ENDBRANCH  15  16
ENDBRANCH  14  15
ENDBRANCH  13  14
ENDBRANCH  12  13
ENDBRANCH   1  12
TORSDOF 16
ENDMDL
MODEL 9
REMARK VINA RESULT:    -3.484      1.544      2.375
REMARK INTER + INTRA:          -9.014
REMARK INTER:                  -6.485
REMARK INTRA:                  -2.529
REMARK UNBOUND:                -2.271
REMARK SMILES CCCCCCCCCCCCCCCCCC(=O)[O-]
REMARK SMILES IDX 10 1 11 2 12 3 13 4 14 5 15 6 16 7 17 8 18 9 19 10 20 11
REMARK SMILES IDX 9 12 8 13 7 14 6 15 5 16 4 17 3 18 2 19 1 20
REMARK H PARENT
REMARK Flexibility Score: inf
ROOT
ATOM      1  C   UNL     1      40.550  23.568 222.234  1.00  0.00     0.000 C 
ENDROOT
BRANCH   1   2
ATOM      2  C   UNL     1      40.263  22.147 221.713  1.00  0.00     0.000 C 
BRANCH   2   3
ATOM      3  C   UNL     1      41.426  21.174 221.953  1.00  0.00     0.000 C 
BRANCH   3   4
ATOM      4  C   UNL     1      40.912  19.812 222.437  1.00  0.00     0.000 C 
BRANCH   4   5
ATOM      5  C   UNL     1      41.647  19.367 223.710  1.00  0.00     0.000 C 
BRANCH   5   6
ATOM      6  C   UNL     1      41.283  20.224 224.933  1.00  0.00     0.000 C 
BRANCH   6   7
ATOM      7  C   UNL     1      39.767  20.325 225.155  1.00  0.00     0.006 C 
BRANCH   7   8
ATOM      8  C   UNL     1      39.320  19.416 226.304  1.00  0.00     0.053 C 
BRANCH   8   9
ATOM      9  C   UNL     1      38.480  18.292 225.787  1.00  0.00     0.041 C 
ATOM     10  O   UNL     1      38.302  18.152 224.547  1.00  0.00    -0.550 OA
ATOM     11  O   UNL     1      37.850  17.429 226.674  1.00  0.00    -0.550 OA
ENDBRANCH   8   9
ENDBRANCH   7   8
ENDBRANCH   6   7
ENDBRANCH   5   6
ENDBRANCH   4   5
ENDBRANCH   3   4
ENDBRANCH   2   3
ENDBRANCH   1   2
BRANCH   1  12
ATOM     12  C   UNL     1      41.363  23.631 223.540  1.00  0.00     0.000 C 
BRANCH  12  13
ATOM     13  C   UNL     1      40.722  24.462 224.668  1.00  0.00    -0.000 C 
BRANCH  13  14
ATOM     14  C   UNL     1      39.391  23.880 225.192  1.00  0.00    -0.000 C 
BRANCH  14  15
ATOM     15  C   UNL     1      38.235  24.893 225.116  1.00  0.00    -0.000 C 
BRANCH  15  16
ATOM     16  C   UNL     1      38.468  25.974 224.047  1.00  0.00    -0.000 C 
BRANCH  16  17
ATOM     17  C   UNL     1      37.512  25.832 222.850  1.00  0.00    -0.000 C 
BRANCH  17  18
ATOM     18  C   UNL     1      36.167  25.189 223.231  1.00  0.00    -0.000 C 
BRANCH  18  19
ATOM     19  C   UNL     1      35.719  24.031 222.321  1.00  0.00    -0.003 C 
ATOM     20  C   UNL     1      36.589  22.783 222.469  1.00  0.00     0.004 C 
ENDBRANCH  18  19
ENDBRANCH  17  18
ENDBRANCH  16  17
ENDBRANCH  15  16
ENDBRANCH  14  15
ENDBRANCH  13  14
ENDBRANCH  12  13
ENDBRANCH   1  12
TORSDOF 16
ENDMDL
