MODEL 1
REMARK VINA RESULT:    -9.098      0.000      0.000
REMARK INTER + INTRA:         -10.986
REMARK INTER:                 -10.693
REMARK INTRA:                  -0.293
REMARK UNBOUND:                -0.293
REMARK SMILES O=c1cc(-c2ccc(O)c(O)c2)oc2cc(O)cc(O)c12
REMARK SMILES IDX 4 1 3 2 2 3 1 4 21 5 19 6 18 7 16 8 15 9 14 10 13 11 5 12
REMARK SMILES IDX 6 13 7 14 8 15 12 16 10 17 9 18 11 20 20 22 17 24
REMARK H PARENT 9 19 11 21 20 23 17 25
REMARK Flexibility Score: inf
ROOT
ATOM      1  C   UNL     1      -1.333  45.242   2.574  1.00  0.00     0.138 A 
ATOM      2  C   UNL     1      -2.288  45.319   1.546  1.00  0.00     0.100 A 
ATOM      3  C   UNL     1      -1.886  45.151   0.221  1.00  0.00     0.197 A 
ATOM      4  O   UNL     1      -2.751  45.221  -0.694  1.00  0.00    -0.289 OA
ATOM      5  C   UNL     1      -0.529  44.905  -0.068  1.00  0.00     0.107 A 
ATOM      6  C   UNL     1      -0.037  44.726  -1.383  1.00  0.00     0.134 A 
ATOM      7  C   UNL     1       1.329  44.478  -1.586  1.00  0.00     0.093 A 
ATOM      8  C   UNL     1       2.210  44.407  -0.500  1.00  0.00     0.123 A 
ATOM      9  C   UNL     1       1.729  44.584   0.798  1.00  0.00     0.094 A 
ATOM     10  C   UNL     1       0.372  44.832   1.021  1.00  0.00     0.146 A 
ATOM     11  O   UNL     1      -0.060  44.998   2.268  1.00  0.00    -0.456 OA
ENDROOT
BRANCH   1  12
ATOM     12  C   UNL     1      -1.703  45.412   4.002  1.00  0.00     0.021 A 
ATOM     13  C   UNL     1      -2.839  44.753   4.503  1.00  0.00     0.016 A 
ATOM     14  C   UNL     1      -3.206  44.890   5.844  1.00  0.00     0.051 A 
ATOM     15  C   UNL     1      -2.439  45.680   6.710  1.00  0.00     0.157 A 
ATOM     16  C   UNL     1      -0.929  46.195   4.880  1.00  0.00     0.062 A 
ATOM     17  C   UNL     1      -1.294  46.332   6.225  1.00  0.00     0.158 A 
BRANCH  15  18
ATOM     18  O   UNL     1      -2.809  45.816   8.047  1.00  0.00    -0.504 OA
ATOM     19  H   UNL     1      -3.782  45.875   8.326  1.00  0.00     0.293 HD
ENDBRANCH  15  18
BRANCH  17  20
ATOM     20  O   UNL     1      -0.503  47.116   7.064  1.00  0.00    -0.504 OA
ATOM     21  H   UNL     1       0.507  47.058   7.061  1.00  0.00     0.293 HD
ENDBRANCH  17  20
ENDBRANCH   1  12
BRANCH   6  22
ATOM     22  O   UNL     1      -0.892  44.790  -2.484  1.00  0.00    -0.507 OA
ATOM     23  H   UNL     1      -0.943  44.041  -3.164  1.00  0.00     0.293 HD
ENDBRANCH   6  22
BRANCH   8  24
ATOM     24  O   UNL     1       3.566  44.160  -0.703  1.00  0.00    -0.508 OA
ATOM     25  H   UNL     1       3.976  43.255  -0.508  1.00  0.00     0.293 HD
ENDBRANCH   8  24
TORSDOF 5
ENDMDL
MODEL 2
REMARK VINA RESULT:    -8.974      1.523      2.420
REMARK INTER + INTRA:         -10.841
REMARK INTER:                 -10.565
REMARK INTRA:                  -0.276
REMARK UNBOUND:                -0.293
REMARK SMILES O=c1cc(-c2ccc(O)c(O)c2)oc2cc(O)cc(O)c12
REMARK SMILES IDX 4 1 3 2 2 3 1 4 21 5 19 6 18 7 16 8 15 9 14 10 13 11 5 12
REMARK SMILES IDX 6 13 7 14 8 15 12 16 10 17 9 18 11 20 20 22 17 24
REMARK H PARENT 9 19 11 21 20 23 17 25
REMARK Flexibility Score: inf
ROOT
ATOM      1  C   UNL     1      -0.525  45.052   0.860  1.00  0.00     0.138 A 
ATOM      2  C   UNL     1      -1.374  45.178  -0.252  1.00  0.00     0.100 A 
ATOM      3  C   UNL     1      -0.855  45.009  -1.536  1.00  0.00     0.197 A 
ATOM      4  O   UNL     1      -1.626  45.122  -2.527  1.00  0.00    -0.289 OA
ATOM      5  C   UNL     1       0.513  44.711  -1.699  1.00  0.00     0.107 A 
ATOM      6  C   UNL     1       1.120  44.526  -2.964  1.00  0.00     0.134 A 
ATOM      7  C   UNL     1       2.488  44.226  -3.041  1.00  0.00     0.093 A 
ATOM      8  C   UNL     1       3.258  44.107  -1.878  1.00  0.00     0.123 A 
ATOM      9  C   UNL     1       2.663  44.290  -0.628  1.00  0.00     0.094 A 
ATOM     10  C   UNL     1       1.303  44.590  -0.530  1.00  0.00     0.146 A 
ATOM     11  O   UNL     1       0.761  44.760   0.672  1.00  0.00    -0.456 OA
ENDROOT
BRANCH   1  12
ATOM     12  C   UNL     1      -1.022  45.221   2.249  1.00  0.00     0.021 A 
ATOM     13  C   UNL     1      -0.324  46.061   3.134  1.00  0.00     0.016 A 
ATOM     14  C   UNL     1      -0.774  46.243   4.444  1.00  0.00     0.051 A 
ATOM     15  C   UNL     1      -1.935  45.597   4.890  1.00  0.00     0.157 A 
ATOM     16  C   UNL     1      -2.195  44.584   2.699  1.00  0.00     0.062 A 
ATOM     17  C   UNL     1      -2.649  44.767   4.010  1.00  0.00     0.158 A 
BRANCH  15  18
ATOM     18  O   UNL     1      -2.381  45.779   6.198  1.00  0.00    -0.504 OA
ATOM     19  H   UNL     1      -2.764  45.013   6.739  1.00  0.00     0.293 HD
ENDBRANCH  15  18
BRANCH  17  20
ATOM     20  O   UNL     1      -3.814  44.118   4.420  1.00  0.00    -0.504 OA
ATOM     21  H   UNL     1      -3.809  43.163   4.754  1.00  0.00     0.293 HD
ENDBRANCH  17  20
ENDBRANCH   1  12
BRANCH   6  22
ATOM     22  O   UNL     1       0.376  44.636  -4.140  1.00  0.00    -0.507 OA
ATOM     23  H   UNL     1      -0.297  43.931  -4.413  1.00  0.00     0.293 HD
ENDBRANCH   6  22
BRANCH   8  24
ATOM     24  O   UNL     1       4.617  43.809  -1.955  1.00  0.00    -0.508 OA
ATOM     25  H   UNL     1       5.255  44.377  -2.500  1.00  0.00     0.293 HD
ENDBRANCH   8  24
TORSDOF 5
ENDMDL
MODEL 3
REMARK VINA RESULT:    -8.830      1.379      6.998
REMARK INTER + INTRA:         -10.672
REMARK INTER:                 -10.388
REMARK INTRA:                  -0.283
REMARK UNBOUND:                -0.293
REMARK SMILES O=c1cc(-c2ccc(O)c(O)c2)oc2cc(O)cc(O)c12
REMARK SMILES IDX 4 1 3 2 2 3 1 4 21 5 19 6 18 7 16 8 15 9 14 10 13 11 5 12
REMARK SMILES IDX 6 13 7 14 8 15 12 16 10 17 9 18 11 20 20 22 17 24
REMARK H PARENT 9 19 11 21 20 23 17 25
REMARK Flexibility Score: inf
ROOT
ATOM      1  C   UNL     1      -1.132  45.153   2.605  1.00  0.00     0.138 A 
ATOM      2  C   UNL     1      -2.416  44.663   2.900  1.00  0.00     0.100 A 
ATOM      3  C   UNL     1      -2.948  44.853   4.175  1.00  0.00     0.197 A 
ATOM      4  O   UNL     1      -4.101  44.411   4.428  1.00  0.00    -0.289 OA
ATOM      5  C   UNL     1      -2.192  45.536   5.149  1.00  0.00     0.107 A 
ATOM      6  C   UNL     1      -2.656  45.770   6.466  1.00  0.00     0.134 A 
ATOM      7  C   UNL     1      -1.844  46.463   7.375  1.00  0.00     0.093 A 
ATOM      8  C   UNL     1      -0.579  46.927   6.992  1.00  0.00     0.123 A 
ATOM      9  C   UNL     1      -0.118  46.697   5.695  1.00  0.00     0.094 A 
ATOM     10  C   UNL     1      -0.911  46.008   4.774  1.00  0.00     0.146 A 
ATOM     11  O   UNL     1      -0.448  45.802   3.545  1.00  0.00    -0.456 OA
ENDROOT
BRANCH   1  12
ATOM     12  C   UNL     1      -0.516  44.980   1.265  1.00  0.00     0.021 A 
ATOM     13  C   UNL     1       0.861  44.717   1.168  1.00  0.00     0.016 A 
ATOM     14  C   UNL     1       1.465  44.543  -0.080  1.00  0.00     0.051 A 
ATOM     15  C   UNL     1       0.701  44.620  -1.252  1.00  0.00     0.157 A 
ATOM     16  C   UNL     1      -1.281  45.044   0.084  1.00  0.00     0.062 A 
ATOM     17  C   UNL     1      -0.678  44.868  -1.167  1.00  0.00     0.158 A 
BRANCH  15  18
ATOM     18  O   UNL     1       1.307  44.448  -2.496  1.00  0.00    -0.504 OA
ATOM     19  H   UNL     1       1.549  43.529  -2.845  1.00  0.00     0.293 HD
ENDBRANCH  15  18
BRANCH  17  20
ATOM     20  O   UNL     1      -1.468  44.940  -2.315  1.00  0.00    -0.504 OA
ATOM     21  H   UNL     1      -1.424  45.727  -2.950  1.00  0.00     0.293 HD
ENDBRANCH  17  20
ENDBRANCH   1  12
BRANCH   6  22
ATOM     22  O   UNL     1      -3.913  45.320   6.875  1.00  0.00    -0.507 OA
ATOM     23  H   UNL     1      -4.076  44.353   7.127  1.00  0.00     0.293 HD
ENDBRANCH   6  22
BRANCH   8  24
ATOM     24  O   UNL     1       0.227  47.616   7.896  1.00  0.00    -0.508 OA
ATOM     25  H   UNL     1      -0.033  47.714   8.870  1.00  0.00     0.293 HD
ENDBRANCH   8  24
TORSDOF 5
ENDMDL
MODEL 4
REMARK VINA RESULT:    -8.790      1.679      6.944
REMARK INTER + INTRA:         -10.624
REMARK INTER:                 -10.324
REMARK INTRA:                  -0.300
REMARK UNBOUND:                -0.293
REMARK SMILES O=c1cc(-c2ccc(O)c(O)c2)oc2cc(O)cc(O)c12
REMARK SMILES IDX 4 1 3 2 2 3 1 4 21 5 19 6 18 7 16 8 15 9 14 10 13 11 5 12
REMARK SMILES IDX 6 13 7 14 8 15 12 16 10 17 9 18 11 20 20 22 17 24
REMARK H PARENT 9 19 11 21 20 23 17 25
REMARK Flexibility Score: inf
ROOT
ATOM      1  C   UNL     1      -0.564  44.986   0.454  1.00  0.00     0.138 A 
ATOM      2  C   UNL     1      -1.898  44.615   0.693  1.00  0.00     0.100 A 
ATOM      3  C   UNL     1      -2.440  44.781   1.967  1.00  0.00     0.197 A 
ATOM      4  O   UNL     1      -3.638  44.447   2.171  1.00  0.00    -0.289 OA
ATOM      5  C   UNL     1      -1.643  45.321   2.996  1.00  0.00     0.107 A 
ATOM      6  C   UNL     1      -2.113  45.522   4.316  1.00  0.00     0.134 A 
ATOM      7  C   UNL     1      -1.257  46.071   5.282  1.00  0.00     0.093 A 
ATOM      8  C   UNL     1       0.057  46.423   4.953  1.00  0.00     0.123 A 
ATOM      9  C   UNL     1       0.525  46.226   3.653  1.00  0.00     0.094 A 
ATOM     10  C   UNL     1      -0.312  45.680   2.676  1.00  0.00     0.146 A 
ATOM     11  O   UNL     1       0.159  45.502   1.445  1.00  0.00    -0.456 OA
ENDROOT
BRANCH   1  12
ATOM     12  C   UNL     1       0.064  44.832  -0.883  1.00  0.00     0.021 A 
ATOM     13  C   UNL     1      -0.700  45.076  -2.037  1.00  0.00     0.016 A 
ATOM     14  C   UNL     1      -0.131  44.945  -3.307  1.00  0.00     0.051 A 
ATOM     15  C   UNL     1       1.214  44.577  -3.445  1.00  0.00     0.157 A 
ATOM     16  C   UNL     1       1.419  44.474  -1.028  1.00  0.00     0.062 A 
ATOM     17  C   UNL     1       1.991  44.345  -2.299  1.00  0.00     0.158 A 
BRANCH  15  18
ATOM     18  O   UNL     1       1.778  44.445  -4.712  1.00  0.00    -0.504 OA
ATOM     19  H   UNL     1       1.986  43.536  -5.109  1.00  0.00     0.293 HD
ENDBRANCH  15  18
BRANCH  17  20
ATOM     20  O   UNL     1       3.336  43.988  -2.402  1.00  0.00    -0.504 OA
ATOM     21  H   UNL     1       4.071  44.529  -1.965  1.00  0.00     0.293 HD
ENDBRANCH  17  20
ENDBRANCH   1  12
BRANCH   6  22
ATOM     22  O   UNL     1      -3.419  45.181   4.672  1.00  0.00    -0.507 OA
ATOM     23  H   UNL     1      -3.911  44.418   4.224  1.00  0.00     0.293 HD
ENDBRANCH   6  22
BRANCH   8  24
ATOM     24  O   UNL     1       0.907  46.969   5.913  1.00  0.00    -0.508 OA
ATOM     25  H   UNL     1       1.872  47.194   5.702  1.00  0.00     0.293 HD
ENDBRANCH   8  24
TORSDOF 5
ENDMDL
MODEL 5
REMARK VINA RESULT:    -8.782      1.477      6.852
REMARK INTER + INTRA:         -10.616
REMARK INTER:                 -10.318
REMARK INTRA:                  -0.298
REMARK UNBOUND:                -0.293
REMARK SMILES O=c1cc(-c2ccc(O)c(O)c2)oc2cc(O)cc(O)c12
REMARK SMILES IDX 4 1 3 2 2 3 1 4 21 5 19 6 18 7 16 8 15 9 14 10 13 11 5 12
REMARK SMILES IDX 6 13 7 14 8 15 12 16 10 17 9 18 11 20 20 22 17 24
REMARK H PARENT 9 19 11 21 20 23 17 25
REMARK Flexibility Score: inf
ROOT
ATOM      1  C   UNL     1      -0.849  45.135   2.415  1.00  0.00     0.138 A 
ATOM      2  C   UNL     1      -2.139  44.640   2.664  1.00  0.00     0.100 A 
ATOM      3  C   UNL     1      -2.733  44.861   3.907  1.00  0.00     0.197 A 
ATOM      4  O   UNL     1      -3.892  44.413   4.120  1.00  0.00    -0.289 OA
ATOM      5  C   UNL     1      -2.030  45.580   4.894  1.00  0.00     0.107 A 
ATOM      6  C   UNL     1      -2.557  45.848   6.181  1.00  0.00     0.134 A 
ATOM      7  C   UNL     1      -1.795  46.576   7.106  1.00  0.00     0.093 A 
ATOM      8  C   UNL     1      -0.519  47.043   6.768  1.00  0.00     0.123 A 
ATOM      9  C   UNL     1       0.005  46.781   5.501  1.00  0.00     0.094 A 
ATOM     10  C   UNL     1      -0.738  46.056   4.566  1.00  0.00     0.146 A 
ATOM     11  O   UNL     1      -0.216  45.820   3.366  1.00  0.00    -0.456 OA
ENDROOT
BRANCH   1  12
ATOM     12  C   UNL     1      -0.169  44.931   1.111  1.00  0.00     0.021 A 
ATOM     13  C   UNL     1      -0.911  45.038  -0.078  1.00  0.00     0.016 A 
ATOM     14  C   UNL     1      -0.294  44.857  -1.319  1.00  0.00     0.051 A 
ATOM     15  C   UNL     1       1.076  44.574  -1.394  1.00  0.00     0.157 A 
ATOM     16  C   UNL     1       1.211  44.659   1.029  1.00  0.00     0.062 A 
ATOM     17  C   UNL     1       1.830  44.479  -0.213  1.00  0.00     0.158 A 
BRANCH  15  18
ATOM     18  O   UNL     1       1.688  44.392  -2.633  1.00  0.00    -0.504 OA
ATOM     19  H   UNL     1       1.272  43.809  -3.349  1.00  0.00     0.293 HD
ENDBRANCH  15  18
BRANCH  17  20
ATOM     20  O   UNL     1       3.199  44.210  -0.254  1.00  0.00    -0.504 OA
ATOM     21  H   UNL     1       3.838  44.565   0.446  1.00  0.00     0.293 HD
ENDBRANCH  17  20
ENDBRANCH   1  12
BRANCH   6  22
ATOM     22  O   UNL     1      -3.826  45.396   6.544  1.00  0.00    -0.507 OA
ATOM     23  H   UNL     1      -4.002  44.423   6.766  1.00  0.00     0.293 HD
ENDBRANCH   6  22
BRANCH   8  24
ATOM     24  O   UNL     1       0.237  47.768   7.687  1.00  0.00    -0.508 OA
ATOM     25  H   UNL     1       0.977  48.393   7.390  1.00  0.00     0.293 HD
ENDBRANCH   8  24
TORSDOF 5
ENDMDL
MODEL 6
REMARK VINA RESULT:    -8.557      3.201      5.714
REMARK INTER + INTRA:         -10.351
REMARK INTER:                 -10.069
REMARK INTRA:                  -0.282
REMARK UNBOUND:                -0.293
REMARK SMILES O=c1cc(-c2ccc(O)c(O)c2)oc2cc(O)cc(O)c12
REMARK SMILES IDX 4 1 3 2 2 3 1 4 21 5 19 6 18 7 16 8 15 9 14 10 13 11 5 12
REMARK SMILES IDX 6 13 7 14 8 15 12 16 10 17 9 18 11 20 20 22 17 24
REMARK H PARENT 9 19 11 21 20 23 17 25
REMARK Flexibility Score: inf
ROOT
ATOM      1  C   UNL     1      -0.740  46.665   7.465  1.00  0.00     0.138 A 
ATOM      2  C   UNL     1      -2.079  46.251   7.556  1.00  0.00     0.100 A 
ATOM      3  C   UNL     1      -2.727  45.765   6.420  1.00  0.00     0.197 A 
ATOM      4  O   UNL     1      -3.929  45.395   6.512  1.00  0.00    -0.289 OA
ATOM      5  C   UNL     1      -2.028  45.695   5.198  1.00  0.00     0.107 A 
ATOM      6  C   UNL     1      -2.611  45.218   3.999  1.00  0.00     0.134 A 
ATOM      7  C   UNL     1      -1.845  45.175   2.825  1.00  0.00     0.093 A 
ATOM      8  C   UNL     1      -0.510  45.598   2.827  1.00  0.00     0.123 A 
ATOM      9  C   UNL     1       0.067  46.070   4.007  1.00  0.00     0.094 A 
ATOM     10  C   UNL     1      -0.679  46.122   5.188  1.00  0.00     0.146 A 
ATOM     11  O   UNL     1      -0.105  46.576   6.298  1.00  0.00    -0.456 OA
ENDROOT
BRANCH   1  12
ATOM     12  C   UNL     1      -0.000  47.189   8.641  1.00  0.00     0.021 A 
ATOM     13  C   UNL     1       0.884  48.268   8.475  1.00  0.00     0.016 A 
ATOM     14  C   UNL     1       1.587  48.785   9.567  1.00  0.00     0.051 A 
ATOM     15  C   UNL     1       1.412  48.238  10.844  1.00  0.00     0.157 A 
ATOM     16  C   UNL     1      -0.182  46.651   9.931  1.00  0.00     0.062 A 
ATOM     17  C   UNL     1       0.520  47.168  11.025  1.00  0.00     0.158 A 
BRANCH  15  18
ATOM     18  O   UNL     1       2.116  48.754  11.931  1.00  0.00    -0.504 OA
ATOM     19  H   UNL     1       2.844  48.222  12.393  1.00  0.00     0.293 HD
ENDBRANCH  15  18
BRANCH  17  20
ATOM     20  O   UNL     1       0.315  46.609  12.287  1.00  0.00    -0.504 OA
ATOM     21  H   UNL     1       1.084  46.368  12.900  1.00  0.00     0.293 HD
ENDBRANCH  17  20
ENDBRANCH   1  12
BRANCH   6  22
ATOM     22  O   UNL     1      -3.938  44.789   3.967  1.00  0.00    -0.507 OA
ATOM     23  H   UNL     1      -4.184  43.812   4.070  1.00  0.00     0.293 HD
ENDBRANCH   6  22
BRANCH   8  24
ATOM     24  O   UNL     1       0.250  45.554   1.660  1.00  0.00    -0.508 OA
ATOM     25  H   UNL     1       1.145  45.081   1.628  1.00  0.00     0.293 HD
ENDBRANCH   8  24
TORSDOF 5
ENDMDL
MODEL 7
REMARK VINA RESULT:    -8.476      1.390      3.118
REMARK INTER + INTRA:         -10.256
REMARK INTER:                  -9.954
REMARK INTRA:                  -0.302
REMARK UNBOUND:                -0.293
REMARK SMILES O=c1cc(-c2ccc(O)c(O)c2)oc2cc(O)cc(O)c12
REMARK SMILES IDX 4 1 3 2 2 3 1 4 21 5 19 6 18 7 16 8 15 9 14 10 13 11 5 12
REMARK SMILES IDX 6 13 7 14 8 15 12 16 10 17 9 18 11 20 20 22 17 24
REMARK H PARENT 9 19 11 21 20 23 17 25
REMARK Flexibility Score: inf
ROOT
ATOM      1  C   UNL     1      -0.558  45.123   2.150  1.00  0.00     0.138 A 
ATOM      2  C   UNL     1       0.841  44.997   2.146  1.00  0.00     0.100 A 
ATOM      3  C   UNL     1       1.515  44.853   0.933  1.00  0.00     0.197 A 
ATOM      4  O   UNL     1       2.771  44.742   0.940  1.00  0.00    -0.289 OA
ATOM      5  C   UNL     1       0.783  44.838  -0.271  1.00  0.00     0.107 A 
ATOM      6  C   UNL     1       1.387  44.694  -1.543  1.00  0.00     0.134 A 
ATOM      7  C   UNL     1       0.587  44.695  -2.696  1.00  0.00     0.093 A 
ATOM      8  C   UNL     1      -0.802  44.838  -2.600  1.00  0.00     0.123 A 
ATOM      9  C   UNL     1      -1.401  44.979  -1.347  1.00  0.00     0.094 A 
ATOM     10  C   UNL     1      -0.623  44.979  -0.187  1.00  0.00     0.146 A 
ATOM     11  O   UNL     1      -1.219  45.115   0.994  1.00  0.00    -0.456 OA
ENDROOT
BRANCH   1  12
ATOM     12  C   UNL     1      -1.327  45.280   3.410  1.00  0.00     0.021 A 
ATOM     13  C   UNL     1      -0.774  46.022   4.468  1.00  0.00     0.016 A 
ATOM     14  C   UNL     1      -1.480  46.191   5.662  1.00  0.00     0.051 A 
ATOM     15  C   UNL     1      -2.753  45.628   5.817  1.00  0.00     0.157 A 
ATOM     16  C   UNL     1      -2.613  44.727   3.567  1.00  0.00     0.062 A 
ATOM     17  C   UNL     1      -3.322  44.896   4.762  1.00  0.00     0.158 A 
BRANCH  15  18
ATOM     18  O   UNL     1      -3.454  45.797   7.010  1.00  0.00    -0.504 OA
ATOM     19  H   UNL     1      -3.311  45.179   7.801  1.00  0.00     0.293 HD
ENDBRANCH  15  18
BRANCH  17  20
ATOM     20  O   UNL     1      -4.593  44.333   4.881  1.00  0.00    -0.504 OA
ATOM     21  H   UNL     1      -5.365  44.619   4.292  1.00  0.00     0.293 HD
ENDBRANCH  17  20
ENDBRANCH   1  12
BRANCH   6  22
ATOM     22  O   UNL     1       2.770  44.552  -1.669  1.00  0.00    -0.507 OA
ATOM     23  H   UNL     1       3.329  45.220  -2.185  1.00  0.00     0.293 HD
ENDBRANCH   6  22
BRANCH   8  24
ATOM     24  O   UNL     1      -1.596  44.839  -3.745  1.00  0.00    -0.508 OA
ATOM     25  H   UNL     1      -1.782  45.691  -4.260  1.00  0.00     0.293 HD
ENDBRANCH   8  24
TORSDOF 5
ENDMDL
MODEL 8
REMARK VINA RESULT:    -8.444      2.538      7.946
REMARK INTER + INTRA:         -10.218
REMARK INTER:                  -9.931
REMARK INTRA:                  -0.287
REMARK UNBOUND:                -0.293
REMARK SMILES O=c1cc(-c2ccc(O)c(O)c2)oc2cc(O)cc(O)c12
REMARK SMILES IDX 4 1 3 2 2 3 1 4 21 5 19 6 18 7 16 8 15 9 14 10 13 11 5 12
REMARK SMILES IDX 6 13 7 14 8 15 12 16 10 17 9 18 11 20 20 22 17 24
REMARK H PARENT 9 19 11 21 20 23 17 25
REMARK Flexibility Score: inf
ROOT
ATOM      1  C   UNL     1       1.592  44.561  -1.874  1.00  0.00     0.138 A 
ATOM      2  C   UNL     1       0.394  44.633  -2.604  1.00  0.00     0.100 A 
ATOM      3  C   UNL     1      -0.808  44.854  -1.931  1.00  0.00     0.197 A 
ATOM      4  O   UNL     1      -1.877  44.918  -2.596  1.00  0.00    -0.289 OA
ATOM      5  C   UNL     1      -0.803  45.004  -0.530  1.00  0.00     0.107 A 
ATOM      6  C   UNL     1      -1.976  45.230   0.229  1.00  0.00     0.134 A 
ATOM      7  C   UNL     1      -1.885  45.374   1.621  1.00  0.00     0.093 A 
ATOM      8  C   UNL     1      -0.645  45.299   2.267  1.00  0.00     0.123 A 
ATOM      9  C   UNL     1       0.514  45.077   1.521  1.00  0.00     0.094 A 
ATOM     10  C   UNL     1       0.445  44.929   0.134  1.00  0.00     0.146 A 
ATOM     11  O   UNL     1       1.564  44.717  -0.552  1.00  0.00    -0.456 OA
ENDROOT
BRANCH   1  12
ATOM     12  C   UNL     1       2.901  44.328  -2.537  1.00  0.00     0.021 A 
ATOM     13  C   UNL     1       3.911  43.637  -1.846  1.00  0.00     0.016 A 
ATOM     14  C   UNL     1       5.149  43.398  -2.449  1.00  0.00     0.051 A 
ATOM     15  C   UNL     1       5.395  43.838  -3.756  1.00  0.00     0.157 A 
ATOM     16  C   UNL     1       3.150  44.757  -3.855  1.00  0.00     0.062 A 
ATOM     17  C   UNL     1       4.389  44.517  -4.462  1.00  0.00     0.158 A 
BRANCH  15  18
ATOM     18  O   UNL     1       6.632  43.601  -4.354  1.00  0.00    -0.504 OA
ATOM     19  H   UNL     1       6.959  44.157  -5.135  1.00  0.00     0.293 HD
ENDBRANCH  15  18
BRANCH  17  20
ATOM     20  O   UNL     1       4.599  44.958  -5.769  1.00  0.00    -0.504 OA
ATOM     21  H   UNL     1       4.731  45.936  -5.992  1.00  0.00     0.293 HD
ENDBRANCH  17  20
ENDBRANCH   1  12
BRANCH   6  22
ATOM     22  O   UNL     1      -3.226  45.310  -0.388  1.00  0.00    -0.507 OA
ATOM     23  H   UNL     1      -3.319  45.408  -1.391  1.00  0.00     0.293 HD
ENDBRANCH   6  22
BRANCH   8  24
ATOM     24  O   UNL     1      -0.556  45.444   3.650  1.00  0.00    -0.508 OA
ATOM     25  H   UNL     1       0.247  45.107   4.167  1.00  0.00     0.293 HD
ENDBRANCH   8  24
TORSDOF 5
ENDMDL
MODEL 9
REMARK VINA RESULT:    -7.996     10.354     12.568
REMARK INTER + INTRA:          -9.692
REMARK INTER:                  -9.427
REMARK INTRA:                  -0.265
REMARK UNBOUND:                -0.293
REMARK SMILES O=c1cc(-c2ccc(O)c(O)c2)oc2cc(O)cc(O)c12
REMARK SMILES IDX 4 1 3 2 2 3 1 4 21 5 19 6 18 7 16 8 15 9 14 10 13 11 5 12
REMARK SMILES IDX 6 13 7 14 8 15 12 16 10 17 9 18 11 20 20 22 17 24
REMARK H PARENT 9 19 11 21 20 23 17 25
REMARK Flexibility Score: inf
ROOT
ATOM      1  C   UNL     1       8.925  47.117  -1.898  1.00  0.00     0.138 A 
ATOM      2  C   UNL     1       8.624  48.453  -1.583  1.00  0.00     0.100 A 
ATOM      3  C   UNL     1       8.905  48.938  -0.306  1.00  0.00     0.197 A 
ATOM      4  O   UNL     1       8.633  50.138  -0.034  1.00  0.00    -0.289 OA
ATOM      5  C   UNL     1       9.490  48.082   0.649  1.00  0.00     0.107 A 
ATOM      6  C   UNL     1       9.806  48.493   1.967  1.00  0.00     0.134 A 
ATOM      7  C   UNL     1      10.392  47.581   2.857  1.00  0.00     0.093 A 
ATOM      8  C   UNL     1      10.668  46.268   2.454  1.00  0.00     0.123 A 
ATOM      9  C   UNL     1      10.357  45.860   1.156  1.00  0.00     0.094 A 
ATOM     10  C   UNL     1       9.772  46.753   0.255  1.00  0.00     0.146 A 
ATOM     11  O   UNL     1       9.486  46.338  -0.976  1.00  0.00    -0.456 OA
ENDROOT
BRANCH   1  12
ATOM     12  C   UNL     1       8.648  46.547  -3.241  1.00  0.00     0.021 A 
ATOM     13  C   UNL     1       9.721  46.246  -4.098  1.00  0.00     0.016 A 
ATOM     14  C   UNL     1       9.488  45.703  -5.364  1.00  0.00     0.051 A 
ATOM     15  C   UNL     1       8.180  45.442  -5.792  1.00  0.00     0.157 A 
ATOM     16  C   UNL     1       7.336  46.271  -3.673  1.00  0.00     0.062 A 
ATOM     17  C   UNL     1       7.101  45.725  -4.940  1.00  0.00     0.158 A 
BRANCH  15  18
ATOM     18  O   UNL     1       7.952  44.902  -7.057  1.00  0.00    -0.504 OA
ATOM     19  H   UNL     1       7.370  45.375  -7.738  1.00  0.00     0.293 HD
ENDBRANCH  15  18
BRANCH  17  20
ATOM     20  O   UNL     1       5.788  45.467  -5.333  1.00  0.00    -0.504 OA
ATOM     21  H   UNL     1       5.032  45.387  -4.665  1.00  0.00     0.293 HD
ENDBRANCH  17  20
ENDBRANCH   1  12
BRANCH   6  22
ATOM     22  O   UNL     1       9.542  49.795   2.396  1.00  0.00    -0.507 OA
ATOM     23  H   UNL     1       9.223  50.511   1.756  1.00  0.00     0.293 HD
ENDBRANCH   6  22
BRANCH   8  24
ATOM     24  O   UNL     1      11.251  45.363   3.338  1.00  0.00    -0.508 OA
ATOM     25  H   UNL     1      12.256  45.247   3.392  1.00  0.00     0.293 HD
ENDBRANCH   8  24
TORSDOF 5
ENDMDL
