MODEL 1
REMARK VINA RESULT:    -4.326      0.000      0.000
REMARK INTER + INTRA:          -4.989
REMARK INTER:                  -4.831
REMARK INTRA:                  -0.158
REMARK UNBOUND:                -0.158
REMARK SMILES COc1cc2ccc(=O)oc2cc1OC
REMARK SMILES IDX 3 1 13 2 12 3 11 4 5 5 4 6 6 7 7 8 8 9 9 10 10 11 2 12 1 13
REMARK SMILES IDX 14 14 15 15
REMARK H PARENT
REMARK Flexibility Score: inf
ROOT
ATOM      1  C   UNL     1     -22.583  23.267  14.567  1.00  0.00     0.161 A 
ATOM      2  C   UNL     1     -21.222  23.293  14.213  1.00  0.00     0.164 A 
ATOM      3  C   UNL     1     -20.846  23.676  12.911  1.00  0.00     0.098 A 
ATOM      4  C   UNL     1     -21.814  24.030  11.969  1.00  0.00     0.142 A 
ATOM      5  C   UNL     1     -23.179  24.005  12.323  1.00  0.00     0.022 A 
ATOM      6  C   UNL     1     -23.559  23.624  13.615  1.00  0.00     0.062 A 
ATOM      7  C   UNL     1     -24.124  24.364  11.356  1.00  0.00     0.019 A 
ATOM      8  C   UNL     1     -23.696  24.735  10.082  1.00  0.00     0.094 A 
ATOM      9  C   UNL     1     -22.325  24.737   9.804  1.00  0.00     0.336 A 
ATOM     10  O   UNL     1     -21.917  25.068   8.660  1.00  0.00    -0.246 OA
ATOM     11  O   UNL     1     -21.447  24.391  10.741  1.00  0.00    -0.423 OA
ENDROOT
BRANCH   1  12
ATOM     12  O   UNL     1     -22.923  22.881  15.873  1.00  0.00    -0.493 OA
ATOM     13  C   UNL     1     -23.218  23.786  16.932  1.00  0.00     0.278 C 
ENDBRANCH   1  12
BRANCH   2  14
ATOM     14  O   UNL     1     -20.276  22.932  15.185  1.00  0.00    -0.493 OA
ATOM     15  C   UNL     1     -19.355  23.833  15.790  1.00  0.00     0.278 C 
ENDBRANCH   2  14
TORSDOF 2
ENDMDL
MODEL 2
REMARK VINA RESULT:    -3.927      2.252      4.449
REMARK INTER + INTRA:          -4.544
REMARK INTER:                  -4.426
REMARK INTRA:                  -0.119
REMARK UNBOUND:                -0.158
REMARK SMILES COc1cc2ccc(=O)oc2cc1OC
REMARK SMILES IDX 3 1 13 2 12 3 11 4 5 5 4 6 6 7 7 8 8 9 9 10 10 11 2 12 1 13
REMARK SMILES IDX 14 14 15 15
REMARK H PARENT
REMARK Flexibility Score: inf
ROOT
ATOM      1  C   UNL     1     -19.780  23.485  17.667  1.00  0.00     0.161 A 
ATOM      2  C   UNL     1     -21.161  23.292  17.843  1.00  0.00     0.164 A 
ATOM      3  C   UNL     1     -22.013  23.271  16.721  1.00  0.00     0.098 A 
ATOM      4  C   UNL     1     -21.495  23.440  15.436  1.00  0.00     0.142 A 
ATOM      5  C   UNL     1     -20.110  23.634  15.258  1.00  0.00     0.022 A 
ATOM      6  C   UNL     1     -19.258  23.657  16.369  1.00  0.00     0.062 A 
ATOM      7  C   UNL     1     -19.622  23.801  13.957  1.00  0.00     0.019 A 
ATOM      8  C   UNL     1     -20.510  23.772  12.883  1.00  0.00     0.094 A 
ATOM      9  C   UNL     1     -21.871  23.575  13.136  1.00  0.00     0.336 A 
ATOM     10  O   UNL     1     -22.690  23.545  12.180  1.00  0.00    -0.246 OA
ATOM     11  O   UNL     1     -22.309  23.418  14.382  1.00  0.00    -0.423 OA
ENDROOT
BRANCH   1  12
ATOM     12  O   UNL     1     -18.960  23.501  18.806  1.00  0.00    -0.493 OA
ATOM     13  C   UNL     1     -17.683  22.875  18.891  1.00  0.00     0.278 C 
ENDBRANCH   1  12
BRANCH   2  14
ATOM     14  O   UNL     1     -21.647  23.125  19.150  1.00  0.00    -0.493 OA
ATOM     15  C   UNL     1     -22.678  23.913  19.734  1.00  0.00     0.278 C 
ENDBRANCH   2  14
TORSDOF 2
ENDMDL
MODEL 3
REMARK VINA RESULT:    -3.885      1.495      2.897
REMARK INTER + INTRA:          -4.497
REMARK INTER:                  -4.600
REMARK INTRA:                   0.104
REMARK UNBOUND:                -0.158
REMARK SMILES COc1cc2ccc(=O)oc2cc1OC
REMARK SMILES IDX 3 1 13 2 12 3 11 4 5 5 4 6 6 7 7 8 8 9 9 10 10 11 2 12 1 13
REMARK SMILES IDX 14 14 15 15
REMARK H PARENT
REMARK Flexibility Score: inf
ROOT
ATOM      1  C   UNL     1     -21.977  23.556  13.100  1.00  0.00     0.161 A 
ATOM      2  C   UNL     1     -23.382  23.512  13.081  1.00  0.00     0.164 A 
ATOM      3  C   UNL     1     -24.078  23.905  11.921  1.00  0.00     0.098 A 
ATOM      4  C   UNL     1     -23.382  24.335  10.790  1.00  0.00     0.142 A 
ATOM      5  C   UNL     1     -21.973  24.379  10.808  1.00  0.00     0.022 A 
ATOM      6  C   UNL     1     -21.275  23.991  11.958  1.00  0.00     0.062 A 
ATOM      7  C   UNL     1     -21.305  24.816   9.658  1.00  0.00     0.019 A 
ATOM      8  C   UNL     1     -22.043  25.192   8.538  1.00  0.00     0.094 A 
ATOM      9  C   UNL     1     -23.439  25.122   8.593  1.00  0.00     0.336 A 
ATOM     10  O   UNL     1     -24.125  25.458   7.592  1.00  0.00    -0.246 OA
ATOM     11  O   UNL     1     -24.050  24.703   9.698  1.00  0.00    -0.423 OA
ENDROOT
BRANCH   1  12
ATOM     12  O   UNL     1     -21.316  23.158  14.273  1.00  0.00    -0.493 OA
ATOM     13  C   UNL     1     -20.172  23.809  14.816  1.00  0.00     0.278 C 
ENDBRANCH   1  12
BRANCH   2  14
ATOM     14  O   UNL     1     -24.049  23.074  14.236  1.00  0.00    -0.493 OA
ATOM     15  C   UNL     1     -24.078  23.784  15.470  1.00  0.00     0.278 C 
ENDBRANCH   2  14
TORSDOF 2
ENDMDL
MODEL 4
REMARK VINA RESULT:    -3.794     11.055     12.904
REMARK INTER + INTRA:          -4.395
REMARK INTER:                  -4.276
REMARK INTRA:                  -0.119
REMARK UNBOUND:                -0.158
REMARK SMILES COc1cc2ccc(=O)oc2cc1OC
REMARK SMILES IDX 3 1 13 2 12 3 11 4 5 5 4 6 6 7 7 8 8 9 9 10 10 11 2 12 1 13
REMARK SMILES IDX 14 14 15 15
REMARK H PARENT
REMARK Flexibility Score: inf
ROOT
ATOM      1  C   UNL     1     -21.823  31.872  21.556  1.00  0.00     0.161 A 
ATOM      2  C   UNL     1     -21.359  32.612  22.657  1.00  0.00     0.164 A 
ATOM      3  C   UNL     1     -20.198  32.197  23.339  1.00  0.00     0.098 A 
ATOM      4  C   UNL     1     -19.505  31.057  22.928  1.00  0.00     0.142 A 
ATOM      5  C   UNL     1     -19.970  30.314  21.823  1.00  0.00     0.022 A 
ATOM      6  C   UNL     1     -21.123  30.721  21.142  1.00  0.00     0.062 A 
ATOM      7  C   UNL     1     -19.253  29.176  21.436  1.00  0.00     0.019 A 
ATOM      8  C   UNL     1     -18.111  28.811  22.147  1.00  0.00     0.094 A 
ATOM      9  C   UNL     1     -17.710  29.597  23.233  1.00  0.00     0.336 A 
ATOM     10  O   UNL     1     -16.681  29.285  23.888  1.00  0.00    -0.246 OA
ATOM     11  O   UNL     1     -18.409  30.674  23.579  1.00  0.00    -0.423 OA
ENDROOT
BRANCH   1  12
ATOM     12  O   UNL     1     -22.983  32.313  20.899  1.00  0.00    -0.493 OA
ATOM     13  C   UNL     1     -24.049  31.466  20.484  1.00  0.00     0.278 C 
ENDBRANCH   1  12
BRANCH   2  14
ATOM     14  O   UNL     1     -22.081  33.753  23.043  1.00  0.00    -0.493 OA
ATOM     15  C   UNL     1     -21.741  35.085  22.674  1.00  0.00     0.278 C 
ENDBRANCH   2  14
TORSDOF 2
ENDMDL
MODEL 5
REMARK VINA RESULT:    -3.639     10.436     13.130
REMARK INTER + INTRA:          -4.223
REMARK INTER:                  -4.118
REMARK INTRA:                  -0.105
REMARK UNBOUND:                -0.158
REMARK SMILES COc1cc2ccc(=O)oc2cc1OC
REMARK SMILES IDX 3 1 13 2 12 3 11 4 5 5 4 6 6 7 7 8 8 9 9 10 10 11 2 12 1 13
REMARK SMILES IDX 14 14 15 15
REMARK H PARENT
REMARK Flexibility Score: inf
ROOT
ATOM      1  C   UNL     1     -22.507  32.768  21.496  1.00  0.00     0.161 A 
ATOM      2  C   UNL     1     -22.475  31.402  21.164  1.00  0.00     0.164 A 
ATOM      3  C   UNL     1     -21.433  30.588  21.650  1.00  0.00     0.098 A 
ATOM      4  C   UNL     1     -20.431  31.129  22.459  1.00  0.00     0.142 A 
ATOM      5  C   UNL     1     -20.462  32.499  22.792  1.00  0.00     0.022 A 
ATOM      6  C   UNL     1     -21.495  33.313  22.311  1.00  0.00     0.062 A 
ATOM      7  C   UNL     1     -19.443  33.010  23.603  1.00  0.00     0.019 A 
ATOM      8  C   UNL     1     -18.435  32.160  24.056  1.00  0.00     0.094 A 
ATOM      9  C   UNL     1     -18.470  30.812  23.685  1.00  0.00     0.336 A 
ATOM     10  O   UNL     1     -17.570  30.027  24.083  1.00  0.00    -0.246 OA
ATOM     11  O   UNL     1     -19.450  30.351  22.913  1.00  0.00    -0.423 OA
ENDROOT
BRANCH   1  12
ATOM     12  O   UNL     1     -23.560  33.549  20.995  1.00  0.00    -0.493 OA
ATOM     13  C   UNL     1     -23.443  34.918  20.621  1.00  0.00     0.278 C 
ENDBRANCH   1  12
BRANCH   2  14
ATOM     14  O   UNL     1     -23.499  30.892  20.349  1.00  0.00    -0.493 OA
ATOM     15  C   UNL     1     -23.462  29.621  19.709  1.00  0.00     0.278 C 
ENDBRANCH   2  14
TORSDOF 2
ENDMDL
MODEL 6
REMARK VINA RESULT:    -3.580      3.755      8.017
REMARK INTER + INTRA:          -4.157
REMARK INTER:                  -4.041
REMARK INTRA:                  -0.115
REMARK UNBOUND:                -0.158
REMARK SMILES COc1cc2ccc(=O)oc2cc1OC
REMARK SMILES IDX 3 1 13 2 12 3 11 4 5 5 4 6 6 7 7 8 8 9 9 10 10 11 2 12 1 13
REMARK SMILES IDX 14 14 15 15
REMARK H PARENT
REMARK Flexibility Score: inf
ROOT
ATOM      1  C   UNL     1     -20.176  23.453  16.476  1.00  0.00     0.161 A 
ATOM      2  C   UNL     1     -21.266  23.599  17.352  1.00  0.00     0.164 A 
ATOM      3  C   UNL     1     -21.052  23.579  18.744  1.00  0.00     0.098 A 
ATOM      4  C   UNL     1     -19.764  23.417  19.260  1.00  0.00     0.142 A 
ATOM      5  C   UNL     1     -18.670  23.272  18.382  1.00  0.00     0.022 A 
ATOM      6  C   UNL     1     -18.877  23.290  16.997  1.00  0.00     0.062 A 
ATOM      7  C   UNL     1     -17.393  23.111  18.930  1.00  0.00     0.019 A 
ATOM      8  C   UNL     1     -17.238  23.099  20.316  1.00  0.00     0.094 A 
ATOM      9  C   UNL     1     -18.369  23.249  21.124  1.00  0.00     0.336 A 
ATOM     10  O   UNL     1     -18.252  23.241  22.377  1.00  0.00    -0.246 OA
ATOM     11  O   UNL     1     -19.573  23.401  20.577  1.00  0.00    -0.423 OA
ENDROOT
BRANCH   1  12
ATOM     12  O   UNL     1     -20.425  23.478  15.095  1.00  0.00    -0.493 OA
ATOM     13  C   UNL     1     -19.754  24.324  14.167  1.00  0.00     0.278 C 
ENDBRANCH   1  12
BRANCH   2  14
ATOM     14  O   UNL     1     -22.547  23.759  16.798  1.00  0.00    -0.493 OA
ATOM     15  C   UNL     1     -23.571  24.573  17.359  1.00  0.00     0.278 C 
ENDBRANCH   2  14
TORSDOF 2
ENDMDL
MODEL 7
REMARK VINA RESULT:    -3.547     11.051     13.108
REMARK INTER + INTRA:          -4.119
REMARK INTER:                  -3.999
REMARK INTRA:                  -0.121
REMARK UNBOUND:                -0.158
REMARK SMILES COc1cc2ccc(=O)oc2cc1OC
REMARK SMILES IDX 3 1 13 2 12 3 11 4 5 5 4 6 6 7 7 8 8 9 9 10 10 11 2 12 1 13
REMARK SMILES IDX 14 14 15 15
REMARK H PARENT
REMARK Flexibility Score: inf
ROOT
ATOM      1  C   UNL     1     -21.536  33.163  22.514  1.00  0.00     0.161 A 
ATOM      2  C   UNL     1     -22.006  32.241  21.562  1.00  0.00     0.164 A 
ATOM      3  C   UNL     1     -21.316  31.030  21.362  1.00  0.00     0.098 A 
ATOM      4  C   UNL     1     -20.168  30.738  22.103  1.00  0.00     0.142 A 
ATOM      5  C   UNL     1     -19.697  31.662  23.058  1.00  0.00     0.022 A 
ATOM      6  C   UNL     1     -20.378  32.868  23.261  1.00  0.00     0.062 A 
ATOM      7  C   UNL     1     -18.544  31.340  23.783  1.00  0.00     0.019 A 
ATOM      8  C   UNL     1     -17.900  30.127  23.544  1.00  0.00     0.094 A 
ATOM      9  C   UNL     1     -18.426  29.259  22.581  1.00  0.00     0.336 A 
ATOM     10  O   UNL     1     -17.861  28.159  22.350  1.00  0.00    -0.246 OA
ATOM     11  O   UNL     1     -19.524  29.590  21.906  1.00  0.00    -0.423 OA
ENDROOT
BRANCH   1  12
ATOM     12  O   UNL     1     -22.248  34.360  22.688  1.00  0.00    -0.493 OA
ATOM     13  C   UNL     1     -21.849  35.622  22.161  1.00  0.00     0.278 C 
ENDBRANCH   1  12
BRANCH   2  14
ATOM     14  O   UNL     1     -23.163  32.567  20.836  1.00  0.00    -0.493 OA
ATOM     15  C   UNL     1     -24.065  31.614  20.286  1.00  0.00     0.278 C 
ENDBRANCH   2  14
TORSDOF 2
ENDMDL
MODEL 8
REMARK VINA RESULT:    -3.491      9.464     12.230
REMARK INTER + INTRA:          -4.056
REMARK INTER:                  -3.942
REMARK INTRA:                  -0.114
REMARK UNBOUND:                -0.158
REMARK SMILES COc1cc2ccc(=O)oc2cc1OC
REMARK SMILES IDX 3 1 13 2 12 3 11 4 5 5 4 6 6 7 7 8 8 9 9 10 10 11 2 12 1 13
REMARK SMILES IDX 14 14 15 15
REMARK H PARENT
REMARK Flexibility Score: inf
ROOT
ATOM      1  C   UNL     1     -18.534  28.235  21.999  1.00  0.00     0.161 A 
ATOM      2  C   UNL     1     -19.630  28.519  21.166  1.00  0.00     0.164 A 
ATOM      3  C   UNL     1     -20.298  29.754  21.284  1.00  0.00     0.098 A 
ATOM      4  C   UNL     1     -19.878  30.698  22.224  1.00  0.00     0.142 A 
ATOM      5  C   UNL     1     -18.779  30.414  23.060  1.00  0.00     0.022 A 
ATOM      6  C   UNL     1     -18.112  29.189  22.948  1.00  0.00     0.062 A 
ATOM      7  C   UNL     1     -18.384  31.381  23.992  1.00  0.00     0.019 A 
ATOM      8  C   UNL     1     -19.080  32.586  24.067  1.00  0.00     0.094 A 
ATOM      9  C   UNL     1     -20.161  32.797  23.204  1.00  0.00     0.336 A 
ATOM     10  O   UNL     1     -20.803  33.878  23.255  1.00  0.00    -0.246 OA
ATOM     11  O   UNL     1     -20.516  31.862  22.327  1.00  0.00    -0.423 OA
ENDROOT
BRANCH   1  12
ATOM     12  O   UNL     1     -17.892  26.996  21.854  1.00  0.00    -0.493 OA
ATOM     13  C   UNL     1     -17.468  26.173  22.937  1.00  0.00     0.278 C 
ENDBRANCH   1  12
BRANCH   2  14
ATOM     14  O   UNL     1     -20.024  27.547  20.232  1.00  0.00    -0.493 OA
ATOM     15  C   UNL     1     -21.373  27.167  19.984  1.00  0.00     0.278 C 
ENDBRANCH   2  14
TORSDOF 2
ENDMDL
MODEL 9
REMARK VINA RESULT:    -3.412     10.135     12.512
REMARK INTER + INTRA:          -3.969
REMARK INTER:                  -3.868
REMARK INTRA:                  -0.101
REMARK UNBOUND:                -0.158
REMARK SMILES COc1cc2ccc(=O)oc2cc1OC
REMARK SMILES IDX 3 1 13 2 12 3 11 4 5 5 4 6 6 7 7 8 8 9 9 10 10 11 2 12 1 13
REMARK SMILES IDX 14 14 15 15
REMARK H PARENT
REMARK Flexibility Score: inf
ROOT
ATOM      1  C   UNL     1     -18.925  29.891  22.683  1.00  0.00     0.161 A 
ATOM      2  C   UNL     1     -19.768  29.538  21.615  1.00  0.00     0.164 A 
ATOM      3  C   UNL     1     -20.790  30.420  21.210  1.00  0.00     0.098 A 
ATOM      4  C   UNL     1     -20.970  31.642  21.861  1.00  0.00     0.142 A 
ATOM      5  C   UNL     1     -20.125  31.997  22.932  1.00  0.00     0.022 A 
ATOM      6  C   UNL     1     -19.108  31.125  23.341  1.00  0.00     0.062 A 
ATOM      7  C   UNL     1     -20.332  33.228  23.565  1.00  0.00     0.019 A 
ATOM      8  C   UNL     1     -21.357  34.062  23.122  1.00  0.00     0.094 A 
ATOM      9  C   UNL     1     -22.156  33.643  22.053  1.00  0.00     0.336 A 
ATOM     10  O   UNL     1     -23.088  34.381  21.638  1.00  0.00    -0.246 OA
ATOM     11  O   UNL     1     -21.938  32.468  21.469  1.00  0.00    -0.423 OA
ENDROOT
BRANCH   1  12
ATOM     12  O   UNL     1     -17.918  28.990  23.061  1.00  0.00    -0.493 OA
ATOM     13  C   UNL     1     -16.995  29.208  24.124  1.00  0.00     0.278 C 
ENDBRANCH   1  12
BRANCH   2  14
ATOM     14  O   UNL     1     -19.558  28.302  20.983  1.00  0.00    -0.493 OA
ATOM     15  C   UNL     1     -20.409  27.752  19.984  1.00  0.00     0.278 C 
ENDBRANCH   2  14
TORSDOF 2
ENDMDL
