MODEL 1
REMARK VINA RESULT:    -3.909      0.000      0.000
REMARK INTER + INTRA:          -9.368
REMARK INTER:                  -7.223
REMARK INTRA:                  -2.144
REMARK UNBOUND:                -2.144
REMARK SMILES CCCCCCCCCCCCCCCCO
REMARK SMILES IDX 9 1 8 2 7 3 6 4 5 5 4 6 3 7 2 8 1 9 10 10 11 11 12 12 13 13
REMARK SMILES IDX 14 14 15 15 16 16 17 17
REMARK H PARENT 17 18
REMARK Flexibility Score: inf
ROOT
ATOM      1  C   UNL     1     160.147 160.953 180.942  1.00  0.00     0.000 C 
ENDROOT
BRANCH   1   2
ATOM      2  C   UNL     1     161.366 160.297 180.261  1.00  0.00    -0.000 C 
BRANCH   2   3
ATOM      3  C   UNL     1     162.453 161.304 179.830  1.00  0.00    -0.000 C 
BRANCH   3   4
ATOM      4  C   UNL     1     163.789 161.181 180.583  1.00  0.00    -0.000 C 
BRANCH   4   5
ATOM      5  C   UNL     1     163.624 160.595 181.995  1.00  0.00    -0.000 C 
BRANCH   5   6
ATOM      6  C   UNL     1     164.940 160.586 182.792  1.00  0.00    -0.000 C 
BRANCH   6   7
ATOM      7  C   UNL     1     165.468 161.974 183.206  1.00  0.00    -0.000 C 
BRANCH   7   8
ATOM      8  C   UNL     1     166.810 161.962 183.959  1.00  0.00    -0.003 C 
ATOM      9  C   UNL     1     167.519 160.610 183.890  1.00  0.00     0.004 C 
ENDBRANCH   7   8
ENDBRANCH   6   7
ENDBRANCH   5   6
ENDBRANCH   4   5
ENDBRANCH   3   4
ENDBRANCH   2   3
ENDBRANCH   1   2
BRANCH   1  10
ATOM     10  C   UNL     1     159.888 160.381 182.346  1.00  0.00     0.000 C 
BRANCH  10  11
ATOM     11  C   UNL     1     160.442 161.280 183.462  1.00  0.00     0.000 C 
BRANCH  11  12
ATOM     12  C   UNL     1     160.443 162.770 183.076  1.00  0.00     0.000 C 
BRANCH  12  13
ATOM     13  C   UNL     1     161.841 163.408 183.157  1.00  0.00     0.000 C 
BRANCH  13  14
ATOM     14  C   UNL     1     162.200 164.334 181.981  1.00  0.00     0.002 C 
BRANCH  14  15
ATOM     15  C   UNL     1     161.027 164.552 181.011  1.00  0.00     0.028 C 
BRANCH  15  16
ATOM     16  C   UNL     1     160.531 166.000 181.040  1.00  0.00     0.156 C 
BRANCH  16  17
ATOM     17  O   UNL     1     160.048 166.340 182.312  1.00  0.00    -0.396 OA
ATOM     18  H   UNL     1     159.142 166.726 182.178  1.00  0.00     0.210 HD
ENDBRANCH  16  17
ENDBRANCH  15  16
ENDBRANCH  14  15
ENDBRANCH  13  14
ENDBRANCH  12  13
ENDBRANCH  11  12
ENDBRANCH  10  11
ENDBRANCH   1  10
TORSDOF 15
ENDMDL
MODEL 2
REMARK VINA RESULT:    -3.902      1.856      3.280
REMARK INTER + INTRA:          -9.354
REMARK INTER:                  -7.586
REMARK INTRA:                  -1.768
REMARK UNBOUND:                -2.144
REMARK SMILES CCCCCCCCCCCCCCCCO
REMARK SMILES IDX 9 1 8 2 7 3 6 4 5 5 4 6 3 7 2 8 1 9 10 10 11 11 12 12 13 13
REMARK SMILES IDX 14 14 15 15 16 16 17 17
REMARK H PARENT 17 18
REMARK Flexibility Score: inf
ROOT
ATOM      1  C   UNL     1     162.901 163.467 182.619  1.00  0.00     0.000 C 
ENDROOT
BRANCH   1   2
ATOM      2  C   UNL     1     163.722 162.318 183.241  1.00  0.00    -0.000 C 
BRANCH   2   3
ATOM      3  C   UNL     1     164.291 161.330 182.203  1.00  0.00    -0.000 C 
BRANCH   3   4
ATOM      4  C   UNL     1     164.981 160.089 182.797  1.00  0.00    -0.000 C 
BRANCH   4   5
ATOM      5  C   UNL     1     166.503 160.260 182.927  1.00  0.00    -0.000 C 
BRANCH   5   6
ATOM      6  C   UNL     1     166.966 160.373 184.391  1.00  0.00    -0.000 C 
BRANCH   6   7
ATOM      7  C   UNL     1     167.370 161.790 184.844  1.00  0.00    -0.000 C 
BRANCH   7   8
ATOM      8  C   UNL     1     167.706 162.766 183.703  1.00  0.00    -0.003 C 
ATOM      9  C   UNL     1     166.921 164.075 183.788  1.00  0.00     0.004 C 
ENDBRANCH   7   8
ENDBRANCH   6   7
ENDBRANCH   5   6
ENDBRANCH   4   5
ENDBRANCH   3   4
ENDBRANCH   2   3
ENDBRANCH   1   2
BRANCH   1  10
ATOM     10  C   UNL     1     161.398 163.337 182.920  1.00  0.00     0.000 C 
BRANCH  10  11
ATOM     11  C   UNL     1     161.075 162.122 183.804  1.00  0.00     0.000 C 
BRANCH  11  12
ATOM     12  C   UNL     1     160.131 161.122 183.113  1.00  0.00     0.000 C 
BRANCH  12  13
ATOM     13  C   UNL     1     160.762 160.464 181.872  1.00  0.00     0.000 C 
BRANCH  13  14
ATOM     14  C   UNL     1     160.025 160.738 180.549  1.00  0.00     0.002 C 
BRANCH  14  15
ATOM     15  C   UNL     1     160.917 161.410 179.493  1.00  0.00     0.028 C 
BRANCH  15  16
ATOM     16  C   UNL     1     160.747 162.932 179.493  1.00  0.00     0.156 C 
BRANCH  16  17
ATOM     17  O   UNL     1     159.995 163.352 178.387  1.00  0.00    -0.396 OA
ATOM     18  H   UNL     1     159.155 162.823 178.396  1.00  0.00     0.210 HD
ENDBRANCH  16  17
ENDBRANCH  15  16
ENDBRANCH  14  15
ENDBRANCH  13  14
ENDBRANCH  12  13
ENDBRANCH  11  12
ENDBRANCH  10  11
ENDBRANCH   1  10
TORSDOF 15
ENDMDL
MODEL 3
REMARK VINA RESULT:    -3.866      2.683      5.967
REMARK INTER + INTRA:          -9.288
REMARK INTER:                  -7.508
REMARK INTRA:                  -1.780
REMARK UNBOUND:                -2.144
REMARK SMILES CCCCCCCCCCCCCCCCO
REMARK SMILES IDX 9 1 8 2 7 3 6 4 5 5 4 6 3 7 2 8 1 9 10 10 11 11 12 12 13 13
REMARK SMILES IDX 14 14 15 15 16 16 17 17
REMARK H PARENT 17 18
REMARK Flexibility Score: inf
ROOT
ATOM      1  C   UNL     1     163.773 162.160 182.678  1.00  0.00     0.000 C 
ENDROOT
BRANCH   1   2
ATOM      2  C   UNL     1     162.499 162.901 183.135  1.00  0.00    -0.000 C 
BRANCH   2   3
ATOM      3  C   UNL     1     161.386 161.963 183.645  1.00  0.00    -0.000 C 
BRANCH   3   4
ATOM      4  C   UNL     1     160.133 161.897 182.753  1.00  0.00    -0.000 C 
BRANCH   4   5
ATOM      5  C   UNL     1     159.889 160.493 182.175  1.00  0.00    -0.000 C 
BRANCH   5   6
ATOM      6  C   UNL     1     160.293 160.380 180.694  1.00  0.00    -0.000 C 
BRANCH   6   7
ATOM      7  C   UNL     1     160.654 161.714 180.009  1.00  0.00    -0.000 C 
BRANCH   7   8
ATOM      8  C   UNL     1     161.666 161.599 178.857  1.00  0.00    -0.003 C 
ATOM      9  C   UNL     1     162.859 160.707 179.198  1.00  0.00     0.004 C 
ENDBRANCH   7   8
ENDBRANCH   6   7
ENDBRANCH   5   6
ENDBRANCH   4   5
ENDBRANCH   3   4
ENDBRANCH   2   3
ENDBRANCH   1   2
BRANCH   1  10
ATOM     10  C   UNL     1     163.610 160.631 182.738  1.00  0.00     0.000 C 
BRANCH  10  11
ATOM     11  C   UNL     1     164.890 159.918 183.201  1.00  0.00     0.000 C 
BRANCH  11  12
ATOM     12  C   UNL     1     166.090 160.199 182.278  1.00  0.00     0.000 C 
BRANCH  12  13
ATOM     13  C   UNL     1     167.402 160.417 183.054  1.00  0.00     0.000 C 
BRANCH  13  14
ATOM     14  C   UNL     1     167.223 160.760 184.544  1.00  0.00     0.002 C 
BRANCH  14  15
ATOM     15  C   UNL     1     167.162 162.273 184.806  1.00  0.00     0.028 C 
BRANCH  15  16
ATOM     16  C   UNL     1     168.026 163.056 183.813  1.00  0.00     0.156 C 
BRANCH  16  17
ATOM     17  O   UNL     1     168.379 164.309 184.334  1.00  0.00    -0.396 OA
ATOM     18  H   UNL     1     167.546 164.849 184.363  1.00  0.00     0.210 HD
ENDBRANCH  16  17
ENDBRANCH  15  16
ENDBRANCH  14  15
ENDBRANCH  13  14
ENDBRANCH  12  13
ENDBRANCH  11  12
ENDBRANCH  10  11
ENDBRANCH   1  10
TORSDOF 15
ENDMDL
MODEL 4
REMARK VINA RESULT:    -3.859      1.902      3.654
REMARK INTER + INTRA:          -9.274
REMARK INTER:                  -6.980
REMARK INTRA:                  -2.293
REMARK UNBOUND:                -2.144
REMARK SMILES CCCCCCCCCCCCCCCCO
REMARK SMILES IDX 9 1 8 2 7 3 6 4 5 5 4 6 3 7 2 8 1 9 10 10 11 11 12 12 13 13
REMARK SMILES IDX 14 14 15 15 16 16 17 17
REMARK H PARENT 17 18
REMARK Flexibility Score: inf
ROOT
ATOM      1  C   UNL     1     160.983 161.891 183.795  1.00  0.00     0.000 C 
ENDROOT
BRANCH   1   2
ATOM      2  C   UNL     1     161.923 162.732 182.907  1.00  0.00    -0.000 C 
BRANCH   2   3
ATOM      3  C   UNL     1     163.410 162.341 183.032  1.00  0.00    -0.000 C 
BRANCH   3   4
ATOM      4  C   UNL     1     163.689 160.828 182.999  1.00  0.00    -0.000 C 
BRANCH   4   5
ATOM      5  C   UNL     1     165.042 160.487 182.354  1.00  0.00    -0.000 C 
BRANCH   5   6
ATOM      6  C   UNL     1     165.223 161.140 180.971  1.00  0.00    -0.000 C 
BRANCH   6   7
ATOM      7  C   UNL     1     165.872 160.240 179.900  1.00  0.00    -0.000 C 
BRANCH   7   8
ATOM      8  C   UNL     1     165.730 160.746 178.454  1.00  0.00    -0.003 C 
ATOM      9  C   UNL     1     164.804 159.875 177.606  1.00  0.00     0.004 C 
ENDBRANCH   7   8
ENDBRANCH   6   7
ENDBRANCH   5   6
ENDBRANCH   4   5
ENDBRANCH   3   4
ENDBRANCH   2   3
ENDBRANCH   1   2
BRANCH   1  10
ATOM     10  C   UNL     1     160.104 160.935 182.970  1.00  0.00     0.000 C 
BRANCH  10  11
ATOM     11  C   UNL     1     160.018 161.340 181.491  1.00  0.00     0.000 C 
BRANCH  11  12
ATOM     12  C   UNL     1     160.500 160.227 180.543  1.00  0.00     0.000 C 
BRANCH  12  13
ATOM     13  C   UNL     1     161.835 160.564 179.855  1.00  0.00     0.000 C 
BRANCH  13  14
ATOM     14  C   UNL     1     161.764 161.710 178.829  1.00  0.00     0.002 C 
BRANCH  14  15
ATOM     15  C   UNL     1     162.482 162.984 179.302  1.00  0.00     0.028 C 
BRANCH  15  16
ATOM     16  C   UNL     1     161.599 164.225 179.139  1.00  0.00     0.156 C 
BRANCH  16  17
ATOM     17  O   UNL     1     160.242 163.874 179.105  1.00  0.00    -0.396 OA
ATOM     18  H   UNL     1     159.771 164.607 178.628  1.00  0.00     0.210 HD
ENDBRANCH  16  17
ENDBRANCH  15  16
ENDBRANCH  14  15
ENDBRANCH  13  14
ENDBRANCH  12  13
ENDBRANCH  11  12
ENDBRANCH  10  11
ENDBRANCH   1  10
TORSDOF 15
ENDMDL
MODEL 5
REMARK VINA RESULT:    -3.858      1.710      3.159
REMARK INTER + INTRA:          -9.273
REMARK INTER:                  -7.340
REMARK INTRA:                  -1.933
REMARK UNBOUND:                -2.144
REMARK SMILES CCCCCCCCCCCCCCCCO
REMARK SMILES IDX 9 1 8 2 7 3 6 4 5 5 4 6 3 7 2 8 1 9 10 10 11 11 12 12 13 13
REMARK SMILES IDX 14 14 15 15 16 16 17 17
REMARK H PARENT 17 18
REMARK Flexibility Score: inf
ROOT
ATOM      1  C   UNL     1     160.613 161.934 183.599  1.00  0.00     0.000 C 
ENDROOT
BRANCH   1   2
ATOM      2  C   UNL     1     160.724 163.188 182.706  1.00  0.00    -0.000 C 
BRANCH   2   3
ATOM      3  C   UNL     1     162.159 163.744 182.594  1.00  0.00    -0.000 C 
BRANCH   3   4
ATOM      4  C   UNL     1     163.207 163.018 183.455  1.00  0.00    -0.000 C 
BRANCH   4   5
ATOM      5  C   UNL     1     164.189 162.183 182.618  1.00  0.00    -0.000 C 
BRANCH   5   6
ATOM      6  C   UNL     1     164.085 160.675 182.908  1.00  0.00    -0.000 C 
BRANCH   6   7
ATOM      7  C   UNL     1     165.388 159.876 182.708  1.00  0.00    -0.000 C 
BRANCH   7   8
ATOM      8  C   UNL     1     166.596 160.708 182.244  1.00  0.00    -0.003 C 
ATOM      9  C   UNL     1     167.203 160.200 180.937  1.00  0.00     0.004 C 
ENDBRANCH   7   8
ENDBRANCH   6   7
ENDBRANCH   5   6
ENDBRANCH   4   5
ENDBRANCH   3   4
ENDBRANCH   2   3
ENDBRANCH   1   2
BRANCH   1  10
ATOM     10  C   UNL     1     160.398 160.652 182.777  1.00  0.00     0.000 C 
BRANCH  10  11
ATOM     11  C   UNL     1     160.052 160.943 181.309  1.00  0.00     0.000 C 
BRANCH  11  12
ATOM     12  C   UNL     1     161.017 160.256 180.326  1.00  0.00     0.000 C 
BRANCH  12  13
ATOM     13  C   UNL     1     162.156 161.182 179.862  1.00  0.00     0.000 C 
BRANCH  13  14
ATOM     14  C   UNL     1     162.282 161.338 178.335  1.00  0.00     0.002 C 
BRANCH  14  15
ATOM     15  C   UNL     1     161.703 162.665 177.820  1.00  0.00     0.028 C 
BRANCH  15  16
ATOM     16  C   UNL     1     161.448 163.654 178.962  1.00  0.00     0.156 C 
BRANCH  16  17
ATOM     17  O   UNL     1     160.074 163.817 179.187  1.00  0.00    -0.396 OA
ATOM     18  H   UNL     1     159.966 164.018 180.153  1.00  0.00     0.210 HD
ENDBRANCH  16  17
ENDBRANCH  15  16
ENDBRANCH  14  15
ENDBRANCH  13  14
ENDBRANCH  12  13
ENDBRANCH  11  12
ENDBRANCH  10  11
ENDBRANCH   1  10
TORSDOF 15
ENDMDL
MODEL 6
REMARK VINA RESULT:    -3.834      1.327      2.756
REMARK INTER + INTRA:          -9.229
REMARK INTER:                  -6.832
REMARK INTRA:                  -2.397
REMARK UNBOUND:                -2.144
REMARK SMILES CCCCCCCCCCCCCCCCO
REMARK SMILES IDX 9 1 8 2 7 3 6 4 5 5 4 6 3 7 2 8 1 9 10 10 11 11 12 12 13 13
REMARK SMILES IDX 14 14 15 15 16 16 17 17
REMARK H PARENT 17 18
REMARK Flexibility Score: inf
ROOT
ATOM      1  C   UNL     1     160.531 161.257 180.002  1.00  0.00     0.000 C 
ENDROOT
BRANCH   1   2
ATOM      2  C   UNL     1     159.875 160.160 180.866  1.00  0.00    -0.000 C 
BRANCH   2   3
ATOM      3  C   UNL     1     159.988 160.416 182.383  1.00  0.00    -0.000 C 
BRANCH   3   4
ATOM      4  C   UNL     1     160.256 161.879 182.778  1.00  0.00    -0.000 C 
BRANCH   4   5
ATOM      5  C   UNL     1     161.587 162.059 183.526  1.00  0.00    -0.000 C 
BRANCH   5   6
ATOM      6  C   UNL     1     162.632 160.995 183.144  1.00  0.00    -0.000 C 
BRANCH   6   7
ATOM      7  C   UNL     1     164.060 161.530 182.914  1.00  0.00    -0.000 C 
BRANCH   7   8
ATOM      8  C   UNL     1     165.089 160.471 182.483  1.00  0.00    -0.003 C 
ATOM      9  C   UNL     1     166.270 160.360 183.448  1.00  0.00     0.004 C 
ENDBRANCH   7   8
ENDBRANCH   6   7
ENDBRANCH   5   6
ENDBRANCH   4   5
ENDBRANCH   3   4
ENDBRANCH   2   3
ENDBRANCH   1   2
BRANCH   1  10
ATOM     10  C   UNL     1     161.925 160.843 179.498  1.00  0.00     0.000 C 
BRANCH  10  11
ATOM     11  C   UNL     1     162.928 162.007 179.513  1.00  0.00     0.000 C 
BRANCH  11  12
ATOM     12  C   UNL     1     162.279 163.341 179.925  1.00  0.00     0.000 C 
BRANCH  12  13
ATOM     13  C   UNL     1     163.282 164.322 180.560  1.00  0.00     0.000 C 
BRANCH  13  14
ATOM     14  C   UNL     1     162.706 165.196 181.688  1.00  0.00     0.002 C 
BRANCH  14  15
ATOM     15  C   UNL     1     161.172 165.284 181.654  1.00  0.00     0.028 C 
BRANCH  15  16
ATOM     16  C   UNL     1     160.694 166.542 180.921  1.00  0.00     0.156 C 
BRANCH  16  17
ATOM     17  O   UNL     1     160.630 166.322 179.537  1.00  0.00    -0.396 OA
ATOM     18  H   UNL     1     159.883 165.686 179.385  1.00  0.00     0.210 HD
ENDBRANCH  16  17
ENDBRANCH  15  16
ENDBRANCH  14  15
ENDBRANCH  13  14
ENDBRANCH  12  13
ENDBRANCH  11  12
ENDBRANCH  10  11
ENDBRANCH   1  10
TORSDOF 15
ENDMDL
MODEL 7
REMARK VINA RESULT:    -3.783      3.061      6.367
REMARK INTER + INTRA:          -9.134
REMARK INTER:                  -7.161
REMARK INTRA:                  -1.972
REMARK UNBOUND:                -2.144
REMARK SMILES CCCCCCCCCCCCCCCCO
REMARK SMILES IDX 9 1 8 2 7 3 6 4 5 5 4 6 3 7 2 8 1 9 10 10 11 11 12 12 13 13
REMARK SMILES IDX 14 14 15 15 16 16 17 17
REMARK H PARENT 17 18
REMARK Flexibility Score: inf
ROOT
ATOM      1  C   UNL     1     164.349 162.176 181.877  1.00  0.00     0.000 C 
ENDROOT
BRANCH   1   2
ATOM      2  C   UNL     1     163.255 163.217 182.191  1.00  0.00    -0.000 C 
BRANCH   2   3
ATOM      3  C   UNL     1     162.433 162.891 183.455  1.00  0.00    -0.000 C 
BRANCH   3   4
ATOM      4  C   UNL     1     160.917 162.756 183.227  1.00  0.00    -0.000 C 
BRANCH   4   5
ATOM      5  C   UNL     1     160.387 161.353 183.566  1.00  0.00    -0.000 C 
BRANCH   5   6
ATOM      6  C   UNL     1     160.257 160.450 182.326  1.00  0.00    -0.000 C 
BRANCH   6   7
ATOM      7  C   UNL     1     160.190 161.194 180.977  1.00  0.00    -0.000 C 
BRANCH   7   8
ATOM      8  C   UNL     1     161.114 160.637 179.881  1.00  0.00    -0.003 C 
ATOM      9  C   UNL     1     161.825 161.732 179.087  1.00  0.00     0.004 C 
ENDBRANCH   7   8
ENDBRANCH   6   7
ENDBRANCH   5   6
ENDBRANCH   4   5
ENDBRANCH   3   4
ENDBRANCH   2   3
ENDBRANCH   1   2
BRANCH   1  10
ATOM     10  C   UNL     1     163.969 160.767 182.365  1.00  0.00     0.000 C 
BRANCH  10  11
ATOM     11  C   UNL     1     165.117 160.070 183.111  1.00  0.00     0.000 C 
BRANCH  11  12
ATOM     12  C   UNL     1     166.127 161.066 183.706  1.00  0.00     0.000 C 
BRANCH  12  13
ATOM     13  C   UNL     1     167.472 160.410 184.067  1.00  0.00     0.000 C 
BRANCH  13  14
ATOM     14  C   UNL     1     168.486 160.334 182.911  1.00  0.00     0.002 C 
BRANCH  14  15
ATOM     15  C   UNL     1     168.229 161.384 181.818  1.00  0.00     0.028 C 
BRANCH  15  16
ATOM     16  C   UNL     1     167.936 160.732 180.464  1.00  0.00     0.156 C 
BRANCH  16  17
ATOM     17  O   UNL     1     169.125 160.396 179.801  1.00  0.00    -0.396 OA
ATOM     18  H   UNL     1     169.699 161.207 179.819  1.00  0.00     0.210 HD
ENDBRANCH  16  17
ENDBRANCH  15  16
ENDBRANCH  14  15
ENDBRANCH  13  14
ENDBRANCH  12  13
ENDBRANCH  11  12
ENDBRANCH  10  11
ENDBRANCH   1  10
TORSDOF 15
ENDMDL
MODEL 8
REMARK VINA RESULT:    -3.710      1.178      1.960
REMARK INTER + INTRA:          -8.999
REMARK INTER:                  -6.547
REMARK INTRA:                  -2.453
REMARK UNBOUND:                -2.144
REMARK SMILES CCCCCCCCCCCCCCCCO
REMARK SMILES IDX 9 1 8 2 7 3 6 4 5 5 4 6 3 7 2 8 1 9 10 10 11 11 12 12 13 13
REMARK SMILES IDX 14 14 15 15 16 16 17 17
REMARK H PARENT 17 18
REMARK Flexibility Score: inf
ROOT
ATOM      1  C   UNL     1     160.911 160.485 182.045  1.00  0.00     0.000 C 
ENDROOT
BRANCH   1   2
ATOM      2  C   UNL     1     160.052 160.602 180.769  1.00  0.00    -0.000 C 
BRANCH   2   3
ATOM      3  C   UNL     1     160.837 161.091 179.534  1.00  0.00    -0.000 C 
BRANCH   3   4
ATOM      4  C   UNL     1     162.340 160.765 179.549  1.00  0.00    -0.000 C 
BRANCH   4   5
ATOM      5  C   UNL     1     163.223 162.024 179.558  1.00  0.00    -0.000 C 
BRANCH   5   6
ATOM      6  C   UNL     1     164.447 161.886 180.481  1.00  0.00    -0.000 C 
BRANCH   6   7
ATOM      7  C   UNL     1     164.443 160.645 181.395  1.00  0.00    -0.000 C 
BRANCH   7   8
ATOM      8  C   UNL     1     164.743 160.929 182.877  1.00  0.00    -0.003 C 
ATOM      9  C   UNL     1     165.422 162.280 183.100  1.00  0.00     0.004 C 
ENDBRANCH   7   8
ENDBRANCH   6   7
ENDBRANCH   5   6
ENDBRANCH   4   5
ENDBRANCH   3   4
ENDBRANCH   2   3
ENDBRANCH   1   2
BRANCH   1  10
ATOM     10  C   UNL     1     160.235 161.140 183.262  1.00  0.00     0.000 C 
BRANCH  10  11
ATOM     11  C   UNL     1     160.381 162.669 183.267  1.00  0.00     0.000 C 
BRANCH  11  12
ATOM     12  C   UNL     1     161.845 163.125 183.135  1.00  0.00     0.000 C 
BRANCH  12  13
ATOM     13  C   UNL     1     162.025 164.271 182.123  1.00  0.00     0.000 C 
BRANCH  13  14
ATOM     14  C   UNL     1     160.876 164.428 181.111  1.00  0.00     0.002 C 
BRANCH  14  15
ATOM     15  C   UNL     1     160.950 165.743 180.319  1.00  0.00     0.028 C 
BRANCH  15  16
ATOM     16  C   UNL     1     160.422 166.926 181.136  1.00  0.00     0.156 C 
BRANCH  16  17
ATOM     17  O   UNL     1     159.875 167.909 180.299  1.00  0.00    -0.396 OA
ATOM     18  H   UNL     1     160.076 167.631 179.366  1.00  0.00     0.210 HD
ENDBRANCH  16  17
ENDBRANCH  15  16
ENDBRANCH  14  15
ENDBRANCH  13  14
ENDBRANCH  12  13
ENDBRANCH  11  12
ENDBRANCH  10  11
ENDBRANCH   1  10
TORSDOF 15
ENDMDL
MODEL 9
REMARK VINA RESULT:    -3.671      1.865      3.287
REMARK INTER + INTRA:          -8.927
REMARK INTER:                  -6.677
REMARK INTRA:                  -2.250
REMARK UNBOUND:                -2.144
REMARK SMILES CCCCCCCCCCCCCCCCO
REMARK SMILES IDX 9 1 8 2 7 3 6 4 5 5 4 6 3 7 2 8 1 9 10 10 11 11 12 12 13 13
REMARK SMILES IDX 14 14 15 15 16 16 17 17
REMARK H PARENT 17 18
REMARK Flexibility Score: inf
ROOT
ATOM      1  C   UNL     1     161.341 164.402 182.335  1.00  0.00     0.000 C 
ENDROOT
BRANCH   1   2
ATOM      2  C   UNL     1     162.116 164.257 181.009  1.00  0.00    -0.000 C 
BRANCH   2   3
ATOM      3  C   UNL     1     163.445 163.487 181.148  1.00  0.00    -0.000 C 
BRANCH   3   4
ATOM      4  C   UNL     1     164.065 163.510 182.556  1.00  0.00    -0.000 C 
BRANCH   4   5
ATOM      5  C   UNL     1     164.269 162.102 183.139  1.00  0.00    -0.000 C 
BRANCH   5   6
ATOM      6  C   UNL     1     164.469 161.031 182.051  1.00  0.00    -0.000 C 
BRANCH   6   7
ATOM      7  C   UNL     1     165.427 159.883 182.428  1.00  0.00    -0.000 C 
BRANCH   7   8
ATOM      8  C   UNL     1     165.894 159.882 183.894  1.00  0.00    -0.003 C 
ATOM      9  C   UNL     1     167.352 160.312 184.056  1.00  0.00     0.004 C 
ENDBRANCH   7   8
ENDBRANCH   6   7
ENDBRANCH   5   6
ENDBRANCH   4   5
ENDBRANCH   3   4
ENDBRANCH   2   3
ENDBRANCH   1   2
BRANCH   1  10
ATOM     10  C   UNL     1     160.251 163.327 182.491  1.00  0.00     0.000 C 
BRANCH  10  11
ATOM     11  C   UNL     1     160.642 162.230 183.492  1.00  0.00     0.000 C 
BRANCH  11  12
ATOM     12  C   UNL     1     160.871 160.866 182.817  1.00  0.00     0.000 C 
BRANCH  12  13
ATOM     13  C   UNL     1     160.166 160.748 181.454  1.00  0.00     0.000 C 
BRANCH  13  14
ATOM     14  C   UNL     1     161.111 160.639 180.244  1.00  0.00     0.002 C 
BRANCH  14  15
ATOM     15  C   UNL     1     160.618 161.435 179.025  1.00  0.00     0.028 C 
BRANCH  15  16
ATOM     16  C   UNL     1     161.780 161.878 178.131  1.00  0.00     0.156 C 
BRANCH  16  17
ATOM     17  O   UNL     1     161.558 163.164 177.619  1.00  0.00    -0.396 OA
ATOM     18  H   UNL     1     162.241 163.311 176.913  1.00  0.00     0.210 HD
ENDBRANCH  16  17
ENDBRANCH  15  16
ENDBRANCH  14  15
ENDBRANCH  13  14
ENDBRANCH  12  13
ENDBRANCH  11  12
ENDBRANCH  10  11
ENDBRANCH   1  10
TORSDOF 15
ENDMDL
