MODEL 1
REMARK VINA RESULT:    -5.676      0.000      0.000
REMARK INTER + INTRA:          -7.278
REMARK INTER:                  -6.672
REMARK INTRA:                  -0.606
REMARK UNBOUND:                -0.606
REMARK SMILES C=C(C)[C@H]1CC[C@@]2(CO)CC[C@]3(C)[C@H](CC[C@@H]4[C@]5(C)CC[C@@H](O)C(C)(C)[C@H]5CC[C@@]43C)[C@H]12
REMARK SMILES IDX 4 1 5 2 6 3 7 4 32 5 14 6 15 7 16 8 17 9 18 10 20 11 21 12
REMARK SMILES IDX 22 13 24 14 27 15 28 16 29 17 30 18 12 19 11 20 10 21 13 22
REMARK SMILES IDX 31 23 25 24 26 25 19 26 2 27 3 28 1 29 8 30 9 31 23 33
REMARK H PARENT 9 32 23 34
REMARK Flexibility Score: inf
ROOT
ATOM      1  C   UNL     1      26.271  16.612 -17.648  1.00  0.00     0.018 C 
ATOM      2  C   UNL     1      27.153  17.792 -17.142  1.00  0.00     0.009 C 
ATOM      3  C   UNL     1      28.624  17.325 -17.249  1.00  0.00     0.010 C 
ATOM      4  C   UNL     1      28.580  16.257 -18.365  1.00  0.00    -0.003 C 
ATOM      5  C   UNL     1      27.306  15.501 -17.911  1.00  0.00     0.008 C 
ATOM      6  C   UNL     1      27.004  14.087 -18.548  1.00  0.00    -0.000 C 
ATOM      7  C   UNL     1      25.535  13.794 -18.861  1.00  0.00     0.005 C 
ATOM      8  C   UNL     1      25.335  12.287 -19.013  1.00  0.00     0.005 C 
ATOM      9  C   UNL     1      26.231  11.603 -20.105  1.00  0.00     0.002 C 
ATOM     10  C   UNL     1      25.961  10.024 -20.185  1.00  0.00    -0.026 C 
ATOM     11  C   UNL     1      24.417   9.683 -20.196  1.00  0.00     0.010 C 
ATOM     12  C   UNL     1      23.875   9.191 -18.850  1.00  0.00     0.033 C 
ATOM     13  C   UNL     1      24.584   7.898 -18.380  1.00  0.00     0.120 C 
ATOM     14  C   UNL     1      26.156   7.885 -18.616  1.00  0.00    -0.006 C 
ATOM     15  C   UNL     1      26.642   9.355 -18.929  1.00  0.00     0.003 C 
ATOM     16  C   UNL     1      28.157   9.634 -18.883  1.00  0.00     0.005 C 
ATOM     17  C   UNL     1      28.450  11.151 -18.828  1.00  0.00     0.008 C 
ATOM     18  C   UNL     1      27.788  12.024 -19.967  1.00  0.00    -0.024 C 
ATOM     19  C   UNL     1      27.939  13.633 -19.718  1.00  0.00    -0.024 C 
ATOM     20  C   UNL     1      29.452  14.066 -19.391  1.00  0.00     0.008 C 
ATOM     21  C   UNL     1      29.710  15.221 -18.369  1.00  0.00     0.010 C 
ATOM     22  C   UNL     1      27.469  14.369 -21.031  1.00  0.00     0.012 C 
ATOM     23  C   UNL     1      28.582  11.709 -21.282  1.00  0.00     0.012 C 
ATOM     24  C   UNL     1      26.819   7.370 -17.310  1.00  0.00     0.014 C 
ATOM     25  C   UNL     1      26.559   6.894 -19.738  1.00  0.00     0.014 C 
ATOM     26  C   UNL     1      26.515   9.479 -21.553  1.00  0.00     0.012 C 
ENDROOT
BRANCH   1  27
ATOM     27  C   UNL     1      25.170  16.268 -16.643  1.00  0.00    -0.077 C 
ATOM     28  C   UNL     1      25.464  15.327 -15.503  1.00  0.00     0.039 C 
ATOM     29  C   UNL     1      23.918  16.740 -16.774  1.00  0.00     0.008 C 
ENDBRANCH   1  27
BRANCH   4  30
ATOM     30  C   UNL     1      28.557  17.026 -19.741  1.00  0.00     0.163 C 
BRANCH  30  31
ATOM     31  O   UNL     1      29.436  18.124 -19.741  1.00  0.00    -0.396 OA
ATOM     32  H   UNL     1      30.327  17.792 -19.457  1.00  0.00     0.210 HD
ENDBRANCH  30  31
ENDBRANCH   4  30
BRANCH  13  33
ATOM     33  O   UNL     1      23.955   6.792 -18.980  1.00  0.00    -0.393 OA
ATOM     34  H   UNL     1      24.245   5.987 -18.475  1.00  0.00     0.210 HD
ENDBRANCH  13  33
TORSDOF 4
ENDMDL
MODEL 2
REMARK VINA RESULT:    -5.669      4.749      8.070
REMARK INTER + INTRA:          -7.270
REMARK INTER:                  -6.651
REMARK INTRA:                  -0.618
REMARK UNBOUND:                -0.606
REMARK SMILES C=C(C)[C@H]1CC[C@@]2(CO)CC[C@]3(C)[C@H](CC[C@@H]4[C@]5(C)CC[C@@H](O)C(C)(C)[C@H]5CC[C@@]43C)[C@H]12
REMARK SMILES IDX 4 1 5 2 6 3 7 4 32 5 14 6 15 7 16 8 17 9 18 10 20 11 21 12
REMARK SMILES IDX 22 13 24 14 27 15 28 16 29 17 30 18 12 19 11 20 10 21 13 22
REMARK SMILES IDX 31 23 25 24 26 25 19 26 2 27 3 28 1 29 8 30 9 31 23 33
REMARK H PARENT 9 32 23 34
REMARK Flexibility Score: inf
ROOT
ATOM      1  C   UNL     1      33.681   7.956 -20.774  1.00  0.00     0.018 C 
ATOM      2  C   UNL     1      35.223   7.808 -20.936  1.00  0.00     0.009 C 
ATOM      3  C   UNL     1      35.859   9.062 -20.291  1.00  0.00     0.010 C 
ATOM      4  C   UNL     1      34.802   9.507 -19.256  1.00  0.00    -0.003 C 
ATOM      5  C   UNL     1      33.536   9.350 -20.135  1.00  0.00     0.008 C 
ATOM      6  C   UNL     1      32.188  10.005 -19.635  1.00  0.00    -0.000 C 
ATOM      7  C   UNL     1      30.917   9.188 -19.879  1.00  0.00     0.005 C 
ATOM      8  C   UNL     1      29.697  10.103 -19.793  1.00  0.00     0.005 C 
ATOM      9  C   UNL     1      29.544  10.883 -18.440  1.00  0.00     0.002 C 
ATOM     10  C   UNL     1      28.245  11.823 -18.444  1.00  0.00    -0.026 C 
ATOM     11  C   UNL     1      26.967  11.071 -18.996  1.00  0.00     0.010 C 
ATOM     12  C   UNL     1      26.605  11.431 -20.441  1.00  0.00     0.033 C 
ATOM     13  C   UNL     1      26.303  12.941 -20.602  1.00  0.00     0.120 C 
ATOM     14  C   UNL     1      27.290  13.899 -19.805  1.00  0.00    -0.006 C 
ATOM     15  C   UNL     1      28.558  13.073 -19.354  1.00  0.00     0.003 C 
ATOM     16  C   UNL     1      29.783  13.859 -18.846  1.00  0.00     0.005 C 
ATOM     17  C   UNL     1      31.047  12.972 -18.808  1.00  0.00     0.008 C 
ATOM     18  C   UNL     1      30.918  11.618 -18.002  1.00  0.00    -0.024 C 
ATOM     19  C   UNL     1      32.203  10.625 -18.199  1.00  0.00    -0.024 C 
ATOM     20  C   UNL     1      33.603  11.373 -17.953  1.00  0.00     0.008 C 
ATOM     21  C   UNL     1      34.841  10.978 -18.824  1.00  0.00     0.010 C 
ATOM     22  C   UNL     1      32.063   9.448 -17.159  1.00  0.00     0.012 C 
ATOM     23  C   UNL     1      30.897  12.009 -16.484  1.00  0.00     0.012 C 
ATOM     24  C   UNL     1      27.711  15.040 -20.770  1.00  0.00     0.014 C 
ATOM     25  C   UNL     1      26.585  14.575 -18.601  1.00  0.00     0.014 C 
ATOM     26  C   UNL     1      27.889  12.211 -16.962  1.00  0.00     0.012 C 
ENDROOT
BRANCH   1  27
ATOM     27  C   UNL     1      32.959   7.759 -22.108  1.00  0.00    -0.077 C 
ATOM     28  C   UNL     1      32.000   6.609 -22.277  1.00  0.00     0.039 C 
ATOM     29  C   UNL     1      33.194   8.554 -23.167  1.00  0.00     0.008 C 
ENDBRANCH   1  27
BRANCH   4  30
ATOM     30  C   UNL     1      34.970   8.577 -17.994  1.00  0.00     0.163 C 
BRANCH  30  31
ATOM     31  O   UNL     1      35.942   9.071 -17.106  1.00  0.00    -0.396 OA
ATOM     32  H   UNL     1      36.802   8.628 -17.329  1.00  0.00     0.210 HD
ENDBRANCH  30  31
ENDBRANCH   4  30
BRANCH  13  33
ATOM     33  O   UNL     1      24.958  13.173 -20.260  1.00  0.00    -0.393 OA
ATOM     34  H   UNL     1      24.717  12.502 -19.568  1.00  0.00     0.210 HD
ENDBRANCH  13  33
TORSDOF 4
ENDMDL
MODEL 3
REMARK VINA RESULT:    -5.657      4.055      6.130
REMARK INTER + INTRA:          -7.255
REMARK INTER:                  -6.603
REMARK INTRA:                  -0.653
REMARK UNBOUND:                -0.606
REMARK SMILES C=C(C)[C@H]1CC[C@@]2(CO)CC[C@]3(C)[C@H](CC[C@@H]4[C@]5(C)CC[C@@H](O)C(C)(C)[C@H]5CC[C@@]43C)[C@H]12
REMARK SMILES IDX 4 1 5 2 6 3 7 4 32 5 14 6 15 7 16 8 17 9 18 10 20 11 21 12
REMARK SMILES IDX 22 13 24 14 27 15 28 16 29 17 30 18 12 19 11 20 10 21 13 22
REMARK SMILES IDX 31 23 25 24 26 25 19 26 2 27 3 28 1 29 8 30 9 31 23 33
REMARK H PARENT 9 32 23 34
REMARK Flexibility Score: inf
ROOT
ATOM      1  C   UNL     1      27.742  15.560 -17.914  1.00  0.00     0.018 C 
ATOM      2  C   UNL     1      26.248  15.994 -17.825  1.00  0.00     0.009 C 
ATOM      3  C   UNL     1      25.442  14.731 -17.440  1.00  0.00     0.010 C 
ATOM      4  C   UNL     1      26.479  13.855 -16.702  1.00  0.00    -0.003 C 
ATOM      5  C   UNL     1      27.671  14.040 -17.674  1.00  0.00     0.008 C 
ATOM      6  C   UNL     1      28.906  13.065 -17.541  1.00  0.00    -0.000 C 
ATOM      7  C   UNL     1      30.285  13.700 -17.738  1.00  0.00     0.005 C 
ATOM      8  C   UNL     1      31.310  12.612 -18.050  1.00  0.00     0.005 C 
ATOM      9  C   UNL     1      31.426  11.478 -16.971  1.00  0.00     0.002 C 
ATOM     10  C   UNL     1      32.516  10.378 -17.387  1.00  0.00    -0.026 C 
ATOM     11  C   UNL     1      33.862  11.035 -17.896  1.00  0.00     0.010 C 
ATOM     12  C   UNL     1      34.023  11.029 -19.420  1.00  0.00     0.033 C 
ATOM     13  C   UNL     1      34.016   9.593 -19.997  1.00  0.00     0.120 C 
ATOM     14  C   UNL     1      32.936   8.627 -19.345  1.00  0.00    -0.006 C 
ATOM     15  C   UNL     1      31.893   9.491 -18.534  1.00  0.00     0.003 C 
ATOM     16  C   UNL     1      30.589   8.805 -18.082  1.00  0.00     0.005 C 
ATOM     17  C   UNL     1      29.525   9.841 -17.652  1.00  0.00     0.008 C 
ATOM     18  C   UNL     1      29.979  10.883 -16.554  1.00  0.00    -0.024 C 
ATOM     19  C   UNL     1      28.897  12.087 -16.320  1.00  0.00    -0.024 C 
ATOM     20  C   UNL     1      27.405  11.536 -16.087  1.00  0.00     0.008 C 
ATOM     21  C   UNL     1      26.196  12.349 -16.656  1.00  0.00     0.010 C 
ATOM     22  C   UNL     1      29.348  12.897 -15.045  1.00  0.00     0.012 C 
ATOM     23  C   UNL     1      30.056  10.094 -15.202  1.00  0.00     0.012 C 
ATOM     24  C   UNL     1      32.223   7.876 -20.502  1.00  0.00     0.014 C 
ATOM     25  C   UNL     1      33.599   7.543 -18.457  1.00  0.00     0.014 C 
ATOM     26  C   UNL     1      32.918   9.547 -16.113  1.00  0.00     0.012 C 
ENDROOT
BRANCH   1  27
ATOM     27  C   UNL     1      28.371  15.995 -19.239  1.00  0.00    -0.077 C 
ATOM     28  C   UNL     1      29.430  17.066 -19.248  1.00  0.00     0.039 C 
ATOM     29  C   UNL     1      27.968  15.486 -20.416  1.00  0.00     0.008 C 
ENDBRANCH   1  27
BRANCH   4  30
ATOM     30  C   UNL     1      26.601  14.420 -15.235  1.00  0.00     0.163 C 
BRANCH  30  31
ATOM     31  O   UNL     1      25.340  14.647 -14.655  1.00  0.00    -0.396 OA
ATOM     32  H   UNL     1      24.732  13.929 -14.973  1.00  0.00     0.210 HD
ENDBRANCH  30  31
ENDBRANCH   4  30
BRANCH  13  33
ATOM     33  O   UNL     1      35.316   9.062 -19.908  1.00  0.00    -0.393 OA
ATOM     34  H   UNL     1      35.358   8.544 -19.061  1.00  0.00     0.210 HD
ENDBRANCH  13  33
TORSDOF 4
ENDMDL
MODEL 4
REMARK VINA RESULT:    -5.643      2.449      7.094
REMARK INTER + INTRA:          -7.239
REMARK INTER:                  -6.584
REMARK INTRA:                  -0.656
REMARK UNBOUND:                -0.606
REMARK SMILES C=C(C)[C@H]1CC[C@@]2(CO)CC[C@]3(C)[C@H](CC[C@@H]4[C@]5(C)CC[C@@H](O)C(C)(C)[C@H]5CC[C@@]43C)[C@H]12
REMARK SMILES IDX 4 1 5 2 6 3 7 4 32 5 14 6 15 7 16 8 17 9 18 10 20 11 21 12
REMARK SMILES IDX 22 13 24 14 27 15 28 16 29 17 30 18 12 19 11 20 10 21 13 22
REMARK SMILES IDX 31 23 25 24 26 25 19 26 2 27 3 28 1 29 8 30 9 31 23 33
REMARK H PARENT 9 32 23 34
REMARK Flexibility Score: inf
ROOT
ATOM      1  C   UNL     1      26.350   9.289 -21.052  1.00  0.00     0.018 C 
ATOM      2  C   UNL     1      26.491   8.712 -22.492  1.00  0.00     0.009 C 
ATOM      3  C   UNL     1      27.047   9.854 -23.376  1.00  0.00     0.010 C 
ATOM      4  C   UNL     1      27.799  10.753 -22.368  1.00  0.00    -0.003 C 
ATOM      5  C   UNL     1      26.740  10.768 -21.237  1.00  0.00     0.008 C 
ATOM      6  C   UNL     1      26.888  11.838 -20.084  1.00  0.00    -0.000 C 
ATOM      7  C   UNL     1      26.543  11.354 -18.674  1.00  0.00     0.005 C 
ATOM      8  C   UNL     1      26.274  12.557 -17.772  1.00  0.00     0.005 C 
ATOM      9  C   UNL     1      27.447  13.594 -17.677  1.00  0.00     0.002 C 
ATOM     10  C   UNL     1      27.071  14.825 -16.720  1.00  0.00    -0.026 C 
ATOM     11  C   UNL     1      26.417  14.344 -15.362  1.00  0.00     0.010 C 
ATOM     12  C   UNL     1      24.893  14.502 -15.312  1.00  0.00     0.033 C 
ATOM     13  C   UNL     1      24.459  15.978 -15.485  1.00  0.00     0.120 C 
ATOM     14  C   UNL     1      25.269  16.777 -16.595  1.00  0.00    -0.006 C 
ATOM     15  C   UNL     1      26.057  15.749 -17.498  1.00  0.00     0.003 C 
ATOM     16  C   UNL     1      26.655  16.268 -18.821  1.00  0.00     0.005 C 
ATOM     17  C   UNL     1      27.049  15.102 -19.757  1.00  0.00     0.008 C 
ATOM     18  C   UNL     1      28.010  14.012 -19.136  1.00  0.00    -0.024 C 
ATOM     19  C   UNL     1      28.196  12.696 -20.091  1.00  0.00    -0.024 C 
ATOM     20  C   UNL     1      28.575  13.083 -21.604  1.00  0.00     0.008 C 
ATOM     21  C   UNL     1      28.008  12.216 -22.776  1.00  0.00     0.010 C 
ATOM     22  C   UNL     1      29.356  11.820 -19.480  1.00  0.00     0.012 C 
ATOM     23  C   UNL     1      29.425  14.679 -19.032  1.00  0.00     0.012 C 
ATOM     24  C   UNL     1      24.238  17.559 -17.452  1.00  0.00     0.014 C 
ATOM     25  C   UNL     1      26.214  17.833 -15.966  1.00  0.00     0.014 C 
ATOM     26  C   UNL     1      28.392  15.570 -16.301  1.00  0.00     0.012 C 
ENDROOT
BRANCH   1  27
ATOM     27  C   UNL     1      24.953   9.037 -20.485  1.00  0.00    -0.077 C 
ATOM     28  C   UNL     1      24.749   7.965 -19.445  1.00  0.00     0.039 C 
ATOM     29  C   UNL     1      23.875   9.710 -20.926  1.00  0.00     0.008 C 
ENDBRANCH   1  27
BRANCH   4  30
ATOM     30  C   UNL     1      29.194  10.072 -22.092  1.00  0.00     0.163 C 
BRANCH  30  31
ATOM     31  O   UNL     1      30.072  10.220 -23.180  1.00  0.00    -0.396 OA
ATOM     32  H   UNL     1      30.998  10.195 -22.822  1.00  0.00     0.210 HD
ENDBRANCH  30  31
ENDBRANCH   4  30
BRANCH  13  33
ATOM     33  O   UNL     1      24.517  16.617 -14.233  1.00  0.00    -0.393 OA
ATOM     34  H   UNL     1      25.451  16.932 -14.113  1.00  0.00     0.210 HD
ENDBRANCH  13  33
TORSDOF 4
ENDMDL
MODEL 5
REMARK VINA RESULT:    -5.510      3.862      4.928
REMARK INTER + INTRA:          -7.082
REMARK INTER:                  -6.462
REMARK INTRA:                  -0.620
REMARK UNBOUND:                -0.606
REMARK SMILES C=C(C)[C@H]1CC[C@@]2(CO)CC[C@]3(C)[C@H](CC[C@@H]4[C@]5(C)CC[C@@H](O)C(C)(C)[C@H]5CC[C@@]43C)[C@H]12
REMARK SMILES IDX 4 1 5 2 6 3 7 4 32 5 14 6 15 7 16 8 17 9 18 10 20 11 21 12
REMARK SMILES IDX 22 13 24 14 27 15 28 16 29 17 30 18 12 19 11 20 10 21 13 22
REMARK SMILES IDX 31 23 25 24 26 25 19 26 2 27 3 28 1 29 8 30 9 31 23 33
REMARK H PARENT 9 32 23 34
REMARK Flexibility Score: inf
ROOT
ATOM      1  C   UNL     1      27.453  16.743 -16.749  1.00  0.00     0.018 C 
ATOM      2  C   UNL     1      27.740  17.911 -17.740  1.00  0.00     0.009 C 
ATOM      3  C   UNL     1      28.768  17.380 -18.766  1.00  0.00     0.010 C 
ATOM      4  C   UNL     1      28.530  15.853 -18.754  1.00  0.00    -0.003 C 
ATOM      5  C   UNL     1      28.428  15.647 -17.221  1.00  0.00     0.008 C 
ATOM      6  C   UNL     1      28.512  14.176 -16.653  1.00  0.00    -0.000 C 
ATOM      7  C   UNL     1      27.577  13.855 -15.485  1.00  0.00     0.005 C 
ATOM      8  C   UNL     1      28.081  12.612 -14.754  1.00  0.00     0.005 C 
ATOM      9  C   UNL     1      28.233  11.330 -15.645  1.00  0.00     0.002 C 
ATOM     10  C   UNL     1      28.775  10.082 -14.797  1.00  0.00    -0.026 C 
ATOM     11  C   UNL     1      28.013   9.921 -13.420  1.00  0.00     0.010 C 
ATOM     12  C   UNL     1      28.798  10.433 -12.208  1.00  0.00     0.033 C 
ATOM     13  C   UNL     1      30.141   9.685 -12.031  1.00  0.00     0.120 C 
ATOM     14  C   UNL     1      30.928   9.415 -13.386  1.00  0.00    -0.006 C 
ATOM     15  C   UNL     1      30.312  10.314 -14.528  1.00  0.00     0.003 C 
ATOM     16  C   UNL     1      31.109  10.452 -15.840  1.00  0.00     0.005 C 
ATOM     17  C   UNL     1      30.593  11.635 -16.691  1.00  0.00     0.008 C 
ATOM     18  C   UNL     1      29.046  11.632 -17.013  1.00  0.00    -0.024 C 
ATOM     19  C   UNL     1      28.528  13.019 -17.707  1.00  0.00    -0.024 C 
ATOM     20  C   UNL     1      29.431  13.453 -18.963  1.00  0.00     0.008 C 
ATOM     21  C   UNL     1      29.694  14.973 -19.225  1.00  0.00     0.010 C 
ATOM     22  C   UNL     1      27.048  12.787 -18.198  1.00  0.00     0.012 C 
ATOM     23  C   UNL     1      28.817  10.501 -18.073  1.00  0.00     0.012 C 
ATOM     24  C   UNL     1      32.413   9.798 -13.146  1.00  0.00     0.014 C 
ATOM     25  C   UNL     1      30.915   7.912 -13.765  1.00  0.00     0.014 C 
ATOM     26  C   UNL     1      28.480   8.756 -15.591  1.00  0.00     0.012 C 
ENDROOT
BRANCH   1  27
ATOM     27  C   UNL     1      27.613  17.193 -15.296  1.00  0.00    -0.077 C 
ATOM     28  C   UNL     1      26.439  17.112 -14.354  1.00  0.00     0.039 C 
ATOM     29  C   UNL     1      28.765  17.715 -14.837  1.00  0.00     0.008 C 
ENDBRANCH   1  27
BRANCH   4  30
ATOM     30  C   UNL     1      27.258  15.575 -19.643  1.00  0.00     0.163 C 
BRANCH  30  31
ATOM     31  O   UNL     1      27.577  15.535 -21.013  1.00  0.00    -0.396 OA
ATOM     32  H   UNL     1      26.725  15.452 -21.515  1.00  0.00     0.210 HD
ENDBRANCH  30  31
ENDBRANCH   4  30
BRANCH  13  33
ATOM     33  O   UNL     1      29.908   8.496 -11.315  1.00  0.00    -0.393 OA
ATOM     34  H   UNL     1      29.070   8.103 -11.676  1.00  0.00     0.210 HD
ENDBRANCH  13  33
TORSDOF 4
ENDMDL
MODEL 6
REMARK VINA RESULT:    -5.440      3.878      8.108
REMARK INTER + INTRA:          -7.000
REMARK INTER:                  -6.343
REMARK INTRA:                  -0.657
REMARK UNBOUND:                -0.606
REMARK SMILES C=C(C)[C@H]1CC[C@@]2(CO)CC[C@]3(C)[C@H](CC[C@@H]4[C@]5(C)CC[C@@H](O)C(C)(C)[C@H]5CC[C@@]43C)[C@H]12
REMARK SMILES IDX 4 1 5 2 6 3 7 4 32 5 14 6 15 7 16 8 17 9 18 10 20 11 21 12
REMARK SMILES IDX 22 13 24 14 27 15 28 16 29 17 30 18 12 19 11 20 10 21 13 22
REMARK SMILES IDX 31 23 25 24 26 25 19 26 2 27 3 28 1 29 8 30 9 31 23 33
REMARK H PARENT 9 32 23 34
REMARK Flexibility Score: inf
ROOT
ATOM      1  C   UNL     1      31.349   8.290 -21.820  1.00  0.00     0.018 C 
ATOM      2  C   UNL     1      32.627   7.605 -22.389  1.00  0.00     0.009 C 
ATOM      3  C   UNL     1      33.837   8.396 -21.836  1.00  0.00     0.010 C 
ATOM      4  C   UNL     1      33.293   9.016 -20.530  1.00  0.00    -0.003 C 
ATOM      5  C   UNL     1      31.920   9.502 -21.059  1.00  0.00     0.008 C 
ATOM      6  C   UNL     1      31.091  10.516 -20.176  1.00  0.00    -0.000 C 
ATOM      7  C   UNL     1      29.577  10.292 -20.144  1.00  0.00     0.005 C 
ATOM      8  C   UNL     1      28.881  11.567 -19.672  1.00  0.00     0.005 C 
ATOM      9  C   UNL     1      29.343  12.097 -18.270  1.00  0.00     0.002 C 
ATOM     10  C   UNL     1      28.569  13.442 -17.862  1.00  0.00    -0.026 C 
ATOM     11  C   UNL     1      27.012  13.333 -18.119  1.00  0.00     0.010 C 
ATOM     12  C   UNL     1      26.536  14.050 -19.387  1.00  0.00     0.033 C 
ATOM     13  C   UNL     1      26.848  15.565 -19.346  1.00  0.00     0.120 C 
ATOM     14  C   UNL     1      28.281  15.928 -18.762  1.00  0.00    -0.006 C 
ATOM     15  C   UNL     1      29.166  14.622 -18.722  1.00  0.00     0.003 C 
ATOM     16  C   UNL     1      30.681  14.789 -18.490  1.00  0.00     0.005 C 
ATOM     17  C   UNL     1      31.453  13.500 -18.853  1.00  0.00     0.008 C 
ATOM     18  C   UNL     1      30.956  12.175 -18.148  1.00  0.00    -0.024 C 
ATOM     19  C   UNL     1      31.653  10.823 -18.749  1.00  0.00    -0.024 C 
ATOM     20  C   UNL     1      33.255  10.936 -18.819  1.00  0.00     0.008 C 
ATOM     21  C   UNL     1      34.015  10.265 -20.010  1.00  0.00     0.010 C 
ATOM     22  C   UNL     1      31.266   9.622 -17.804  1.00  0.00     0.012 C 
ATOM     23  C   UNL     1      31.411  12.273 -16.652  1.00  0.00     0.012 C 
ATOM     24  C   UNL     1      28.918  16.977 -19.711  1.00  0.00     0.014 C 
ATOM     25  C   UNL     1      28.178  16.597 -17.367  1.00  0.00     0.014 C 
ATOM     26  C   UNL     1      28.717  13.669 -16.313  1.00  0.00     0.012 C 
ENDROOT
BRANCH   1  27
ATOM     27  C   UNL     1      30.349   8.615 -22.932  1.00  0.00    -0.077 C 
ATOM     28  C   UNL     1      29.023   7.901 -22.978  1.00  0.00     0.039 C 
ATOM     29  C   UNL     1      30.638   9.488 -23.913  1.00  0.00     0.008 C 
ENDBRANCH   1  27
BRANCH   4  30
ATOM     30  C   UNL     1      33.326   7.886 -19.431  1.00  0.00     0.163 C 
BRANCH  30  31
ATOM     31  O   UNL     1      34.626   7.675 -18.937  1.00  0.00    -0.396 OA
ATOM     32  H   UNL     1      34.549   7.099 -18.132  1.00  0.00     0.210 HD
ENDBRANCH  30  31
ENDBRANCH   4  30
BRANCH  13  33
ATOM     33  O   UNL     1      25.816  16.221 -18.649  1.00  0.00    -0.393 OA
ATOM     34  H   UNL     1      25.262  15.515 -18.224  1.00  0.00     0.210 HD
ENDBRANCH  13  33
TORSDOF 4
ENDMDL
MODEL 7
REMARK VINA RESULT:    -5.439     10.748     15.325
REMARK INTER + INTRA:          -6.999
REMARK INTER:                  -6.357
REMARK INTRA:                  -0.642
REMARK UNBOUND:                -0.606
REMARK SMILES C=C(C)[C@H]1CC[C@@]2(CO)CC[C@]3(C)[C@H](CC[C@@H]4[C@]5(C)CC[C@@H](O)C(C)(C)[C@H]5CC[C@@]43C)[C@H]12
REMARK SMILES IDX 4 1 5 2 6 3 7 4 32 5 14 6 15 7 16 8 17 9 18 10 20 11 21 12
REMARK SMILES IDX 22 13 24 14 27 15 28 16 29 17 30 18 12 19 11 20 10 21 13 22
REMARK SMILES IDX 31 23 25 24 26 25 19 26 2 27 3 28 1 29 8 30 9 31 23 33
REMARK H PARENT 9 32 23 34
REMARK Flexibility Score: inf
ROOT
ATOM      1  C   UNL     1      37.403  -0.869 -20.063  1.00  0.00     0.018 C 
ATOM      2  C   UNL     1      37.085  -2.087 -20.979  1.00  0.00     0.009 C 
ATOM      3  C   UNL     1      35.587  -1.983 -21.352  1.00  0.00     0.010 C 
ATOM      4  C   UNL     1      35.291  -0.472 -21.226  1.00  0.00    -0.003 C 
ATOM      5  C   UNL     1      36.024  -0.204 -19.887  1.00  0.00     0.008 C 
ATOM      6  C   UNL     1      35.741   1.156 -19.135  1.00  0.00    -0.000 C 
ATOM      7  C   UNL     1      36.951   1.819 -18.472  1.00  0.00     0.005 C 
ATOM      8  C   UNL     1      36.474   2.820 -17.422  1.00  0.00     0.005 C 
ATOM      9  C   UNL     1      35.515   3.940 -17.957  1.00  0.00     0.002 C 
ATOM     10  C   UNL     1      35.059   4.936 -16.785  1.00  0.00    -0.026 C 
ATOM     11  C   UNL     1      36.276   5.393 -15.884  1.00  0.00     0.010 C 
ATOM     12  C   UNL     1      36.365   4.668 -14.537  1.00  0.00     0.033 C 
ATOM     13  C   UNL     1      35.099   4.893 -13.675  1.00  0.00     0.120 C 
ATOM     14  C   UNL     1      33.732   4.831 -14.482  1.00  0.00    -0.006 C 
ATOM     15  C   UNL     1      33.997   4.180 -15.896  1.00  0.00     0.003 C 
ATOM     16  C   UNL     1      32.774   3.733 -16.721  1.00  0.00     0.005 C 
ATOM     17  C   UNL     1      33.185   2.789 -17.874  1.00  0.00     0.008 C 
ATOM     18  C   UNL     1      34.306   3.334 -18.847  1.00  0.00    -0.024 C 
ATOM     19  C   UNL     1      34.859   2.203 -19.892  1.00  0.00    -0.024 C 
ATOM     20  C   UNL     1      33.670   1.444 -20.662  1.00  0.00     0.008 C 
ATOM     21  C   UNL     1      33.828  -0.076 -20.996  1.00  0.00     0.010 C 
ATOM     22  C   UNL     1      35.771   2.934 -20.950  1.00  0.00     0.012 C 
ATOM     23  C   UNL     1      33.629   4.444 -19.722  1.00  0.00     0.012 C 
ATOM     24  C   UNL     1      32.748   3.950 -13.665  1.00  0.00     0.014 C 
ATOM     25  C   UNL     1      33.075   6.230 -14.606  1.00  0.00     0.014 C 
ATOM     26  C   UNL     1      34.498   6.259 -17.426  1.00  0.00     0.012 C 
ENDROOT
BRANCH   1  27
ATOM     27  C   UNL     1      38.097  -1.307 -18.772  1.00  0.00    -0.077 C 
ATOM     28  C   UNL     1      37.341  -2.125 -17.756  1.00  0.00     0.039 C 
ATOM     29  C   UNL     1      39.358  -0.939 -18.484  1.00  0.00     0.008 C 
ENDBRANCH   1  27
BRANCH   4  30
ATOM     30  C   UNL     1      35.830   0.217 -22.538  1.00  0.00     0.163 C 
BRANCH  30  31
ATOM     31  O   UNL     1      35.512  -0.529 -23.687  1.00  0.00    -0.396 OA
ATOM     32  H   UNL     1      35.924  -1.427 -23.583  1.00  0.00     0.210 HD
ENDBRANCH  30  31
ENDBRANCH   4  30
BRANCH  13  33
ATOM     33  O   UNL     1      35.239   6.105 -12.974  1.00  0.00    -0.393 OA
ATOM     34  H   UNL     1      36.133   6.471 -13.207  1.00  0.00     0.210 HD
ENDBRANCH  13  33
TORSDOF 4
ENDMDL
MODEL 8
REMARK VINA RESULT:    -5.386      3.195      7.727
REMARK INTER + INTRA:          -6.937
REMARK INTER:                  -6.299
REMARK INTRA:                  -0.638
REMARK UNBOUND:                -0.606
REMARK SMILES C=C(C)[C@H]1CC[C@@]2(CO)CC[C@]3(C)[C@H](CC[C@@H]4[C@]5(C)CC[C@@H](O)C(C)(C)[C@H]5CC[C@@]43C)[C@H]12
REMARK SMILES IDX 4 1 5 2 6 3 7 4 32 5 14 6 15 7 16 8 17 9 18 10 20 11 21 12
REMARK SMILES IDX 22 13 24 14 27 15 28 16 29 17 30 18 12 19 11 20 10 21 13 22
REMARK SMILES IDX 31 23 25 24 26 25 19 26 2 27 3 28 1 29 8 30 9 31 23 33
REMARK H PARENT 9 32 23 34
REMARK Flexibility Score: inf
ROOT
ATOM      1  C   UNL     1      32.962   9.742 -19.523  1.00  0.00     0.018 C 
ATOM      2  C   UNL     1      33.241   8.218 -19.679  1.00  0.00     0.009 C 
ATOM      3  C   UNL     1      31.877   7.544 -19.961  1.00  0.00     0.010 C 
ATOM      4  C   UNL     1      31.041   8.678 -20.596  1.00  0.00    -0.003 C 
ATOM      5  C   UNL     1      31.426   9.821 -19.622  1.00  0.00     0.008 C 
ATOM      6  C   UNL     1      30.566  11.146 -19.642  1.00  0.00    -0.000 C 
ATOM      7  C   UNL     1      31.346  12.452 -19.479  1.00  0.00     0.005 C 
ATOM      8  C   UNL     1      30.394  13.566 -19.049  1.00  0.00     0.005 C 
ATOM      9  C   UNL     1      29.184  13.818 -20.016  1.00  0.00     0.002 C 
ATOM     10  C   UNL     1      28.235  14.994 -19.480  1.00  0.00    -0.026 C 
ATOM     11  C   UNL     1      29.061  16.258 -19.009  1.00  0.00     0.010 C 
ATOM     12  C   UNL     1      29.209  16.378 -17.488  1.00  0.00     0.033 C 
ATOM     13  C   UNL     1      27.836  16.489 -16.781  1.00  0.00     0.120 C 
ATOM     14  C   UNL     1      26.716  15.523 -17.361  1.00  0.00    -0.006 C 
ATOM     15  C   UNL     1      27.400  14.426 -18.268  1.00  0.00     0.003 C 
ATOM     16  C   UNL     1      26.553  13.205 -18.679  1.00  0.00     0.005 C 
ATOM     17  C   UNL     1      27.440  12.061 -19.222  1.00  0.00     0.008 C 
ATOM     18  C   UNL     1      28.417  12.445 -20.403  1.00  0.00    -0.024 C 
ATOM     19  C   UNL     1      29.486  11.262 -20.768  1.00  0.00    -0.024 C 
ATOM     20  C   UNL     1      28.776   9.835 -20.976  1.00  0.00     0.008 C 
ATOM     21  C   UNL     1      29.517   8.540 -20.508  1.00  0.00     0.010 C 
ATOM     22  C   UNL     1      30.217  11.670 -22.104  1.00  0.00     0.012 C 
ATOM     23  C   UNL     1      27.521  12.632 -21.675  1.00  0.00     0.012 C 
ATOM     24  C   UNL     1      26.008  14.852 -16.153  1.00  0.00     0.014 C 
ATOM     25  C   UNL     1      25.625  16.309 -18.133  1.00  0.00     0.014 C 
ATOM     26  C   UNL     1      27.335  15.506 -20.664  1.00  0.00     0.012 C 
ENDROOT
BRANCH   1  27
ATOM     27  C   UNL     1      33.572  10.292 -18.233  1.00  0.00    -0.077 C 
ATOM     28  C   UNL     1      32.814  10.172 -16.936  1.00  0.00     0.039 C 
ATOM     29  C   UNL     1      34.753  10.935 -18.224  1.00  0.00     0.008 C 
ENDBRANCH   1  27
BRANCH   4  30
ATOM     30  C   UNL     1      31.480   8.787 -22.106  1.00  0.00     0.163 C 
BRANCH  30  31
ATOM     31  O   UNL     1      31.437   7.539 -22.754  1.00  0.00    -0.396 OA
ATOM     32  H   UNL     1      30.525   7.168 -22.626  1.00  0.00     0.210 HD
ENDBRANCH  30  31
ENDBRANCH   4  30
BRANCH  13  33
ATOM     33  O   UNL     1      27.426  17.835 -16.797  1.00  0.00    -0.393 OA
ATOM     34  H   UNL     1      27.877  18.264 -17.571  1.00  0.00     0.210 HD
ENDBRANCH  13  33
TORSDOF 4
ENDMDL
MODEL 9
REMARK VINA RESULT:    -5.349      4.030      6.444
REMARK INTER + INTRA:          -6.894
REMARK INTER:                  -6.216
REMARK INTRA:                  -0.678
REMARK UNBOUND:                -0.606
REMARK SMILES C=C(C)[C@H]1CC[C@@]2(CO)CC[C@]3(C)[C@H](CC[C@@H]4[C@]5(C)CC[C@@H](O)C(C)(C)[C@H]5CC[C@@]43C)[C@H]12
REMARK SMILES IDX 4 1 5 2 6 3 7 4 32 5 14 6 15 7 16 8 17 9 18 10 20 11 21 12
REMARK SMILES IDX 22 13 24 14 27 15 28 16 29 17 30 18 12 19 11 20 10 21 13 22
REMARK SMILES IDX 31 23 25 24 26 25 19 26 2 27 3 28 1 29 8 30 9 31 23 33
REMARK H PARENT 9 32 23 34
REMARK Flexibility Score: inf
ROOT
ATOM      1  C   UNL     1      26.936  11.891 -21.496  1.00  0.00     0.018 C 
ATOM      2  C   UNL     1      25.530  12.550 -21.371  1.00  0.00     0.009 C 
ATOM      3  C   UNL     1      25.395  13.031 -19.907  1.00  0.00     0.010 C 
ATOM      4  C   UNL     1      26.860  13.245 -19.463  1.00  0.00    -0.003 C 
ATOM      5  C   UNL     1      27.471  11.948 -20.052  1.00  0.00     0.008 C 
ATOM      6  C   UNL     1      28.916  11.518 -19.581  1.00  0.00    -0.000 C 
ATOM      7  C   UNL     1      29.826  10.933 -20.664  1.00  0.00     0.005 C 
ATOM      8  C   UNL     1      30.961  10.149 -20.009  1.00  0.00     0.005 C 
ATOM      9  C   UNL     1      31.840  10.968 -19.000  1.00  0.00     0.002 C 
ATOM     10  C   UNL     1      32.997  10.064 -18.356  1.00  0.00    -0.026 C 
ATOM     11  C   UNL     1      33.756   9.203 -19.445  1.00  0.00     0.010 C 
ATOM     12  C   UNL     1      33.332   7.731 -19.485  1.00  0.00     0.033 C 
ATOM     13  C   UNL     1      33.590   7.018 -18.135  1.00  0.00     0.120 C 
ATOM     14  C   UNL     1      33.218   7.880 -16.853  1.00  0.00    -0.006 C 
ATOM     15  C   UNL     1      32.327   9.105 -17.296  1.00  0.00     0.003 C 
ATOM     16  C   UNL     1      31.593   9.895 -16.194  1.00  0.00     0.005 C 
ATOM     17  C   UNL     1      30.485  10.795 -16.788  1.00  0.00     0.008 C 
ATOM     18  C   UNL     1      30.939  11.787 -17.932  1.00  0.00    -0.024 C 
ATOM     19  C   UNL     1      29.687  12.533 -18.674  1.00  0.00    -0.024 C 
ATOM     20  C   UNL     1      28.664  13.202 -17.630  1.00  0.00     0.008 C 
ATOM     21  C   UNL     1      27.134  13.198 -17.955  1.00  0.00     0.010 C 
ATOM     22  C   UNL     1      30.282  13.661 -19.601  1.00  0.00     0.012 C 
ATOM     23  C   UNL     1      31.770  12.917 -17.233  1.00  0.00     0.012 C 
ATOM     24  C   UNL     1      32.421   6.961 -15.889  1.00  0.00     0.014 C 
ATOM     25  C   UNL     1      34.484   8.337 -16.083  1.00  0.00     0.014 C 
ATOM     26  C   UNL     1      34.095  11.003 -17.732  1.00  0.00     0.012 C 
ENDROOT
BRANCH   1  27
ATOM     27  C   UNL     1      26.845  10.496 -22.115  1.00  0.00    -0.077 C 
ATOM     28  C   UNL     1      26.341   9.341 -21.288  1.00  0.00     0.039 C 
ATOM     29  C   UNL     1      27.256  10.248 -23.371  1.00  0.00     0.008 C 
ENDBRANCH   1  27
BRANCH   4  30
ATOM     30  C   UNL     1      27.322  14.635 -20.046  1.00  0.00     0.163 C 
BRANCH  30  31
ATOM     31  O   UNL     1      26.558  15.698 -19.531  1.00  0.00    -0.396 OA
ATOM     32  H   UNL     1      25.628  15.582 -19.858  1.00  0.00     0.210 HD
ENDBRANCH  30  31
ENDBRANCH   4  30
BRANCH  13  33
ATOM     33  O   UNL     1      34.926   6.580 -18.102  1.00  0.00    -0.393 OA
ATOM     34  H   UNL     1      35.208   6.442 -19.045  1.00  0.00     0.210 HD
ENDBRANCH  13  33
TORSDOF 4
ENDMDL
