MODEL 1
REMARK VINA RESULT:    -3.023      0.000      0.000
REMARK INTER + INTRA:          -3.595
REMARK INTER:                  -3.553
REMARK INTRA:                  -0.042
REMARK UNBOUND:                -0.042
REMARK SMILES CCCCC(=O)[O-]
REMARK SMILES IDX 4 1 5 2 6 3 7 4 3 5 2 6 1 7
REMARK H PARENT
REMARK Flexibility Score: inf
ROOT
ATOM      1  C   UNL     1     189.283 196.829 173.080  1.00  0.00     0.053 C 
ENDROOT
BRANCH   1   2
ATOM      2  C   UNL     1     188.093 196.984 173.976  1.00  0.00     0.041 C 
ATOM      3  O   UNL     1     188.247 197.283 175.189  1.00  0.00    -0.550 OA
ATOM      4  O   UNL     1     186.814 196.765 173.479  1.00  0.00    -0.550 OA
ENDBRANCH   1   2
BRANCH   1   5
ATOM      5  C   UNL     1     188.876 196.581 171.618  1.00  0.00     0.006 C 
BRANCH   5   6
ATOM      6  C   UNL     1     189.803 197.243 170.584  1.00  0.00    -0.003 C 
ATOM      7  C   UNL     1     191.016 197.922 171.222  1.00  0.00     0.004 C 
ENDBRANCH   5   6
ENDBRANCH   1   5
TORSDOF 3
ENDMDL
MODEL 2
REMARK VINA RESULT:    -2.868      9.755     10.569
REMARK INTER + INTRA:          -3.413
REMARK INTER:                  -3.360
REMARK INTRA:                  -0.054
REMARK UNBOUND:                -0.042
REMARK SMILES CCCCC(=O)[O-]
REMARK SMILES IDX 4 1 5 2 6 3 7 4 3 5 2 6 1 7
REMARK H PARENT
REMARK Flexibility Score: inf
ROOT
ATOM      1  C   UNL     1     185.386 187.114 169.433  1.00  0.00     0.053 C 
ENDROOT
BRANCH   1   2
ATOM      2  C   UNL     1     183.999 187.564 169.776  1.00  0.00     0.041 C 
ATOM      3  O   UNL     1     183.359 188.304 168.984  1.00  0.00    -0.550 OA
ATOM      4  O   UNL     1     183.427 187.194 170.986  1.00  0.00    -0.550 OA
ENDBRANCH   1   2
BRANCH   1   5
ATOM      5  C   UNL     1     186.280 187.002 170.678  1.00  0.00     0.006 C 
BRANCH   5   6
ATOM      6  C   UNL     1     187.621 187.749 170.561  1.00  0.00    -0.003 C 
ATOM      7  C   UNL     1     187.447 189.231 170.224  1.00  0.00     0.004 C 
ENDBRANCH   5   6
ENDBRANCH   1   5
TORSDOF 3
ENDMDL
MODEL 3
REMARK VINA RESULT:    -2.867     10.503     11.118
REMARK INTER + INTRA:          -3.412
REMARK INTER:                  -3.315
REMARK INTRA:                  -0.097
REMARK UNBOUND:                -0.042
REMARK SMILES CCCCC(=O)[O-]
REMARK SMILES IDX 4 1 5 2 6 3 7 4 3 5 2 6 1 7
REMARK H PARENT
REMARK Flexibility Score: inf
ROOT
ATOM      1  C   UNL     1     183.625 187.996 169.051  1.00  0.00     0.053 C 
ENDROOT
BRANCH   1   2
ATOM      2  C   UNL     1     182.772 187.837 170.272  1.00  0.00     0.041 C 
ATOM      3  O   UNL     1     181.825 188.636 170.492  1.00  0.00    -0.550 OA
ATOM      4  O   UNL     1     183.045 186.827 171.185  1.00  0.00    -0.550 OA
ENDBRANCH   1   2
BRANCH   1   5
ATOM      5  C   UNL     1     184.870 187.095 169.097  1.00  0.00     0.006 C 
BRANCH   5   6
ATOM      6  C   UNL     1     186.099 187.750 169.752  1.00  0.00    -0.003 C 
ATOM      7  C   UNL     1     186.677 186.918 170.897  1.00  0.00     0.004 C 
ENDBRANCH   5   6
ENDBRANCH   1   5
TORSDOF 3
ENDMDL
MODEL 4
REMARK VINA RESULT:    -2.864     10.135     10.897
REMARK INTER + INTRA:          -3.408
REMARK INTER:                  -3.284
REMARK INTRA:                  -0.124
REMARK UNBOUND:                -0.042
REMARK SMILES CCCCC(=O)[O-]
REMARK SMILES IDX 4 1 5 2 6 3 7 4 3 5 2 6 1 7
REMARK H PARENT
REMARK Flexibility Score: inf
ROOT
ATOM      1  C   UNL     1     185.940 186.884 170.667  1.00  0.00     0.053 C 
ENDROOT
BRANCH   1   2
ATOM      2  C   UNL     1     185.559 186.502 169.269  1.00  0.00     0.041 C 
ATOM      3  O   UNL     1     184.823 187.258 168.584  1.00  0.00    -0.550 OA
ATOM      4  O   UNL     1     185.990 185.294 168.736  1.00  0.00    -0.550 OA
ENDBRANCH   1   2
BRANCH   1   5
ATOM      5  C   UNL     1     187.464 186.986 170.842  1.00  0.00     0.006 C 
BRANCH   5   6
ATOM      6  C   UNL     1     188.124 188.087 169.992  1.00  0.00    -0.003 C 
ATOM      7  C   UNL     1     187.526 189.471 170.244  1.00  0.00     0.004 C 
ENDBRANCH   5   6
ENDBRANCH   1   5
TORSDOF 3
ENDMDL
MODEL 5
REMARK VINA RESULT:    -2.804      9.931     10.491
REMARK INTER + INTRA:          -3.338
REMARK INTER:                  -3.263
REMARK INTRA:                  -0.075
REMARK UNBOUND:                -0.042
REMARK SMILES CCCCC(=O)[O-]
REMARK SMILES IDX 4 1 5 2 6 3 7 4 3 5 2 6 1 7
REMARK H PARENT
REMARK Flexibility Score: inf
ROOT
ATOM      1  C   UNL     1     187.946 186.223 170.750  1.00  0.00     0.053 C 
ENDROOT
BRANCH   1   2
ATOM      2  C   UNL     1     188.676 186.225 172.058  1.00  0.00     0.041 C 
ATOM      3  O   UNL     1     189.753 186.864 172.181  1.00  0.00    -0.550 OA
ATOM      4  O   UNL     1     188.184 185.492 173.130  1.00  0.00    -0.550 OA
ENDBRANCH   1   2
BRANCH   1   5
ATOM      5  C   UNL     1     186.592 186.945 170.845  1.00  0.00     0.006 C 
BRANCH   5   6
ATOM      6  C   UNL     1     186.459 188.161 169.910  1.00  0.00    -0.003 C 
ATOM      7  C   UNL     1     187.550 189.207 170.136  1.00  0.00     0.004 C 
ENDBRANCH   5   6
ENDBRANCH   1   5
TORSDOF 3
ENDMDL
MODEL 6
REMARK VINA RESULT:    -2.780     10.642     10.986
REMARK INTER + INTRA:          -3.310
REMARK INTER:                  -3.288
REMARK INTRA:                  -0.021
REMARK UNBOUND:                -0.042
REMARK SMILES CCCCC(=O)[O-]
REMARK SMILES IDX 4 1 5 2 6 3 7 4 3 5 2 6 1 7
REMARK H PARENT
REMARK Flexibility Score: inf
ROOT
ATOM      1  C   UNL     1     185.638 187.578 169.611  1.00  0.00     0.053 C 
ENDROOT
BRANCH   1   2
ATOM      2  C   UNL     1     184.142 187.582 169.693  1.00  0.00     0.041 C 
ATOM      3  O   UNL     1     183.564 187.194 170.741  1.00  0.00    -0.550 OA
ATOM      4  O   UNL     1     183.386 187.982 168.598  1.00  0.00    -0.550 OA
ENDBRANCH   1   2
BRANCH   1   5
ATOM      5  C   UNL     1     186.279 186.881 170.822  1.00  0.00     0.006 C 
BRANCH   5   6
ATOM      6  C   UNL     1     187.806 187.051 170.911  1.00  0.00    -0.003 C 
ATOM      7  C   UNL     1     188.445 186.144 171.963  1.00  0.00     0.004 C 
ENDBRANCH   5   6
ENDBRANCH   1   5
TORSDOF 3
ENDMDL
MODEL 7
REMARK VINA RESULT:    -2.770     10.904     11.635
REMARK INTER + INTRA:          -3.298
REMARK INTER:                  -3.178
REMARK INTRA:                  -0.119
REMARK UNBOUND:                -0.042
REMARK SMILES CCCCC(=O)[O-]
REMARK SMILES IDX 4 1 5 2 6 3 7 4 3 5 2 6 1 7
REMARK H PARENT
REMARK Flexibility Score: inf
ROOT
ATOM      1  C   UNL     1     186.278 187.487 169.124  1.00  0.00     0.053 C 
ENDROOT
BRANCH   1   2
ATOM      2  C   UNL     1     185.870 187.010 170.485  1.00  0.00     0.041 C 
ATOM      3  O   UNL     1     184.667 187.082 170.847  1.00  0.00    -0.550 OA
ATOM      4  O   UNL     1     186.825 186.519 171.365  1.00  0.00    -0.550 OA
ENDBRANCH   1   2
BRANCH   1   5
ATOM      5  C   UNL     1     185.859 186.503 168.020  1.00  0.00     0.006 C 
BRANCH   5   6
ATOM      6  C   UNL     1     186.413 185.078 168.201  1.00  0.00    -0.003 C 
ATOM      7  C   UNL     1     187.941 185.027 168.177  1.00  0.00     0.004 C 
ENDBRANCH   5   6
ENDBRANCH   1   5
TORSDOF 3
ENDMDL
MODEL 8
REMARK VINA RESULT:    -2.745     10.725     11.562
REMARK INTER + INTRA:          -3.268
REMARK INTER:                  -3.209
REMARK INTRA:                  -0.059
REMARK UNBOUND:                -0.042
REMARK SMILES CCCCC(=O)[O-]
REMARK SMILES IDX 4 1 5 2 6 3 7 4 3 5 2 6 1 7
REMARK H PARENT
REMARK Flexibility Score: inf
ROOT
ATOM      1  C   UNL     1     185.746 187.791 169.724  1.00  0.00     0.053 C 
ENDROOT
BRANCH   1   2
ATOM      2  C   UNL     1     184.265 187.563 169.729  1.00  0.00     0.041 C 
ATOM      3  O   UNL     1     183.580 187.827 168.707  1.00  0.00    -0.550 OA
ATOM      4  O   UNL     1     183.637 187.091 170.874  1.00  0.00    -0.550 OA
ENDBRANCH   1   2
BRANCH   1   5
ATOM      5  C   UNL     1     186.517 186.581 170.276  1.00  0.00     0.006 C 
BRANCH   5   6
ATOM      6  C   UNL     1     187.306 185.798 169.211  1.00  0.00    -0.003 C 
ATOM      7  C   UNL     1     186.413 184.912 168.342  1.00  0.00     0.004 C 
ENDBRANCH   5   6
ENDBRANCH   1   5
TORSDOF 3
ENDMDL
MODEL 9
REMARK VINA RESULT:    -2.738     10.213     10.962
REMARK INTER + INTRA:          -3.260
REMARK INTER:                  -3.127
REMARK INTRA:                  -0.133
REMARK UNBOUND:                -0.042
REMARK SMILES CCCCC(=O)[O-]
REMARK SMILES IDX 4 1 5 2 6 3 7 4 3 5 2 6 1 7
REMARK H PARENT
REMARK Flexibility Score: inf
ROOT
ATOM      1  C   UNL     1     186.316 186.986 170.784  1.00  0.00     0.053 C 
ENDROOT
BRANCH   1   2
ATOM      2  C   UNL     1     187.449 187.924 170.499  1.00  0.00     0.041 C 
ATOM      3  O   UNL     1     187.235 189.160 170.387  1.00  0.00    -0.550 OA
ATOM      4  O   UNL     1     188.734 187.430 170.323  1.00  0.00    -0.550 OA
ENDBRANCH   1   2
BRANCH   1   5
ATOM      5  C   UNL     1     185.297 186.947 169.634  1.00  0.00     0.006 C 
BRANCH   5   6
ATOM      6  C   UNL     1     185.868 186.423 168.304  1.00  0.00    -0.003 C 
ATOM      7  C   UNL     1     186.351 184.975 168.394  1.00  0.00     0.004 C 
ENDBRANCH   5   6
ENDBRANCH   1   5
TORSDOF 3
ENDMDL
