MODEL 1
REMARK VINA RESULT:    -3.411      0.000      0.000
REMARK INTER + INTRA:          -4.034
REMARK INTER:                  -4.009
REMARK INTRA:                  -0.025
REMARK UNBOUND:                -0.025
REMARK SMILES CCCCC(=O)[O-]
REMARK SMILES IDX 4 1 5 2 6 3 7 4 3 5 2 6 1 7
REMARK H PARENT
REMARK Flexibility Score: inf
ROOT
ATOM      1  C   UNL     1      -9.167  22.795  14.349  1.00  0.00     0.053 C 
ENDROOT
BRANCH   1   2
ATOM      2  C   UNL     1      -8.521  21.450  14.458  1.00  0.00     0.041 C 
ATOM      3  O   UNL     1      -9.217  20.429  14.699  1.00  0.00    -0.550 OA
ATOM      4  O   UNL     1      -7.141  21.330  14.342  1.00  0.00    -0.550 OA
ENDBRANCH   1   2
BRANCH   1   5
ATOM      5  C   UNL     1      -8.164  23.827  13.816  1.00  0.00     0.006 C 
BRANCH   5   6
ATOM      6  C   UNL     1      -8.465  25.250  14.313  1.00  0.00    -0.003 C 
ATOM      7  C   UNL     1      -9.025  26.154  13.215  1.00  0.00     0.004 C 
ENDBRANCH   5   6
ENDBRANCH   1   5
TORSDOF 3
ENDMDL
MODEL 2
REMARK VINA RESULT:    -3.396      2.842      4.235
REMARK INTER + INTRA:          -4.017
REMARK INTER:                  -4.002
REMARK INTRA:                  -0.015
REMARK UNBOUND:                -0.025
REMARK SMILES CCCCC(=O)[O-]
REMARK SMILES IDX 4 1 5 2 6 3 7 4 3 5 2 6 1 7
REMARK H PARENT
REMARK Flexibility Score: inf
ROOT
ATOM      1  C   UNL     1      -8.191  23.880  13.689  1.00  0.00     0.053 C 
ENDROOT
BRANCH   1   2
ATOM      2  C   UNL     1      -8.523  25.327  13.877  1.00  0.00     0.041 C 
ATOM      3  O   UNL     1      -8.958  26.008  12.912  1.00  0.00    -0.550 OA
ATOM      4  O   UNL     1      -8.306  25.935  15.107  1.00  0.00    -0.550 OA
ENDBRANCH   1   2
BRANCH   1   5
ATOM      5  C   UNL     1      -9.209  22.998  14.425  1.00  0.00     0.006 C 
BRANCH   5   6
ATOM      6  C   UNL     1      -9.054  21.509  14.083  1.00  0.00    -0.003 C 
ATOM      7  C   UNL     1      -8.237  20.745  15.125  1.00  0.00     0.004 C 
ENDBRANCH   5   6
ENDBRANCH   1   5
TORSDOF 3
ENDMDL
MODEL 3
REMARK VINA RESULT:    -3.210      1.543      2.051
REMARK INTER + INTRA:          -3.799
REMARK INTER:                  -3.774
REMARK INTRA:                  -0.024
REMARK UNBOUND:                -0.025
REMARK SMILES CCCCC(=O)[O-]
REMARK SMILES IDX 4 1 5 2 6 3 7 4 3 5 2 6 1 7
REMARK H PARENT
REMARK Flexibility Score: inf
ROOT
ATOM      1  C   UNL     1      -8.640  24.816  13.496  1.00  0.00     0.053 C 
ENDROOT
BRANCH   1   2
ATOM      2  C   UNL     1      -8.414  23.480  14.131  1.00  0.00     0.041 C 
ATOM      3  O   UNL     1      -9.388  22.726  14.386  1.00  0.00    -0.550 OA
ATOM      4  O   UNL     1      -7.129  23.088  14.485  1.00  0.00    -0.550 OA
ENDBRANCH   1   2
BRANCH   1   5
ATOM      5  C   UNL     1      -8.326  25.941  14.491  1.00  0.00     0.006 C 
BRANCH   5   6
ATOM      6  C   UNL     1      -8.336  27.329  13.833  1.00  0.00    -0.003 C 
ATOM      7  C   UNL     1      -9.417  27.468  12.761  1.00  0.00     0.004 C 
ENDBRANCH   5   6
ENDBRANCH   1   5
TORSDOF 3
ENDMDL
MODEL 4
REMARK VINA RESULT:    -3.079      3.060      4.040
REMARK INTER + INTRA:          -3.644
REMARK INTER:                  -3.628
REMARK INTRA:                  -0.016
REMARK UNBOUND:                -0.025
REMARK SMILES CCCCC(=O)[O-]
REMARK SMILES IDX 4 1 5 2 6 3 7 4 3 5 2 6 1 7
REMARK H PARENT
REMARK Flexibility Score: inf
ROOT
ATOM      1  C   UNL     1      -5.738  20.454  14.830  1.00  0.00     0.053 C 
ENDROOT
BRANCH   1   2
ATOM      2  C   UNL     1      -5.220  19.109  14.430  1.00  0.00     0.041 C 
ATOM      3  O   UNL     1      -4.456  18.993  13.436  1.00  0.00    -0.550 OA
ATOM      4  O   UNL     1      -5.622  17.975  15.124  1.00  0.00    -0.550 OA
ENDBRANCH   1   2
BRANCH   1   5
ATOM      5  C   UNL     1      -7.202  20.614  14.400  1.00  0.00     0.006 C 
BRANCH   5   6
ATOM      6  C   UNL     1      -7.741  22.029  14.656  1.00  0.00    -0.003 C 
ATOM      7  C   UNL     1      -9.232  22.160  14.345  1.00  0.00     0.004 C 
ENDBRANCH   5   6
ENDBRANCH   1   5
TORSDOF 3
ENDMDL
MODEL 5
REMARK VINA RESULT:    -2.809      1.798      2.462
REMARK INTER + INTRA:          -3.327
REMARK INTER:                  -3.257
REMARK INTRA:                  -0.070
REMARK UNBOUND:                -0.025
REMARK SMILES CCCCC(=O)[O-]
REMARK SMILES IDX 4 1 5 2 6 3 7 4 3 5 2 6 1 7
REMARK H PARENT
REMARK Flexibility Score: inf
ROOT
ATOM      1  C   UNL     1      -7.692  20.935  14.013  1.00  0.00     0.053 C 
ENDROOT
BRANCH   1   2
ATOM      2  C   UNL     1      -6.442  20.421  14.654  1.00  0.00     0.041 C 
ATOM      3  O   UNL     1      -6.272  19.184  14.810  1.00  0.00    -0.550 OA
ATOM      4  O   UNL     1      -5.485  21.312  15.125  1.00  0.00    -0.550 OA
ENDBRANCH   1   2
BRANCH   1   5
ATOM      5  C   UNL     1      -8.514  21.749  15.021  1.00  0.00     0.006 C 
BRANCH   5   6
ATOM      6  C   UNL     1      -9.175  22.981  14.384  1.00  0.00    -0.003 C 
ATOM      7  C   UNL     1      -8.177  23.869  13.641  1.00  0.00     0.004 C 
ENDBRANCH   5   6
ENDBRANCH   1   5
TORSDOF 3
ENDMDL
MODEL 6
REMARK VINA RESULT:    -2.697      6.295      7.918
REMARK INTER + INTRA:          -3.195
REMARK INTER:                  -3.173
REMARK INTRA:                  -0.022
REMARK UNBOUND:                -0.025
REMARK SMILES CCCCC(=O)[O-]
REMARK SMILES IDX 4 1 5 2 6 3 7 4 3 5 2 6 1 7
REMARK H PARENT
REMARK Flexibility Score: inf
ROOT
ATOM      1  C   UNL     1      -3.637  18.663  13.192  1.00  0.00     0.053 C 
ENDROOT
BRANCH   1   2
ATOM      2  C   UNL     1      -4.807  18.741  14.121  1.00  0.00     0.041 C 
ATOM      3  O   UNL     1      -5.053  17.793  14.912  1.00  0.00    -0.550 OA
ATOM      4  O   UNL     1      -5.656  19.840  14.079  1.00  0.00    -0.550 OA
ENDBRANCH   1   2
BRANCH   1   5
ATOM      5  C   UNL     1      -2.838  17.378  13.446  1.00  0.00     0.006 C 
BRANCH   5   6
ATOM      6  C   UNL     1      -1.623  17.247  12.514  1.00  0.00    -0.003 C 
ATOM      7  C   UNL     1      -1.793  16.140  11.473  1.00  0.00     0.004 C 
ENDBRANCH   5   6
ENDBRANCH   1   5
TORSDOF 3
ENDMDL
MODEL 7
REMARK VINA RESULT:    -2.561     15.444     16.659
REMARK INTER + INTRA:          -3.036
REMARK INTER:                  -2.956
REMARK INTRA:                  -0.080
REMARK UNBOUND:                -0.025
REMARK SMILES CCCCC(=O)[O-]
REMARK SMILES IDX 4 1 5 2 6 3 7 4 3 5 2 6 1 7
REMARK H PARENT
REMARK Flexibility Score: inf
ROOT
ATOM      1  C   UNL     1     -12.422  10.867   5.594  1.00  0.00     0.053 C 
ENDROOT
BRANCH   1   2
ATOM      2  C   UNL     1     -13.659  10.865   6.435  1.00  0.00     0.041 C 
ATOM      3  O   UNL     1     -13.806  10.009   7.346  1.00  0.00    -0.550 OA
ATOM      4  O   UNL     1     -14.674  11.779   6.180  1.00  0.00    -0.550 OA
ENDBRANCH   1   2
BRANCH   1   5
ATOM      5  C   UNL     1     -12.263   9.521   4.874  1.00  0.00     0.006 C 
BRANCH   5   6
ATOM      6  C   UNL     1     -13.282   9.336   3.740  1.00  0.00    -0.003 C 
ATOM      7  C   UNL     1     -12.620   9.061   2.390  1.00  0.00     0.004 C 
ENDBRANCH   5   6
ENDBRANCH   1   5
TORSDOF 3
ENDMDL
MODEL 8
REMARK VINA RESULT:    -2.557      8.563      9.754
REMARK INTER + INTRA:          -3.031
REMARK INTER:                  -3.014
REMARK INTRA:                  -0.017
REMARK UNBOUND:                -0.025
REMARK SMILES CCCCC(=O)[O-]
REMARK SMILES IDX 4 1 5 2 6 3 7 4 3 5 2 6 1 7
REMARK H PARENT
REMARK Flexibility Score: inf
ROOT
ATOM      1  C   UNL     1      -1.781  16.101  11.357  1.00  0.00     0.053 C 
ENDROOT
BRANCH   1   2
ATOM      2  C   UNL     1      -2.062  14.631  11.346  1.00  0.00     0.041 C 
ATOM      3  O   UNL     1      -1.603  13.891  12.255  1.00  0.00    -0.550 OA
ATOM      4  O   UNL     1      -2.790  14.070  10.304  1.00  0.00    -0.550 OA
ENDBRANCH   1   2
BRANCH   1   5
ATOM      5  C   UNL     1      -2.067  16.689  12.745  1.00  0.00     0.006 C 
BRANCH   5   6
ATOM      6  C   UNL     1      -2.246  18.214  12.713  1.00  0.00    -0.003 C 
ATOM      7  C   UNL     1      -3.659  18.652  13.098  1.00  0.00     0.004 C 
ENDBRANCH   5   6
ENDBRANCH   1   5
TORSDOF 3
ENDMDL
MODEL 9
REMARK VINA RESULT:    -2.538     15.565     16.385
REMARK INTER + INTRA:          -3.008
REMARK INTER:                  -2.933
REMARK INTRA:                  -0.075
REMARK UNBOUND:                -0.025
REMARK SMILES CCCCC(=O)[O-]
REMARK SMILES IDX 4 1 5 2 6 3 7 4 3 5 2 6 1 7
REMARK H PARENT
REMARK Flexibility Score: inf
ROOT
ATOM      1  C   UNL     1     -13.221  10.289   4.212  1.00  0.00     0.053 C 
ENDROOT
BRANCH   1   2
ATOM      2  C   UNL     1     -12.569  10.532   5.536  1.00  0.00     0.041 C 
ATOM      3  O   UNL     1     -12.620   9.656   6.439  1.00  0.00    -0.550 OA
ATOM      4  O   UNL     1     -11.945  11.747   5.791  1.00  0.00    -0.550 OA
ENDBRANCH   1   2
BRANCH   1   5
ATOM      5  C   UNL     1     -14.720  10.019   4.396  1.00  0.00     0.006 C 
BRANCH   5   6
ATOM      6  C   UNL     1     -15.451  11.189   5.072  1.00  0.00    -0.003 C 
ATOM      7  C   UNL     1     -16.732  11.589   4.340  1.00  0.00     0.004 C 
ENDBRANCH   5   6
ENDBRANCH   1   5
TORSDOF 3
ENDMDL
