MODEL 1
REMARK VINA RESULT:    -4.255      0.000      0.000
REMARK INTER + INTRA:          -6.784
REMARK INTER:                  -6.245
REMARK INTRA:                  -0.540
REMARK UNBOUND:                -0.540
REMARK SMILES O=C([O-])CCCCCCCC(=O)[O-]
REMARK SMILES IDX 7 1 6 2 5 3 4 4 2 5 1 6 3 7 8 8 9 9 10 10 11 11 12 12 13 13
REMARK H PARENT
REMARK Flexibility Score: inf
ROOT
ATOM      1  C   UNL     1      14.604 -30.405  21.376  1.00  0.00     0.000 C 
ENDROOT
BRANCH   1   2
ATOM      2  C   UNL     1      13.207 -31.018  21.178  1.00  0.00     0.000 C 
BRANCH   2   3
ATOM      3  C   UNL     1      12.186 -30.521  22.219  1.00  0.00     0.006 C 
BRANCH   3   4
ATOM      4  C   UNL     1      12.813 -29.906  23.481  1.00  0.00     0.053 C 
BRANCH   4   5
ATOM      5  C   UNL     1      12.311 -28.518  23.739  1.00  0.00     0.041 C 
ATOM      6  O   UNL     1      11.146 -28.191  23.393  1.00  0.00    -0.550 OA
ATOM      7  O   UNL     1      13.143 -27.578  24.334  1.00  0.00    -0.550 OA
ENDBRANCH   4   5
ENDBRANCH   3   4
ENDBRANCH   2   3
ENDBRANCH   1   2
BRANCH   1   8
ATOM      8  C   UNL     1      15.701 -31.467  21.577  1.00  0.00     0.000 C 
BRANCH   8   9
ATOM      9  C   UNL     1      15.635 -32.238  22.911  1.00  0.00     0.006 C 
BRANCH   9  10
ATOM     10  C   UNL     1      14.969 -33.620  22.819  1.00  0.00     0.053 C 
BRANCH  10  11
ATOM     11  C   UNL     1      15.430 -34.386  21.618  1.00  0.00     0.041 C 
ATOM     12  O   UNL     1      16.491 -35.062  21.668  1.00  0.00    -0.550 OA
ATOM     13  O   UNL     1      14.671 -34.380  20.454  1.00  0.00    -0.550 OA
ENDBRANCH  10  11
ENDBRANCH   9  10
ENDBRANCH   8   9
ENDBRANCH   1   8
TORSDOF 8
ENDMDL
MODEL 2
REMARK VINA RESULT:    -4.194      2.206      6.021
REMARK INTER + INTRA:          -6.695
REMARK INTER:                  -6.028
REMARK INTRA:                  -0.668
REMARK UNBOUND:                -0.540
REMARK SMILES O=C([O-])CCCCCCCC(=O)[O-]
REMARK SMILES IDX 7 1 6 2 5 3 4 4 2 5 1 6 3 7 8 8 9 9 10 10 11 11 12 12 13 13
REMARK H PARENT
REMARK Flexibility Score: inf
ROOT
ATOM      1  C   UNL     1      16.005 -32.921  23.371  1.00  0.00     0.000 C 
ENDROOT
BRANCH   1   2
ATOM      2  C   UNL     1      16.257 -33.277  21.896  1.00  0.00     0.000 C 
BRANCH   2   3
ATOM      3  C   UNL     1      15.153 -34.174  21.304  1.00  0.00     0.006 C 
BRANCH   3   4
ATOM      4  C   UNL     1      15.230 -34.353  19.779  1.00  0.00     0.053 C 
BRANCH   4   5
ATOM      5  C   UNL     1      16.439 -35.134  19.364  1.00  0.00     0.041 C 
ATOM      6  O   UNL     1      16.490 -36.376  19.562  1.00  0.00    -0.550 OA
ATOM      7  O   UNL     1      17.522 -34.483  18.788  1.00  0.00    -0.550 OA
ENDBRANCH   4   5
ENDBRANCH   3   4
ENDBRANCH   2   3
ENDBRANCH   1   2
BRANCH   1   8
ATOM      8  C   UNL     1      14.616 -33.366  23.866  1.00  0.00     0.000 C 
BRANCH   8   9
ATOM      9  C   UNL     1      13.621 -32.223  24.150  1.00  0.00     0.006 C 
BRANCH   9  10
ATOM     10  C   UNL     1      13.908 -30.921  23.385  1.00  0.00     0.053 C 
BRANCH  10  11
ATOM     11  C   UNL     1      13.192 -30.872  22.071  1.00  0.00     0.041 C 
ATOM     12  O   UNL     1      11.933 -30.905  22.034  1.00  0.00    -0.550 OA
ATOM     13  O   UNL     1      13.912 -30.757  20.889  1.00  0.00    -0.550 OA
ENDBRANCH  10  11
ENDBRANCH   9  10
ENDBRANCH   8   9
ENDBRANCH   1   8
TORSDOF 8
ENDMDL
MODEL 3
REMARK VINA RESULT:    -4.191      2.104      3.114
REMARK INTER + INTRA:          -6.691
REMARK INTER:                  -6.041
REMARK INTRA:                  -0.650
REMARK UNBOUND:                -0.540
REMARK SMILES O=C([O-])CCCCCCCC(=O)[O-]
REMARK SMILES IDX 7 1 6 2 5 3 4 4 2 5 1 6 3 7 8 8 9 9 10 10 11 11 12 12 13 13
REMARK H PARENT
REMARK Flexibility Score: inf
ROOT
ATOM      1  C   UNL     1      16.010 -32.579  23.288  1.00  0.00     0.000 C 
ENDROOT
BRANCH   1   2
ATOM      2  C   UNL     1      14.909 -33.245  24.131  1.00  0.00     0.000 C 
BRANCH   2   3
ATOM      3  C   UNL     1      13.584 -32.460  24.107  1.00  0.00     0.006 C 
BRANCH   3   4
ATOM      4  C   UNL     1      13.677 -31.077  23.441  1.00  0.00     0.053 C 
BRANCH   4   5
ATOM      5  C   UNL     1      12.825 -30.985  22.213  1.00  0.00     0.041 C 
ATOM      6  O   UNL     1      13.150 -31.607  21.168  1.00  0.00    -0.550 OA
ATOM      7  O   UNL     1      11.688 -30.187  22.214  1.00  0.00    -0.550 OA
ENDBRANCH   4   5
ENDBRANCH   3   4
ENDBRANCH   2   3
ENDBRANCH   1   2
BRANCH   1   8
ATOM      8  C   UNL     1      16.400 -33.408  22.050  1.00  0.00     0.000 C 
BRANCH   8   9
ATOM      9  C   UNL     1      15.319 -34.385  21.544  1.00  0.00     0.006 C 
BRANCH   9  10
ATOM     10  C   UNL     1      15.130 -34.397  20.019  1.00  0.00     0.053 C 
BRANCH  10  11
ATOM     11  C   UNL     1      16.335 -34.931  19.309  1.00  0.00     0.041 C 
ATOM     12  O   UNL     1      17.068 -34.159  18.636  1.00  0.00    -0.550 OA
ATOM     13  O   UNL     1      16.668 -36.276  19.416  1.00  0.00    -0.550 OA
ENDBRANCH  10  11
ENDBRANCH   9  10
ENDBRANCH   8   9
ENDBRANCH   1   8
TORSDOF 8
ENDMDL
MODEL 4
REMARK VINA RESULT:    -4.191      1.676      6.731
REMARK INTER + INTRA:          -6.691
REMARK INTER:                  -6.372
REMARK INTRA:                  -0.320
REMARK UNBOUND:                -0.540
REMARK SMILES O=C([O-])CCCCCCCC(=O)[O-]
REMARK SMILES IDX 7 1 6 2 5 3 4 4 2 5 1 6 3 7 8 8 9 9 10 10 11 11 12 12 13 13
REMARK H PARENT
REMARK Flexibility Score: inf
ROOT
ATOM      1  C   UNL     1      13.851 -32.541  20.745  1.00  0.00     0.000 C 
ENDROOT
BRANCH   1   2
ATOM      2  C   UNL     1      14.589 -33.298  21.863  1.00  0.00     0.000 C 
BRANCH   2   3
ATOM      3  C   UNL     1      15.618 -34.306  21.319  1.00  0.00     0.006 C 
BRANCH   3   4
ATOM      4  C   UNL     1      15.744 -34.323  19.787  1.00  0.00     0.053 C 
BRANCH   4   5
ATOM      5  C   UNL     1      16.834 -35.239  19.322  1.00  0.00     0.041 C 
ATOM      6  O   UNL     1      17.898 -34.767  18.843  1.00  0.00    -0.550 OA
ATOM      7  O   UNL     1      16.660 -36.616  19.387  1.00  0.00    -0.550 OA
ENDBRANCH   4   5
ENDBRANCH   3   4
ENDBRANCH   2   3
ENDBRANCH   1   2
BRANCH   1   8
ATOM      8  C   UNL     1      12.983 -31.385  21.275  1.00  0.00     0.000 C 
BRANCH   8   9
ATOM      9  C   UNL     1      13.723 -30.359  22.157  1.00  0.00     0.006 C 
BRANCH   9  10
ATOM     10  C   UNL     1      13.190 -30.248  23.595  1.00  0.00     0.053 C 
BRANCH  10  11
ATOM     11  C   UNL     1      12.385 -29.001  23.800  1.00  0.00     0.041 C 
ATOM     12  O   UNL     1      12.744 -28.150  24.657  1.00  0.00    -0.550 OA
ATOM     13  O   UNL     1      11.259 -28.763  23.023  1.00  0.00    -0.550 OA
ENDBRANCH  10  11
ENDBRANCH   9  10
ENDBRANCH   8   9
ENDBRANCH   1   8
TORSDOF 8
ENDMDL
MODEL 5
REMARK VINA RESULT:    -4.174      1.832      2.590
REMARK INTER + INTRA:          -6.665
REMARK INTER:                  -6.306
REMARK INTRA:                  -0.360
REMARK UNBOUND:                -0.540
REMARK SMILES O=C([O-])CCCCCCCC(=O)[O-]
REMARK SMILES IDX 7 1 6 2 5 3 4 4 2 5 1 6 3 7 8 8 9 9 10 10 11 11 12 12 13 13
REMARK H PARENT
REMARK Flexibility Score: inf
ROOT
ATOM      1  C   UNL     1      14.633 -32.549  21.788  1.00  0.00     0.000 C 
ENDROOT
BRANCH   1   2
ATOM      2  C   UNL     1      13.555 -32.063  20.805  1.00  0.00     0.000 C 
BRANCH   2   3
ATOM      3  C   UNL     1      12.569 -31.070  21.448  1.00  0.00     0.006 C 
BRANCH   3   4
ATOM      4  C   UNL     1      12.799 -30.825  22.948  1.00  0.00     0.053 C 
BRANCH   4   5
ATOM      5  C   UNL     1      13.097 -29.387  23.244  1.00  0.00     0.041 C 
ATOM      6  O   UNL     1      13.978 -28.774  22.586  1.00  0.00    -0.550 OA
ATOM      7  O   UNL     1      12.424 -28.735  24.269  1.00  0.00    -0.550 OA
ENDBRANCH   4   5
ENDBRANCH   3   4
ENDBRANCH   2   3
ENDBRANCH   1   2
BRANCH   1   8
ATOM      8  C   UNL     1      15.005 -34.030  21.586  1.00  0.00     0.000 C 
BRANCH   8   9
ATOM      9  C   UNL     1      15.030 -34.508  20.120  1.00  0.00     0.006 C 
BRANCH   9  10
ATOM     10  C   UNL     1      16.438 -34.692  19.531  1.00  0.00     0.053 C 
BRANCH  10  11
ATOM     11  C   UNL     1      16.992 -36.054  19.817  1.00  0.00     0.041 C 
ATOM     12  O   UNL     1      17.087 -36.905  18.893  1.00  0.00    -0.550 OA
ATOM     13  O   UNL     1      17.434 -36.372  21.095  1.00  0.00    -0.550 OA
ENDBRANCH  10  11
ENDBRANCH   9  10
ENDBRANCH   8   9
ENDBRANCH   1   8
TORSDOF 8
ENDMDL
MODEL 6
REMARK VINA RESULT:    -4.154      2.039      6.650
REMARK INTER + INTRA:          -6.636
REMARK INTER:                  -6.214
REMARK INTRA:                  -0.422
REMARK UNBOUND:                -0.540
REMARK SMILES O=C([O-])CCCCCCCC(=O)[O-]
REMARK SMILES IDX 7 1 6 2 5 3 4 4 2 5 1 6 3 7 8 8 9 9 10 10 11 11 12 12 13 13
REMARK H PARENT
REMARK Flexibility Score: inf
ROOT
ATOM      1  C   UNL     1      14.484 -33.051  21.006  1.00  0.00     0.000 C 
ENDROOT
BRANCH   1   2
ATOM      2  C   UNL     1      14.698 -34.209  20.017  1.00  0.00     0.000 C 
BRANCH   2   3
ATOM      3  C   UNL     1      16.188 -34.494  19.748  1.00  0.00     0.006 C 
BRANCH   3   4
ATOM      4  C   UNL     1      16.549 -35.987  19.689  1.00  0.00     0.053 C 
BRANCH   4   5
ATOM      5  C   UNL     1      17.294 -36.435  20.909  1.00  0.00     0.041 C 
ATOM      6  O   UNL     1      17.374 -35.681  21.915  1.00  0.00    -0.550 OA
ATOM      7  O   UNL     1      17.927 -37.671  20.922  1.00  0.00    -0.550 OA
ENDBRANCH   4   5
ENDBRANCH   3   4
ENDBRANCH   2   3
ENDBRANCH   1   2
BRANCH   1   8
ATOM      8  C   UNL     1      14.781 -33.445  22.465  1.00  0.00     0.000 C 
BRANCH   8   9
ATOM      9  C   UNL     1      14.327 -32.424  23.528  1.00  0.00     0.006 C 
BRANCH   9  10
ATOM     10  C   UNL     1      14.353 -30.960  23.061  1.00  0.00     0.053 C 
BRANCH  10  11
ATOM     11  C   UNL     1      13.002 -30.319  23.151  1.00  0.00     0.041 C 
ATOM     12  O   UNL     1      12.118 -30.580  22.293  1.00  0.00    -0.550 OA
ATOM     13  O   UNL     1      12.709 -29.458  24.201  1.00  0.00    -0.550 OA
ENDBRANCH  10  11
ENDBRANCH   9  10
ENDBRANCH   8   9
ENDBRANCH   1   8
TORSDOF 8
ENDMDL
MODEL 7
REMARK VINA RESULT:    -4.124      1.526      5.246
REMARK INTER + INTRA:          -6.592
REMARK INTER:                  -5.917
REMARK INTRA:                  -0.675
REMARK UNBOUND:                -0.540
REMARK SMILES O=C([O-])CCCCCCCC(=O)[O-]
REMARK SMILES IDX 7 1 6 2 5 3 4 4 2 5 1 6 3 7 8 8 9 9 10 10 11 11 12 12 13 13
REMARK H PARENT
REMARK Flexibility Score: inf
ROOT
ATOM      1  C   UNL     1      16.273 -29.805  21.991  1.00  0.00     0.000 C 
ENDROOT
BRANCH   1   2
ATOM      2  C   UNL     1      16.262 -31.321  21.727  1.00  0.00     0.000 C 
BRANCH   2   3
ATOM      3  C   UNL     1      16.238 -32.150  23.025  1.00  0.00     0.006 C 
BRANCH   3   4
ATOM      4  C   UNL     1      15.256 -33.331  23.008  1.00  0.00     0.053 C 
BRANCH   4   5
ATOM      5  C   UNL     1      15.619 -34.350  21.971  1.00  0.00     0.041 C 
ATOM      6  O   UNL     1      14.904 -34.492  20.945  1.00  0.00    -0.550 OA
ATOM      7  O   UNL     1      16.729 -35.164  22.156  1.00  0.00    -0.550 OA
ENDBRANCH   4   5
ENDBRANCH   3   4
ENDBRANCH   2   3
ENDBRANCH   1   2
BRANCH   1   8
ATOM      8  C   UNL     1      14.891 -29.154  21.804  1.00  0.00     0.000 C 
BRANCH   8   9
ATOM      9  C   UNL     1      14.038 -29.040  23.084  1.00  0.00     0.006 C 
BRANCH   9  10
ATOM     10  C   UNL     1      13.142 -30.256  23.367  1.00  0.00     0.053 C 
BRANCH  10  11
ATOM     11  C   UNL     1      12.298 -30.617  22.184  1.00  0.00     0.041 C 
ATOM     12  O   UNL     1      11.188 -30.049  22.001  1.00  0.00    -0.550 OA
ATOM     13  O   UNL     1      12.749 -31.557  21.266  1.00  0.00    -0.550 OA
ENDBRANCH  10  11
ENDBRANCH   9  10
ENDBRANCH   8   9
ENDBRANCH   1   8
TORSDOF 8
ENDMDL
MODEL 8
REMARK VINA RESULT:    -4.104      1.250      5.720
REMARK INTER + INTRA:          -6.563
REMARK INTER:                  -6.003
REMARK INTRA:                  -0.561
REMARK UNBOUND:                -0.540
REMARK SMILES O=C([O-])CCCCCCCC(=O)[O-]
REMARK SMILES IDX 7 1 6 2 5 3 4 4 2 5 1 6 3 7 8 8 9 9 10 10 11 11 12 12 13 13
REMARK H PARENT
REMARK Flexibility Score: inf
ROOT
ATOM      1  C   UNL     1      16.450 -30.599  23.211  1.00  0.00     0.000 C 
ENDROOT
BRANCH   1   2
ATOM      2  C   UNL     1      16.667 -32.095  23.499  1.00  0.00     0.000 C 
BRANCH   2   3
ATOM      3  C   UNL     1      16.771 -32.939  22.215  1.00  0.00     0.006 C 
BRANCH   3   4
ATOM      4  C   UNL     1      15.894 -34.201  22.211  1.00  0.00     0.053 C 
BRANCH   4   5
ATOM      5  C   UNL     1      14.998 -34.260  21.012  1.00  0.00     0.041 C 
ATOM      6  O   UNL     1      15.113 -35.198  20.180  1.00  0.00    -0.550 OA
ATOM      7  O   UNL     1      14.058 -33.260  20.797  1.00  0.00    -0.550 OA
ENDBRANCH   4   5
ENDBRANCH   3   4
ENDBRANCH   2   3
ENDBRANCH   1   2
BRANCH   1   8
ATOM      8  C   UNL     1      15.767 -30.343  21.855  1.00  0.00     0.000 C 
BRANCH   8   9
ATOM      9  C   UNL     1      14.310 -29.844  21.937  1.00  0.00     0.006 C 
BRANCH   9  10
ATOM     10  C   UNL     1      13.597 -30.166  23.260  1.00  0.00     0.053 C 
BRANCH  10  11
ATOM     11  C   UNL     1      12.528 -29.166  23.579  1.00  0.00     0.041 C 
ATOM     12  O   UNL     1      12.675 -28.368  24.543  1.00  0.00    -0.550 OA
ATOM     13  O   UNL     1      11.386 -29.092  22.792  1.00  0.00    -0.550 OA
ENDBRANCH  10  11
ENDBRANCH   9  10
ENDBRANCH   8   9
ENDBRANCH   1   8
TORSDOF 8
ENDMDL
MODEL 9
REMARK VINA RESULT:    -4.096      2.673      3.289
REMARK INTER + INTRA:          -6.551
REMARK INTER:                  -5.944
REMARK INTRA:                  -0.607
REMARK UNBOUND:                -0.540
REMARK SMILES O=C([O-])CCCCCCCC(=O)[O-]
REMARK SMILES IDX 7 1 6 2 5 3 4 4 2 5 1 6 3 7 8 8 9 9 10 10 11 11 12 12 13 13
REMARK H PARENT
REMARK Flexibility Score: inf
ROOT
ATOM      1  C   UNL     1      12.886 -31.219  21.143  1.00  0.00     0.000 C 
ENDROOT
BRANCH   1   2
ATOM      2  C   UNL     1      13.147 -31.311  22.657  1.00  0.00     0.000 C 
BRANCH   2   3
ATOM      3  C   UNL     1      13.886 -30.078  23.209  1.00  0.00     0.006 C 
BRANCH   3   4
ATOM      4  C   UNL     1      14.962 -29.507  22.271  1.00  0.00     0.053 C 
BRANCH   4   5
ATOM      5  C   UNL     1      16.286 -30.183  22.456  1.00  0.00     0.041 C 
ATOM      6  O   UNL     1      16.569 -30.730  23.554  1.00  0.00    -0.550 OA
ATOM      7  O   UNL     1      17.219 -30.178  21.427  1.00  0.00    -0.550 OA
ENDBRANCH   4   5
ENDBRANCH   3   4
ENDBRANCH   2   3
ENDBRANCH   1   2
BRANCH   1   8
ATOM      8  C   UNL     1      13.484 -32.401  20.359  1.00  0.00     0.000 C 
BRANCH   8   9
ATOM      9  C   UNL     1      14.534 -33.234  21.123  1.00  0.00     0.006 C 
BRANCH   9  10
ATOM     10  C   UNL     1      14.952 -34.536  20.421  1.00  0.00     0.053 C 
BRANCH  10  11
ATOM     11  C   UNL     1      16.334 -34.447  19.850  1.00  0.00     0.041 C 
ATOM     12  O   UNL     1      17.052 -33.440  20.085  1.00  0.00    -0.550 OA
ATOM     13  O   UNL     1      16.840 -35.491  19.086  1.00  0.00    -0.550 OA
ENDBRANCH  10  11
ENDBRANCH   9  10
ENDBRANCH   8   9
ENDBRANCH   1   8
TORSDOF 8
ENDMDL
