MODEL 1
REMARK VINA RESULT:    -4.246      0.000      0.000
REMARK INTER + INTRA:         -12.494
REMARK INTER:                  -9.210
REMARK INTRA:                  -3.284
REMARK UNBOUND:                -3.284
REMARK SMILES CCCCCCCCCCCCCCCCCCCCCC(=O)[O-]
REMARK SMILES IDX 12 1 11 2 10 3 9 4 8 5 7 6 6 7 5 8 4 9 3 10 2 11 1 12 13 13
REMARK SMILES IDX 14 14 15 15 16 16 17 17 18 18 19 19 20 20 21 21 22 22 23 23
REMARK SMILES IDX 24 24
REMARK H PARENT
REMARK Flexibility Score: inf
ROOT
ATOM      1  C   UNL     1      47.699  -4.811  72.675  1.00  0.00     0.000 C 
ENDROOT
BRANCH   1   2
ATOM      2  C   UNL     1      46.825  -6.079  72.664  1.00  0.00     0.000 C 
BRANCH   2   3
ATOM      3  C   UNL     1      45.747  -6.138  73.762  1.00  0.00     0.000 C 
BRANCH   3   4
ATOM      4  C   UNL     1      45.396  -7.573  74.183  1.00  0.00    -0.000 C 
BRANCH   4   5
ATOM      5  C   UNL     1      45.663  -7.787  75.681  1.00  0.00    -0.000 C 
BRANCH   5   6
ATOM      6  C   UNL     1      46.515  -6.668  76.301  1.00  0.00    -0.000 C 
BRANCH   6   7
ATOM      7  C   UNL     1      47.263  -7.057  77.591  1.00  0.00    -0.000 C 
BRANCH   7   8
ATOM      8  C   UNL     1      48.723  -7.502  77.358  1.00  0.00    -0.000 C 
BRANCH   8   9
ATOM      9  C   UNL     1      49.714  -6.777  78.284  1.00  0.00    -0.000 C 
BRANCH   9  10
ATOM     10  C   UNL     1      49.120  -5.505  78.915  1.00  0.00    -0.000 C 
BRANCH  10  11
ATOM     11  C   UNL     1      50.133  -4.348  79.036  1.00  0.00    -0.003 C 
ATOM     12  C   UNL     1      51.557  -4.784  78.694  1.00  0.00     0.004 C 
ENDBRANCH  10  11
ENDBRANCH   9  10
ENDBRANCH   8   9
ENDBRANCH   7   8
ENDBRANCH   6   7
ENDBRANCH   5   6
ENDBRANCH   4   5
ENDBRANCH   3   4
ENDBRANCH   2   3
ENDBRANCH   1   2
BRANCH   1  13
ATOM     13  C   UNL     1      49.200  -5.121  72.810  1.00  0.00     0.000 C 
BRANCH  13  14
ATOM     14  C   UNL     1      49.616  -5.382  74.267  1.00  0.00     0.000 C 
BRANCH  14  15
ATOM     15  C   UNL     1      49.097  -4.301  75.231  1.00  0.00     0.000 C 
BRANCH  15  16
ATOM     16  C   UNL     1      50.150  -3.222  75.547  1.00  0.00     0.000 C 
BRANCH  16  17
ATOM     17  C   UNL     1      49.630  -1.774  75.524  1.00  0.00     0.000 C 
BRANCH  17  18
ATOM     18  C   UNL     1      48.638  -1.511  74.378  1.00  0.00     0.000 C 
BRANCH  18  19
ATOM     19  C   UNL     1      49.153  -0.463  73.380  1.00  0.00     0.000 C 
BRANCH  19  20
ATOM     20  C   UNL     1      49.423  -1.055  71.985  1.00  0.00     0.006 C 
BRANCH  20  21
ATOM     21  C   UNL     1      50.676  -1.941  71.967  1.00  0.00     0.053 C 
BRANCH  21  22
ATOM     22  C   UNL     1      51.921  -1.151  72.229  1.00  0.00     0.041 C 
ATOM     23  O   UNL     1      52.002   0.049  71.854  1.00  0.00    -0.550 OA
ATOM     24  O   UNL     1      52.981  -1.730  72.915  1.00  0.00    -0.550 OA
ENDBRANCH  21  22
ENDBRANCH  20  21
ENDBRANCH  19  20
ENDBRANCH  18  19
ENDBRANCH  17  18
ENDBRANCH  16  17
ENDBRANCH  15  16
ENDBRANCH  14  15
ENDBRANCH  13  14
ENDBRANCH   1  13
TORSDOF 20
ENDMDL
MODEL 2
REMARK VINA RESULT:    -4.241      1.286      2.172
REMARK INTER + INTRA:         -12.484
REMARK INTER:                  -9.462
REMARK INTRA:                  -3.022
REMARK UNBOUND:                -3.284
REMARK SMILES CCCCCCCCCCCCCCCCCCCCCC(=O)[O-]
REMARK SMILES IDX 12 1 11 2 10 3 9 4 8 5 7 6 6 7 5 8 4 9 3 10 2 11 1 12 13 13
REMARK SMILES IDX 14 14 15 15 16 16 17 17 18 18 19 19 20 20 21 21 22 22 23 23
REMARK SMILES IDX 24 24
REMARK H PARENT
REMARK Flexibility Score: inf
ROOT
ATOM      1  C   UNL     1      48.944  -4.194  73.963  1.00  0.00     0.000 C 
ENDROOT
BRANCH   1   2
ATOM      2  C   UNL     1      48.094  -4.473  72.710  1.00  0.00     0.000 C 
BRANCH   2   3
ATOM      3  C   UNL     1      47.145  -5.681  72.821  1.00  0.00     0.000 C 
BRANCH   3   4
ATOM      4  C   UNL     1      47.812  -7.007  72.425  1.00  0.00    -0.000 C 
BRANCH   4   5
ATOM      5  C   UNL     1      47.962  -7.932  73.642  1.00  0.00    -0.000 C 
BRANCH   5   6
ATOM      6  C   UNL     1      47.268  -7.383  74.899  1.00  0.00    -0.000 C 
BRANCH   6   7
ATOM      7  C   UNL     1      48.160  -7.299  76.153  1.00  0.00    -0.000 C 
BRANCH   7   8
ATOM      8  C   UNL     1      47.391  -6.947  77.445  1.00  0.00    -0.000 C 
BRANCH   8   9
ATOM      9  C   UNL     1      48.331  -6.611  78.615  1.00  0.00    -0.000 C 
BRANCH   9  10
ATOM     10  C   UNL     1      48.375  -5.107  78.933  1.00  0.00    -0.000 C 
BRANCH  10  11
ATOM     11  C   UNL     1      49.792  -4.502  78.850  1.00  0.00    -0.003 C 
ATOM     12  C   UNL     1      50.865  -5.565  78.617  1.00  0.00     0.004 C 
ENDBRANCH  10  11
ENDBRANCH   9  10
ENDBRANCH   8   9
ENDBRANCH   7   8
ENDBRANCH   6   7
ENDBRANCH   5   6
ENDBRANCH   4   5
ENDBRANCH   3   4
ENDBRANCH   2   3
ENDBRANCH   1   2
BRANCH   1  13
ATOM     13  C   UNL     1      48.104  -3.711  75.159  1.00  0.00     0.000 C 
BRANCH  13  14
ATOM     14  C   UNL     1      48.648  -2.407  75.768  1.00  0.00     0.000 C 
BRANCH  14  15
ATOM     15  C   UNL     1      47.542  -1.367  76.017  1.00  0.00     0.000 C 
BRANCH  15  16
ATOM     16  C   UNL     1      47.770  -0.052  75.248  1.00  0.00     0.000 C 
BRANCH  16  17
ATOM     17  C   UNL     1      48.944  -0.072  74.253  1.00  0.00     0.000 C 
BRANCH  17  18
ATOM     18  C   UNL     1      48.485  -0.147  72.786  1.00  0.00     0.000 C 
BRANCH  18  19
ATOM     19  C   UNL     1      49.376  -1.066  71.935  1.00  0.00     0.000 C 
BRANCH  19  20
ATOM     20  C   UNL     1      50.878  -0.806  72.156  1.00  0.00     0.006 C 
BRANCH  20  21
ATOM     21  C   UNL     1      51.654  -2.103  72.423  1.00  0.00     0.053 C 
BRANCH  21  22
ATOM     22  C   UNL     1      53.126  -1.855  72.547  1.00  0.00     0.041 C 
ATOM     23  O   UNL     1      53.721  -1.129  71.707  1.00  0.00    -0.550 OA
ATOM     24  O   UNL     1      53.836  -2.400  73.610  1.00  0.00    -0.550 OA
ENDBRANCH  21  22
ENDBRANCH  20  21
ENDBRANCH  19  20
ENDBRANCH  18  19
ENDBRANCH  17  18
ENDBRANCH  16  17
ENDBRANCH  15  16
ENDBRANCH  14  15
ENDBRANCH  13  14
ENDBRANCH   1  13
TORSDOF 20
ENDMDL
MODEL 3
REMARK VINA RESULT:    -4.229      2.734      4.595
REMARK INTER + INTRA:         -12.457
REMARK INTER:                  -9.143
REMARK INTRA:                  -3.315
REMARK UNBOUND:                -3.284
REMARK SMILES CCCCCCCCCCCCCCCCCCCCCC(=O)[O-]
REMARK SMILES IDX 12 1 11 2 10 3 9 4 8 5 7 6 6 7 5 8 4 9 3 10 2 11 1 12 13 13
REMARK SMILES IDX 14 14 15 15 16 16 17 17 18 18 19 19 20 20 21 21 22 22 23 23
REMARK SMILES IDX 24 24
REMARK H PARENT
REMARK Flexibility Score: inf
ROOT
ATOM      1  C   UNL     1      51.779  -3.005  72.770  1.00  0.00     0.000 C 
ENDROOT
BRANCH   1   2
ATOM      2  C   UNL     1      50.657  -3.864  72.157  1.00  0.00     0.000 C 
BRANCH   2   3
ATOM      3  C   UNL     1      49.737  -4.559  73.178  1.00  0.00     0.000 C 
BRANCH   3   4
ATOM      4  C   UNL     1      48.254  -4.515  72.777  1.00  0.00    -0.000 C 
BRANCH   4   5
ATOM      5  C   UNL     1      47.348  -4.733  73.999  1.00  0.00    -0.000 C 
BRANCH   5   6
ATOM      6  C   UNL     1      48.033  -5.540  75.113  1.00  0.00    -0.000 C 
BRANCH   6   7
ATOM      7  C   UNL     1      47.291  -5.547  76.464  1.00  0.00    -0.000 C 
BRANCH   7   8
ATOM      8  C   UNL     1      47.517  -6.828  77.295  1.00  0.00    -0.000 C 
BRANCH   8   9
ATOM      9  C   UNL     1      48.036  -6.525  78.712  1.00  0.00    -0.000 C 
BRANCH   9  10
ATOM     10  C   UNL     1      49.369  -5.757  78.707  1.00  0.00    -0.000 C 
BRANCH  10  11
ATOM     11  C   UNL     1      50.573  -6.616  78.269  1.00  0.00    -0.003 C 
ATOM     12  C   UNL     1      51.910  -5.941  78.572  1.00  0.00     0.004 C 
ENDBRANCH  10  11
ENDBRANCH   9  10
ENDBRANCH   8   9
ENDBRANCH   7   8
ENDBRANCH   6   7
ENDBRANCH   5   6
ENDBRANCH   4   5
ENDBRANCH   3   4
ENDBRANCH   2   3
ENDBRANCH   1   2
BRANCH   1  13
ATOM     13  C   UNL     1      51.586  -1.500  72.512  1.00  0.00     0.000 C 
BRANCH  13  14
ATOM     14  C   UNL     1      50.141  -1.154  72.115  1.00  0.00     0.000 C 
BRANCH  14  15
ATOM     15  C   UNL     1      49.432  -0.283  73.167  1.00  0.00     0.000 C 
BRANCH  15  16
ATOM     16  C   UNL     1      48.636  -1.110  74.194  1.00  0.00     0.000 C 
BRANCH  16  17
ATOM     17  C   UNL     1      49.147  -1.021  75.643  1.00  0.00     0.000 C 
BRANCH  17  18
ATOM     18  C   UNL     1      49.388  -2.400  76.280  1.00  0.00     0.000 C 
BRANCH  18  19
ATOM     19  C   UNL     1      50.864  -2.638  76.633  1.00  0.00     0.000 C 
BRANCH  19  20
ATOM     20  C   UNL     1      51.332  -1.792  77.831  1.00  0.00     0.006 C 
BRANCH  20  21
ATOM     21  C   UNL     1      51.215  -2.555  79.157  1.00  0.00     0.053 C 
BRANCH  21  22
ATOM     22  C   UNL     1      52.350  -2.239  80.082  1.00  0.00     0.041 C 
ATOM     23  O   UNL     1      53.091  -3.161  80.517  1.00  0.00    -0.550 OA
ATOM     24  O   UNL     1      52.610  -0.923  80.441  1.00  0.00    -0.550 OA
ENDBRANCH  21  22
ENDBRANCH  20  21
ENDBRANCH  19  20
ENDBRANCH  18  19
ENDBRANCH  17  18
ENDBRANCH  16  17
ENDBRANCH  15  16
ENDBRANCH  14  15
ENDBRANCH  13  14
ENDBRANCH   1  13
TORSDOF 20
ENDMDL
MODEL 4
REMARK VINA RESULT:    -4.214      2.055      3.549
REMARK INTER + INTRA:         -12.426
REMARK INTER:                  -9.691
REMARK INTRA:                  -2.735
REMARK UNBOUND:                -3.284
REMARK SMILES CCCCCCCCCCCCCCCCCCCCCC(=O)[O-]
REMARK SMILES IDX 12 1 11 2 10 3 9 4 8 5 7 6 6 7 5 8 4 9 3 10 2 11 1 12 13 13
REMARK SMILES IDX 14 14 15 15 16 16 17 17 18 18 19 19 20 20 21 21 22 22 23 23
REMARK SMILES IDX 24 24
REMARK H PARENT
REMARK Flexibility Score: inf
ROOT
ATOM      1  C   UNL     1      47.804  -4.626  72.628  1.00  0.00     0.000 C 
ENDROOT
BRANCH   1   2
ATOM      2  C   UNL     1      47.126  -5.984  72.888  1.00  0.00     0.000 C 
BRANCH   2   3
ATOM      3  C   UNL     1      46.515  -6.150  74.292  1.00  0.00     0.000 C 
BRANCH   3   4
ATOM      4  C   UNL     1      46.144  -4.811  74.947  1.00  0.00    -0.000 C 
BRANCH   4   5
ATOM      5  C   UNL     1      47.171  -4.421  76.021  1.00  0.00    -0.000 C 
BRANCH   5   6
ATOM      6  C   UNL     1      47.483  -2.916  76.030  1.00  0.00    -0.000 C 
BRANCH   6   7
ATOM      7  C   UNL     1      48.949  -2.551  75.724  1.00  0.00    -0.000 C 
BRANCH   7   8
ATOM      8  C   UNL     1      49.937  -2.937  76.846  1.00  0.00    -0.000 C 
BRANCH   8   9
ATOM      9  C   UNL     1      49.335  -2.746  78.249  1.00  0.00    -0.000 C 
BRANCH   9  10
ATOM     10  C   UNL     1      49.818  -3.806  79.255  1.00  0.00    -0.000 C 
BRANCH  10  11
ATOM     11  C   UNL     1      49.215  -5.205  79.012  1.00  0.00    -0.003 C 
ATOM     12  C   UNL     1      50.269  -6.225  78.581  1.00  0.00     0.004 C 
ENDBRANCH  10  11
ENDBRANCH   9  10
ENDBRANCH   8   9
ENDBRANCH   7   8
ENDBRANCH   6   7
ENDBRANCH   5   6
ENDBRANCH   4   5
ENDBRANCH   3   4
ENDBRANCH   2   3
ENDBRANCH   1   2
BRANCH   1  13
ATOM     13  C   UNL     1      49.340  -4.716  72.623  1.00  0.00     0.000 C 
BRANCH  13  14
ATOM     14  C   UNL     1      50.004  -3.374  72.274  1.00  0.00     0.000 C 
BRANCH  14  15
ATOM     15  C   UNL     1      48.983  -2.234  72.113  1.00  0.00     0.000 C 
BRANCH  15  16
ATOM     16  C   UNL     1      49.626  -0.837  72.186  1.00  0.00     0.000 C 
BRANCH  16  17
ATOM     17  C   UNL     1      51.021  -0.791  72.834  1.00  0.00     0.000 C 
BRANCH  17  18
ATOM     18  C   UNL     1      52.099  -0.219  71.898  1.00  0.00     0.000 C 
BRANCH  18  19
ATOM     19  C   UNL     1      53.391  -1.049  71.907  1.00  0.00     0.000 C 
BRANCH  19  20
ATOM     20  C   UNL     1      53.408  -2.110  73.023  1.00  0.00     0.006 C 
BRANCH  20  21
ATOM     21  C   UNL     1      53.822  -3.492  72.500  1.00  0.00     0.053 C 
BRANCH  21  22
ATOM     22  C   UNL     1      54.375  -4.356  73.591  1.00  0.00     0.041 C 
ATOM     23  O   UNL     1      55.606  -4.333  73.857  1.00  0.00    -0.550 OA
ATOM     24  O   UNL     1      53.526  -5.166  74.336  1.00  0.00    -0.550 OA
ENDBRANCH  21  22
ENDBRANCH  20  21
ENDBRANCH  19  20
ENDBRANCH  18  19
ENDBRANCH  17  18
ENDBRANCH  16  17
ENDBRANCH  15  16
ENDBRANCH  14  15
ENDBRANCH  13  14
ENDBRANCH   1  13
TORSDOF 20
ENDMDL
MODEL 5
REMARK VINA RESULT:    -4.192      3.234      6.068
REMARK INTER + INTRA:         -12.378
REMARK INTER:                  -9.078
REMARK INTRA:                  -3.300
REMARK UNBOUND:                -3.284
REMARK SMILES CCCCCCCCCCCCCCCCCCCCCC(=O)[O-]
REMARK SMILES IDX 12 1 11 2 10 3 9 4 8 5 7 6 6 7 5 8 4 9 3 10 2 11 1 12 13 13
REMARK SMILES IDX 14 14 15 15 16 16 17 17 18 18 19 19 20 20 21 21 22 22 23 23
REMARK SMILES IDX 24 24
REMARK H PARENT
REMARK Flexibility Score: inf
ROOT
ATOM      1  C   UNL     1      52.918  -1.258  72.192  1.00  0.00     0.000 C 
ENDROOT
BRANCH   1   2
ATOM      2  C   UNL     1      51.744  -0.264  72.111  1.00  0.00     0.000 C 
BRANCH   2   3
ATOM      3  C   UNL     1      50.354  -0.909  71.955  1.00  0.00     0.000 C 
BRANCH   3   4
ATOM      4  C   UNL     1      49.376  -0.504  73.069  1.00  0.00    -0.000 C 
BRANCH   4   5
ATOM      5  C   UNL     1      48.618  -1.728  73.605  1.00  0.00    -0.000 C 
BRANCH   5   6
ATOM      6  C   UNL     1      48.659  -1.831  75.138  1.00  0.00    -0.000 C 
BRANCH   6   7
ATOM      7  C   UNL     1      50.057  -2.082  75.737  1.00  0.00    -0.000 C 
BRANCH   7   8
ATOM      8  C   UNL     1      50.156  -3.376  76.574  1.00  0.00    -0.000 C 
BRANCH   8   9
ATOM      9  C   UNL     1      48.961  -3.552  77.528  1.00  0.00    -0.000 C 
BRANCH   9  10
ATOM     10  C   UNL     1      49.276  -4.477  78.716  1.00  0.00    -0.000 C 
BRANCH  10  11
ATOM     11  C   UNL     1      48.223  -5.584  78.930  1.00  0.00    -0.003 C 
ATOM     12  C   UNL     1      48.681  -6.935  78.382  1.00  0.00     0.004 C 
ENDBRANCH  10  11
ENDBRANCH   9  10
ENDBRANCH   8   9
ENDBRANCH   7   8
ENDBRANCH   6   7
ENDBRANCH   5   6
ENDBRANCH   4   5
ENDBRANCH   3   4
ENDBRANCH   2   3
ENDBRANCH   1   2
BRANCH   1  13
ATOM     13  C   UNL     1      52.826  -2.192  73.412  1.00  0.00     0.000 C 
BRANCH  13  14
ATOM     14  C   UNL     1      53.112  -3.659  73.049  1.00  0.00     0.000 C 
BRANCH  14  15
ATOM     15  C   UNL     1      52.030  -4.618  73.574  1.00  0.00     0.000 C 
BRANCH  15  16
ATOM     16  C   UNL     1      50.654  -4.388  72.920  1.00  0.00     0.000 C 
BRANCH  16  17
ATOM     17  C   UNL     1      49.540  -5.341  73.386  1.00  0.00     0.000 C 
BRANCH  17  18
ATOM     18  C   UNL     1      48.343  -5.381  72.422  1.00  0.00     0.000 C 
BRANCH  18  19
ATOM     19  C   UNL     1      47.008  -5.617  73.146  1.00  0.00     0.000 C 
BRANCH  19  20
ATOM     20  C   UNL     1      47.032  -5.132  74.607  1.00  0.00     0.006 C 
BRANCH  20  21
ATOM     21  C   UNL     1      45.619  -4.960  75.181  1.00  0.00     0.053 C 
BRANCH  21  22
ATOM     22  C   UNL     1      45.004  -6.275  75.549  1.00  0.00     0.041 C 
ATOM     23  O   UNL     1      43.758  -6.439  75.463  1.00  0.00    -0.550 OA
ATOM     24  O   UNL     1      45.810  -7.331  75.956  1.00  0.00    -0.550 OA
ENDBRANCH  21  22
ENDBRANCH  20  21
ENDBRANCH  19  20
ENDBRANCH  18  19
ENDBRANCH  17  18
ENDBRANCH  16  17
ENDBRANCH  15  16
ENDBRANCH  14  15
ENDBRANCH  13  14
ENDBRANCH   1  13
TORSDOF 20
ENDMDL
MODEL 6
REMARK VINA RESULT:    -4.185      3.020      5.232
REMARK INTER + INTRA:         -12.362
REMARK INTER:                  -8.956
REMARK INTRA:                  -3.406
REMARK UNBOUND:                -3.284
REMARK SMILES CCCCCCCCCCCCCCCCCCCCCC(=O)[O-]
REMARK SMILES IDX 12 1 11 2 10 3 9 4 8 5 7 6 6 7 5 8 4 9 3 10 2 11 1 12 13 13
REMARK SMILES IDX 14 14 15 15 16 16 17 17 18 18 19 19 20 20 21 21 22 22 23 23
REMARK SMILES IDX 24 24
REMARK H PARENT
REMARK Flexibility Score: inf
ROOT
ATOM      1  C   UNL     1      53.869  -3.375  73.338  1.00  0.00     0.000 C 
ENDROOT
BRANCH   1   2
ATOM      2  C   UNL     1      53.429  -4.795  73.742  1.00  0.00     0.000 C 
BRANCH   2   3
ATOM      3  C   UNL     1      52.221  -4.856  74.695  1.00  0.00     0.000 C 
BRANCH   3   4
ATOM      4  C   UNL     1      51.383  -6.132  74.521  1.00  0.00    -0.000 C 
BRANCH   4   5
ATOM      5  C   UNL     1      51.227  -6.874  75.858  1.00  0.00    -0.000 C 
BRANCH   5   6
ATOM      6  C   UNL     1      52.268  -6.444  76.903  1.00  0.00    -0.000 C 
BRANCH   6   7
ATOM      7  C   UNL     1      51.718  -6.248  78.330  1.00  0.00    -0.000 C 
BRANCH   7   8
ATOM      8  C   UNL     1      50.179  -6.329  78.423  1.00  0.00    -0.000 C 
BRANCH   8   9
ATOM      9  C   UNL     1      49.554  -5.029  78.959  1.00  0.00    -0.000 C 
BRANCH   9  10
ATOM     10  C   UNL     1      50.234  -3.766  78.404  1.00  0.00    -0.000 C 
BRANCH  10  11
ATOM     11  C   UNL     1      49.688  -3.326  77.030  1.00  0.00    -0.003 C 
ATOM     12  C   UNL     1      50.499  -2.182  76.422  1.00  0.00     0.004 C 
ENDBRANCH  10  11
ENDBRANCH   9  10
ENDBRANCH   8   9
ENDBRANCH   7   8
ENDBRANCH   6   7
ENDBRANCH   5   6
ENDBRANCH   4   5
ENDBRANCH   3   4
ENDBRANCH   2   3
ENDBRANCH   1   2
BRANCH   1  13
ATOM     13  C   UNL     1      52.718  -2.355  73.391  1.00  0.00     0.000 C 
BRANCH  13  14
ATOM     14  C   UNL     1      52.793  -1.327  72.249  1.00  0.00     0.000 C 
BRANCH  14  15
ATOM     15  C   UNL     1      51.528  -0.457  72.155  1.00  0.00     0.000 C 
BRANCH  15  16
ATOM     16  C   UNL     1      50.285  -1.250  71.709  1.00  0.00     0.000 C 
BRANCH  16  17
ATOM     17  C   UNL     1      49.022  -1.019  72.558  1.00  0.00     0.000 C 
BRANCH  17  18
ATOM     18  C   UNL     1      48.605  -2.263  73.362  1.00  0.00     0.000 C 
BRANCH  18  19
ATOM     19  C   UNL     1      49.203  -3.560  72.796  1.00  0.00     0.000 C 
BRANCH  19  20
ATOM     20  C   UNL     1      48.255  -4.764  72.943  1.00  0.00     0.006 C 
BRANCH  20  21
ATOM     21  C   UNL     1      47.546  -4.777  74.304  1.00  0.00     0.053 C 
BRANCH  21  22
ATOM     22  C   UNL     1      46.179  -5.383  74.214  1.00  0.00     0.041 C 
ATOM     23  O   UNL     1      45.911  -6.214  73.306  1.00  0.00    -0.550 OA
ATOM     24  O   UNL     1      45.208  -5.054  75.152  1.00  0.00    -0.550 OA
ENDBRANCH  21  22
ENDBRANCH  20  21
ENDBRANCH  19  20
ENDBRANCH  18  19
ENDBRANCH  17  18
ENDBRANCH  16  17
ENDBRANCH  15  16
ENDBRANCH  14  15
ENDBRANCH  13  14
ENDBRANCH   1  13
TORSDOF 20
ENDMDL
MODEL 7
REMARK VINA RESULT:    -4.097      3.009      5.495
REMARK INTER + INTRA:         -12.170
REMARK INTER:                  -8.573
REMARK INTRA:                  -3.597
REMARK UNBOUND:                -3.284
REMARK SMILES CCCCCCCCCCCCCCCCCCCCCC(=O)[O-]
REMARK SMILES IDX 12 1 11 2 10 3 9 4 8 5 7 6 6 7 5 8 4 9 3 10 2 11 1 12 13 13
REMARK SMILES IDX 14 14 15 15 16 16 17 17 18 18 19 19 20 20 21 21 22 22 23 23
REMARK SMILES IDX 24 24
REMARK H PARENT
REMARK Flexibility Score: inf
ROOT
ATOM      1  C   UNL     1      53.065  -2.620  72.601  1.00  0.00     0.000 C 
ENDROOT
BRANCH   1   2
ATOM      2  C   UNL     1      52.488  -3.075  73.955  1.00  0.00     0.000 C 
BRANCH   2   3
ATOM      3  C   UNL     1      51.878  -4.489  73.962  1.00  0.00     0.000 C 
BRANCH   3   4
ATOM      4  C   UNL     1      51.114  -4.806  75.256  1.00  0.00    -0.000 C 
BRANCH   4   5
ATOM      5  C   UNL     1      51.147  -3.611  76.221  1.00  0.00    -0.000 C 
BRANCH   5   6
ATOM      6  C   UNL     1      49.908  -3.543  77.129  1.00  0.00    -0.000 C 
BRANCH   6   7
ATOM      7  C   UNL     1      50.156  -3.929  78.601  1.00  0.00    -0.000 C 
BRANCH   7   8
ATOM      8  C   UNL     1      50.494  -5.421  78.808  1.00  0.00    -0.000 C 
BRANCH   8   9
ATOM      9  C   UNL     1      49.271  -6.333  78.612  1.00  0.00    -0.000 C 
BRANCH   9  10
ATOM     10  C   UNL     1      49.478  -7.381  77.505  1.00  0.00    -0.000 C 
BRANCH  10  11
ATOM     11  C   UNL     1      48.396  -7.338  76.406  1.00  0.00    -0.003 C 
ATOM     12  C   UNL     1      47.495  -6.109  76.526  1.00  0.00     0.004 C 
ENDBRANCH  10  11
ENDBRANCH   9  10
ENDBRANCH   8   9
ENDBRANCH   7   8
ENDBRANCH   6   7
ENDBRANCH   5   6
ENDBRANCH   4   5
ENDBRANCH   3   4
ENDBRANCH   2   3
ENDBRANCH   1   2
BRANCH   1  13
ATOM     13  C   UNL     1      52.696  -1.168  72.251  1.00  0.00     0.000 C 
BRANCH  13  14
ATOM     14  C   UNL     1      51.263  -0.809  72.678  1.00  0.00     0.000 C 
BRANCH  14  15
ATOM     15  C   UNL     1      50.221  -1.158  71.601  1.00  0.00     0.000 C 
BRANCH  15  16
ATOM     16  C   UNL     1      48.846  -1.523  72.190  1.00  0.00     0.000 C 
BRANCH  16  17
ATOM     17  C   UNL     1      48.862  -1.962  73.665  1.00  0.00     0.000 C 
BRANCH  17  18
ATOM     18  C   UNL     1      48.277  -3.369  73.878  1.00  0.00     0.000 C 
BRANCH  18  19
ATOM     19  C   UNL     1      48.308  -4.221  72.600  1.00  0.00     0.000 C 
BRANCH  19  20
ATOM     20  C   UNL     1      47.438  -5.487  72.710  1.00  0.00     0.006 C 
BRANCH  20  21
ATOM     21  C   UNL     1      48.284  -6.766  72.768  1.00  0.00     0.053 C 
BRANCH  21  22
ATOM     22  C   UNL     1      47.497  -7.973  72.359  1.00  0.00     0.041 C 
ATOM     23  O   UNL     1      46.951  -8.700  73.231  1.00  0.00    -0.550 OA
ATOM     24  O   UNL     1      47.339  -8.277  71.013  1.00  0.00    -0.550 OA
ENDBRANCH  21  22
ENDBRANCH  20  21
ENDBRANCH  19  20
ENDBRANCH  18  19
ENDBRANCH  17  18
ENDBRANCH  16  17
ENDBRANCH  15  16
ENDBRANCH  14  15
ENDBRANCH  13  14
ENDBRANCH   1  13
TORSDOF 20
ENDMDL
MODEL 8
REMARK VINA RESULT:    -4.074      3.102      6.643
REMARK INTER + INTRA:         -12.120
REMARK INTER:                  -8.556
REMARK INTRA:                  -3.564
REMARK UNBOUND:                -3.284
REMARK SMILES CCCCCCCCCCCCCCCCCCCCCC(=O)[O-]
REMARK SMILES IDX 12 1 11 2 10 3 9 4 8 5 7 6 6 7 5 8 4 9 3 10 2 11 1 12 13 13
REMARK SMILES IDX 14 14 15 15 16 16 17 17 18 18 19 19 20 20 21 21 22 22 23 23
REMARK SMILES IDX 24 24
REMARK H PARENT
REMARK Flexibility Score: inf
ROOT
ATOM      1  C   UNL     1      50.045  -0.998  71.690  1.00  0.00     0.000 C 
ENDROOT
BRANCH   1   2
ATOM      2  C   UNL     1      51.319  -0.412  72.327  1.00  0.00     0.000 C 
BRANCH   2   3
ATOM      3  C   UNL     1      52.635  -1.082  71.887  1.00  0.00     0.000 C 
BRANCH   3   4
ATOM      4  C   UNL     1      53.245  -1.979  72.975  1.00  0.00    -0.000 C 
BRANCH   4   5
ATOM      5  C   UNL     1      52.612  -3.379  72.951  1.00  0.00    -0.000 C 
BRANCH   5   6
ATOM      6  C   UNL     1      51.881  -3.725  74.258  1.00  0.00    -0.000 C 
BRANCH   6   7
ATOM      7  C   UNL     1      50.594  -4.556  74.085  1.00  0.00    -0.000 C 
BRANCH   7   8
ATOM      8  C   UNL     1      50.010  -4.514  72.656  1.00  0.00    -0.000 C 
BRANCH   8   9
ATOM      9  C   UNL     1      48.709  -5.325  72.530  1.00  0.00    -0.000 C 
BRANCH   9  10
ATOM     10  C   UNL     1      47.504  -4.627  73.184  1.00  0.00    -0.000 C 
BRANCH  10  11
ATOM     11  C   UNL     1      46.826  -5.472  74.282  1.00  0.00    -0.003 C 
ATOM     12  C   UNL     1      46.325  -4.618  75.447  1.00  0.00     0.004 C 
ENDBRANCH  10  11
ENDBRANCH   9  10
ENDBRANCH   8   9
ENDBRANCH   7   8
ENDBRANCH   6   7
ENDBRANCH   5   6
ENDBRANCH   4   5
ENDBRANCH   3   4
ENDBRANCH   2   3
ENDBRANCH   1   2
BRANCH   1  13
ATOM     13  C   UNL     1      48.887  -1.139  72.693  1.00  0.00     0.000 C 
BRANCH  13  14
ATOM     14  C   UNL     1      49.338  -0.913  74.145  1.00  0.00     0.000 C 
BRANCH  14  15
ATOM     15  C   UNL     1      48.489  -1.703  75.157  1.00  0.00     0.000 C 
BRANCH  15  16
ATOM     16  C   UNL     1      48.906  -1.450  76.618  1.00  0.00     0.000 C 
BRANCH  16  17
ATOM     17  C   UNL     1      50.288  -2.002  77.008  1.00  0.00     0.000 C 
BRANCH  17  18
ATOM     18  C   UNL     1      50.216  -3.081  78.103  1.00  0.00     0.000 C 
BRANCH  18  19
ATOM     19  C   UNL     1      48.780  -3.560  78.366  1.00  0.00     0.000 C 
BRANCH  19  20
ATOM     20  C   UNL     1      48.666  -5.095  78.417  1.00  0.00     0.006 C 
BRANCH  20  21
ATOM     21  C   UNL     1      50.030  -5.767  78.623  1.00  0.00     0.053 C 
BRANCH  21  22
ATOM     22  C   UNL     1      49.947  -7.254  78.464  1.00  0.00     0.041 C 
ATOM     23  O   UNL     1      48.840  -7.845  78.582  1.00  0.00    -0.550 OA
ATOM     24  O   UNL     1      51.086  -7.986  78.155  1.00  0.00    -0.550 OA
ENDBRANCH  21  22
ENDBRANCH  20  21
ENDBRANCH  19  20
ENDBRANCH  18  19
ENDBRANCH  17  18
ENDBRANCH  16  17
ENDBRANCH  15  16
ENDBRANCH  14  15
ENDBRANCH  13  14
ENDBRANCH   1  13
TORSDOF 20
ENDMDL
MODEL 9
REMARK VINA RESULT:    -4.062      2.809      6.925
REMARK INTER + INTRA:         -12.095
REMARK INTER:                  -9.182
REMARK INTRA:                  -2.912
REMARK UNBOUND:                -3.284
REMARK SMILES CCCCCCCCCCCCCCCCCCCCCC(=O)[O-]
REMARK SMILES IDX 12 1 11 2 10 3 9 4 8 5 7 6 6 7 5 8 4 9 3 10 2 11 1 12 13 13
REMARK SMILES IDX 14 14 15 15 16 16 17 17 18 18 19 19 20 20 21 21 22 22 23 23
REMARK SMILES IDX 24 24
REMARK H PARENT
REMARK Flexibility Score: inf
ROOT
ATOM      1  C   UNL     1      47.850  -4.865  74.445  1.00  0.00     0.000 C 
ENDROOT
BRANCH   1   2
ATOM      2  C   UNL     1      48.542  -3.496  74.307  1.00  0.00     0.000 C 
BRANCH   2   3
ATOM      3  C   UNL     1      49.428  -3.091  75.501  1.00  0.00     0.000 C 
BRANCH   3   4
ATOM      4  C   UNL     1      49.487  -1.571  75.716  1.00  0.00    -0.000 C 
BRANCH   4   5
ATOM      5  C   UNL     1      48.074  -0.968  75.767  1.00  0.00    -0.000 C 
BRANCH   5   6
ATOM      6  C   UNL     1      47.874   0.169  74.754  1.00  0.00    -0.000 C 
BRANCH   6   7
ATOM      7  C   UNL     1      48.976   0.289  73.681  1.00  0.00    -0.000 C 
BRANCH   7   8
ATOM      8  C   UNL     1      48.619  -0.387  72.340  1.00  0.00    -0.000 C 
BRANCH   8   9
ATOM      9  C   UNL     1      49.825  -1.096  71.700  1.00  0.00    -0.000 C 
BRANCH   9  10
ATOM     10  C   UNL     1      51.171  -0.610  72.265  1.00  0.00    -0.000 C 
BRANCH  10  11
ATOM     11  C   UNL     1      52.105  -1.757  72.703  1.00  0.00    -0.003 C 
ATOM     12  C   UNL     1      53.514  -1.612  72.130  1.00  0.00     0.004 C 
ENDBRANCH  10  11
ENDBRANCH   9  10
ENDBRANCH   8   9
ENDBRANCH   7   8
ENDBRANCH   6   7
ENDBRANCH   5   6
ENDBRANCH   4   5
ENDBRANCH   3   4
ENDBRANCH   2   3
ENDBRANCH   1   2
BRANCH   1  13
ATOM     13  C   UNL     1      47.599  -5.263  75.910  1.00  0.00     0.000 C 
BRANCH  13  14
ATOM     14  C   UNL     1      47.526  -6.787  76.098  1.00  0.00     0.000 C 
BRANCH  14  15
ATOM     15  C   UNL     1      47.217  -7.188  77.551  1.00  0.00     0.000 C 
BRANCH  15  16
ATOM     16  C   UNL     1      48.152  -6.512  78.572  1.00  0.00     0.000 C 
BRANCH  16  17
ATOM     17  C   UNL     1      49.617  -6.979  78.528  1.00  0.00     0.000 C 
BRANCH  17  18
ATOM     18  C   UNL     1      50.619  -5.812  78.526  1.00  0.00     0.000 C 
BRANCH  18  19
ATOM     19  C   UNL     1      49.975  -4.480  78.946  1.00  0.00     0.000 C 
BRANCH  19  20
ATOM     20  C   UNL     1      50.970  -3.305  78.915  1.00  0.00     0.006 C 
BRANCH  20  21
ATOM     21  C   UNL     1      50.961  -2.508  80.226  1.00  0.00     0.053 C 
BRANCH  21  22
ATOM     22  C   UNL     1      49.659  -1.799  80.438  1.00  0.00     0.041 C 
ATOM     23  O   UNL     1      49.103  -1.815  81.569  1.00  0.00    -0.550 OA
ATOM     24  O   UNL     1      49.073  -1.093  79.395  1.00  0.00    -0.550 OA
ENDBRANCH  21  22
ENDBRANCH  20  21
ENDBRANCH  19  20
ENDBRANCH  18  19
ENDBRANCH  17  18
ENDBRANCH  16  17
ENDBRANCH  15  16
ENDBRANCH  14  15
ENDBRANCH  13  14
ENDBRANCH   1  13
TORSDOF 20
ENDMDL
