MODEL 1
REMARK VINA RESULT:    -3.464      0.000      0.000
REMARK INTER + INTRA:          -4.035
REMARK INTER:                  -4.071
REMARK INTRA:                   0.036
REMARK UNBOUND:                 0.036
REMARK SMILES O=C([O-])CCC(=O)[O-]
REMARK SMILES IDX 4 1 2 2 1 3 3 4 5 5 6 6 7 7 8 8
REMARK H PARENT
REMARK Flexibility Score: inf
ROOT
ATOM      1  C   UNL     1      -4.410 -10.218  -4.877  1.00  0.00     0.059 C 
ENDROOT
BRANCH   1   2
ATOM      2  C   UNL     1      -3.872  -9.420  -6.025  1.00  0.00     0.042 C 
ATOM      3  O   UNL     1      -2.917  -8.618  -5.847  1.00  0.00    -0.550 OA
ATOM      4  O   UNL     1      -4.399  -9.590  -7.299  1.00  0.00    -0.550 OA
ENDBRANCH   1   2
BRANCH   1   5
ATOM      5  C   UNL     1      -4.439 -11.716  -5.196  1.00  0.00     0.059 C 
BRANCH   5   6
ATOM      6  C   UNL     1      -5.694 -12.102  -5.919  1.00  0.00     0.042 C 
ATOM      7  O   UNL     1      -5.633 -12.795  -6.969  1.00  0.00    -0.550 OA
ATOM      8  O   UNL     1      -6.927 -11.661  -5.456  1.00  0.00    -0.550 OA
ENDBRANCH   5   6
ENDBRANCH   1   5
TORSDOF 3
ENDMDL
MODEL 2
REMARK VINA RESULT:    -3.427      0.224      3.709
REMARK INTER + INTRA:          -3.992
REMARK INTER:                  -3.975
REMARK INTRA:                  -0.017
REMARK UNBOUND:                 0.036
REMARK SMILES O=C([O-])CCC(=O)[O-]
REMARK SMILES IDX 4 1 2 2 1 3 3 4 5 5 6 6 7 7 8 8
REMARK H PARENT
REMARK Flexibility Score: inf
ROOT
ATOM      1  C   UNL     1      -4.359 -11.677  -5.298  1.00  0.00     0.059 C 
ENDROOT
BRANCH   1   2
ATOM      2  C   UNL     1      -5.626 -12.027  -6.017  1.00  0.00     0.042 C 
ATOM      3  O   UNL     1      -5.588 -12.721  -7.067  1.00  0.00    -0.550 OA
ATOM      4  O   UNL     1      -6.852 -11.620  -5.506  1.00  0.00    -0.550 OA
ENDBRANCH   1   2
BRANCH   1   5
ATOM      5  C   UNL     1      -4.339 -10.205  -4.876  1.00  0.00     0.059 C 
BRANCH   5   6
ATOM      6  C   UNL     1      -3.675  -9.343  -5.907  1.00  0.00     0.042 C 
ATOM      7  O   UNL     1      -2.836  -8.470  -5.560  1.00  0.00    -0.550 OA
ATOM      8  O   UNL     1      -4.015  -9.476  -7.247  1.00  0.00    -0.550 OA
ENDBRANCH   5   6
ENDBRANCH   1   5
TORSDOF 3
ENDMDL
MODEL 3
REMARK VINA RESULT:    -3.400     19.135     20.399
REMARK INTER + INTRA:          -3.960
REMARK INTER:                  -3.925
REMARK INTRA:                  -0.035
REMARK UNBOUND:                 0.036
REMARK SMILES O=C([O-])CCC(=O)[O-]
REMARK SMILES IDX 4 1 2 2 1 3 3 4 5 5 6 6 7 7 8 8
REMARK H PARENT
REMARK Flexibility Score: inf
ROOT
ATOM      1  C   UNL     1       7.293  -8.535 -20.890  1.00  0.00     0.059 C 
ENDROOT
BRANCH   1   2
ATOM      2  C   UNL     1       8.058  -9.689 -20.316  1.00  0.00     0.042 C 
ATOM      3  O   UNL     1       8.386 -10.658 -21.050  1.00  0.00    -0.550 OA
ATOM      4  O   UNL     1       8.441  -9.675 -18.981  1.00  0.00    -0.550 OA
ENDBRANCH   1   2
BRANCH   1   5
ATOM      5  C   UNL     1       8.206  -7.586 -21.672  1.00  0.00     0.059 C 
BRANCH   5   6
ATOM      6  C   UNL     1       7.419  -6.648 -22.535  1.00  0.00     0.042 C 
ATOM      7  O   UNL     1       6.335  -7.023 -23.057  1.00  0.00    -0.550 OA
ATOM      8  O   UNL     1       7.903  -5.372 -22.797  1.00  0.00    -0.550 OA
ENDBRANCH   5   6
ENDBRANCH   1   5
TORSDOF 3
ENDMDL
MODEL 4
REMARK VINA RESULT:    -3.381     19.137     20.244
REMARK INTER + INTRA:          -3.939
REMARK INTER:                  -3.903
REMARK INTRA:                  -0.035
REMARK UNBOUND:                 0.036
REMARK SMILES O=C([O-])CCC(=O)[O-]
REMARK SMILES IDX 4 1 2 2 1 3 3 4 5 5 6 6 7 7 8 8
REMARK H PARENT
REMARK Flexibility Score: inf
ROOT
ATOM      1  C   UNL     1       8.122  -7.555 -21.707  1.00  0.00     0.059 C 
ENDROOT
BRANCH   1   2
ATOM      2  C   UNL     1       7.308  -6.679 -22.610  1.00  0.00     0.042 C 
ATOM      3  O   UNL     1       6.240  -7.111 -23.117  1.00  0.00    -0.550 OA
ATOM      4  O   UNL     1       7.710  -5.373 -22.861  1.00  0.00    -0.550 OA
ENDBRANCH   1   2
BRANCH   1   5
ATOM      5  C   UNL     1       7.238  -8.518 -20.908  1.00  0.00     0.059 C 
BRANCH   5   6
ATOM      6  C   UNL     1       8.033  -9.649 -20.332  1.00  0.00     0.042 C 
ATOM      7  O   UNL     1       8.309  -9.670 -19.103  1.00  0.00    -0.550 OA
ATOM      8  O   UNL     1       8.506 -10.659 -21.160  1.00  0.00    -0.550 OA
ENDBRANCH   5   6
ENDBRANCH   1   5
TORSDOF 3
ENDMDL
MODEL 5
REMARK VINA RESULT:    -3.215      2.080      4.586
REMARK INTER + INTRA:          -3.743
REMARK INTER:                  -3.714
REMARK INTRA:                  -0.029
REMARK UNBOUND:                 0.036
REMARK SMILES O=C([O-])CCC(=O)[O-]
REMARK SMILES IDX 4 1 2 2 1 3 3 4 5 5 6 6 7 7 8 8
REMARK H PARENT
REMARK Flexibility Score: inf
ROOT
ATOM      1  C   UNL     1      -3.671  -9.228  -6.116  1.00  0.00     0.059 C 
ENDROOT
BRANCH   1   2
ATOM      2  C   UNL     1      -4.416 -10.509  -5.893  1.00  0.00     0.042 C 
ATOM      3  O   UNL     1      -5.465 -10.753  -6.545  1.00  0.00    -0.550 OA
ATOM      4  O   UNL     1      -3.930 -11.449  -4.994  1.00  0.00    -0.550 OA
ENDBRANCH   1   2
BRANCH   1   5
ATOM      5  C   UNL     1      -2.870  -8.818  -4.877  1.00  0.00     0.059 C 
BRANCH   5   6
ATOM      6  C   UNL     1      -2.186  -7.499  -5.072  1.00  0.00     0.042 C 
ATOM      7  O   UNL     1      -0.965  -7.456  -5.377  1.00  0.00    -0.550 OA
ATOM      8  O   UNL     1      -2.888  -6.317  -4.875  1.00  0.00    -0.550 OA
ENDBRANCH   5   6
ENDBRANCH   1   5
TORSDOF 3
ENDMDL
MODEL 6
REMARK VINA RESULT:    -3.045      0.833      3.726
REMARK INTER + INTRA:          -3.543
REMARK INTER:                  -3.466
REMARK INTRA:                  -0.077
REMARK UNBOUND:                 0.036
REMARK SMILES O=C([O-])CCC(=O)[O-]
REMARK SMILES IDX 4 1 2 2 1 3 3 4 5 5 6 6 7 7 8 8
REMARK H PARENT
REMARK Flexibility Score: inf
ROOT
ATOM      1  C   UNL     1      -5.544 -10.504  -4.918  1.00  0.00     0.059 C 
ENDROOT
BRANCH   1   2
ATOM      2  C   UNL     1      -5.859 -11.810  -5.583  1.00  0.00     0.042 C 
ATOM      3  O   UNL     1      -7.027 -12.047  -5.990  1.00  0.00    -0.550 OA
ATOM      4  O   UNL     1      -4.855 -12.747  -5.786  1.00  0.00    -0.550 OA
ENDBRANCH   1   2
BRANCH   1   5
ATOM      5  C   UNL     1      -4.035 -10.243  -4.875  1.00  0.00     0.059 C 
BRANCH   5   6
ATOM      6  C   UNL     1      -3.616  -9.253  -5.919  1.00  0.00     0.042 C 
ATOM      7  O   UNL     1      -4.052  -9.349  -7.097  1.00  0.00    -0.550 OA
ATOM      8  O   UNL     1      -2.711  -8.248  -5.600  1.00  0.00    -0.550 OA
ENDBRANCH   5   6
ENDBRANCH   1   5
TORSDOF 3
ENDMDL
MODEL 7
REMARK VINA RESULT:    -3.004      2.005      2.868
REMARK INTER + INTRA:          -3.495
REMARK INTER:                  -3.466
REMARK INTRA:                  -0.030
REMARK UNBOUND:                 0.036
REMARK SMILES O=C([O-])CCC(=O)[O-]
REMARK SMILES IDX 4 1 2 2 1 3 3 4 5 5 6 6 7 7 8 8
REMARK H PARENT
REMARK Flexibility Score: inf
ROOT
ATOM      1  C   UNL     1      -2.993  -8.403  -5.867  1.00  0.00     0.059 C 
ENDROOT
BRANCH   1   2
ATOM      2  C   UNL     1      -2.172  -7.362  -5.168  1.00  0.00     0.042 C 
ATOM      3  O   UNL     1      -0.970  -7.595  -4.876  1.00  0.00    -0.550 OA
ATOM      4  O   UNL     1      -2.724  -6.121  -4.875  1.00  0.00    -0.550 OA
ENDBRANCH   1   2
BRANCH   1   5
ATOM      5  C   UNL     1      -3.495  -9.473  -4.893  1.00  0.00     0.059 C 
BRANCH   5   6
ATOM      6  C   UNL     1      -4.224 -10.571  -5.606  1.00  0.00     0.042 C 
ATOM      7  O   UNL     1      -4.262 -11.731  -5.115  1.00  0.00    -0.550 OA
ATOM      8  O   UNL     1      -4.826 -10.323  -6.833  1.00  0.00    -0.550 OA
ENDBRANCH   5   6
ENDBRANCH   1   5
TORSDOF 3
ENDMDL
MODEL 8
REMARK VINA RESULT:    -2.819     18.244     19.609
REMARK INTER + INTRA:          -3.278
REMARK INTER:                  -3.240
REMARK INTRA:                  -0.038
REMARK UNBOUND:                 0.036
REMARK SMILES O=C([O-])CCC(=O)[O-]
REMARK SMILES IDX 4 1 2 2 1 3 3 4 5 5 6 6 7 7 8 8
REMARK H PARENT
REMARK Flexibility Score: inf
ROOT
ATOM      1  C   UNL     1      -8.114 -17.887 -23.012  1.00  0.00     0.059 C 
ENDROOT
BRANCH   1   2
ATOM      2  C   UNL     1      -8.690 -18.369 -21.716  1.00  0.00     0.042 C 
ATOM      3  O   UNL     1      -9.897 -18.721 -21.650  1.00  0.00    -0.550 OA
ATOM      4  O   UNL     1      -7.882 -18.467 -20.589  1.00  0.00    -0.550 OA
ENDBRANCH   1   2
BRANCH   1   5
ATOM      5  C   UNL     1      -8.325 -18.906 -24.137  1.00  0.00     0.059 C 
BRANCH   5   6
ATOM      6  C   UNL     1      -7.024 -19.332 -24.746  1.00  0.00     0.042 C 
ATOM      7  O   UNL     1      -6.187 -18.470 -25.124  1.00  0.00    -0.550 OA
ATOM      8  O   UNL     1      -6.754 -20.682 -24.935  1.00  0.00    -0.550 OA
ENDBRANCH   5   6
ENDBRANCH   1   5
TORSDOF 3
ENDMDL
