MODEL 1
REMARK VINA RESULT:    -3.825      0.000      0.000
REMARK INTER + INTRA:          -4.917
REMARK INTER:                  -4.720
REMARK INTRA:                  -0.197
REMARK UNBOUND:                -0.197
REMARK SMILES C=CC[C@H](C)C(=O)CC
REMARK SMILES IDX 4 1 5 2 6 3 7 4 8 5 9 6 3 7 2 8 1 9
REMARK H PARENT
REMARK Flexibility Score: inf
ROOT
ATOM      1  C   UNL     1      69.385 -18.543  -8.690  1.00  0.00     0.057 C 
ATOM      2  C   UNL     1      69.536 -17.193  -9.406  1.00  0.00     0.016 C 
ENDROOT
BRANCH   1   3
ATOM      3  C   UNL     1      70.574 -18.778  -7.784  1.00  0.00     0.135 C 
ATOM      4  O   UNL     1      71.243 -17.827  -7.404  1.00  0.00    -0.299 OA
BRANCH   3   5
ATOM      5  C   UNL     1      70.960 -20.167  -7.347  1.00  0.00     0.072 C 
ATOM      6  C   UNL     1      72.477 -20.304  -7.258  1.00  0.00     0.012 C 
ENDBRANCH   3   5
ENDBRANCH   1   3
BRANCH   1   7
ATOM      7  C   UNL     1      69.245 -19.707  -9.691  1.00  0.00     0.038 C 
BRANCH   7   8
ATOM      8  C   UNL     1      68.140 -19.456 -10.682  1.00  0.00    -0.034 C 
ATOM      9  C   UNL     1      67.259 -20.403 -11.014  1.00  0.00     0.004 C 
ENDBRANCH   7   8
ENDBRANCH   1   7
TORSDOF 4
ENDMDL
MODEL 2
REMARK VINA RESULT:    -3.549      1.576      3.948
REMARK INTER + INTRA:          -4.575
REMARK INTER:                  -4.291
REMARK INTRA:                  -0.284
REMARK UNBOUND:                -0.197
REMARK SMILES C=CC[C@H](C)C(=O)CC
REMARK SMILES IDX 4 1 5 2 6 3 7 4 8 5 9 6 3 7 2 8 1 9
REMARK H PARENT
REMARK Flexibility Score: inf
ROOT
ATOM      1  C   UNL     1      70.645 -17.904  -9.027  1.00  0.00     0.057 C 
ATOM      2  C   UNL     1      70.566 -17.216  -7.657  1.00  0.00     0.016 C 
ENDROOT
BRANCH   1   3
ATOM      3  C   UNL     1      69.286 -18.454  -9.402  1.00  0.00     0.135 C 
ATOM      4  O   UNL     1      68.320 -17.705  -9.444  1.00  0.00    -0.299 OA
BRANCH   3   5
ATOM      5  C   UNL     1      69.095 -19.914  -9.717  1.00  0.00     0.072 C 
ATOM      6  C   UNL     1      68.005 -20.103 -10.767  1.00  0.00     0.012 C 
ENDBRANCH   3   5
ENDBRANCH   1   3
BRANCH   1   7
ATOM      7  C   UNL     1      71.694 -19.034  -9.039  1.00  0.00     0.038 C 
BRANCH   7   8
ATOM      8  C   UNL     1      72.309 -19.233  -7.679  1.00  0.00    -0.034 C 
ATOM      9  C   UNL     1      72.469 -20.447  -7.146  1.00  0.00     0.004 C 
ENDBRANCH   7   8
ENDBRANCH   1   7
TORSDOF 4
ENDMDL
MODEL 3
REMARK VINA RESULT:    -3.547      1.682      3.260
REMARK INTER + INTRA:          -4.573
REMARK INTER:                  -4.195
REMARK INTRA:                  -0.378
REMARK UNBOUND:                -0.197
REMARK SMILES C=CC[C@H](C)C(=O)CC
REMARK SMILES IDX 4 1 5 2 6 3 7 4 8 5 9 6 3 7 2 8 1 9
REMARK H PARENT
REMARK Flexibility Score: inf
ROOT
ATOM      1  C   UNL     1      69.648 -18.286  -8.319  1.00  0.00     0.057 C 
ATOM      2  C   UNL     1      68.651 -17.924  -9.428  1.00  0.00     0.016 C 
ENDROOT
BRANCH   1   3
ATOM      3  C   UNL     1      70.786 -17.289  -8.308  1.00  0.00     0.135 C 
ATOM      4  O   UNL     1      71.397 -17.055  -9.341  1.00  0.00    -0.299 OA
BRANCH   3   5
ATOM      5  C   UNL     1      71.192 -16.583  -7.041  1.00  0.00     0.072 C 
ATOM      6  C   UNL     1      72.688 -16.742  -6.789  1.00  0.00     0.012 C 
ENDBRANCH   3   5
ENDBRANCH   1   3
BRANCH   1   7
ATOM      7  C   UNL     1      70.200 -19.716  -8.491  1.00  0.00     0.038 C 
BRANCH   7   8
ATOM      8  C   UNL     1      70.930 -20.179  -7.259  1.00  0.00    -0.034 C 
ATOM      9  C   UNL     1      72.241 -20.438  -7.269  1.00  0.00     0.004 C 
ENDBRANCH   7   8
ENDBRANCH   1   7
TORSDOF 4
ENDMDL
MODEL 4
REMARK VINA RESULT:    -3.530      1.390      2.977
REMARK INTER + INTRA:          -4.552
REMARK INTER:                  -4.154
REMARK INTRA:                  -0.398
REMARK UNBOUND:                -0.197
REMARK SMILES C=CC[C@H](C)C(=O)CC
REMARK SMILES IDX 4 1 5 2 6 3 7 4 8 5 9 6 3 7 2 8 1 9
REMARK H PARENT
REMARK Flexibility Score: inf
ROOT
ATOM      1  C   UNL     1      71.589 -19.436  -8.000  1.00  0.00     0.057 C 
ATOM      2  C   UNL     1      72.383 -20.462  -7.180  1.00  0.00     0.016 C 
ENDROOT
BRANCH   1   3
ATOM      3  C   UNL     1      71.838 -18.045  -7.458  1.00  0.00     0.135 C 
ATOM      4  O   UNL     1      72.912 -17.782  -6.936  1.00  0.00    -0.299 OA
BRANCH   3   5
ATOM      5  C   UNL     1      70.780 -16.976  -7.538  1.00  0.00     0.072 C 
ATOM      6  C   UNL     1      70.892 -16.202  -8.848  1.00  0.00     0.012 C 
ENDBRANCH   3   5
ENDBRANCH   1   3
BRANCH   1   7
ATOM      7  C   UNL     1      70.078 -19.744  -7.990  1.00  0.00     0.038 C 
BRANCH   7   8
ATOM      8  C   UNL     1      69.536 -19.899  -9.387  1.00  0.00    -0.034 C 
ATOM      9  C   UNL     1      68.673 -19.024  -9.911  1.00  0.00     0.004 C 
ENDBRANCH   7   8
ENDBRANCH   1   7
TORSDOF 4
ENDMDL
MODEL 5
REMARK VINA RESULT:    -3.502      1.990      3.443
REMARK INTER + INTRA:          -4.518
REMARK INTER:                  -4.101
REMARK INTRA:                  -0.417
REMARK UNBOUND:                -0.197
REMARK SMILES C=CC[C@H](C)C(=O)CC
REMARK SMILES IDX 4 1 5 2 6 3 7 4 8 5 9 6 3 7 2 8 1 9
REMARK H PARENT
REMARK Flexibility Score: inf
ROOT
ATOM      1  C   UNL     1      70.117 -18.033  -8.808  1.00  0.00     0.057 C 
ATOM      2  C   UNL     1      68.748 -17.633  -9.376  1.00  0.00     0.016 C 
ENDROOT
BRANCH   1   3
ATOM      3  C   UNL     1      70.131 -19.515  -8.502  1.00  0.00     0.135 C 
ATOM      4  O   UNL     1      69.508 -20.287  -9.217  1.00  0.00    -0.299 OA
BRANCH   3   5
ATOM      5  C   UNL     1      70.892 -20.061  -7.322  1.00  0.00     0.072 C 
ATOM      6  C   UNL     1      72.364 -20.254  -7.670  1.00  0.00     0.012 C 
ENDBRANCH   3   5
ENDBRANCH   1   3
BRANCH   1   7
ATOM      7  C   UNL     1      70.465 -17.228  -7.539  1.00  0.00     0.038 C 
BRANCH   7   8
ATOM      8  C   UNL     1      71.649 -16.326  -7.764  1.00  0.00    -0.034 C 
ATOM      9  C   UNL     1      72.592 -16.608  -8.667  1.00  0.00     0.004 C 
ENDBRANCH   7   8
ENDBRANCH   1   7
TORSDOF 4
ENDMDL
MODEL 6
REMARK VINA RESULT:    -3.467      1.452      2.744
REMARK INTER + INTRA:          -4.475
REMARK INTER:                  -4.240
REMARK INTRA:                  -0.235
REMARK UNBOUND:                -0.197
REMARK SMILES C=CC[C@H](C)C(=O)CC
REMARK SMILES IDX 4 1 5 2 6 3 7 4 8 5 9 6 3 7 2 8 1 9
REMARK H PARENT
REMARK Flexibility Score: inf
ROOT
ATOM      1  C   UNL     1      69.233 -19.024 -10.274  1.00  0.00     0.057 C 
ATOM      2  C   UNL     1      68.278 -20.185 -10.585  1.00  0.00     0.016 C 
ENDROOT
BRANCH   1   3
ATOM      3  C   UNL     1      70.350 -19.508  -9.374  1.00  0.00     0.135 C 
ATOM      4  O   UNL     1      71.501 -19.513  -9.787  1.00  0.00    -0.299 OA
BRANCH   3   5
ATOM      5  C   UNL     1      70.070 -19.996  -7.977  1.00  0.00     0.072 C 
ATOM      6  C   UNL     1      71.367 -20.152  -7.189  1.00  0.00     0.012 C 
ENDBRANCH   3   5
ENDBRANCH   1   3
BRANCH   1   7
ATOM      7  C   UNL     1      68.497 -17.841  -9.613  1.00  0.00     0.038 C 
BRANCH   7   8
ATOM      8  C   UNL     1      68.755 -16.551 -10.345  1.00  0.00    -0.034 C 
ATOM      9  C   UNL     1      69.992 -16.126 -10.616  1.00  0.00     0.004 C 
ENDBRANCH   7   8
ENDBRANCH   1   7
TORSDOF 4
ENDMDL
MODEL 7
REMARK VINA RESULT:    -3.444      1.347      1.402
REMARK INTER + INTRA:          -4.447
REMARK INTER:                  -4.198
REMARK INTRA:                  -0.248
REMARK UNBOUND:                -0.197
REMARK SMILES C=CC[C@H](C)C(=O)CC
REMARK SMILES IDX 4 1 5 2 6 3 7 4 8 5 9 6 3 7 2 8 1 9
REMARK H PARENT
REMARK Flexibility Score: inf
ROOT
ATOM      1  C   UNL     1      69.728 -18.734  -8.421  1.00  0.00     0.057 C 
ATOM      2  C   UNL     1      70.194 -17.320  -8.050  1.00  0.00     0.016 C 
ENDROOT
BRANCH   1   3
ATOM      3  C   UNL     1      70.703 -19.754  -7.874  1.00  0.00     0.135 C 
ATOM      4  O   UNL     1      70.350 -20.511  -6.980  1.00  0.00    -0.299 OA
BRANCH   3   5
ATOM      5  C   UNL     1      72.110 -19.851  -8.404  1.00  0.00     0.072 C 
ATOM      6  C   UNL     1      73.122 -19.511  -7.314  1.00  0.00     0.012 C 
ENDBRANCH   3   5
ENDBRANCH   1   3
BRANCH   1   7
ATOM      7  C   UNL     1      69.583 -18.907  -9.946  1.00  0.00     0.038 C 
BRANCH   7   8
ATOM      8  C   UNL     1      68.648 -20.036 -10.289  1.00  0.00    -0.034 C 
ATOM      9  C   UNL     1      68.015 -20.099 -11.464  1.00  0.00     0.004 C 
ENDBRANCH   7   8
ENDBRANCH   1   7
TORSDOF 4
ENDMDL
MODEL 8
REMARK VINA RESULT:    -3.419      1.419      2.160
REMARK INTER + INTRA:          -4.415
REMARK INTER:                  -3.970
REMARK INTRA:                  -0.445
REMARK UNBOUND:                -0.197
REMARK SMILES C=CC[C@H](C)C(=O)CC
REMARK SMILES IDX 4 1 5 2 6 3 7 4 8 5 9 6 3 7 2 8 1 9
REMARK H PARENT
REMARK Flexibility Score: inf
ROOT
ATOM      1  C   UNL     1      70.625 -17.642  -7.973  1.00  0.00     0.057 C 
ATOM      2  C   UNL     1      71.177 -16.586  -7.005  1.00  0.00     0.016 C 
ENDROOT
BRANCH   1   3
ATOM      3  C   UNL     1      71.741 -18.561  -8.419  1.00  0.00     0.135 C 
ATOM      4  O   UNL     1      72.586 -18.151  -9.202  1.00  0.00    -0.299 OA
BRANCH   3   5
ATOM      5  C   UNL     1      71.828 -19.981  -7.924  1.00  0.00     0.072 C 
ATOM      6  C   UNL     1      70.504 -20.418  -7.304  1.00  0.00     0.012 C 
ENDBRANCH   3   5
ENDBRANCH   1   3
BRANCH   1   7
ATOM      7  C   UNL     1      69.950 -16.996  -9.200  1.00  0.00     0.038 C 
BRANCH   7   8
ATOM      8  C   UNL     1      68.583 -17.575  -9.449  1.00  0.00    -0.034 C 
ATOM      9  C   UNL     1      68.403 -18.661 -10.206  1.00  0.00     0.004 C 
ENDBRANCH   7   8
ENDBRANCH   1   7
TORSDOF 4
ENDMDL
MODEL 9
REMARK VINA RESULT:    -3.402      1.689      4.111
REMARK INTER + INTRA:          -4.395
REMARK INTER:                  -3.997
REMARK INTRA:                  -0.398
REMARK UNBOUND:                -0.197
REMARK SMILES C=CC[C@H](C)C(=O)CC
REMARK SMILES IDX 4 1 5 2 6 3 7 4 8 5 9 6 3 7 2 8 1 9
REMARK H PARENT
REMARK Flexibility Score: inf
ROOT
ATOM      1  C   UNL     1      71.449 -19.349  -7.520  1.00  0.00     0.057 C 
ATOM      2  C   UNL     1      72.426 -20.466  -7.127  1.00  0.00     0.016 C 
ENDROOT
BRANCH   1   3
ATOM      3  C   UNL     1      70.952 -19.577  -8.931  1.00  0.00     0.135 C 
ATOM      4  O   UNL     1      71.729 -19.475  -9.871  1.00  0.00    -0.299 OA
BRANCH   3   5
ATOM      5  C   UNL     1      69.510 -19.917  -9.206  1.00  0.00     0.072 C 
ATOM      6  C   UNL     1      68.798 -18.748  -9.879  1.00  0.00     0.012 C 
ENDBRANCH   3   5
ENDBRANCH   1   3
BRANCH   1   7
ATOM      7  C   UNL     1      72.099 -17.956  -7.407  1.00  0.00     0.038 C 
BRANCH   7   8
ATOM      8  C   UNL     1      71.103 -16.857  -7.668  1.00  0.00    -0.034 C 
ATOM      9  C   UNL     1      71.255 -15.988  -8.670  1.00  0.00     0.004 C 
ENDBRANCH   7   8
ENDBRANCH   1   7
TORSDOF 4
ENDMDL
