MODEL 1
REMARK VINA RESULT:    -4.754      0.000      0.000
REMARK INTER + INTRA:          -6.875
REMARK INTER:                  -6.283
REMARK INTRA:                  -0.592
REMARK UNBOUND:                -0.592
REMARK SMILES C=C[C@@H](O)CCCCC
REMARK SMILES IDX 6 1 7 2 8 3 9 4 5 5 3 6 2 7 1 8 4 9
REMARK H PARENT 4 10
REMARK Flexibility Score: inf
ROOT
ATOM      1  C   UNL     1     137.543 123.790 138.562  1.00  0.00     0.003 C 
ENDROOT
BRANCH   1   2
ATOM      2  C   UNL     1     136.917 122.798 137.569  1.00  0.00    -0.000 C 
BRANCH   2   3
ATOM      3  C   UNL     1     135.400 122.986 137.421  1.00  0.00    -0.003 C 
ATOM      4  C   UNL     1     134.969 124.369 137.898  1.00  0.00     0.004 C 
ENDBRANCH   2   3
ENDBRANCH   1   2
BRANCH   1   5
ATOM      5  C   UNL     1     137.964 123.121 139.883  1.00  0.00     0.036 C 
BRANCH   5   6
ATOM      6  C   UNL     1     136.961 123.391 141.018  1.00  0.00     0.136 C 
BRANCH   6   7
ATOM      7  C   UNL     1     135.883 122.333 141.086  1.00  0.00    -0.004 C 
ATOM      8  C   UNL     1     134.583 122.638 141.139  1.00  0.00     0.007 C 
ENDBRANCH   6   7
BRANCH   6   9
ATOM      9  O   UNL     1     137.651 123.451 142.239  1.00  0.00    -0.389 OA
ATOM     10  H   UNL     1     137.205 124.151 142.787  1.00  0.00     0.211 HD
ENDBRANCH   6   9
ENDBRANCH   5   6
ENDBRANCH   1   5
TORSDOF 6
ENDMDL
MODEL 2
REMARK VINA RESULT:    -4.623      2.240      4.383
REMARK INTER + INTRA:          -6.702
REMARK INTER:                  -6.354
REMARK INTRA:                  -0.348
REMARK UNBOUND:                -0.592
REMARK SMILES C=C[C@@H](O)CCCCC
REMARK SMILES IDX 6 1 7 2 8 3 9 4 5 5 3 6 2 7 1 8 4 9
REMARK H PARENT 4 10
REMARK Flexibility Score: inf
ROOT
ATOM      1  C   UNL     1     135.023 122.604 140.224  1.00  0.00     0.003 C 
ENDROOT
BRANCH   1   2
ATOM      2  C   UNL     1     134.848 123.047 141.685  1.00  0.00    -0.000 C 
BRANCH   2   3
ATOM      3  C   UNL     1     136.168 123.488 142.333  1.00  0.00    -0.003 C 
ATOM      4  C   UNL     1     137.353 122.739 141.731  1.00  0.00     0.004 C 
ENDBRANCH   2   3
ENDBRANCH   1   2
BRANCH   1   5
ATOM      5  C   UNL     1     134.895 123.773 139.231  1.00  0.00     0.036 C 
BRANCH   5   6
ATOM      6  C   UNL     1     135.199 123.343 137.785  1.00  0.00     0.136 C 
BRANCH   6   7
ATOM      7  C   UNL     1     136.606 122.812 137.635  1.00  0.00    -0.004 C 
ATOM      8  C   UNL     1     137.682 123.534 137.966  1.00  0.00     0.007 C 
ENDBRANCH   6   7
BRANCH   6   9
ATOM      9  O   UNL     1     134.273 122.364 137.390  1.00  0.00    -0.389 OA
ATOM     10  H   UNL     1     134.272 122.353 136.397  1.00  0.00     0.211 HD
ENDBRANCH   6   9
ENDBRANCH   5   6
ENDBRANCH   1   5
TORSDOF 6
ENDMDL
MODEL 3
REMARK VINA RESULT:    -4.595      2.282      4.362
REMARK INTER + INTRA:          -6.665
REMARK INTER:                  -6.388
REMARK INTRA:                  -0.277
REMARK UNBOUND:                -0.592
REMARK SMILES C=C[C@@H](O)CCCCC
REMARK SMILES IDX 6 1 7 2 8 3 9 4 5 5 3 6 2 7 1 8 4 9
REMARK H PARENT 4 10
REMARK Flexibility Score: inf
ROOT
ATOM      1  C   UNL     1     135.012 122.632 140.236  1.00  0.00     0.003 C 
ENDROOT
BRANCH   1   2
ATOM      2  C   UNL     1     135.887 122.949 141.458  1.00  0.00    -0.000 C 
BRANCH   2   3
ATOM      3  C   UNL     1     135.125 123.712 142.552  1.00  0.00    -0.003 C 
ATOM      4  C   UNL     1     133.679 123.235 142.648  1.00  0.00     0.004 C 
ENDBRANCH   2   3
ENDBRANCH   1   2
BRANCH   1   5
ATOM      5  C   UNL     1     134.941 123.802 139.238  1.00  0.00     0.036 C 
BRANCH   5   6
ATOM      6  C   UNL     1     135.255 123.358 137.799  1.00  0.00     0.136 C 
BRANCH   6   7
ATOM      7  C   UNL     1     136.662 122.821 137.665  1.00  0.00    -0.004 C 
ATOM      8  C   UNL     1     137.736 123.542 138.001  1.00  0.00     0.007 C 
ENDBRANCH   6   7
BRANCH   6   9
ATOM      9  O   UNL     1     134.329 122.378 137.405  1.00  0.00    -0.389 OA
ATOM     10  H   UNL     1     134.845 121.545 137.241  1.00  0.00     0.211 HD
ENDBRANCH   6   9
ENDBRANCH   5   6
ENDBRANCH   1   5
TORSDOF 6
ENDMDL
MODEL 4
REMARK VINA RESULT:    -4.478      1.721      2.770
REMARK INTER + INTRA:          -6.510
REMARK INTER:                  -6.062
REMARK INTRA:                  -0.448
REMARK UNBOUND:                -0.592
REMARK SMILES C=C[C@@H](O)CCCCC
REMARK SMILES IDX 6 1 7 2 8 3 9 4 5 5 3 6 2 7 1 8 4 9
REMARK H PARENT 4 10
REMARK Flexibility Score: inf
ROOT
ATOM      1  C   UNL     1     135.084 123.089 138.012  1.00  0.00     0.003 C 
ENDROOT
BRANCH   1   2
ATOM      2  C   UNL     1     136.527 122.644 137.730  1.00  0.00    -0.000 C 
BRANCH   2   3
ATOM      3  C   UNL     1     137.560 123.723 138.091  1.00  0.00    -0.003 C 
ATOM      4  C   UNL     1     138.624 123.170 139.034  1.00  0.00     0.004 C 
ENDBRANCH   2   3
ENDBRANCH   1   2
BRANCH   1   5
ATOM      5  C   UNL     1     134.903 123.655 139.432  1.00  0.00     0.036 C 
BRANCH   5   6
ATOM      6  C   UNL     1     135.173 122.599 140.518  1.00  0.00     0.136 C 
BRANCH   6   7
ATOM      7  C   UNL     1     135.642 123.224 141.812  1.00  0.00    -0.004 C 
ATOM      8  C   UNL     1     136.912 123.151 142.223  1.00  0.00     0.007 C 
ENDBRANCH   6   7
BRANCH   6   9
ATOM      9  O   UNL     1     134.002 121.856 140.741  1.00  0.00    -0.389 OA
ATOM     10  H   UNL     1     133.381 122.069 139.995  1.00  0.00     0.211 HD
ENDBRANCH   6   9
ENDBRANCH   5   6
ENDBRANCH   1   5
TORSDOF 6
ENDMDL
MODEL 5
REMARK VINA RESULT:    -4.427      1.440      3.401
REMARK INTER + INTRA:          -6.443
REMARK INTER:                  -5.863
REMARK INTRA:                  -0.580
REMARK UNBOUND:                -0.592
REMARK SMILES C=C[C@@H](O)CCCCC
REMARK SMILES IDX 6 1 7 2 8 3 9 4 5 5 3 6 2 7 1 8 4 9
REMARK H PARENT 4 10
REMARK Flexibility Score: inf
ROOT
ATOM      1  C   UNL     1     138.364 123.459 140.721  1.00  0.00     0.003 C 
ENDROOT
BRANCH   1   2
ATOM      2  C   UNL     1     137.391 122.527 141.459  1.00  0.00    -0.000 C 
BRANCH   2   3
ATOM      3  C   UNL     1     136.039 123.195 141.753  1.00  0.00    -0.003 C 
ATOM      4  C   UNL     1     134.901 122.468 141.043  1.00  0.00     0.004 C 
ENDBRANCH   2   3
ENDBRANCH   1   2
BRANCH   1   5
ATOM      5  C   UNL     1     138.652 122.996 139.282  1.00  0.00     0.036 C 
BRANCH   5   6
ATOM      6  C   UNL     1     137.809 123.758 138.245  1.00  0.00     0.136 C 
BRANCH   6   7
ATOM      7  C   UNL     1     136.717 122.894 137.656  1.00  0.00    -0.004 C 
ATOM      8  C   UNL     1     135.467 123.338 137.488  1.00  0.00     0.007 C 
ENDBRANCH   6   7
BRANCH   6   9
ATOM      9  O   UNL     1     137.246 124.893 138.852  1.00  0.00    -0.389 OA
ATOM     10  H   UNL     1     137.772 125.676 138.540  1.00  0.00     0.211 HD
ENDBRANCH   6   9
ENDBRANCH   5   6
ENDBRANCH   1   5
TORSDOF 6
ENDMDL
MODEL 6
REMARK VINA RESULT:    -4.424      2.468      4.269
REMARK INTER + INTRA:          -6.439
REMARK INTER:                  -5.924
REMARK INTRA:                  -0.515
REMARK UNBOUND:                -0.592
REMARK SMILES C=C[C@@H](O)CCCCC
REMARK SMILES IDX 6 1 7 2 8 3 9 4 5 5 3 6 2 7 1 8 4 9
REMARK H PARENT 4 10
REMARK Flexibility Score: inf
ROOT
ATOM      1  C   UNL     1     135.415 122.049 140.830  1.00  0.00     0.003 C 
ENDROOT
BRANCH   1   2
ATOM      2  C   UNL     1     134.048 122.630 141.225  1.00  0.00    -0.000 C 
BRANCH   2   3
ATOM      3  C   UNL     1     134.099 123.426 142.537  1.00  0.00    -0.003 C 
ATOM      4  C   UNL     1     135.290 124.379 142.556  1.00  0.00     0.004 C 
ENDBRANCH   2   3
ENDBRANCH   1   2
BRANCH   1   5
ATOM      5  C   UNL     1     135.771 122.318 139.358  1.00  0.00     0.036 C 
BRANCH   5   6
ATOM      6  C   UNL     1     134.721 123.197 138.656  1.00  0.00     0.136 C 
BRANCH   6   7
ATOM      7  C   UNL     1     135.290 124.532 138.233  1.00  0.00    -0.004 C 
ATOM      8  C   UNL     1     136.501 124.948 138.620  1.00  0.00     0.007 C 
ENDBRANCH   6   7
BRANCH   6   9
ATOM      9  O   UNL     1     134.221 122.514 137.535  1.00  0.00    -0.389 OA
ATOM     10  H   UNL     1     133.792 123.194 136.952  1.00  0.00     0.211 HD
ENDBRANCH   6   9
ENDBRANCH   5   6
ENDBRANCH   1   5
TORSDOF 6
ENDMDL
MODEL 7
REMARK VINA RESULT:    -4.331      1.506      2.525
REMARK INTER + INTRA:          -6.316
REMARK INTER:                  -5.914
REMARK INTRA:                  -0.402
REMARK UNBOUND:                -0.592
REMARK SMILES C=C[C@@H](O)CCCCC
REMARK SMILES IDX 6 1 7 2 8 3 9 4 5 5 3 6 2 7 1 8 4 9
REMARK H PARENT 4 10
REMARK Flexibility Score: inf
ROOT
ATOM      1  C   UNL     1     134.901 123.318 139.366  1.00  0.00     0.003 C 
ENDROOT
BRANCH   1   2
ATOM      2  C   UNL     1     135.634 122.323 138.453  1.00  0.00    -0.000 C 
BRANCH   2   3
ATOM      3  C   UNL     1     136.615 123.013 137.492  1.00  0.00    -0.003 C 
ATOM      4  C   UNL     1     137.901 123.409 138.210  1.00  0.00     0.004 C 
ENDBRANCH   2   3
ENDBRANCH   1   2
BRANCH   1   5
ATOM      5  C   UNL     1     134.743 122.797 140.806  1.00  0.00     0.036 C 
BRANCH   5   6
ATOM      6  C   UNL     1     135.268 123.799 141.849  1.00  0.00     0.136 C 
BRANCH   6   7
ATOM      7  C   UNL     1     136.630 123.407 142.376  1.00  0.00    -0.004 C 
ATOM      8  C   UNL     1     137.406 122.513 141.754  1.00  0.00     0.007 C 
ENDBRANCH   6   7
BRANCH   6   9
ATOM      9  O   UNL     1     135.329 125.078 141.271  1.00  0.00    -0.389 OA
ATOM     10  H   UNL     1     136.251 125.416 141.419  1.00  0.00     0.211 HD
ENDBRANCH   6   9
ENDBRANCH   5   6
ENDBRANCH   1   5
TORSDOF 6
ENDMDL
MODEL 8
REMARK VINA RESULT:    -4.311      2.021      2.807
REMARK INTER + INTRA:          -6.289
REMARK INTER:                  -6.144
REMARK INTRA:                  -0.146
REMARK UNBOUND:                -0.592
REMARK SMILES C=C[C@@H](O)CCCCC
REMARK SMILES IDX 6 1 7 2 8 3 9 4 5 5 3 6 2 7 1 8 4 9
REMARK H PARENT 4 10
REMARK Flexibility Score: inf
ROOT
ATOM      1  C   UNL     1     135.053 123.349 139.183  1.00  0.00     0.003 C 
ENDROOT
BRANCH   1   2
ATOM      2  C   UNL     1     135.387 122.822 137.780  1.00  0.00    -0.000 C 
BRANCH   2   3
ATOM      3  C   UNL     1     136.899 122.779 137.507  1.00  0.00    -0.003 C 
ATOM      4  C   UNL     1     137.627 123.877 138.275  1.00  0.00     0.004 C 
ENDBRANCH   2   3
ENDBRANCH   1   2
BRANCH   1   5
ATOM      5  C   UNL     1     135.235 122.282 140.277  1.00  0.00     0.036 C 
BRANCH   5   6
ATOM      6  C   UNL     1     134.395 122.584 141.531  1.00  0.00     0.136 C 
BRANCH   6   7
ATOM      7  C   UNL     1     134.219 124.070 141.750  1.00  0.00    -0.004 C 
ATOM      8  C   UNL     1     135.038 124.779 142.534  1.00  0.00     0.007 C 
ENDBRANCH   6   7
BRANCH   6   9
ATOM      9  O   UNL     1     133.140 121.967 141.406  1.00  0.00    -0.389 OA
ATOM     10  H   UNL     1     132.510 122.661 141.080  1.00  0.00     0.211 HD
ENDBRANCH   6   9
ENDBRANCH   5   6
ENDBRANCH   1   5
TORSDOF 6
ENDMDL
MODEL 9
REMARK VINA RESULT:    -4.174      1.329      2.253
REMARK INTER + INTRA:          -6.108
REMARK INTER:                  -5.825
REMARK INTRA:                  -0.283
REMARK UNBOUND:                -0.592
REMARK SMILES C=C[C@@H](O)CCCCC
REMARK SMILES IDX 6 1 7 2 8 3 9 4 5 5 3 6 2 7 1 8 4 9
REMARK H PARENT 4 10
REMARK Flexibility Score: inf
ROOT
ATOM      1  C   UNL     1     135.092 122.959 139.150  1.00  0.00     0.003 C 
ENDROOT
BRANCH   1   2
ATOM      2  C   UNL     1     136.061 122.338 138.133  1.00  0.00    -0.000 C 
BRANCH   2   3
ATOM      3  C   UNL     1     137.230 123.270 137.781  1.00  0.00    -0.003 C 
ATOM      4  C   UNL     1     138.355 123.150 138.804  1.00  0.00     0.004 C 
ENDBRANCH   2   3
ENDBRANCH   1   2
BRANCH   1   5
ATOM      5  C   UNL     1     135.229 122.341 140.553  1.00  0.00     0.036 C 
BRANCH   5   6
ATOM      6  C   UNL     1     135.842 123.324 141.566  1.00  0.00     0.136 C 
BRANCH   6   7
ATOM      7  C   UNL     1     134.872 123.677 142.671  1.00  0.00    -0.004 C 
ATOM      8  C   UNL     1     133.583 123.326 142.629  1.00  0.00     0.007 C 
ENDBRANCH   6   7
BRANCH   6   9
ATOM      9  O   UNL     1     137.005 122.758 142.113  1.00  0.00    -0.389 OA
ATOM     10  H   UNL     1     137.479 122.300 141.369  1.00  0.00     0.211 HD
ENDBRANCH   6   9
ENDBRANCH   5   6
ENDBRANCH   1   5
TORSDOF 6
ENDMDL
