MODEL 1
REMARK VINA RESULT:    -3.481      0.000      0.000
REMARK INTER + INTRA:          -4.035
REMARK INTER:                  -3.990
REMARK INTRA:                  -0.046
REMARK UNBOUND:                -0.046
REMARK SMILES O=C([O-])c1cc(O)c(O)c(O)c1
REMARK SMILES IDX 4 1 5 2 12 3 6 4 10 5 8 6 2 7 1 8 3 9 7 10 11 12 9 14
REMARK H PARENT 7 11 11 13 9 15
REMARK Flexibility Score: inf
ROOT
ATOM      1  C   UNL     1     -45.048 -47.355  70.820  1.00  0.00     0.005 A 
ATOM      2  C   UNL     1     -44.660 -48.678  70.553  1.00  0.00     0.060 A 
ATOM      3  C   UNL     1     -46.406 -47.075  71.045  1.00  0.00     0.060 A 
ATOM      4  C   UNL     1     -45.612 -49.707  70.510  1.00  0.00     0.162 A 
ATOM      5  C   UNL     1     -47.362 -48.095  71.004  1.00  0.00     0.162 A 
ATOM      6  C   UNL     1     -46.968 -49.417  70.736  1.00  0.00     0.200 A 
ENDROOT
BRANCH   1   7
ATOM      7  C   UNL     1     -44.045 -46.268  70.866  1.00  0.00     0.072 C 
ATOM      8  O   UNL     1     -43.451 -45.900  69.817  1.00  0.00    -0.545 OA
ATOM      9  O   UNL     1     -43.742 -45.638  72.067  1.00  0.00    -0.545 OA
ENDBRANCH   1   7
BRANCH   4  10
ATOM     10  O   UNL     1     -45.214 -51.017  70.244  1.00  0.00    -0.504 OA
ATOM     11  H   UNL     1     -44.587 -51.518  70.861  1.00  0.00     0.293 HD
ENDBRANCH   4  10
BRANCH   5  12
ATOM     12  O   UNL     1     -48.701 -47.775  71.233  1.00  0.00    -0.504 OA
ATOM     13  H   UNL     1     -49.453 -48.193  70.700  1.00  0.00     0.293 HD
ENDBRANCH   5  12
BRANCH   6  14
ATOM     14  O   UNL     1     -47.928 -50.428  70.698  1.00  0.00    -0.502 OA
ATOM     15  H   UNL     1     -48.580 -50.584  71.458  1.00  0.00     0.293 HD
ENDBRANCH   6  14
TORSDOF 4
ENDMDL
MODEL 2
REMARK VINA RESULT:    -3.467      0.049      2.430
REMARK INTER + INTRA:          -4.020
REMARK INTER:                  -3.974
REMARK INTRA:                  -0.046
REMARK UNBOUND:                -0.046
REMARK SMILES O=C([O-])c1cc(O)c(O)c(O)c1
REMARK SMILES IDX 4 1 5 2 12 3 6 4 10 5 8 6 2 7 1 8 3 9 7 10 11 12 9 14
REMARK H PARENT 7 11 11 13 9 15
REMARK Flexibility Score: inf
ROOT
ATOM      1  C   UNL     1     -45.060 -47.382  70.811  1.00  0.00     0.005 A 
ATOM      2  C   UNL     1     -46.413 -47.082  71.044  1.00  0.00     0.060 A 
ATOM      3  C   UNL     1     -44.693 -48.711  70.542  1.00  0.00     0.060 A 
ATOM      4  C   UNL     1     -47.385 -48.093  71.008  1.00  0.00     0.162 A 
ATOM      5  C   UNL     1     -45.656 -49.725  70.505  1.00  0.00     0.162 A 
ATOM      6  C   UNL     1     -47.007 -49.419  70.738  1.00  0.00     0.200 A 
ENDROOT
BRANCH   1   7
ATOM      7  C   UNL     1     -44.033 -46.317  70.849  1.00  0.00     0.072 C 
ATOM      8  O   UNL     1     -43.397 -46.004  69.808  1.00  0.00    -0.545 OA
ATOM      9  O   UNL     1     -43.755 -45.647  72.035  1.00  0.00    -0.545 OA
ENDBRANCH   1   7
BRANCH   4  10
ATOM     10  O   UNL     1     -48.724 -47.782  71.240  1.00  0.00    -0.504 OA
ATOM     11  H   UNL     1     -49.438 -48.500  71.276  1.00  0.00     0.293 HD
ENDBRANCH   4  10
BRANCH   5  12
ATOM     12  O   UNL     1     -45.249 -51.031  70.234  1.00  0.00    -0.504 OA
ATOM     13  H   UNL     1     -44.371 -51.238  69.774  1.00  0.00     0.293 HD
ENDBRANCH   5  12
BRANCH   6  14
ATOM     14  O   UNL     1     -47.961 -50.436  70.698  1.00  0.00    -0.502 OA
ATOM     15  H   UNL     1     -47.924 -51.186  70.017  1.00  0.00     0.293 HD
ENDBRANCH   6  14
TORSDOF 4
ENDMDL
MODEL 3
REMARK VINA RESULT:    -3.282      1.348      4.086
REMARK INTER + INTRA:          -3.807
REMARK INTER:                  -3.755
REMARK INTRA:                  -0.052
REMARK UNBOUND:                -0.046
REMARK SMILES O=C([O-])c1cc(O)c(O)c(O)c1
REMARK SMILES IDX 4 1 5 2 12 3 6 4 10 5 8 6 2 7 1 8 3 9 7 10 11 12 9 14
REMARK H PARENT 7 11 11 13 9 15
REMARK Flexibility Score: inf
ROOT
ATOM      1  C   UNL     1     -45.879 -48.023  70.879  1.00  0.00     0.005 A 
ATOM      2  C   UNL     1     -45.037 -49.102  70.561  1.00  0.00     0.060 A 
ATOM      3  C   UNL     1     -45.307 -46.769  71.150  1.00  0.00     0.060 A 
ATOM      4  C   UNL     1     -43.646 -48.933  70.514  1.00  0.00     0.162 A 
ATOM      5  C   UNL     1     -43.921 -46.592  71.106  1.00  0.00     0.162 A 
ATOM      6  C   UNL     1     -43.084 -47.674  70.787  1.00  0.00     0.200 A 
ENDROOT
BRANCH   1   7
ATOM      7  C   UNL     1     -47.347 -48.201  70.930  1.00  0.00     0.072 C 
ATOM      8  O   UNL     1     -48.113 -47.201  70.929  1.00  0.00    -0.545 OA
ATOM      9  O   UNL     1     -47.903 -49.474  70.980  1.00  0.00    -0.545 OA
ENDBRANCH   1   7
BRANCH   4  10
ATOM     10  O   UNL     1     -42.821 -50.011  70.197  1.00  0.00    -0.504 OA
ATOM     11  H   UNL     1     -43.181 -50.838  69.735  1.00  0.00     0.293 HD
ENDBRANCH   4  10
BRANCH   5  12
ATOM     12  O   UNL     1     -43.393 -45.330  71.381  1.00  0.00    -0.504 OA
ATOM     13  H   UNL     1     -43.230 -44.644  70.654  1.00  0.00     0.293 HD
ENDBRANCH   5  12
BRANCH   6  14
ATOM     14  O   UNL     1     -41.702 -47.488  70.744  1.00  0.00    -0.502 OA
ATOM     15  H   UNL     1     -41.058 -48.252  70.575  1.00  0.00     0.293 HD
ENDBRANCH   6  14
TORSDOF 4
ENDMDL
MODEL 4
REMARK VINA RESULT:    -3.272      1.343      4.606
REMARK INTER + INTRA:          -3.796
REMARK INTER:                  -3.743
REMARK INTRA:                  -0.052
REMARK UNBOUND:                -0.046
REMARK SMILES O=C([O-])c1cc(O)c(O)c(O)c1
REMARK SMILES IDX 4 1 5 2 12 3 6 4 10 5 8 6 2 7 1 8 3 9 7 10 11 12 9 14
REMARK H PARENT 7 11 11 13 9 15
REMARK Flexibility Score: inf
ROOT
ATOM      1  C   UNL     1     -45.876 -47.989  70.855  1.00  0.00     0.005 A 
ATOM      2  C   UNL     1     -45.299 -46.724  71.058  1.00  0.00     0.060 A 
ATOM      3  C   UNL     1     -45.040 -49.082  70.575  1.00  0.00     0.060 A 
ATOM      4  C   UNL     1     -43.909 -46.553  70.983  1.00  0.00     0.162 A 
ATOM      5  C   UNL     1     -43.653 -48.920  70.499  1.00  0.00     0.162 A 
ATOM      6  C   UNL     1     -43.082 -47.653  70.703  1.00  0.00     0.200 A 
ENDROOT
BRANCH   1   7
ATOM      7  C   UNL     1     -47.343 -48.171  70.933  1.00  0.00     0.072 C 
ATOM      8  O   UNL     1     -48.111 -47.173  70.974  1.00  0.00    -0.545 OA
ATOM      9  O   UNL     1     -47.894 -49.447  70.962  1.00  0.00    -0.545 OA
ENDBRANCH   1   7
BRANCH   4  10
ATOM     10  O   UNL     1     -43.349 -45.292  71.187  1.00  0.00    -0.504 OA
ATOM     11  H   UNL     1     -43.831 -44.445  70.912  1.00  0.00     0.293 HD
ENDBRANCH   4  10
BRANCH   5  12
ATOM     12  O   UNL     1     -42.858 -50.032  70.220  1.00  0.00    -0.504 OA
ATOM     13  H   UNL     1     -43.134 -50.736  69.546  1.00  0.00     0.293 HD
ENDBRANCH   5  12
BRANCH   6  14
ATOM     14  O   UNL     1     -41.697 -47.501  70.627  1.00  0.00    -0.502 OA
ATOM     15  H   UNL     1     -41.245 -46.601  70.741  1.00  0.00     0.293 HD
ENDBRANCH   6  14
TORSDOF 4
ENDMDL
MODEL 5
REMARK VINA RESULT:    -3.186      1.526      4.653
REMARK INTER + INTRA:          -3.698
REMARK INTER:                  -3.651
REMARK INTRA:                  -0.046
REMARK UNBOUND:                -0.046
REMARK SMILES O=C([O-])c1cc(O)c(O)c(O)c1
REMARK SMILES IDX 4 1 5 2 12 3 6 4 10 5 8 6 2 7 1 8 3 9 7 10 11 12 9 14
REMARK H PARENT 7 11 11 13 9 15
REMARK Flexibility Score: inf
ROOT
ATOM      1  C   UNL     1     -48.052 -48.751  70.781  1.00  0.00     0.005 A 
ATOM      2  C   UNL     1     -47.319 -47.565  70.950  1.00  0.00     0.060 A 
ATOM      3  C   UNL     1     -47.362 -49.952  70.549  1.00  0.00     0.060 A 
ATOM      4  C   UNL     1     -45.918 -47.576  70.888  1.00  0.00     0.162 A 
ATOM      5  C   UNL     1     -45.965 -49.973  70.486  1.00  0.00     0.162 A 
ATOM      6  C   UNL     1     -45.237 -48.783  70.655  1.00  0.00     0.200 A 
ENDROOT
BRANCH   1   7
ATOM      7  C   UNL     1     -49.531 -48.741  70.846  1.00  0.00     0.072 C 
ATOM      8  O   UNL     1     -50.123 -48.385  71.900  1.00  0.00    -0.545 OA
ATOM      9  O   UNL     1     -50.288 -49.124  69.745  1.00  0.00    -0.545 OA
ENDBRANCH   1   7
BRANCH   4  10
ATOM     10  O   UNL     1     -45.201 -46.392  71.057  1.00  0.00    -0.504 OA
ATOM     11  H   UNL     1     -45.497 -45.525  70.625  1.00  0.00     0.293 HD
ENDBRANCH   4  10
BRANCH   5  12
ATOM     12  O   UNL     1     -45.318 -51.187  70.253  1.00  0.00    -0.504 OA
ATOM     13  H   UNL     1     -45.226 -51.579  69.324  1.00  0.00     0.293 HD
ENDBRANCH   5  12
BRANCH   6  14
ATOM     14  O   UNL     1     -43.843 -48.813  70.591  1.00  0.00    -0.502 OA
ATOM     15  H   UNL     1     -43.296 -49.533  71.047  1.00  0.00     0.293 HD
ENDBRANCH   6  14
TORSDOF 4
ENDMDL
MODEL 6
REMARK VINA RESULT:    -3.160      1.543      4.905
REMARK INTER + INTRA:          -3.667
REMARK INTER:                  -3.621
REMARK INTRA:                  -0.046
REMARK UNBOUND:                -0.046
REMARK SMILES O=C([O-])c1cc(O)c(O)c(O)c1
REMARK SMILES IDX 4 1 5 2 12 3 6 4 10 5 8 6 2 7 1 8 3 9 7 10 11 12 9 14
REMARK H PARENT 7 11 11 13 9 15
REMARK Flexibility Score: inf
ROOT
ATOM      1  C   UNL     1     -46.807 -49.948  70.408  1.00  0.00     0.005 A 
ATOM      2  C   UNL     1     -47.547 -48.758  70.306  1.00  0.00     0.060 A 
ATOM      3  C   UNL     1     -45.411 -49.873  70.550  1.00  0.00     0.060 A 
ATOM      4  C   UNL     1     -46.905 -47.512  70.345  1.00  0.00     0.162 A 
ATOM      5  C   UNL     1     -44.763 -48.634  70.590  1.00  0.00     0.162 A 
ATOM      6  C   UNL     1     -45.509 -47.448  70.487  1.00  0.00     0.200 A 
ENDROOT
BRANCH   1   7
ATOM      7  C   UNL     1     -47.483 -51.264  70.366  1.00  0.00     0.072 C 
ATOM      8  O   UNL     1     -48.324 -51.580  71.249  1.00  0.00    -0.545 OA
ATOM      9  O   UNL     1     -47.198 -52.171  69.352  1.00  0.00    -0.545 OA
ENDBRANCH   1   7
BRANCH   4  10
ATOM     10  O   UNL     1     -47.651 -46.339  70.243  1.00  0.00    -0.504 OA
ATOM     11  H   UNL     1     -48.563 -46.249  70.675  1.00  0.00     0.293 HD
ENDBRANCH   4  10
BRANCH   5  12
ATOM     12  O   UNL     1     -43.376 -48.603  70.732  1.00  0.00    -0.504 OA
ATOM     13  H   UNL     1     -42.820 -49.448  70.776  1.00  0.00     0.293 HD
ENDBRANCH   5  12
BRANCH   6  14
ATOM     14  O   UNL     1     -44.854 -46.216  70.529  1.00  0.00    -0.502 OA
ATOM     15  H   UNL     1     -45.044 -45.480  69.859  1.00  0.00     0.293 HD
ENDBRANCH   6  14
TORSDOF 4
ENDMDL
MODEL 7
REMARK VINA RESULT:    -3.136      1.652      2.973
REMARK INTER + INTRA:          -3.640
REMARK INTER:                  -3.587
REMARK INTRA:                  -0.052
REMARK UNBOUND:                -0.046
REMARK SMILES O=C([O-])c1cc(O)c(O)c(O)c1
REMARK SMILES IDX 4 1 5 2 12 3 6 4 10 5 8 6 2 7 1 8 3 9 7 10 11 12 9 14
REMARK H PARENT 7 11 11 13 9 15
REMARK Flexibility Score: inf
ROOT
ATOM      1  C   UNL     1     -45.009 -48.775  70.231  1.00  0.00     0.005 A 
ATOM      2  C   UNL     1     -45.712 -47.565  70.105  1.00  0.00     0.060 A 
ATOM      3  C   UNL     1     -45.724 -49.955  70.490  1.00  0.00     0.060 A 
ATOM      4  C   UNL     1     -47.108 -47.533  70.236  1.00  0.00     0.162 A 
ATOM      5  C   UNL     1     -47.116 -49.933  70.623  1.00  0.00     0.162 A 
ATOM      6  C   UNL     1     -47.814 -48.720  70.496  1.00  0.00     0.200 A 
ENDROOT
BRANCH   1   7
ATOM      7  C   UNL     1     -43.535 -48.810  70.093  1.00  0.00     0.072 C 
ATOM      8  O   UNL     1     -42.885 -49.833  70.435  1.00  0.00    -0.545 OA
ATOM      9  O   UNL     1     -42.848 -47.714  69.584  1.00  0.00    -0.545 OA
ENDBRANCH   1   7
BRANCH   4  10
ATOM     10  O   UNL     1     -47.794 -46.326  70.109  1.00  0.00    -0.504 OA
ATOM     11  H   UNL     1     -47.645 -45.559  70.754  1.00  0.00     0.293 HD
ENDBRANCH   4  10
BRANCH   5  12
ATOM     12  O   UNL     1     -47.789 -51.127  70.880  1.00  0.00    -0.504 OA
ATOM     13  H   UNL     1     -48.060 -51.763  70.139  1.00  0.00     0.293 HD
ENDBRANCH   5  12
BRANCH   6  14
ATOM     14  O   UNL     1     -49.203 -48.706  70.628  1.00  0.00    -0.502 OA
ATOM     15  H   UNL     1     -49.743 -47.851  70.575  1.00  0.00     0.293 HD
ENDBRANCH   6  14
TORSDOF 4
ENDMDL
MODEL 8
REMARK VINA RESULT:    -3.129      1.545      4.235
REMARK INTER + INTRA:          -3.632
REMARK INTER:                  -3.584
REMARK INTRA:                  -0.047
REMARK UNBOUND:                -0.046
REMARK SMILES O=C([O-])c1cc(O)c(O)c(O)c1
REMARK SMILES IDX 4 1 5 2 12 3 6 4 10 5 8 6 2 7 1 8 3 9 7 10 11 12 9 14
REMARK H PARENT 7 11 11 13 9 15
REMARK Flexibility Score: inf
ROOT
ATOM      1  C   UNL     1     -46.475 -50.300  70.469  1.00  0.00     0.005 A 
ATOM      2  C   UNL     1     -45.092 -50.066  70.406  1.00  0.00     0.060 A 
ATOM      3  C   UNL     1     -47.343 -49.213  70.664  1.00  0.00     0.060 A 
ATOM      4  C   UNL     1     -44.581 -48.766  70.536  1.00  0.00     0.162 A 
ATOM      5  C   UNL     1     -46.842 -47.914  70.794  1.00  0.00     0.162 A 
ATOM      6  C   UNL     1     -45.457 -47.685  70.730  1.00  0.00     0.200 A 
ENDROOT
BRANCH   1   7
ATOM      7  C   UNL     1     -47.016 -51.671  70.333  1.00  0.00     0.072 C 
ATOM      8  O   UNL     1     -46.678 -52.400  69.362  1.00  0.00    -0.545 OA
ATOM      9  O   UNL     1     -47.906 -52.175  71.275  1.00  0.00    -0.545 OA
ENDBRANCH   1   7
BRANCH   4  10
ATOM     10  O   UNL     1     -43.206 -48.547  70.471  1.00  0.00    -0.504 OA
ATOM     11  H   UNL     1     -42.540 -49.293  70.635  1.00  0.00     0.293 HD
ENDBRANCH   4  10
BRANCH   5  12
ATOM     12  O   UNL     1     -47.738 -46.861  70.985  1.00  0.00    -0.504 OA
ATOM     13  H   UNL     1     -48.029 -46.564  71.908  1.00  0.00     0.293 HD
ENDBRANCH   5  12
BRANCH   6  14
ATOM     14  O   UNL     1     -44.966 -46.386  70.859  1.00  0.00    -0.502 OA
ATOM     15  H   UNL     1     -43.974 -46.181  70.871  1.00  0.00     0.293 HD
ENDBRANCH   6  14
TORSDOF 4
ENDMDL
MODEL 9
REMARK VINA RESULT:    -3.037     11.131     12.364
REMARK INTER + INTRA:          -3.526
REMARK INTER:                  -3.474
REMARK INTRA:                  -0.052
REMARK UNBOUND:                -0.046
REMARK SMILES O=C([O-])c1cc(O)c(O)c(O)c1
REMARK SMILES IDX 4 1 5 2 12 3 6 4 10 5 8 6 2 7 1 8 3 9 7 10 11 12 9 14
REMARK H PARENT 7 11 11 13 9 15
REMARK Flexibility Score: inf
ROOT
ATOM      1  C   UNL     1     -50.051 -37.406  71.556  1.00  0.00     0.005 A 
ATOM      2  C   UNL     1     -51.351 -37.561  72.064  1.00  0.00     0.060 A 
ATOM      3  C   UNL     1     -49.883 -37.081  70.200  1.00  0.00     0.060 A 
ATOM      4  C   UNL     1     -52.468 -37.396  71.232  1.00  0.00     0.162 A 
ATOM      5  C   UNL     1     -50.991 -36.914  69.363  1.00  0.00     0.162 A 
ATOM      6  C   UNL     1     -52.289 -37.071  69.877  1.00  0.00     0.200 A 
ENDROOT
BRANCH   1   7
ATOM      7  C   UNL     1     -48.871 -37.581  72.433  1.00  0.00     0.072 C 
ATOM      8  O   UNL     1     -48.990 -37.520  73.686  1.00  0.00    -0.545 OA
ATOM      9  O   UNL     1     -47.614 -37.814  71.886  1.00  0.00    -0.545 OA
ENDBRANCH   1   7
BRANCH   4  10
ATOM     10  O   UNL     1     -53.753 -37.553  71.749  1.00  0.00    -0.504 OA
ATOM     11  H   UNL     1     -54.577 -37.445  71.168  1.00  0.00     0.293 HD
ENDBRANCH   4  10
BRANCH   5  12
ATOM     12  O   UNL     1     -50.781 -36.591  68.022  1.00  0.00    -0.504 OA
ATOM     13  H   UNL     1     -51.441 -36.035  67.492  1.00  0.00     0.293 HD
ENDBRANCH   5  12
BRANCH   6  14
ATOM     14  O   UNL     1     -53.389 -36.901  69.035  1.00  0.00    -0.502 OA
ATOM     15  H   UNL     1     -54.204 -36.366  69.311  1.00  0.00     0.293 HD
ENDBRANCH   6  14
TORSDOF 4
ENDMDL
