MODEL 1
REMARK VINA RESULT:    -5.011      0.000      0.000
REMARK INTER + INTRA:          -7.767
REMARK INTER:                  -7.647
REMARK INTRA:                  -0.120
REMARK UNBOUND:                -0.120
REMARK SMILES CC1=CCC[C@H](C)C(=O)C[C@H](C(C)C)C(=O)C1
REMARK SMILES IDX 8 1 9 2 6 3 7 4 5 5 4 6 3 7 2 8 1 9 10 11 11 12 15 13 16 14
REMARK SMILES IDX 17 15 12 17 13 18 14 19
REMARK H PARENT
REMARK Flexibility Score: 70.00
ROOT
ATOM      1  C   UNL     1      -9.203  32.454  22.225  1.00  0.00     0.136 C 
ATOM      2  O   UNL     1      -9.965  32.753  21.315  1.00  0.00    -0.299 OA
ENDROOT
BRANCH   1   3
ATOM      3  C   UNL     1      -7.977  33.327  22.446  1.00  0.00     0.053 C 
ATOM      4  C   UNL     1      -7.507  33.893  21.103  1.00  0.00     0.016 C 
BRANCH   3   5
ATOM      5  C   UNL     1      -8.276  34.476  23.434  1.00  0.00     0.015 C 
BRANCH   5   6
ATOM      6  C   UNL     1      -9.294  34.101  24.524  1.00  0.00     0.028 C 
BRANCH   6   7
ATOM      7  C   UNL     1      -8.632  33.819  25.851  1.00  0.00    -0.028 C 
ATOM      8  C   UNL     1      -8.808  32.719  26.622  1.00  0.00    -0.070 CG0
ATOM      9  C   UNL     1      -8.072  32.665  27.940  1.00  0.00     0.039 C 
ATOM     10  G   UNL     1      -9.669  31.530  26.232  1.00  0.00     0.000 G0
ENDBRANCH   6   7
ENDBRANCH   5   6
ENDBRANCH   3   5
ENDBRANCH   1   3
BRANCH   1  11
ATOM     11  C   UNL     1      -9.546  31.216  23.032  1.00  0.00     0.087 C 
BRANCH  11  12
ATOM     12  C   UNL     1      -8.451  30.666  23.989  1.00  0.00     0.066 C 
BRANCH  12  13
ATOM     13  C   UNL     1      -8.874  30.503  25.448  1.00  0.00     0.140 C 
ATOM     14  O   UNL     1      -8.578  29.456  26.006  1.00  0.00    -0.299 OA
BRANCH  13  15
ATOM     15  C   UNL     1      -9.673  31.523  26.234  1.00  0.00     0.106 CG0
ATOM     16  G   UNL     1      -8.810  32.710  26.627  1.00  0.00     0.000 G0
ENDBRANCH  13  15
ENDBRANCH  12  13
BRANCH  12  17
ATOM     17  C   UNL     1      -7.825  29.327  23.483  1.00  0.00    -0.006 C 
ATOM     18  C   UNL     1      -8.658  28.650  22.381  1.00  0.00     0.008 C 
ATOM     19  C   UNL     1      -6.365  29.486  23.028  1.00  0.00     0.008 C 
ENDBRANCH  12  17
ENDBRANCH  11  12
ENDBRANCH   1  11
TORSDOF 1
ENDMDL
MODEL 2
REMARK VINA RESULT:    -4.999      1.821      4.036
REMARK INTER + INTRA:          -7.749
REMARK INTER:                  -7.730
REMARK INTRA:                  -0.019
REMARK UNBOUND:                -0.120
REMARK SMILES CC1=CCC[C@H](C)C(=O)C[C@H](C(C)C)C(=O)C1
REMARK SMILES IDX 8 1 9 2 6 3 7 4 5 5 4 6 3 7 2 8 1 9 10 11 11 12 15 13 16 14
REMARK SMILES IDX 17 15 12 17 13 18 14 19
REMARK H PARENT
REMARK Flexibility Score: 70.00
ROOT
ATOM      1  C   UNL     1      -8.006  30.293  23.561  1.00  0.00     0.136 C 
ATOM      2  O   UNL     1      -7.998  29.307  22.837  1.00  0.00    -0.299 OA
ENDROOT
BRANCH   1   3
ATOM      3  C   UNL     1      -8.619  30.159  24.947  1.00  0.00     0.053 C 
ATOM      4  C   UNL     1      -7.530  29.756  25.947  1.00  0.00     0.016 C 
BRANCH   3   5
ATOM      5  C   UNL     1      -9.292  31.475  25.393  1.00  0.00     0.015 C 
BRANCH   5   6
ATOM      6  C   UNL     1      -8.363  32.400  26.198  1.00  0.00     0.028 C 
BRANCH   6   7
ATOM      7  C   UNL     1      -8.799  33.844  26.130  1.00  0.00    -0.028 C 
ATOM      8  C   UNL     1      -8.362  34.776  25.249  1.00  0.00    -0.070 CG0
ATOM      9  C   UNL     1      -8.904  36.179  25.391  1.00  0.00     0.039 C 
ATOM     10  G   UNL     1      -7.392  34.494  24.115  1.00  0.00     0.000 G0
ENDBRANCH   6   7
ENDBRANCH   5   6
ENDBRANCH   3   5
ENDBRANCH   1   3
BRANCH   1  11
ATOM     11  C   UNL     1      -7.422  31.572  22.989  1.00  0.00     0.087 C 
BRANCH  11  12
ATOM     12  C   UNL     1      -8.425  32.637  22.464  1.00  0.00     0.066 C 
BRANCH  12  13
ATOM     13  C   UNL     1      -8.100  34.085  22.830  1.00  0.00     0.140 C 
ATOM     14  O   UNL     1      -8.399  34.951  22.020  1.00  0.00    -0.299 OA
BRANCH  13  15
ATOM     15  C   UNL     1      -7.392  34.515  24.099  1.00  0.00     0.106 CG0
ATOM     16  G   UNL     1      -8.385  34.776  25.219  1.00  0.00     0.000 G0
ENDBRANCH  13  15
ENDBRANCH  12  13
BRANCH  12  17
ATOM     17  C   UNL     1      -8.658  32.539  20.922  1.00  0.00    -0.006 C 
ATOM     18  C   UNL     1      -7.354  32.357  20.126  1.00  0.00     0.008 C 
ATOM     19  C   UNL     1      -9.672  31.447  20.541  1.00  0.00     0.008 C 
ENDBRANCH  12  17
ENDBRANCH  11  12
ENDBRANCH   1  11
TORSDOF 1
ENDMDL
MODEL 3
REMARK VINA RESULT:    -4.940      1.868      3.449
REMARK INTER + INTRA:          -7.659
REMARK INTER:                  -7.776
REMARK INTRA:                   0.116
REMARK UNBOUND:                -0.120
REMARK SMILES CC1=CCC[C@H](C)C(=O)C[C@H](C(C)C)C(=O)C1
REMARK SMILES IDX 8 1 9 2 6 3 7 4 5 5 4 6 3 7 2 8 1 9 10 11 11 12 15 13 16 14
REMARK SMILES IDX 17 15 12 17 13 18 14 19
REMARK H PARENT
REMARK Flexibility Score: 70.00
ROOT
ATOM      1  C   UNL     1      -8.521  33.804  23.968  1.00  0.00     0.136 C 
ATOM      2  O   UNL     1      -8.180  34.692  23.199  1.00  0.00    -0.299 OA
ENDROOT
BRANCH   1   3
ATOM      3  C   UNL     1      -8.306  34.026  25.458  1.00  0.00     0.053 C 
ATOM      4  C   UNL     1      -8.798  35.426  25.840  1.00  0.00     0.016 C 
BRANCH   3   5
ATOM      5  C   UNL     1      -9.039  32.956  26.297  1.00  0.00     0.015 C 
BRANCH   5   6
ATOM      6  C   UNL     1      -8.154  31.757  26.676  1.00  0.00     0.028 C 
BRANCH   6   7
ATOM      7  C   UNL     1      -8.865  30.439  26.484  1.00  0.00    -0.028 C 
ATOM      8  C   UNL     1      -8.643  29.540  25.495  1.00  0.00    -0.070 CG0
ATOM      9  C   UNL     1      -9.506  28.301  25.472  1.00  0.00     0.039 C 
ATOM     10  G   UNL     1      -7.566  29.684  24.433  1.00  0.00     0.000 G0
ENDBRANCH   6   7
ENDBRANCH   5   6
ENDBRANCH   3   5
ENDBRANCH   1   3
BRANCH   1  11
ATOM     11  C   UNL     1      -9.107  32.547  23.353  1.00  0.00     0.087 C 
BRANCH  11  12
ATOM     12  C   UNL     1      -8.123  31.588  22.624  1.00  0.00     0.066 C 
BRANCH  12  13
ATOM     13  C   UNL     1      -8.136  30.139  23.110  1.00  0.00     0.140 C 
ATOM     14  O   UNL     1      -8.684  29.312  22.395  1.00  0.00    -0.299 OA
BRANCH  13  15
ATOM     15  C   UNL     1      -7.563  29.666  24.430  1.00  0.00     0.106 CG0
ATOM     16  G   UNL     1      -8.649  29.541  25.485  1.00  0.00     0.000 G0
ENDBRANCH  13  15
ENDBRANCH  12  13
BRANCH  12  17
ATOM     17  C   UNL     1      -8.297  31.611  21.072  1.00  0.00    -0.006 C 
ATOM     18  C   UNL     1      -9.770  31.624  20.630  1.00  0.00     0.008 C 
ATOM     19  C   UNL     1      -7.528  32.763  20.403  1.00  0.00     0.008 C 
ENDBRANCH  12  17
ENDBRANCH  11  12
ENDBRANCH   1  11
TORSDOF 1
ENDMDL
MODEL 4
REMARK VINA RESULT:    -4.893      2.421      4.059
REMARK INTER + INTRA:          -7.588
REMARK INTER:                  -7.600
REMARK INTRA:                   0.012
REMARK UNBOUND:                -0.120
REMARK SMILES CC1=CCC[C@H](C)C(=O)C[C@H](C(C)C)C(=O)C1
REMARK SMILES IDX 8 1 9 2 6 3 7 4 5 5 4 6 3 7 2 8 1 9 10 11 11 12 15 13 16 14
REMARK SMILES IDX 17 15 12 17 13 18 14 19
REMARK H PARENT
REMARK Flexibility Score: 70.00
ROOT
ATOM      1  C   UNL     1      -8.709  33.207  25.205  1.00  0.00     0.136 C 
ATOM      2  O   UNL     1      -9.380  33.286  26.224  1.00  0.00    -0.299 OA
ENDROOT
BRANCH   1   3
ATOM      3  C   UNL     1      -8.746  34.377  24.232  1.00  0.00     0.053 C 
ATOM      4  C   UNL     1      -9.083  35.662  24.994  1.00  0.00     0.016 C 
BRANCH   3   5
ATOM      5  C   UNL     1      -7.400  34.533  23.491  1.00  0.00     0.015 C 
BRANCH   5   6
ATOM      6  C   UNL     1      -7.545  34.623  21.962  1.00  0.00     0.028 C 
BRANCH   6   7
ATOM      7  C   UNL     1      -8.676  33.766  21.445  1.00  0.00    -0.028 C 
ATOM      8  C   UNL     1      -8.703  32.413  21.395  1.00  0.00    -0.070 CG0
ATOM      9  C   UNL     1      -9.927  31.761  20.796  1.00  0.00     0.039 C 
ATOM     10  G   UNL     1      -7.601  31.514  21.928  1.00  0.00     0.000 G0
ENDBRANCH   6   7
ENDBRANCH   5   6
ENDBRANCH   3   5
ENDBRANCH   1   3
BRANCH   1  11
ATOM     11  C   UNL     1      -7.919  31.928  24.997  1.00  0.00     0.087 C 
BRANCH  11  12
ATOM     12  C   UNL     1      -8.649  30.749  24.296  1.00  0.00     0.066 C 
BRANCH  12  13
ATOM     13  C   UNL     1      -8.198  30.453  22.865  1.00  0.00     0.140 C 
ATOM     14  O   UNL     1      -8.277  29.295  22.479  1.00  0.00    -0.299 OA
BRANCH  13  15
ATOM     15  C   UNL     1      -7.618  31.479  21.914  1.00  0.00     0.106 CG0
ATOM     16  G   UNL     1      -8.692  32.428  21.410  1.00  0.00     0.000 G0
ENDBRANCH  13  15
ENDBRANCH  12  13
BRANCH  12  17
ATOM     17  C   UNL     1      -8.604  29.429  25.131  1.00  0.00    -0.006 C 
ATOM     18  C   UNL     1      -8.019  29.626  26.540  1.00  0.00     0.008 C 
ATOM     19  C   UNL     1      -9.972  28.730  25.214  1.00  0.00     0.008 C 
ENDBRANCH  12  17
ENDBRANCH  11  12
ENDBRANCH   1  11
TORSDOF 1
ENDMDL
MODEL 5
REMARK VINA RESULT:    -4.687      2.049      5.260
REMARK INTER + INTRA:          -7.273
REMARK INTER:                  -7.275
REMARK INTRA:                   0.002
REMARK UNBOUND:                -0.120
REMARK SMILES CC1=CCC[C@H](C)C(=O)C[C@H](C(C)C)C(=O)C1
REMARK SMILES IDX 8 1 9 2 6 3 7 4 5 5 4 6 3 7 2 8 1 9 10 11 11 12 15 13 16 14
REMARK SMILES IDX 17 15 12 17 13 18 14 19
REMARK H PARENT
REMARK Flexibility Score: 70.00
ROOT
ATOM      1  C   UNL     1      -8.645  32.640  26.654  1.00  0.00     0.136 C 
ATOM      2  O   UNL     1      -8.288  33.622  27.290  1.00  0.00    -0.299 OA
ENDROOT
BRANCH   1   3
ATOM      3  C   UNL     1      -8.386  31.265  27.253  1.00  0.00     0.053 C 
ATOM      4  C   UNL     1      -9.042  31.182  28.635  1.00  0.00     0.016 C 
BRANCH   3   5
ATOM      5  C   UNL     1      -8.924  30.143  26.339  1.00  0.00     0.015 C 
BRANCH   5   6
ATOM      6  C   UNL     1      -7.836  29.466  25.489  1.00  0.00     0.028 C 
BRANCH   6   7
ATOM      7  C   UNL     1      -8.362  29.004  24.152  1.00  0.00    -0.028 C 
ATOM      8  C   UNL     1      -8.260  29.664  22.973  1.00  0.00    -0.070 CG0
ATOM      9  C   UNL     1      -8.900  29.031  21.761  1.00  0.00     0.039 C 
ATOM     10  G   UNL     1      -7.520  30.978  22.790  1.00  0.00     0.000 G0
ENDBRANCH   6   7
ENDBRANCH   5   6
ENDBRANCH   3   5
ENDBRANCH   1   3
BRANCH   1  11
ATOM     11  C   UNL     1      -9.293  32.891  25.305  1.00  0.00     0.087 C 
BRANCH  11  12
ATOM     12  C   UNL     1      -8.347  33.180  24.106  1.00  0.00     0.066 C 
BRANCH  12  13
ATOM     13  C   UNL     1      -8.430  32.186  22.947  1.00  0.00     0.140 C 
ATOM     14  O   UNL     1      -9.324  32.350  22.129  1.00  0.00    -0.299 OA
BRANCH  13  15
ATOM     15  C   UNL     1      -7.517  30.991  22.769  1.00  0.00     0.106 CG0
ATOM     16  G   UNL     1      -8.270  29.689  22.988  1.00  0.00     0.000 G0
ENDBRANCH  13  15
ENDBRANCH  12  13
BRANCH  12  17
ATOM     17  C   UNL     1      -8.505  34.632  23.548  1.00  0.00    -0.006 C 
ATOM     18  C   UNL     1      -8.583  35.697  24.655  1.00  0.00     0.008 C 
ATOM     19  C   UNL     1      -7.415  35.000  22.528  1.00  0.00     0.008 C 
ENDBRANCH  12  17
ENDBRANCH  11  12
ENDBRANCH   1  11
TORSDOF 1
ENDMDL
MODEL 6
REMARK VINA RESULT:    -4.641      1.611      3.999
REMARK INTER + INTRA:          -7.203
REMARK INTER:                  -7.138
REMARK INTRA:                  -0.066
REMARK UNBOUND:                -0.120
REMARK SMILES CC1=CCC[C@H](C)C(=O)C[C@H](C(C)C)C(=O)C1
REMARK SMILES IDX 8 1 9 2 6 3 7 4 5 5 4 6 3 7 2 8 1 9 10 11 11 12 15 13 16 14
REMARK SMILES IDX 17 15 12 17 13 18 14 19
REMARK H PARENT
REMARK Flexibility Score: 70.00
ROOT
ATOM      1  C   UNL     1      -8.420  32.891  22.287  1.00  0.00     0.136 C 
ATOM      2  O   UNL     1      -8.479  33.814  21.486  1.00  0.00    -0.299 OA
ENDROOT
BRANCH   1   3
ATOM      3  C   UNL     1      -8.962  31.535  21.858  1.00  0.00     0.053 C 
ATOM      4  C   UNL     1      -9.717  31.686  20.533  1.00  0.00     0.016 C 
BRANCH   3   5
ATOM      5  C   UNL     1      -7.827  30.498  21.710  1.00  0.00     0.015 C 
BRANCH   5   6
ATOM      6  C   UNL     1      -7.302  29.964  23.054  1.00  0.00     0.028 C 
BRANCH   6   7
ATOM      7  C   UNL     1      -8.414  29.456  23.940  1.00  0.00    -0.028 C 
ATOM      8  C   UNL     1      -8.738  29.919  25.171  1.00  0.00    -0.070 CG0
ATOM      9  C   UNL     1      -9.867  29.231  25.901  1.00  0.00     0.039 C 
ATOM     10  G   UNL     1      -8.062  31.100  25.847  1.00  0.00     0.000 G0
ENDBRANCH   6   7
ENDBRANCH   5   6
ENDBRANCH   3   5
ENDBRANCH   1   3
BRANCH   1  11
ATOM     11  C   UNL     1      -7.832  33.199  23.651  1.00  0.00     0.087 C 
BRANCH  11  12
ATOM     12  C   UNL     1      -8.831  33.453  24.815  1.00  0.00     0.066 C 
BRANCH  12  13
ATOM     13  C   UNL     1      -8.929  32.335  25.853  1.00  0.00     0.140 C 
ATOM     14  O   UNL     1      -9.741  32.477  26.756  1.00  0.00    -0.299 OA
BRANCH  13  15
ATOM     15  C   UNL     1      -8.061  31.093  25.868  1.00  0.00     0.106 CG0
ATOM     16  G   UNL     1      -8.751  29.934  25.169  1.00  0.00     0.000 G0
ENDBRANCH  13  15
ENDBRANCH  12  13
BRANCH  12  17
ATOM     17  C   UNL     1      -8.575  34.810  25.545  1.00  0.00    -0.006 C 
ATOM     18  C   UNL     1      -7.081  35.141  25.698  1.00  0.00     0.008 C 
ATOM     19  C   UNL     1      -9.319  35.987  24.891  1.00  0.00     0.008 C 
ENDBRANCH  12  17
ENDBRANCH  11  12
ENDBRANCH   1  11
TORSDOF 1
ENDMDL
MODEL 7
REMARK VINA RESULT:    -4.626      1.737      2.662
REMARK INTER + INTRA:          -7.180
REMARK INTER:                  -7.322
REMARK INTRA:                   0.142
REMARK UNBOUND:                -0.120
REMARK SMILES CC1=CCC[C@H](C)C(=O)C[C@H](C(C)C)C(=O)C1
REMARK SMILES IDX 8 1 9 2 6 3 7 4 5 5 4 6 3 7 2 8 1 9 10 11 11 12 15 13 16 14
REMARK SMILES IDX 17 15 12 17 13 18 14 19
REMARK H PARENT
REMARK Flexibility Score: 70.00
ROOT
ATOM      1  C   UNL     1      -8.152  34.034  24.080  1.00  0.00     0.136 C 
ATOM      2  O   UNL     1      -7.303  34.370  23.266  1.00  0.00    -0.299 OA
ENDROOT
BRANCH   1   3
ATOM      3  C   UNL     1      -8.262  34.834  25.370  1.00  0.00     0.053 C 
ATOM      4  C   UNL     1      -9.104  36.088  25.120  1.00  0.00     0.016 C 
BRANCH   3   5
ATOM      5  C   UNL     1      -8.885  33.990  26.503  1.00  0.00     0.015 C 
BRANCH   5   6
ATOM      6  C   UNL     1      -7.870  33.098  27.237  1.00  0.00     0.028 C 
BRANCH   6   7
ATOM      7  C   UNL     1      -8.539  31.980  28.000  1.00  0.00    -0.028 C 
ATOM      8  C   UNL     1      -8.687  30.699  27.586  1.00  0.00    -0.070 CG0
ATOM      9  C   UNL     1      -9.431  29.752  28.498  1.00  0.00     0.039 C 
ATOM     10  G   UNL     1      -8.129  30.150  26.284  1.00  0.00     0.000 G0
ENDBRANCH   6   7
ENDBRANCH   5   6
ENDBRANCH   3   5
ENDBRANCH   1   3
BRANCH   1  11
ATOM     11  C   UNL     1      -9.002  32.827  23.732  1.00  0.00     0.087 C 
BRANCH  11  12
ATOM     12  C   UNL     1      -8.358  31.425  23.928  1.00  0.00     0.066 C 
BRANCH  12  13
ATOM     13  C   UNL     1      -8.924  30.597  25.081  1.00  0.00     0.140 C 
ATOM     14  O   UNL     1     -10.118  30.332  25.051  1.00  0.00    -0.299 OA
BRANCH  13  15
ATOM     15  C   UNL     1      -8.124  30.125  26.278  1.00  0.00     0.106 CG0
ATOM     16  G   UNL     1      -8.684  30.694  27.570  1.00  0.00     0.000 G0
ENDBRANCH  13  15
ENDBRANCH  12  13
BRANCH  12  17
ATOM     17  C   UNL     1      -8.375  30.565  22.623  1.00  0.00    -0.006 C 
ATOM     18  C   UNL     1      -7.504  31.155  21.500  1.00  0.00     0.008 C 
ATOM     19  C   UNL     1      -8.000  29.095  22.874  1.00  0.00     0.008 C 
ENDBRANCH  12  17
ENDBRANCH  11  12
ENDBRANCH   1  11
TORSDOF 1
ENDMDL
MODEL 8
REMARK VINA RESULT:    -4.576      2.337      5.347
REMARK INTER + INTRA:          -7.104
REMARK INTER:                  -7.260
REMARK INTRA:                   0.156
REMARK UNBOUND:                -0.120
REMARK SMILES CC1=CCC[C@H](C)C(=O)C[C@H](C(C)C)C(=O)C1
REMARK SMILES IDX 8 1 9 2 6 3 7 4 5 5 4 6 3 7 2 8 1 9 10 11 11 12 15 13 16 14
REMARK SMILES IDX 17 15 12 17 13 18 14 19
REMARK H PARENT
REMARK Flexibility Score: 70.00
ROOT
ATOM      1  C   UNL     1      -8.317  30.911  24.221  1.00  0.00     0.136 C 
ATOM      2  O   UNL     1      -8.257  30.193  25.210  1.00  0.00    -0.299 OA
ENDROOT
BRANCH   1   3
ATOM      3  C   UNL     1      -7.826  30.348  22.896  1.00  0.00     0.053 C 
ATOM      4  C   UNL     1      -6.801  29.241  23.163  1.00  0.00     0.016 C 
BRANCH   3   5
ATOM      5  C   UNL     1      -8.995  29.799  22.051  1.00  0.00     0.015 C 
BRANCH   5   6
ATOM      6  C   UNL     1      -9.595  30.833  21.083  1.00  0.00     0.028 C 
BRANCH   6   7
ATOM      7  C   UNL     1      -8.532  31.653  20.393  1.00  0.00    -0.028 C 
ATOM      8  C   UNL     1      -8.221  32.946  20.647  1.00  0.00    -0.070 CG0
ATOM      9  C   UNL     1      -7.144  33.585  19.802  1.00  0.00     0.039 C 
ATOM     10  G   UNL     1      -8.861  33.781  21.743  1.00  0.00     0.000 G0
ENDBRANCH   6   7
ENDBRANCH   5   6
ENDBRANCH   3   5
ENDBRANCH   1   3
BRANCH   1  11
ATOM     11  C   UNL     1      -8.857  32.315  24.422  1.00  0.00     0.087 C 
BRANCH  11  12
ATOM     12  C   UNL     1      -7.862  33.493  24.222  1.00  0.00     0.066 C 
BRANCH  12  13
ATOM     13  C   UNL     1      -7.875  34.137  22.836  1.00  0.00     0.140 C 
ATOM     14  O   UNL     1      -7.055  35.018  22.618  1.00  0.00    -0.299 OA
BRANCH  13  15
ATOM     15  C   UNL     1      -8.858  33.796  21.736  1.00  0.00     0.106 CG0
ATOM     16  G   UNL     1      -8.204  32.944  20.661  1.00  0.00     0.000 G0
ENDBRANCH  13  15
ENDBRANCH  12  13
BRANCH  12  17
ATOM     17  C   UNL     1      -8.020  34.607  25.307  1.00  0.00    -0.006 C 
ATOM     18  C   UNL     1      -9.110  35.636  24.960  1.00  0.00     0.008 C 
ATOM     19  C   UNL     1      -8.252  34.037  26.716  1.00  0.00     0.008 C 
ENDBRANCH  12  17
ENDBRANCH  11  12
ENDBRANCH   1  11
TORSDOF 1
ENDMDL
MODEL 9
REMARK VINA RESULT:    -4.547      1.480      2.120
REMARK INTER + INTRA:          -7.060
REMARK INTER:                  -7.067
REMARK INTRA:                   0.007
REMARK UNBOUND:                -0.120
REMARK SMILES CC1=CCC[C@H](C)C(=O)C[C@H](C(C)C)C(=O)C1
REMARK SMILES IDX 8 1 9 2 6 3 7 4 5 5 4 6 3 7 2 8 1 9 10 11 11 12 15 13 16 14
REMARK SMILES IDX 17 15 12 17 13 18 14 19
REMARK H PARENT
REMARK Flexibility Score: 70.00
ROOT
ATOM      1  C   UNL     1      -9.213  32.184  21.755  1.00  0.00     0.136 C 
ATOM      2  O   UNL     1      -9.853  31.765  20.800  1.00  0.00    -0.299 OA
ENDROOT
BRANCH   1   3
ATOM      3  C   UNL     1      -7.962  33.003  21.474  1.00  0.00     0.053 C 
ATOM      4  C   UNL     1      -7.733  33.077  19.961  1.00  0.00     0.016 C 
BRANCH   3   5
ATOM      5  C   UNL     1      -8.076  34.424  22.067  1.00  0.00     0.015 C 
BRANCH   5   6
ATOM      6  C   UNL     1      -7.174  34.655  23.291  1.00  0.00     0.028 C 
BRANCH   6   7
ATOM      7  C   UNL     1      -7.897  35.375  24.404  1.00  0.00    -0.028 C 
ATOM      8  C   UNL     1      -8.238  34.858  25.609  1.00  0.00    -0.070 CG0
ATOM      9  C   UNL     1      -9.000  35.750  26.560  1.00  0.00     0.039 C 
ATOM     10  G   UNL     1      -7.879  33.457  26.072  1.00  0.00     0.000 G0
ENDBRANCH   6   7
ENDBRANCH   5   6
ENDBRANCH   3   5
ENDBRANCH   1   3
BRANCH   1  11
ATOM     11  C   UNL     1      -9.719  31.818  23.138  1.00  0.00     0.087 C 
BRANCH  11  12
ATOM     12  C   UNL     1      -8.656  31.622  24.255  1.00  0.00     0.066 C 
BRANCH  12  13
ATOM     13  C   UNL     1      -8.876  32.445  25.524  1.00  0.00     0.140 C 
ATOM     14  O   UNL     1      -9.944  32.309  26.103  1.00  0.00    -0.299 OA
BRANCH  13  15
ATOM     15  C   UNL     1      -7.888  33.447  26.085  1.00  0.00     0.106 CG0
ATOM     16  G   UNL     1      -8.229  34.859  25.641  1.00  0.00     0.000 G0
ENDBRANCH  13  15
ENDBRANCH  12  13
BRANCH  12  17
ATOM     17  C   UNL     1      -8.458  30.122  24.644  1.00  0.00    -0.006 C 
ATOM     18  C   UNL     1      -7.941  29.260  23.479  1.00  0.00     0.008 C 
ATOM     19  C   UNL     1      -7.563  29.941  25.881  1.00  0.00     0.008 C 
ENDBRANCH  12  17
ENDBRANCH  11  12
ENDBRANCH   1  11
TORSDOF 1
ENDMDL
