MODEL 1
REMARK VINA RESULT:    -3.763      0.000      0.000
REMARK INTER + INTRA:          -5.464
REMARK INTER:                  -5.303
REMARK INTRA:                  -0.161
REMARK UNBOUND:                -0.161
REMARK SMILES CC1=CCC(=C(C)C)C(=O)CC(C)=CCC1
REMARK SMILES IDX 12 1 14 2 13 3 15 4 16 5 2 6 1 7 3 8 11 10 9 11 10 12 5 13
REMARK SMILES IDX 6 14 7 15 8 16 4 17
REMARK H PARENT
REMARK Flexibility Score: 60.00
ROOT
ATOM      1  C   UNL     1       9.414 118.652  19.087  1.00  0.00    -0.070 C 
ATOM      2  C   UNL     1      10.118 118.327  17.978  1.00  0.00    -0.027 C 
ATOM      3  C   UNL     1       9.017 120.093  19.279  1.00  0.00     0.039 C 
ENDROOT
BRANCH   2   4
ATOM      4  C   UNL     1      10.468 116.923  17.557  1.00  0.00     0.032 C 
BRANCH   4   5
ATOM      5  C   UNL     1      11.881 116.574  18.037  1.00  0.00     0.034 C 
BRANCH   5   6
ATOM      6  C   UNL     1      11.962 115.187  18.644  1.00  0.00    -0.077 C 
ATOM      7  C   UNL     1      11.973 113.994  17.721  1.00  0.00     0.039 C 
ATOM      8  C   UNL     1      11.953 114.952  19.980  1.00  0.00    -0.023 CG0
ATOM      9  G   UNL     1      12.003 115.976  21.099  1.00  0.00     0.000 G0
ENDBRANCH   5   6
ENDBRANCH   4   5
ENDBRANCH   2   4
BRANCH   1  10
ATOM     10  C   UNL     1       9.026 117.646  20.152  1.00  0.00     0.111 C 
BRANCH  10  11
ATOM     11  C   UNL     1      10.016 117.622  21.292  1.00  0.00     0.163 C 
ATOM     12  O   UNL     1      10.288 118.726  21.838  1.00  0.00    -0.294 OA
BRANCH  11  13
ATOM     13  C   UNL     1      10.697 116.377  21.781  1.00  0.00    -0.002 C 
ATOM     14  C   UNL     1      10.236 115.722  22.891  1.00  0.00    -0.069 C 
ATOM     15  C   UNL     1      11.020 114.610  23.548  1.00  0.00     0.039 C 
ATOM     16  C   UNL     1       8.886 116.043  23.492  1.00  0.00     0.039 C 
BRANCH  13  17
ATOM     17  C   UNL     1      12.011 115.977  21.118  1.00  0.00     0.066 CG0
ATOM     18  G   UNL     1      11.920 114.954  20.000  1.00  0.00     0.000 G0
ENDBRANCH  13  17
ENDBRANCH  11  13
ENDBRANCH  10  11
ENDBRANCH   1  10
TORSDOF 0
ENDMDL
MODEL 2
REMARK VINA RESULT:    -3.642      4.371      6.619
REMARK INTER + INTRA:          -5.294
REMARK INTER:                  -5.566
REMARK INTRA:                   0.272
REMARK UNBOUND:                -0.161
REMARK SMILES CC1=CCC(=C(C)C)C(=O)CC(C)=CCC1
REMARK SMILES IDX 12 1 14 2 13 3 15 4 16 5 2 6 1 7 3 8 11 10 9 11 10 12 5 13
REMARK SMILES IDX 6 14 7 15 8 16 4 17
REMARK H PARENT
REMARK Flexibility Score: 60.00
ROOT
ATOM      1  C   UNL     1      12.023 112.715  20.965  1.00  0.00    -0.070 C 
ATOM      2  C   UNL     1      11.607 113.477  19.927  1.00  0.00    -0.027 C 
ATOM      3  C   UNL     1      12.120 113.360  22.324  1.00  0.00     0.039 C 
ENDROOT
BRANCH   2   4
ATOM      4  C   UNL     1      11.315 112.962  18.540  1.00  0.00     0.032 C 
BRANCH   4   5
ATOM      5  C   UNL     1      12.093 113.785  17.507  1.00  0.00     0.034 C 
BRANCH   5   6
ATOM      6  C   UNL     1      13.566 113.898  17.845  1.00  0.00    -0.077 C 
ATOM      7  C   UNL     1      14.150 115.268  18.080  1.00  0.00     0.039 C 
ATOM      8  C   UNL     1      14.411 112.837  17.879  1.00  0.00    -0.023 CG0
ATOM      9  G   UNL     1      14.056 111.368  17.735  1.00  0.00     0.000 G0
ENDBRANCH   5   6
ENDBRANCH   4   5
ENDBRANCH   2   4
BRANCH   1  10
ATOM     10  C   UNL     1      12.414 111.258  20.826  1.00  0.00     0.111 C 
BRANCH  10  11
ATOM     11  C   UNL     1      13.819 111.101  20.292  1.00  0.00     0.163 C 
ATOM     12  O   UNL     1      14.757 111.547  21.007  1.00  0.00    -0.294 OA
BRANCH  11  13
ATOM     13  C   UNL     1      14.143 110.475  18.968  1.00  0.00    -0.002 C 
ATOM     14  C   UNL     1      14.648 109.204  18.903  1.00  0.00    -0.069 C 
ATOM     15  C   UNL     1      15.202 108.625  17.622  1.00  0.00     0.039 C 
ATOM     16  C   UNL     1      14.631 108.287  20.106  1.00  0.00     0.039 C 
BRANCH  13  17
ATOM     17  C   UNL     1      14.067 111.356  17.725  1.00  0.00     0.066 CG0
ATOM     18  G   UNL     1      14.414 112.822  17.913  1.00  0.00     0.000 G0
ENDBRANCH  13  17
ENDBRANCH  11  13
ENDBRANCH  10  11
ENDBRANCH   1  10
TORSDOF 0
ENDMDL
MODEL 3
REMARK VINA RESULT:    -3.567      1.738      4.159
REMARK INTER + INTRA:          -5.187
REMARK INTER:                  -5.250
REMARK INTRA:                   0.063
REMARK UNBOUND:                -0.161
REMARK SMILES CC1=CCC(=C(C)C)C(=O)CC(C)=CCC1
REMARK SMILES IDX 12 1 14 2 13 3 15 4 16 5 2 6 1 7 3 8 11 10 9 11 10 12 5 13
REMARK SMILES IDX 6 14 7 15 8 16 4 17
REMARK H PARENT
REMARK Flexibility Score: 60.00
ROOT
ATOM      1  C   UNL     1       8.385 118.189  19.566  1.00  0.00    -0.070 C 
ATOM      2  C   UNL     1       8.390 117.659  20.811  1.00  0.00    -0.027 C 
ATOM      3  C   UNL     1       7.066 118.297  18.846  1.00  0.00     0.039 C 
ENDROOT
BRANCH   2   4
ATOM      4  C   UNL     1       9.588 117.610  21.725  1.00  0.00     0.032 C 
BRANCH   4   5
ATOM      5  C   UNL     1       9.951 116.151  22.026  1.00  0.00     0.034 C 
BRANCH   5   6
ATOM      6  C   UNL     1      11.416 115.854  21.772  1.00  0.00    -0.077 C 
ATOM      7  C   UNL     1      12.361 115.824  22.947  1.00  0.00     0.039 C 
ATOM      8  C   UNL     1      11.942 115.681  20.534  1.00  0.00    -0.023 CG0
ATOM      9  G   UNL     1      11.196 115.610  19.214  1.00  0.00     0.000 G0
ENDBRANCH   5   6
ENDBRANCH   4   5
ENDBRANCH   2   4
BRANCH   1  10
ATOM     10  C   UNL     1       9.639 118.657  18.854  1.00  0.00     0.111 C 
BRANCH  10  11
ATOM     11  C   UNL     1      10.181 117.603  17.916  1.00  0.00     0.163 C 
ATOM     12  O   UNL     1       9.565 117.434  16.829  1.00  0.00    -0.294 OA
BRANCH  11  13
ATOM     13  C   UNL     1      11.376 116.749  18.221  1.00  0.00    -0.002 C 
ATOM     14  C   UNL     1      12.539 116.905  17.518  1.00  0.00    -0.069 C 
ATOM     15  C   UNL     1      13.682 115.922  17.629  1.00  0.00     0.039 C 
ATOM     16  C   UNL     1      12.767 118.104  16.625  1.00  0.00     0.039 C 
BRANCH  13  17
ATOM     17  C   UNL     1      11.195 115.593  19.200  1.00  0.00     0.066 CG0
ATOM     18  G   UNL     1      11.940 115.701  20.518  1.00  0.00     0.000 G0
ENDBRANCH  13  17
ENDBRANCH  11  13
ENDBRANCH  10  11
ENDBRANCH   1  10
TORSDOF 0
ENDMDL
MODEL 4
REMARK VINA RESULT:    -3.514      2.084      4.317
REMARK INTER + INTRA:          -5.114
REMARK INTER:                  -5.068
REMARK INTRA:                  -0.046
REMARK UNBOUND:                -0.161
REMARK SMILES CC1=CCC(=C(C)C)C(=O)CC(C)=CCC1
REMARK SMILES IDX 12 1 14 2 13 3 15 4 16 5 2 6 1 7 3 8 11 10 9 11 10 12 5 13
REMARK SMILES IDX 6 14 7 15 8 16 4 17
REMARK H PARENT
REMARK Flexibility Score: 60.00
ROOT
ATOM      1  C   UNL     1       9.405 117.785  23.021  1.00  0.00    -0.070 C 
ATOM      2  C   UNL     1       8.564 118.776  22.643  1.00  0.00    -0.027 C 
ATOM      3  C   UNL     1      10.239 117.995  24.258  1.00  0.00     0.039 C 
ENDROOT
BRANCH   2   4
ATOM      4  C   UNL     1       7.559 118.678  21.525  1.00  0.00     0.032 C 
BRANCH   4   5
ATOM      5  C   UNL     1       8.174 119.209  20.225  1.00  0.00     0.034 C 
BRANCH   5   6
ATOM      6  C   UNL     1       7.949 118.274  19.052  1.00  0.00    -0.077 C 
ATOM      7  C   UNL     1       6.574 118.202  18.439  1.00  0.00     0.039 C 
ATOM      8  C   UNL     1       8.902 117.441  18.565  1.00  0.00    -0.023 CG0
ATOM      9  G   UNL     1      10.363 117.369  18.972  1.00  0.00     0.000 G0
ENDBRANCH   5   6
ENDBRANCH   4   5
ENDBRANCH   2   4
BRANCH   1  10
ATOM     10  C   UNL     1       9.562 116.488  22.253  1.00  0.00     0.111 C 
BRANCH  10  11
ATOM     11  C   UNL     1      10.785 116.503  21.366  1.00  0.00     0.163 C 
ATOM     12  O   UNL     1      11.884 116.795  21.912  1.00  0.00    -0.294 OA
BRANCH  11  13
ATOM     13  C   UNL     1      10.753 116.219  19.894  1.00  0.00    -0.002 C 
ATOM     14  C   UNL     1      11.215 115.027  19.405  1.00  0.00    -0.069 C 
ATOM     15  C   UNL     1      11.415 114.790  17.926  1.00  0.00     0.039 C 
ATOM     16  C   UNL     1      11.502 113.857  20.320  1.00  0.00     0.039 C 
BRANCH  13  17
ATOM     17  C   UNL     1      10.365 117.358  18.956  1.00  0.00     0.066 CG0
ATOM     18  G   UNL     1       8.898 117.450  18.576  1.00  0.00     0.000 G0
ENDBRANCH  13  17
ENDBRANCH  11  13
ENDBRANCH  10  11
ENDBRANCH   1  10
TORSDOF 0
ENDMDL
MODEL 5
REMARK VINA RESULT:    -3.510      1.761      2.924
REMARK INTER + INTRA:          -5.107
REMARK INTER:                  -4.994
REMARK INTRA:                  -0.113
REMARK UNBOUND:                -0.161
REMARK SMILES CC1=CCC(=C(C)C)C(=O)CC(C)=CCC1
REMARK SMILES IDX 12 1 14 2 13 3 15 4 16 5 2 6 1 7 3 8 11 10 9 11 10 12 5 13
REMARK SMILES IDX 6 14 7 15 8 16 4 17
REMARK H PARENT
REMARK Flexibility Score: 60.00
ROOT
ATOM      1  C   UNL     1       7.761 118.580  22.101  1.00  0.00    -0.070 C 
ATOM      2  C   UNL     1       7.622 119.308  20.968  1.00  0.00    -0.027 C 
ATOM      3  C   UNL     1       7.309 119.196  23.400  1.00  0.00     0.039 C 
ENDROOT
BRANCH   2   4
ATOM      4  C   UNL     1       7.884 118.797  19.575  1.00  0.00     0.032 C 
BRANCH   4   5
ATOM      5  C   UNL     1       9.306 119.172  19.143  1.00  0.00     0.034 C 
BRANCH   5   6
ATOM      6  C   UNL     1      10.042 118.014  18.499  1.00  0.00    -0.077 C 
ATOM      7  C   UNL     1       9.693 117.635  17.081  1.00  0.00     0.039 C 
ATOM      8  C   UNL     1      10.951 117.248  19.152  1.00  0.00    -0.023 CG0
ATOM      9  G   UNL     1      11.506 117.461  20.549  1.00  0.00     0.000 G0
ENDBRANCH   5   6
ENDBRANCH   4   5
ENDBRANCH   2   4
BRANCH   1  10
ATOM     10  C   UNL     1       8.366 117.190  22.129  1.00  0.00     0.111 C 
BRANCH  10  11
ATOM     11  C   UNL     1       9.831 117.222  22.495  1.00  0.00     0.163 C 
ATOM     12  O   UNL     1      10.143 117.825  23.558  1.00  0.00    -0.294 OA
BRANCH  11  13
ATOM     13  C   UNL     1      10.914 116.604  21.660  1.00  0.00    -0.002 C 
ATOM     14  C   UNL     1      11.445 115.389  21.998  1.00  0.00    -0.069 C 
ATOM     15  C   UNL     1      12.684 114.841  21.327  1.00  0.00     0.039 C 
ATOM     16  C   UNL     1      10.788 114.500  23.029  1.00  0.00     0.039 C 
BRANCH  13  17
ATOM     17  C   UNL     1      11.522 117.448  20.545  1.00  0.00     0.066 CG0
ATOM     18  G   UNL     1      10.947 117.247  19.154  1.00  0.00     0.000 G0
ENDBRANCH  13  17
ENDBRANCH  11  13
ENDBRANCH  10  11
ENDBRANCH   1  10
TORSDOF 0
ENDMDL
MODEL 6
REMARK VINA RESULT:    -3.488      2.545      3.318
REMARK INTER + INTRA:          -5.076
REMARK INTER:                  -5.183
REMARK INTRA:                   0.107
REMARK UNBOUND:                -0.161
REMARK SMILES CC1=CCC(=C(C)C)C(=O)CC(C)=CCC1
REMARK SMILES IDX 12 1 14 2 13 3 15 4 16 5 2 6 1 7 3 8 11 10 9 11 10 12 5 13
REMARK SMILES IDX 6 14 7 15 8 16 4 17
REMARK H PARENT
REMARK Flexibility Score: 60.00
ROOT
ATOM      1  C   UNL     1       7.601 118.277  19.337  1.00  0.00    -0.070 C 
ATOM      2  C   UNL     1       8.590 117.958  18.469  1.00  0.00    -0.027 C 
ATOM      3  C   UNL     1       6.384 118.982  18.797  1.00  0.00     0.039 C 
ENDROOT
BRANCH   2   4
ATOM      4  C   UNL     1       9.802 117.129  18.807  1.00  0.00     0.032 C 
BRANCH   4   5
ATOM      5  C   UNL     1      10.924 118.037  19.326  1.00  0.00     0.034 C 
BRANCH   5   6
ATOM      6  C   UNL     1      11.500 117.553  20.642  1.00  0.00    -0.077 C 
ATOM      7  C   UNL     1      12.323 116.290  20.649  1.00  0.00     0.039 C 
ATOM      8  C   UNL     1      11.258 118.156  21.832  1.00  0.00    -0.023 CG0
ATOM      9  G   UNL     1      10.515 119.457  22.076  1.00  0.00     0.000 G0
ENDBRANCH   5   6
ENDBRANCH   4   5
ENDBRANCH   2   4
BRANCH   1  10
ATOM     10  C   UNL     1       7.668 117.979  20.821  1.00  0.00     0.111 C 
BRANCH  10  11
ATOM     11  C   UNL     1       7.957 119.221  21.632  1.00  0.00     0.163 C 
ATOM     12  O   UNL     1       7.215 120.221  21.433  1.00  0.00    -0.294 OA
BRANCH  11  13
ATOM     13  C   UNL     1       9.078 119.328  22.624  1.00  0.00    -0.002 C 
ATOM     14  C   UNL     1       8.814 119.470  23.959  1.00  0.00    -0.069 C 
ATOM     15  C   UNL     1       9.895 119.811  24.958  1.00  0.00     0.039 C 
ATOM     16  C   UNL     1       7.427 119.240  24.518  1.00  0.00     0.039 C 
BRANCH  13  17
ATOM     17  C   UNL     1      10.498 119.457  22.083  1.00  0.00     0.066 CG0
ATOM     18  G   UNL     1      11.250 118.161  21.842  1.00  0.00     0.000 G0
ENDBRANCH  13  17
ENDBRANCH  11  13
ENDBRANCH  10  11
ENDBRANCH   1  10
TORSDOF 0
ENDMDL
MODEL 7
REMARK VINA RESULT:    -3.420      2.409      4.407
REMARK INTER + INTRA:          -4.980
REMARK INTER:                  -4.904
REMARK INTRA:                  -0.076
REMARK UNBOUND:                -0.161
REMARK SMILES CC1=CCC(=C(C)C)C(=O)CC(C)=CCC1
REMARK SMILES IDX 12 1 14 2 13 3 15 4 16 5 2 6 1 7 3 8 11 10 9 11 10 12 5 13
REMARK SMILES IDX 6 14 7 15 8 16 4 17
REMARK H PARENT
REMARK Flexibility Score: 60.00
ROOT
ATOM      1  C   UNL     1      10.012 118.677  18.847  1.00  0.00    -0.070 C 
ATOM      2  C   UNL     1       9.059 119.592  19.143  1.00  0.00    -0.027 C 
ATOM      3  C   UNL     1      10.110 118.190  17.425  1.00  0.00     0.039 C 
ENDROOT
BRANCH   2   4
ATOM      4  C   UNL     1       8.914 120.291  20.470  1.00  0.00     0.032 C 
BRANCH   4   5
ATOM      5  C   UNL     1       7.640 119.810  21.175  1.00  0.00     0.034 C 
BRANCH   5   6
ATOM      6  C   UNL     1       7.877 119.464  22.631  1.00  0.00    -0.077 C 
ATOM      7  C   UNL     1       7.668 120.535  23.672  1.00  0.00     0.039 C 
ATOM      8  C   UNL     1       8.339 118.259  23.049  1.00  0.00    -0.023 CG0
ATOM      9  G   UNL     1       8.569 117.015  22.210  1.00  0.00     0.000 G0
ENDBRANCH   5   6
ENDBRANCH   4   5
ENDBRANCH   2   4
BRANCH   1  10
ATOM     10  C   UNL     1      10.966 118.107  19.877  1.00  0.00     0.111 C 
BRANCH  10  11
ATOM     11  C   UNL     1      10.463 116.803  20.449  1.00  0.00     0.163 C 
ATOM     12  O   UNL     1      10.411 115.815  19.666  1.00  0.00    -0.294 OA
BRANCH  11  13
ATOM     13  C   UNL     1      10.008 116.634  21.869  1.00  0.00    -0.002 C 
ATOM     14  C   UNL     1      10.812 116.020  22.789  1.00  0.00    -0.069 C 
ATOM     15  C   UNL     1      10.308 115.624  24.158  1.00  0.00     0.039 C 
ATOM     16  C   UNL     1      12.272 115.747  22.504  1.00  0.00     0.039 C 
BRANCH  13  17
ATOM     17  C   UNL     1       8.565 117.002  22.203  1.00  0.00     0.066 CG0
ATOM     18  G   UNL     1       8.362 118.250  23.042  1.00  0.00     0.000 G0
ENDBRANCH  13  17
ENDBRANCH  11  13
ENDBRANCH  10  11
ENDBRANCH   1  10
TORSDOF 0
ENDMDL
MODEL 8
REMARK VINA RESULT:    -3.410      9.800     11.556
REMARK INTER + INTRA:          -4.966
REMARK INTER:                  -4.796
REMARK INTRA:                  -0.171
REMARK UNBOUND:                -0.161
REMARK SMILES CC1=CCC(=C(C)C)C(=O)CC(C)=CCC1
REMARK SMILES IDX 12 1 14 2 13 3 15 4 16 5 2 6 1 7 3 8 11 10 9 11 10 12 5 13
REMARK SMILES IDX 6 14 7 15 8 16 4 17
REMARK H PARENT
REMARK Flexibility Score: 60.00
ROOT
ATOM      1  C   UNL     1      19.171 125.556  15.053  1.00  0.00    -0.070 C 
ATOM      2  C   UNL     1      18.778 126.577  15.850  1.00  0.00    -0.027 C 
ATOM      3  C   UNL     1      19.874 125.892  13.764  1.00  0.00     0.039 C 
ENDROOT
BRANCH   2   4
ATOM      4  C   UNL     1      18.197 126.421  17.232  1.00  0.00     0.032 C 
BRANCH   4   5
ATOM      5  C   UNL     1      16.672 126.569  17.174  1.00  0.00     0.034 C 
BRANCH   5   6
ATOM      6  C   UNL     1      15.958 125.582  18.076  1.00  0.00    -0.077 C 
ATOM      7  C   UNL     1      15.860 125.891  19.549  1.00  0.00     0.039 C 
ATOM      8  C   UNL     1      15.461 124.396  17.646  1.00  0.00    -0.023 CG0
ATOM      9  G   UNL     1      15.388 123.889  16.217  1.00  0.00     0.000 G0
ENDBRANCH   5   6
ENDBRANCH   4   5
ENDBRANCH   2   4
BRANCH   1  10
ATOM     10  C   UNL     1      18.920 124.098  15.383  1.00  0.00     0.111 C 
BRANCH  10  11
ATOM     11  C   UNL     1      17.581 123.626  14.866  1.00  0.00     0.163 C 
ATOM     12  O   UNL     1      17.346 123.803  13.640  1.00  0.00    -0.294 OA
BRANCH  11  13
ATOM     13  C   UNL     1      16.529 122.993  15.729  1.00  0.00    -0.002 C 
ATOM     14  C   UNL     1      16.523 121.640  15.938  1.00  0.00    -0.069 C 
ATOM     15  C   UNL     1      15.362 120.937  16.602  1.00  0.00     0.039 C 
ATOM     16  C   UNL     1      17.707 120.778  15.561  1.00  0.00     0.039 C 
BRANCH  13  17
ATOM     17  C   UNL     1      15.377 123.870  16.207  1.00  0.00     0.066 CG0
ATOM     18  G   UNL     1      15.470 124.392  17.629  1.00  0.00     0.000 G0
ENDBRANCH  13  17
ENDBRANCH  11  13
ENDBRANCH  10  11
ENDBRANCH   1  10
TORSDOF 0
ENDMDL
MODEL 9
REMARK VINA RESULT:    -3.394      9.915     11.555
REMARK INTER + INTRA:          -4.944
REMARK INTER:                  -4.840
REMARK INTRA:                  -0.104
REMARK UNBOUND:                -0.161
REMARK SMILES CC1=CCC(=C(C)C)C(=O)CC(C)=CCC1
REMARK SMILES IDX 12 1 14 2 13 3 15 4 16 5 2 6 1 7 3 8 11 10 9 11 10 12 5 13
REMARK SMILES IDX 6 14 7 15 8 16 4 17
REMARK H PARENT
REMARK Flexibility Score: 60.00
ROOT
ATOM      1  C   UNL     1      15.909 124.875  17.294  1.00  0.00    -0.070 C 
ATOM      2  C   UNL     1      16.845 125.851  17.240  1.00  0.00    -0.027 C 
ATOM      3  C   UNL     1      15.169 124.671  18.590  1.00  0.00     0.039 C 
ENDROOT
BRANCH   2   4
ATOM      4  C   UNL     1      17.571 126.286  15.993  1.00  0.00     0.032 C 
BRANCH   4   5
ATOM      5  C   UNL     1      18.939 125.599  15.922  1.00  0.00     0.034 C 
BRANCH   5   6
ATOM      6  C   UNL     1      19.285 125.137  14.520  1.00  0.00    -0.077 C 
ATOM      7  C   UNL     1      19.745 126.162  13.515  1.00  0.00     0.039 C 
ATOM      8  C   UNL     1      19.136 123.858  14.095  1.00  0.00    -0.023 CG0
ATOM      9  G   UNL     1      18.748 122.647  14.924  1.00  0.00     0.000 G0
ENDBRANCH   5   6
ENDBRANCH   4   5
ENDBRANCH   2   4
BRANCH   1  10
ATOM     10  C   UNL     1      15.585 123.967  16.124  1.00  0.00     0.111 C 
BRANCH  10  11
ATOM     11  C   UNL     1      16.451 122.729  16.116  1.00  0.00     0.163 C 
ATOM     12  O   UNL     1      16.486 122.048  17.177  1.00  0.00    -0.294 OA
BRANCH  11  13
ATOM     13  C   UNL     1      17.272 122.293  14.939  1.00  0.00    -0.002 C 
ATOM     14  C   UNL     1      16.744 121.456  13.994  1.00  0.00    -0.069 C 
ATOM     15  C   UNL     1      17.598 120.811  12.926  1.00  0.00     0.039 C 
ATOM     16  C   UNL     1      15.260 121.170  13.934  1.00  0.00     0.039 C 
BRANCH  13  17
ATOM     17  C   UNL     1      18.753 122.660  14.928  1.00  0.00     0.066 CG0
ATOM     18  G   UNL     1      19.144 123.867  14.095  1.00  0.00     0.000 G0
ENDBRANCH  13  17
ENDBRANCH  11  13
ENDBRANCH  10  11
ENDBRANCH   1  10
TORSDOF 0
ENDMDL
