MODEL 1
REMARK VINA RESULT:    -4.929      0.000      0.000
REMARK INTER + INTRA:          -5.932
REMARK INTER:                  -5.794
REMARK INTRA:                  -0.138
REMARK UNBOUND:                -0.138
REMARK SMILES O=C([O-])C=Cc1ccc(O)c(O)c1
REMARK SMILES IDX 6 1 13 2 7 3 11 4 8 5 9 6 5 7 4 8 2 9 1 10 3 11 12 12 10 14
REMARK H PARENT 12 13 10 15
REMARK Flexibility Score: inf
ROOT
ATOM      1  C   UNL     1      13.795  37.013  49.612  1.00  0.00    -0.022 A 
ATOM      2  C   UNL     1      14.499  37.378  50.771  1.00  0.00     0.058 A 
ATOM      3  C   UNL     1      14.474  37.002  48.377  1.00  0.00     0.012 A 
ATOM      4  C   UNL     1      15.847  37.752  50.703  1.00  0.00     0.157 A 
ATOM      5  C   UNL     1      15.819  37.375  48.308  1.00  0.00     0.051 A 
ATOM      6  C   UNL     1      16.510  37.753  49.466  1.00  0.00     0.157 A 
ENDROOT
BRANCH   1   7
ATOM      7  C   UNL     1      12.370  36.615  49.742  1.00  0.00     0.010 C 
ATOM      8  C   UNL     1      11.603  36.243  48.709  1.00  0.00     0.025 C 
BRANCH   8   9
ATOM      9  C   UNL     1      10.191  35.869  48.885  1.00  0.00     0.064 C 
ATOM     10  O   UNL     1       9.891  34.666  49.105  1.00  0.00    -0.545 OA
ATOM     11  O   UNL     1       9.181  36.822  48.815  1.00  0.00    -0.545 OA
ENDBRANCH   8   9
ENDBRANCH   1   7
BRANCH   4  12
ATOM     12  O   UNL     1      16.507  38.117  51.875  1.00  0.00    -0.504 OA
ATOM     13  H   UNL     1      17.495  38.340  51.889  1.00  0.00     0.293 HD
ENDBRANCH   4  12
BRANCH   6  14
ATOM     14  O   UNL     1      17.852  38.125  49.391  1.00  0.00    -0.504 OA
ATOM     15  H   UNL     1      18.323  38.235  48.501  1.00  0.00     0.293 HD
ENDBRANCH   6  14
TORSDOF 4
ENDMDL
MODEL 2
REMARK VINA RESULT:    -4.716      0.772      1.872
REMARK INTER + INTRA:          -5.682
REMARK INTER:                  -5.549
REMARK INTRA:                  -0.133
REMARK UNBOUND:                -0.138
REMARK SMILES O=C([O-])C=Cc1ccc(O)c(O)c1
REMARK SMILES IDX 6 1 13 2 7 3 11 4 8 5 9 6 5 7 4 8 2 9 1 10 3 11 12 12 10 14
REMARK H PARENT 12 13 10 15
REMARK Flexibility Score: inf
ROOT
ATOM      1  C   UNL     1      13.854  37.000  49.921  1.00  0.00    -0.022 A 
ATOM      2  C   UNL     1      14.502  37.005  48.675  1.00  0.00     0.058 A 
ATOM      3  C   UNL     1      14.575  37.399  51.064  1.00  0.00     0.012 A 
ATOM      4  C   UNL     1      15.849  37.375  48.568  1.00  0.00     0.157 A 
ATOM      5  C   UNL     1      15.918  37.769  50.959  1.00  0.00     0.051 A 
ATOM      6  C   UNL     1      16.562  37.756  49.715  1.00  0.00     0.157 A 
ENDROOT
BRANCH   1   7
ATOM      7  C   UNL     1      12.423  36.609  49.975  1.00  0.00     0.010 C 
ATOM      8  C   UNL     1      11.713  36.232  48.904  1.00  0.00     0.025 C 
BRANCH   8   9
ATOM      9  C   UNL     1      10.291  35.864  49.005  1.00  0.00     0.064 C 
ATOM     10  O   UNL     1       9.973  34.662  49.206  1.00  0.00    -0.545 OA
ATOM     11  O   UNL     1       9.291  36.822  48.886  1.00  0.00    -0.545 OA
ENDBRANCH   8   9
ENDBRANCH   1   7
BRANCH   4  12
ATOM     12  O   UNL     1      16.458  37.357  47.314  1.00  0.00    -0.504 OA
ATOM     13  H   UNL     1      17.404  37.687  47.170  1.00  0.00     0.293 HD
ENDBRANCH   4  12
BRANCH   6  14
ATOM     14  O   UNL     1      17.903  38.124  49.616  1.00  0.00    -0.504 OA
ATOM     15  H   UNL     1      18.606  37.738  50.234  1.00  0.00     0.293 HD
ENDBRANCH   6  14
TORSDOF 4
ENDMDL
MODEL 3
REMARK VINA RESULT:    -4.704      2.774      3.728
REMARK INTER + INTRA:          -5.667
REMARK INTER:                  -5.540
REMARK INTRA:                  -0.127
REMARK UNBOUND:                -0.138
REMARK SMILES O=C([O-])C=Cc1ccc(O)c(O)c1
REMARK SMILES IDX 6 1 13 2 7 3 11 4 8 5 9 6 5 7 4 8 2 9 1 10 3 11 12 12 10 14
REMARK H PARENT 12 13 10 15
REMARK Flexibility Score: inf
ROOT
ATOM      1  C   UNL     1      14.649  37.054  48.275  1.00  0.00    -0.022 A 
ATOM      2  C   UNL     1      15.997  37.441  48.345  1.00  0.00     0.058 A 
ATOM      3  C   UNL     1      13.891  37.009  49.462  1.00  0.00     0.012 A 
ATOM      4  C   UNL     1      16.590  37.755  49.574  1.00  0.00     0.157 A 
ATOM      5  C   UNL     1      14.482  37.321  50.690  1.00  0.00     0.051 A 
ATOM      6  C   UNL     1      15.831  37.692  50.753  1.00  0.00     0.157 A 
ENDROOT
BRANCH   1   7
ATOM      7  C   UNL     1      14.067  36.742  46.945  1.00  0.00     0.010 C 
ATOM      8  C   UNL     1      14.137  37.566  45.891  1.00  0.00     0.025 C 
BRANCH   8   9
ATOM      9  C   UNL     1      13.534  37.219  44.593  1.00  0.00     0.064 C 
ATOM     10  O   UNL     1      14.279  36.963  43.611  1.00  0.00    -0.545 OA
ATOM     11  O   UNL     1      12.154  37.167  44.434  1.00  0.00    -0.545 OA
ENDBRANCH   8   9
ENDBRANCH   1   7
BRANCH   4  12
ATOM     12  O   UNL     1      17.934  38.125  49.601  1.00  0.00    -0.504 OA
ATOM     13  H   UNL     1      18.643  37.617  49.086  1.00  0.00     0.293 HD
ENDBRANCH   4  12
BRANCH   6  14
ATOM     14  O   UNL     1      16.416  38.002  51.980  1.00  0.00    -0.504 OA
ATOM     15  H   UNL     1      16.335  38.925  52.388  1.00  0.00     0.293 HD
ENDBRANCH   6  14
TORSDOF 4
ENDMDL
MODEL 4
REMARK VINA RESULT:    -4.314      3.061      3.909
REMARK INTER + INTRA:          -5.209
REMARK INTER:                  -5.074
REMARK INTRA:                  -0.135
REMARK UNBOUND:                -0.138
REMARK SMILES O=C([O-])C=Cc1ccc(O)c(O)c1
REMARK SMILES IDX 6 1 13 2 7 3 11 4 8 5 9 6 5 7 4 8 2 9 1 10 3 11 12 12 10 14
REMARK H PARENT 12 13 10 15
REMARK Flexibility Score: inf
ROOT
ATOM      1  C   UNL     1      15.003  37.353  48.060  1.00  0.00    -0.022 A 
ATOM      2  C   UNL     1      13.941  37.009  48.911  1.00  0.00     0.058 A 
ATOM      3  C   UNL     1      16.213  37.800  48.629  1.00  0.00     0.012 A 
ATOM      4  C   UNL     1      14.065  37.129  50.300  1.00  0.00     0.157 A 
ATOM      5  C   UNL     1      16.339  37.921  50.016  1.00  0.00     0.051 A 
ATOM      6  C   UNL     1      15.269  37.590  50.856  1.00  0.00     0.157 A 
ENDROOT
BRANCH   1   7
ATOM      7  C   UNL     1      14.821  37.196  46.596  1.00  0.00     0.010 C 
ATOM      8  C   UNL     1      13.627  37.216  45.988  1.00  0.00     0.025 C 
BRANCH   8   9
ATOM      9  C   UNL     1      13.494  37.044  44.532  1.00  0.00     0.064 C 
ATOM     10  O   UNL     1      14.518  36.809  43.838  1.00  0.00    -0.545 OA
ATOM     11  O   UNL     1      12.254  37.133  43.909  1.00  0.00    -0.545 OA
ENDBRANCH   8   9
ENDBRANCH   1   7
BRANCH   4  12
ATOM     12  O   UNL     1      12.983  36.787  51.109  1.00  0.00    -0.504 OA
ATOM     13  H   UNL     1      12.483  35.913  50.998  1.00  0.00     0.293 HD
ENDBRANCH   4  12
BRANCH   6  14
ATOM     14  O   UNL     1      15.400  37.714  52.239  1.00  0.00    -0.504 OA
ATOM     15  H   UNL     1      14.915  37.092  52.875  1.00  0.00     0.293 HD
ENDBRANCH   6  14
TORSDOF 4
ENDMDL
MODEL 5
REMARK VINA RESULT:    -4.198      1.647      2.236
REMARK INTER + INTRA:          -5.072
REMARK INTER:                  -4.938
REMARK INTRA:                  -0.135
REMARK UNBOUND:                -0.138
REMARK SMILES O=C([O-])C=Cc1ccc(O)c(O)c1
REMARK SMILES IDX 6 1 13 2 7 3 11 4 8 5 9 6 5 7 4 8 2 9 1 10 3 11 12 12 10 14
REMARK H PARENT 12 13 10 15
REMARK Flexibility Score: inf
ROOT
ATOM      1  C   UNL     1      13.668  36.352  50.509  1.00  0.00    -0.022 A 
ATOM      2  C   UNL     1      14.564  37.375  50.860  1.00  0.00     0.058 A 
ATOM      3  C   UNL     1      14.002  35.019  50.822  1.00  0.00     0.012 A 
ATOM      4  C   UNL     1      15.781  37.080  51.486  1.00  0.00     0.157 A 
ATOM      5  C   UNL     1      15.216  34.722  51.446  1.00  0.00     0.051 A 
ATOM      6  C   UNL     1      16.111  35.747  51.779  1.00  0.00     0.157 A 
ENDROOT
BRANCH   1   7
ATOM      7  C   UNL     1      12.387  36.722  49.857  1.00  0.00     0.010 C 
ATOM      8  C   UNL     1      11.805  35.995  48.894  1.00  0.00     0.025 C 
BRANCH   8   9
ATOM      9  C   UNL     1      10.539  36.408  48.267  1.00  0.00     0.064 C 
ATOM     10  O   UNL     1      10.473  36.518  47.014  1.00  0.00    -0.545 OA
ATOM     11  O   UNL     1       9.411  36.676  49.034  1.00  0.00    -0.545 OA
ENDBRANCH   8   9
ENDBRANCH   1   7
BRANCH   4  12
ATOM     12  O   UNL     1      16.647  38.124  51.807  1.00  0.00    -0.504 OA
ATOM     13  H   UNL     1      17.631  38.100  51.569  1.00  0.00     0.293 HD
ENDBRANCH   4  12
BRANCH   6  14
ATOM     14  O   UNL     1      17.322  35.446  52.400  1.00  0.00    -0.504 OA
ATOM     15  H   UNL     1      18.020  36.159  52.575  1.00  0.00     0.293 HD
ENDBRANCH   6  14
TORSDOF 4
ENDMDL
MODEL 6
REMARK VINA RESULT:    -3.986      1.414      6.079
REMARK INTER + INTRA:          -4.823
REMARK INTER:                  -4.693
REMARK INTRA:                  -0.130
REMARK UNBOUND:                -0.138
REMARK SMILES O=C([O-])C=Cc1ccc(O)c(O)c1
REMARK SMILES IDX 6 1 13 2 7 3 11 4 8 5 9 6 5 7 4 8 2 9 1 10 3 11 12 12 10 14
REMARK H PARENT 12 13 10 15
REMARK Flexibility Score: inf
ROOT
ATOM      1  C   UNL     1      13.872  36.981  49.193  1.00  0.00    -0.022 A 
ATOM      2  C   UNL     1      13.213  36.574  48.022  1.00  0.00     0.058 A 
ATOM      3  C   UNL     1      13.161  36.980  50.410  1.00  0.00     0.012 A 
ATOM      4  C   UNL     1      11.864  36.197  48.052  1.00  0.00     0.157 A 
ATOM      5  C   UNL     1      11.816  36.604  50.442  1.00  0.00     0.051 A 
ATOM      6  C   UNL     1      11.161  36.214  49.267  1.00  0.00     0.157 A 
ENDROOT
BRANCH   1   7
ATOM      7  C   UNL     1      15.305  37.360  49.106  1.00  0.00     0.010 C 
ATOM      8  C   UNL     1      16.303  36.475  48.981  1.00  0.00     0.025 C 
BRANCH   8   9
ATOM      9  C   UNL     1      17.712  36.898  48.911  1.00  0.00     0.064 C 
ATOM     10  O   UNL     1      17.990  38.125  48.865  1.00  0.00    -0.545 OA
ATOM     11  O   UNL     1      18.741  35.964  48.897  1.00  0.00    -0.545 OA
ENDBRANCH   8   9
ENDBRANCH   1   7
BRANCH   4  12
ATOM     12  O   UNL     1      11.244  35.809  46.866  1.00  0.00    -0.504 OA
ATOM     13  H   UNL     1      11.637  36.023  45.957  1.00  0.00     0.293 HD
ENDBRANCH   4  12
BRANCH   6  14
ATOM     14  O   UNL     1       9.818  35.842  49.303  1.00  0.00    -0.504 OA
ATOM     15  H   UNL     1       9.419  35.373  50.108  1.00  0.00     0.293 HD
ENDBRANCH   6  14
TORSDOF 4
ENDMDL
MODEL 7
REMARK VINA RESULT:    -3.941      8.737     10.184
REMARK INTER + INTRA:          -4.770
REMARK INTER:                  -4.636
REMARK INTRA:                  -0.134
REMARK UNBOUND:                -0.138
REMARK SMILES O=C([O-])C=Cc1ccc(O)c(O)c1
REMARK SMILES IDX 6 1 13 2 7 3 11 4 8 5 9 6 5 7 4 8 2 9 1 10 3 11 12 12 10 14
REMARK H PARENT 12 13 10 15
REMARK Flexibility Score: inf
ROOT
ATOM      1  C   UNL     1      13.436  32.460  56.987  1.00  0.00    -0.022 A 
ATOM      2  C   UNL     1      12.086  32.841  57.049  1.00  0.00     0.058 A 
ATOM      3  C   UNL     1      14.207  32.864  55.879  1.00  0.00     0.012 A 
ATOM      4  C   UNL     1      11.503  33.588  56.017  1.00  0.00     0.157 A 
ATOM      5  C   UNL     1      13.627  33.609  54.849  1.00  0.00     0.051 A 
ATOM      6  C   UNL     1      12.276  33.972  54.910  1.00  0.00     0.157 A 
ENDROOT
BRANCH   1   7
ATOM      7  C   UNL     1      14.005  31.678  58.113  1.00  0.00     0.010 C 
ATOM      8  C   UNL     1      13.375  31.483  59.279  1.00  0.00     0.025 C 
BRANCH   8   9
ATOM      9  C   UNL     1      13.984  30.709  60.372  1.00  0.00     0.064 C 
ATOM     10  O   UNL     1      13.291  30.404  61.378  1.00  0.00    -0.545 OA
ATOM     11  O   UNL     1      15.313  30.306  60.312  1.00  0.00    -0.545 OA
ENDBRANCH   8   9
ENDBRANCH   1   7
BRANCH   4  12
ATOM     12  O   UNL     1      10.157  33.937  56.112  1.00  0.00    -0.504 OA
ATOM     13  H   UNL     1       9.416  33.249  56.043  1.00  0.00     0.293 HD
ENDBRANCH   4  12
BRANCH   6  14
ATOM     14  O   UNL     1      11.702  34.715  53.880  1.00  0.00    -0.504 OA
ATOM     15  H   UNL     1      12.082  35.610  53.595  1.00  0.00     0.293 HD
ENDBRANCH   6  14
TORSDOF 4
ENDMDL
MODEL 8
REMARK VINA RESULT:    -3.926      8.355      9.787
REMARK INTER + INTRA:          -4.753
REMARK INTER:                  -4.611
REMARK INTRA:                  -0.142
REMARK UNBOUND:                -0.138
REMARK SMILES O=C([O-])C=Cc1ccc(O)c(O)c1
REMARK SMILES IDX 6 1 13 2 7 3 11 4 8 5 9 6 5 7 4 8 2 9 1 10 3 11 12 12 10 14
REMARK H PARENT 12 13 10 15
REMARK Flexibility Score: inf
ROOT
ATOM      1  C   UNL     1      13.353  32.725  56.836  1.00  0.00    -0.022 A 
ATOM      2  C   UNL     1      14.161  33.352  55.873  1.00  0.00     0.058 A 
ATOM      3  C   UNL     1      11.953  32.766  56.681  1.00  0.00     0.012 A 
ATOM      4  C   UNL     1      13.590  34.030  54.789  1.00  0.00     0.157 A 
ATOM      5  C   UNL     1      11.382  33.443  55.600  1.00  0.00     0.051 A 
ATOM      6  C   UNL     1      12.194  34.079  54.652  1.00  0.00     0.157 A 
ENDROOT
BRANCH   1   7
ATOM      7  C   UNL     1      14.011  32.011  57.959  1.00  0.00     0.010 C 
ATOM      8  C   UNL     1      13.358  31.557  59.037  1.00  0.00     0.025 C 
BRANCH   8   9
ATOM      9  C   UNL     1      14.055  30.864  60.133  1.00  0.00     0.064 C 
ATOM     10  O   UNL     1      15.291  30.642  60.040  1.00  0.00    -0.545 OA
ATOM     11  O   UNL     1      13.372  30.453  61.272  1.00  0.00    -0.545 OA
ENDBRANCH   8   9
ENDBRANCH   1   7
BRANCH   4  12
ATOM     12  O   UNL     1      14.427  34.648  53.861  1.00  0.00    -0.504 OA
ATOM     13  H   UNL     1      15.300  34.231  53.562  1.00  0.00     0.293 HD
ENDBRANCH   4  12
BRANCH   6  14
ATOM     14  O   UNL     1      11.619  34.753  53.576  1.00  0.00    -0.504 OA
ATOM     15  H   UNL     1      10.845  34.359  53.055  1.00  0.00     0.293 HD
ENDBRANCH   6  14
TORSDOF 4
ENDMDL
