MODEL 1
REMARK VINA RESULT:    13.861      0.000      0.000
REMARK INTER + INTRA:          34.302
REMARK INTER:                  34.929
REMARK INTRA:                  -0.627
REMARK UNBOUND:                -0.627
REMARK SMILES CCCCCCCCCCCCCCCCCCCCCCCCCCCC(=O)[O-]
REMARK SMILES IDX 15 1 16 2 17 3 18 4 19 5 20 6 21 7 22 8 23 9 24 10 25 11
REMARK SMILES IDX 26 12 27 13 28 14 29 15 30 16 14 17 13 18 12 19 11 20 10 21
REMARK SMILES IDX 9 22 8 23 7 24 6 25 5 26 4 27 3 28 2 29 1 30
REMARK H PARENT
REMARK Flexibility Score: inf
ROOT
ATOM      1  C   UNL     1      14.519  31.100  50.628  1.00  0.00     0.000 C 
ENDROOT
BRANCH   1   2
ATOM      2  C   UNL     1      15.662  32.078  50.309  1.00  0.00     0.000 C 
BRANCH   2   3
ATOM      3  C   UNL     1      15.260  33.565  50.247  1.00  0.00     0.000 C 
BRANCH   3   4
ATOM      4  C   UNL     1      14.576  33.984  48.928  1.00  0.00     0.000 C 
BRANCH   4   5
ATOM      5  C   UNL     1      14.625  35.505  48.688  1.00  0.00     0.000 C 
BRANCH   5   6
ATOM      6  C   UNL     1      13.429  36.008  47.863  1.00  0.00     0.000 C 
BRANCH   6   7
ATOM      7  C   UNL     1      13.531  37.507  47.542  1.00  0.00     0.000 C 
BRANCH   7   8
ATOM      8  C   UNL     1      14.679  38.164  48.324  1.00  0.00     0.000 C 
BRANCH   8   9
ATOM      9  C   UNL     1      14.875  39.643  47.953  1.00  0.00     0.000 C 
BRANCH   9  10
ATOM     10  C   UNL     1      14.618  39.921  46.464  1.00  0.00     0.000 C 
BRANCH  10  11
ATOM     11  C   UNL     1      15.402  38.941  45.579  1.00  0.00     0.000 C 
BRANCH  11  12
ATOM     12  C   UNL     1      16.923  39.013  45.812  1.00  0.00     0.006 C 
BRANCH  12  13
ATOM     13  C   UNL     1      17.480  37.890  46.704  1.00  0.00     0.053 C 
BRANCH  13  14
ATOM     14  C   UNL     1      18.977  37.844  46.679  1.00  0.00     0.041 C 
ATOM     15  O   UNL     1      19.573  36.805  46.292  1.00  0.00    -0.550 OA
ATOM     16  O   UNL     1      19.713  38.945  47.097  1.00  0.00    -0.550 OA
ENDBRANCH  13  14
ENDBRANCH  12  13
ENDBRANCH  11  12
ENDBRANCH  10  11
ENDBRANCH   9  10
ENDBRANCH   8   9
ENDBRANCH   7   8
ENDBRANCH   6   7
ENDBRANCH   5   6
ENDBRANCH   4   5
ENDBRANCH   3   4
ENDBRANCH   2   3
ENDBRANCH   1   2
BRANCH   1  17
ATOM     17  C   UNL     1      13.770  30.624  49.374  1.00  0.00     0.000 C 
BRANCH  17  18
ATOM     18  C   UNL     1      12.897  29.400  49.680  1.00  0.00     0.000 C 
BRANCH  18  19
ATOM     19  C   UNL     1      13.717  28.148  50.035  1.00  0.00     0.000 C 
BRANCH  19  20
ATOM     20  C   UNL     1      13.481  27.628  51.468  1.00  0.00     0.000 C 
BRANCH  20  21
ATOM     21  C   UNL     1      14.420  26.462  51.831  1.00  0.00     0.000 C 
BRANCH  21  22
ATOM     22  C   UNL     1      14.149  25.208  50.985  1.00  0.00    -0.000 C 
BRANCH  22  23
ATOM     23  C   UNL     1      15.410  24.359  50.773  1.00  0.00    -0.000 C 
BRANCH  23  24
ATOM     24  C   UNL     1      15.256  22.978  51.427  1.00  0.00    -0.000 C 
BRANCH  24  25
ATOM     25  C   UNL     1      15.958  21.864  50.633  1.00  0.00    -0.000 C 
BRANCH  25  26
ATOM     26  C   UNL     1      16.619  20.818  51.544  1.00  0.00    -0.000 C 
BRANCH  26  27
ATOM     27  C   UNL     1      17.524  19.876  50.740  1.00  0.00    -0.000 C 
BRANCH  27  28
ATOM     28  C   UNL     1      18.267  20.642  49.636  1.00  0.00    -0.000 C 
BRANCH  28  29
ATOM     29  C   UNL     1      19.649  20.046  49.333  1.00  0.00    -0.003 C 
ATOM     30  C   UNL     1      20.688  20.392  50.398  1.00  0.00     0.004 C 
ENDBRANCH  28  29
ENDBRANCH  27  28
ENDBRANCH  26  27
ENDBRANCH  25  26
ENDBRANCH  24  25
ENDBRANCH  23  24
ENDBRANCH  22  23
ENDBRANCH  21  22
ENDBRANCH  20  21
ENDBRANCH  19  20
ENDBRANCH  18  19
ENDBRANCH  17  18
ENDBRANCH   1  17
TORSDOF 26
ENDMDL
MODEL 2
REMARK VINA RESULT:    14.028      4.782     14.432
REMARK INTER + INTRA:          34.724
REMARK INTER:                  36.276
REMARK INTRA:                  -1.551
REMARK UNBOUND:                -0.627
REMARK SMILES CCCCCCCCCCCCCCCCCCCCCCCCCCCC(=O)[O-]
REMARK SMILES IDX 15 1 16 2 17 3 18 4 19 5 20 6 21 7 22 8 23 9 24 10 25 11
REMARK SMILES IDX 26 12 27 13 28 14 29 15 30 16 14 17 13 18 12 19 11 20 10 21
REMARK SMILES IDX 9 22 8 23 7 24 6 25 5 26 4 27 3 28 2 29 1 30
REMARK H PARENT
REMARK Flexibility Score: inf
ROOT
ATOM      1  C   UNL     1      15.803  31.962  51.229  1.00  0.00     0.000 C 
ENDROOT
BRANCH   1   2
ATOM      2  C   UNL     1      15.321  30.849  50.284  1.00  0.00     0.000 C 
BRANCH   2   3
ATOM      3  C   UNL     1      13.908  30.304  50.572  1.00  0.00     0.000 C 
BRANCH   3   4
ATOM      4  C   UNL     1      13.828  28.766  50.678  1.00  0.00     0.000 C 
BRANCH   4   5
ATOM      5  C   UNL     1      13.226  28.291  52.014  1.00  0.00     0.000 C 
BRANCH   5   6
ATOM      6  C   UNL     1      13.729  26.897  52.422  1.00  0.00     0.000 C 
BRANCH   6   7
ATOM      7  C   UNL     1      14.514  26.207  51.295  1.00  0.00     0.000 C 
BRANCH   7   8
ATOM      8  C   UNL     1      14.516  24.682  51.476  1.00  0.00     0.000 C 
BRANCH   8   9
ATOM      9  C   UNL     1      15.805  24.027  50.953  1.00  0.00     0.000 C 
BRANCH   9  10
ATOM     10  C   UNL     1      15.574  22.609  50.410  1.00  0.00     0.000 C 
BRANCH  10  11
ATOM     11  C   UNL     1      16.169  21.556  51.354  1.00  0.00     0.000 C 
BRANCH  11  12
ATOM     12  C   UNL     1      16.879  20.414  50.604  1.00  0.00     0.006 C 
BRANCH  12  13
ATOM     13  C   UNL     1      18.158  19.904  51.290  1.00  0.00     0.053 C 
BRANCH  13  14
ATOM     14  C   UNL     1      19.359  20.029  50.402  1.00  0.00     0.041 C 
ATOM     15  O   UNL     1      20.491  20.269  50.898  1.00  0.00    -0.550 OA
ATOM     16  O   UNL     1      19.223  19.895  49.027  1.00  0.00    -0.550 OA
ENDBRANCH  13  14
ENDBRANCH  12  13
ENDBRANCH  11  12
ENDBRANCH  10  11
ENDBRANCH   9  10
ENDBRANCH   8   9
ENDBRANCH   7   8
ENDBRANCH   6   7
ENDBRANCH   5   6
ENDBRANCH   4   5
ENDBRANCH   3   4
ENDBRANCH   2   3
ENDBRANCH   1   2
BRANCH   1  17
ATOM     17  C   UNL     1      16.163  33.260  50.491  1.00  0.00     0.000 C 
BRANCH  17  18
ATOM     18  C   UNL     1      14.924  33.895  49.846  1.00  0.00     0.000 C 
BRANCH  18  19
ATOM     19  C   UNL     1      15.273  34.945  48.777  1.00  0.00     0.000 C 
BRANCH  19  20
ATOM     20  C   UNL     1      14.324  36.160  48.755  1.00  0.00     0.000 C 
BRANCH  20  21
ATOM     21  C   UNL     1      13.512  36.247  47.449  1.00  0.00     0.000 C 
BRANCH  21  22
ATOM     22  C   UNL     1      12.639  37.510  47.386  1.00  0.00    -0.000 C 
BRANCH  22  23
ATOM     23  C   UNL     1      13.193  38.557  46.409  1.00  0.00    -0.000 C 
BRANCH  23  24
ATOM     24  C   UNL     1      14.160  39.513  47.123  1.00  0.00    -0.000 C 
BRANCH  24  25
ATOM     25  C   UNL     1      15.538  39.579  46.445  1.00  0.00    -0.000 C 
BRANCH  25  26
ATOM     26  C   UNL     1      16.599  38.752  47.186  1.00  0.00    -0.000 C 
BRANCH  26  27
ATOM     27  C   UNL     1      17.460  37.947  46.204  1.00  0.00    -0.000 C 
BRANCH  27  28
ATOM     28  C   UNL     1      18.953  38.118  46.518  1.00  0.00    -0.000 C 
BRANCH  28  29
ATOM     29  C   UNL     1      19.331  39.578  46.808  1.00  0.00    -0.003 C 
ATOM     30  C   UNL     1      20.841  39.812  46.787  1.00  0.00     0.004 C 
ENDBRANCH  28  29
ENDBRANCH  27  28
ENDBRANCH  26  27
ENDBRANCH  25  26
ENDBRANCH  24  25
ENDBRANCH  23  24
ENDBRANCH  22  23
ENDBRANCH  21  22
ENDBRANCH  20  21
ENDBRANCH  19  20
ENDBRANCH  18  19
ENDBRANCH  17  18
ENDBRANCH   1  17
TORSDOF 26
ENDMDL
MODEL 3
REMARK VINA RESULT:    14.258      4.785      6.945
REMARK INTER + INTRA:          35.303
REMARK INTER:                  36.265
REMARK INTRA:                  -0.961
REMARK UNBOUND:                -0.627
REMARK SMILES CCCCCCCCCCCCCCCCCCCCCCCCCCCC(=O)[O-]
REMARK SMILES IDX 15 1 16 2 17 3 18 4 19 5 20 6 21 7 22 8 23 9 24 10 25 11
REMARK SMILES IDX 26 12 27 13 28 14 29 15 30 16 14 17 13 18 12 19 11 20 10 21
REMARK SMILES IDX 9 22 8 23 7 24 6 25 5 26 4 27 3 28 2 29 1 30
REMARK H PARENT
REMARK Flexibility Score: inf
ROOT
ATOM      1  C   UNL     1      13.115  36.331  47.425  1.00  0.00     0.000 C 
ENDROOT
BRANCH   1   2
ATOM      2  C   UNL     1      12.850  37.846  47.442  1.00  0.00     0.000 C 
BRANCH   2   3
ATOM      3  C   UNL     1      13.255  38.602  46.163  1.00  0.00     0.000 C 
BRANCH   3   4
ATOM      4  C   UNL     1      13.804  40.024  46.410  1.00  0.00     0.000 C 
BRANCH   4   5
ATOM      5  C   UNL     1      14.641  40.125  47.699  1.00  0.00     0.000 C 
BRANCH   5   6
ATOM      6  C   UNL     1      15.875  39.209  47.670  1.00  0.00     0.000 C 
BRANCH   6   7
ATOM      7  C   UNL     1      16.184  38.690  46.257  1.00  0.00     0.000 C 
BRANCH   7   8
ATOM      8  C   UNL     1      17.581  38.054  46.194  1.00  0.00     0.000 C 
BRANCH   8   9
ATOM      9  C   UNL     1      18.695  39.038  46.585  1.00  0.00     0.000 C 
BRANCH   9  10
ATOM     10  C   UNL     1      20.082  38.379  46.626  1.00  0.00     0.000 C 
BRANCH  10  11
ATOM     11  C   UNL     1      19.996  36.954  47.190  1.00  0.00     0.000 C 
BRANCH  11  12
ATOM     12  C   UNL     1      19.794  35.889  46.096  1.00  0.00     0.006 C 
BRANCH  12  13
ATOM     13  C   UNL     1      20.548  36.176  44.786  1.00  0.00     0.053 C 
BRANCH  13  14
ATOM     14  C   UNL     1      21.077  34.924  44.157  1.00  0.00     0.041 C 
ATOM     15  O   UNL     1      21.333  34.894  42.924  1.00  0.00    -0.550 OA
ATOM     16  O   UNL     1      21.270  33.786  44.929  1.00  0.00    -0.550 OA
ENDBRANCH  13  14
ENDBRANCH  12  13
ENDBRANCH  11  12
ENDBRANCH  10  11
ENDBRANCH   9  10
ENDBRANCH   8   9
ENDBRANCH   7   8
ENDBRANCH   6   7
ENDBRANCH   5   6
ENDBRANCH   4   5
ENDBRANCH   3   4
ENDBRANCH   2   3
ENDBRANCH   1   2
BRANCH   1  17
ATOM     17  C   UNL     1      13.844  35.835  48.683  1.00  0.00     0.000 C 
BRANCH  17  18
ATOM     18  C   UNL     1      15.365  35.847  48.485  1.00  0.00     0.000 C 
BRANCH  18  19
ATOM     19  C   UNL     1      16.122  35.088  49.588  1.00  0.00     0.000 C 
BRANCH  19  20
ATOM     20  C   UNL     1      15.221  34.213  50.482  1.00  0.00     0.000 C 
BRANCH  20  21
ATOM     21  C   UNL     1      15.111  32.766  49.967  1.00  0.00     0.000 C 
BRANCH  21  22
ATOM     22  C   UNL     1      15.566  31.736  51.013  1.00  0.00    -0.000 C 
BRANCH  22  23
ATOM     23  C   UNL     1      14.534  30.620  51.224  1.00  0.00    -0.000 C 
BRANCH  23  24
ATOM     24  C   UNL     1      13.922  30.180  49.886  1.00  0.00    -0.000 C 
BRANCH  24  25
ATOM     25  C   UNL     1      13.503  28.701  49.883  1.00  0.00    -0.000 C 
BRANCH  25  26
ATOM     26  C   UNL     1      12.793  28.293  48.583  1.00  0.00    -0.000 C 
BRANCH  26  27
ATOM     27  C   UNL     1      11.706  27.244  48.851  1.00  0.00    -0.000 C 
BRANCH  27  28
ATOM     28  C   UNL     1      10.374  27.662  48.212  1.00  0.00    -0.000 C 
BRANCH  28  29
ATOM     29  C   UNL     1       9.217  26.730  48.597  1.00  0.00    -0.003 C 
ATOM     30  C   UNL     1       9.045  25.567  47.621  1.00  0.00     0.004 C 
ENDBRANCH  28  29
ENDBRANCH  27  28
ENDBRANCH  26  27
ENDBRANCH  25  26
ENDBRANCH  24  25
ENDBRANCH  23  24
ENDBRANCH  22  23
ENDBRANCH  21  22
ENDBRANCH  20  21
ENDBRANCH  19  20
ENDBRANCH  18  19
ENDBRANCH  17  18
ENDBRANCH   1  17
TORSDOF 26
ENDMDL
MODEL 4
REMARK VINA RESULT:    14.696      4.378     13.825
REMARK INTER + INTRA:          36.407
REMARK INTER:                  36.412
REMARK INTRA:                  -0.005
REMARK UNBOUND:                -0.627
REMARK SMILES CCCCCCCCCCCCCCCCCCCCCCCCCCCC(=O)[O-]
REMARK SMILES IDX 15 1 16 2 17 3 18 4 19 5 20 6 21 7 22 8 23 9 24 10 25 11
REMARK SMILES IDX 26 12 27 13 28 14 29 15 30 16 14 17 13 18 12 19 11 20 10 21
REMARK SMILES IDX 9 22 8 23 7 24 6 25 5 26 4 27 3 28 2 29 1 30
REMARK H PARENT
REMARK Flexibility Score: inf
ROOT
ATOM      1  C   UNL     1      15.822  33.284  50.547  1.00  0.00     0.000 C 
ENDROOT
BRANCH   1   2
ATOM      2  C   UNL     1      15.718  31.750  50.547  1.00  0.00     0.000 C 
BRANCH   2   3
ATOM      3  C   UNL     1      14.341  31.182  50.152  1.00  0.00     0.000 C 
BRANCH   3   4
ATOM      4  C   UNL     1      14.063  29.759  50.683  1.00  0.00     0.000 C 
BRANCH   4   5
ATOM      5  C   UNL     1      13.182  28.929  49.731  1.00  0.00     0.000 C 
BRANCH   5   6
ATOM      6  C   UNL     1      13.264  27.421  50.020  1.00  0.00     0.000 C 
BRANCH   6   7
ATOM      7  C   UNL     1      14.169  27.106  51.221  1.00  0.00     0.000 C 
BRANCH   7   8
ATOM      8  C   UNL     1      14.076  25.622  51.609  1.00  0.00     0.000 C 
BRANCH   8   9
ATOM      9  C   UNL     1      15.142  24.762  50.911  1.00  0.00     0.000 C 
BRANCH   9  10
ATOM     10  C   UNL     1      14.999  23.266  51.228  1.00  0.00     0.000 C 
BRANCH  10  11
ATOM     11  C   UNL     1      16.188  22.471  50.670  1.00  0.00     0.000 C 
BRANCH  11  12
ATOM     12  C   UNL     1      16.340  21.085  51.324  1.00  0.00     0.006 C 
BRANCH  12  13
ATOM     13  C   UNL     1      17.099  20.059  50.467  1.00  0.00     0.053 C 
BRANCH  13  14
ATOM     14  C   UNL     1      18.189  20.698  49.661  1.00  0.00     0.041 C 
ATOM     15  O   UNL     1      17.914  21.602  48.828  1.00  0.00    -0.550 OA
ATOM     16  O   UNL     1      19.504  20.283  49.818  1.00  0.00    -0.550 OA
ENDBRANCH  13  14
ENDBRANCH  12  13
ENDBRANCH  11  12
ENDBRANCH  10  11
ENDBRANCH   9  10
ENDBRANCH   8   9
ENDBRANCH   7   8
ENDBRANCH   6   7
ENDBRANCH   5   6
ENDBRANCH   4   5
ENDBRANCH   3   4
ENDBRANCH   2   3
ENDBRANCH   1   2
BRANCH   1  17
ATOM     17  C   UNL     1      14.835  33.952  49.578  1.00  0.00     0.000 C 
BRANCH  17  18
ATOM     18  C   UNL     1      14.867  35.480  49.717  1.00  0.00     0.000 C 
BRANCH  18  19
ATOM     19  C   UNL     1      15.240  36.196  48.407  1.00  0.00     0.000 C 
BRANCH  19  20
ATOM     20  C   UNL     1      14.380  37.440  48.103  1.00  0.00     0.000 C 
BRANCH  20  21
ATOM     21  C   UNL     1      15.100  38.753  48.463  1.00  0.00     0.000 C 
BRANCH  21  22
ATOM     22  C   UNL     1      15.025  39.790  47.330  1.00  0.00    -0.000 C 
BRANCH  22  23
ATOM     23  C   UNL     1      15.318  39.176  45.954  1.00  0.00    -0.000 C 
BRANCH  23  24
ATOM     24  C   UNL     1      16.688  38.483  45.944  1.00  0.00    -0.000 C 
BRANCH  24  25
ATOM     25  C   UNL     1      17.658  39.073  46.981  1.00  0.00    -0.000 C 
BRANCH  25  26
ATOM     26  C   UNL     1      19.068  38.472  46.878  1.00  0.00    -0.000 C 
BRANCH  26  27
ATOM     27  C   UNL     1      19.009  36.964  46.604  1.00  0.00    -0.000 C 
BRANCH  27  28
ATOM     28  C   UNL     1      19.732  36.617  45.294  1.00  0.00    -0.000 C 
BRANCH  28  29
ATOM     29  C   UNL     1      20.285  35.185  45.287  1.00  0.00    -0.003 C 
ATOM     30  C   UNL     1      21.086  34.867  44.025  1.00  0.00     0.004 C 
ENDBRANCH  28  29
ENDBRANCH  27  28
ENDBRANCH  26  27
ENDBRANCH  25  26
ENDBRANCH  24  25
ENDBRANCH  23  24
ENDBRANCH  22  23
ENDBRANCH  21  22
ENDBRANCH  20  21
ENDBRANCH  19  20
ENDBRANCH  18  19
ENDBRANCH  17  18
ENDBRANCH   1  17
TORSDOF 26
ENDMDL
MODEL 5
REMARK VINA RESULT:    14.831      4.741     14.721
REMARK INTER + INTRA:          36.747
REMARK INTER:                  37.683
REMARK INTRA:                  -0.936
REMARK UNBOUND:                -0.627
REMARK SMILES CCCCCCCCCCCCCCCCCCCCCCCCCCCC(=O)[O-]
REMARK SMILES IDX 15 1 16 2 17 3 18 4 19 5 20 6 21 7 22 8 23 9 24 10 25 11
REMARK SMILES IDX 26 12 27 13 28 14 29 15 30 16 14 17 13 18 12 19 11 20 10 21
REMARK SMILES IDX 9 22 8 23 7 24 6 25 5 26 4 27 3 28 2 29 1 30
REMARK H PARENT
REMARK Flexibility Score: inf
ROOT
ATOM      1  C   UNL     1      14.153  28.121  50.662  1.00  0.00     0.000 C 
ENDROOT
BRANCH   1   2
ATOM      2  C   UNL     1      13.386  26.993  51.369  1.00  0.00     0.000 C 
BRANCH   2   3
ATOM      3  C   UNL     1      14.236  25.779  51.790  1.00  0.00     0.000 C 
BRANCH   3   4
ATOM      4  C   UNL     1      14.949  25.064  50.621  1.00  0.00     0.000 C 
BRANCH   4   5
ATOM      5  C   UNL     1      15.680  23.783  51.062  1.00  0.00     0.000 C 
BRANCH   5   6
ATOM      6  C   UNL     1      15.759  22.736  49.939  1.00  0.00     0.000 C 
BRANCH   6   7
ATOM      7  C   UNL     1      17.100  22.785  49.189  1.00  0.00     0.000 C 
BRANCH   7   8
ATOM      8  C   UNL     1      17.437  21.420  48.569  1.00  0.00     0.000 C 
BRANCH   8   9
ATOM      9  C   UNL     1      18.102  20.464  49.573  1.00  0.00     0.000 C 
BRANCH   9  10
ATOM     10  C   UNL     1      17.188  20.120  50.760  1.00  0.00     0.000 C 
BRANCH  10  11
ATOM     11  C   UNL     1      17.995  20.019  52.062  1.00  0.00     0.000 C 
BRANCH  11  12
ATOM     12  C   UNL     1      19.500  20.266  51.853  1.00  0.00     0.006 C 
BRANCH  12  13
ATOM     13  C   UNL     1      20.353  20.091  53.120  1.00  0.00     0.053 C 
BRANCH  13  14
ATOM     14  C   UNL     1      21.809  20.326  52.855  1.00  0.00     0.041 C 
ATOM     15  O   UNL     1      22.678  19.877  53.647  1.00  0.00    -0.550 OA
ATOM     16  O   UNL     1      22.202  21.055  51.740  1.00  0.00    -0.550 OA
ENDBRANCH  13  14
ENDBRANCH  12  13
ENDBRANCH  11  12
ENDBRANCH  10  11
ENDBRANCH   9  10
ENDBRANCH   8   9
ENDBRANCH   7   8
ENDBRANCH   6   7
ENDBRANCH   5   6
ENDBRANCH   4   5
ENDBRANCH   3   4
ENDBRANCH   2   3
ENDBRANCH   1   2
BRANCH   1  17
ATOM     17  C   UNL     1      13.257  28.981  49.757  1.00  0.00     0.000 C 
BRANCH  17  18
ATOM     18  C   UNL     1      13.655  30.461  49.825  1.00  0.00     0.000 C 
BRANCH  18  19
ATOM     19  C   UNL     1      14.766  30.739  50.852  1.00  0.00     0.000 C 
BRANCH  19  20
ATOM     20  C   UNL     1      15.805  31.782  50.389  1.00  0.00     0.000 C 
BRANCH  20  21
ATOM     21  C   UNL     1      15.310  33.228  50.582  1.00  0.00     0.000 C 
BRANCH  21  22
ATOM     22  C   UNL     1      15.422  34.060  49.294  1.00  0.00    -0.000 C 
BRANCH  22  23
ATOM     23  C   UNL     1      14.937  35.504  49.487  1.00  0.00    -0.000 C 
BRANCH  23  24
ATOM     24  C   UNL     1      14.499  36.117  48.149  1.00  0.00    -0.000 C 
BRANCH  24  25
ATOM     25  C   UNL     1      14.358  37.646  48.214  1.00  0.00    -0.000 C 
BRANCH  25  26
ATOM     26  C   UNL     1      14.288  38.292  46.822  1.00  0.00    -0.000 C 
BRANCH  26  27
ATOM     27  C   UNL     1      15.590  39.029  46.486  1.00  0.00    -0.000 C 
BRANCH  27  28
ATOM     28  C   UNL     1      16.763  38.044  46.374  1.00  0.00    -0.000 C 
BRANCH  28  29
ATOM     29  C   UNL     1      18.117  38.702  46.676  1.00  0.00    -0.003 C 
ATOM     30  C   UNL     1      19.277  37.708  46.642  1.00  0.00     0.004 C 
ENDBRANCH  28  29
ENDBRANCH  27  28
ENDBRANCH  26  27
ENDBRANCH  25  26
ENDBRANCH  24  25
ENDBRANCH  23  24
ENDBRANCH  22  23
ENDBRANCH  21  22
ENDBRANCH  20  21
ENDBRANCH  19  20
ENDBRANCH  18  19
ENDBRANCH  17  18
ENDBRANCH   1  17
TORSDOF 26
ENDMDL
MODEL 6
REMARK VINA RESULT:    14.964      4.511     14.694
REMARK INTER + INTRA:          37.082
REMARK INTER:                  37.693
REMARK INTRA:                  -0.610
REMARK UNBOUND:                -0.627
REMARK SMILES CCCCCCCCCCCCCCCCCCCCCCCCCCCC(=O)[O-]
REMARK SMILES IDX 15 1 16 2 17 3 18 4 19 5 20 6 21 7 22 8 23 9 24 10 25 11
REMARK SMILES IDX 26 12 27 13 28 14 29 15 30 16 14 17 13 18 12 19 11 20 10 21
REMARK SMILES IDX 9 22 8 23 7 24 6 25 5 26 4 27 3 28 2 29 1 30
REMARK H PARENT
REMARK Flexibility Score: inf
ROOT
ATOM      1  C   UNL     1      14.653  29.967  50.466  1.00  0.00     0.000 C 
ENDROOT
BRANCH   1   2
ATOM      2  C   UNL     1      13.590  29.127  49.739  1.00  0.00     0.000 C 
BRANCH   2   3
ATOM      3  C   UNL     1      13.421  27.685  50.256  1.00  0.00     0.000 C 
BRANCH   3   4
ATOM      4  C   UNL     1      13.778  27.497  51.747  1.00  0.00     0.000 C 
BRANCH   4   5
ATOM      5  C   UNL     1      13.801  26.017  52.173  1.00  0.00     0.000 C 
BRANCH   5   6
ATOM      6  C   UNL     1      15.088  25.300  51.734  1.00  0.00     0.000 C 
BRANCH   6   7
ATOM      7  C   UNL     1      14.858  24.373  50.530  1.00  0.00     0.000 C 
BRANCH   7   8
ATOM      8  C   UNL     1      14.740  22.907  50.975  1.00  0.00     0.000 C 
BRANCH   8   9
ATOM      9  C   UNL     1      16.106  22.209  51.074  1.00  0.00     0.000 C 
BRANCH   9  10
ATOM     10  C   UNL     1      15.988  20.724  51.452  1.00  0.00     0.000 C 
BRANCH  10  11
ATOM     11  C   UNL     1      17.313  19.989  51.204  1.00  0.00     0.000 C 
BRANCH  11  12
ATOM     12  C   UNL     1      18.366  20.272  52.291  1.00  0.00     0.006 C 
BRANCH  12  13
ATOM     13  C   UNL     1      19.800  19.876  51.902  1.00  0.00     0.053 C 
BRANCH  13  14
ATOM     14  C   UNL     1      20.192  20.430  50.566  1.00  0.00     0.041 C 
ATOM     15  O   UNL     1      21.097  21.301  50.482  1.00  0.00    -0.550 OA
ATOM     16  O   UNL     1      19.546  19.994  49.417  1.00  0.00    -0.550 OA
ENDBRANCH  13  14
ENDBRANCH  12  13
ENDBRANCH  11  12
ENDBRANCH  10  11
ENDBRANCH   9  10
ENDBRANCH   8   9
ENDBRANCH   7   8
ENDBRANCH   6   7
ENDBRANCH   5   6
ENDBRANCH   4   5
ENDBRANCH   3   4
ENDBRANCH   2   3
ENDBRANCH   1   2
BRANCH   1  17
ATOM     17  C   UNL     1      14.331  31.469  50.468  1.00  0.00     0.000 C 
BRANCH  17  18
ATOM     18  C   UNL     1      15.591  32.308  50.217  1.00  0.00     0.000 C 
BRANCH  18  19
ATOM     19  C   UNL     1      15.373  33.810  50.464  1.00  0.00     0.000 C 
BRANCH  19  20
ATOM     20  C   UNL     1      15.574  34.690  49.213  1.00  0.00     0.000 C 
BRANCH  20  21
ATOM     21  C   UNL     1      14.638  35.912  49.198  1.00  0.00     0.000 C 
BRANCH  21  22
ATOM     22  C   UNL     1      14.848  36.795  47.958  1.00  0.00    -0.000 C 
BRANCH  22  23
ATOM     23  C   UNL     1      13.551  37.475  47.496  1.00  0.00    -0.000 C 
BRANCH  23  24
ATOM     24  C   UNL     1      13.810  38.936  47.103  1.00  0.00    -0.000 C 
BRANCH  24  25
ATOM     25  C   UNL     1      15.229  39.405  47.461  1.00  0.00    -0.000 C 
BRANCH  25  26
ATOM     26  C   UNL     1      16.107  39.628  46.220  1.00  0.00    -0.000 C 
BRANCH  26  27
ATOM     27  C   UNL     1      16.645  38.300  45.675  1.00  0.00    -0.000 C 
BRANCH  27  28
ATOM     28  C   UNL     1      17.894  37.856  46.451  1.00  0.00    -0.000 C 
BRANCH  28  29
ATOM     29  C   UNL     1      18.674  39.040  47.041  1.00  0.00    -0.003 C 
ATOM     30  C   UNL     1      20.165  38.990  46.710  1.00  0.00     0.004 C 
ENDBRANCH  28  29
ENDBRANCH  27  28
ENDBRANCH  26  27
ENDBRANCH  25  26
ENDBRANCH  24  25
ENDBRANCH  23  24
ENDBRANCH  22  23
ENDBRANCH  21  22
ENDBRANCH  20  21
ENDBRANCH  19  20
ENDBRANCH  18  19
ENDBRANCH  17  18
ENDBRANCH   1  17
TORSDOF 26
ENDMDL
MODEL 7
REMARK VINA RESULT:    15.357      5.944     12.672
REMARK INTER + INTRA:          38.073
REMARK INTER:                  37.757
REMARK INTRA:                   0.315
REMARK UNBOUND:                -0.627
REMARK SMILES CCCCCCCCCCCCCCCCCCCCCCCCCCCC(=O)[O-]
REMARK SMILES IDX 15 1 16 2 17 3 18 4 19 5 20 6 21 7 22 8 23 9 24 10 25 11
REMARK SMILES IDX 26 12 27 13 28 14 29 15 30 16 14 17 13 18 12 19 11 20 10 21
REMARK SMILES IDX 9 22 8 23 7 24 6 25 5 26 4 27 3 28 2 29 1 30
REMARK H PARENT
REMARK Flexibility Score: inf
ROOT
ATOM      1  C   UNL     1      15.181  35.561  49.058  1.00  0.00     0.000 C 
ENDROOT
BRANCH   1   2
ATOM      2  C   UNL     1      15.269  34.625  50.275  1.00  0.00     0.000 C 
BRANCH   2   3
ATOM      3  C   UNL     1      16.009  33.295  50.033  1.00  0.00     0.000 C 
BRANCH   3   4
ATOM      4  C   UNL     1      15.415  32.089  50.792  1.00  0.00     0.000 C 
BRANCH   4   5
ATOM      5  C   UNL     1      14.458  31.250  49.925  1.00  0.00     0.000 C 
BRANCH   5   6
ATOM      6  C   UNL     1      13.529  30.362  50.767  1.00  0.00     0.000 C 
BRANCH   6   7
ATOM      7  C   UNL     1      14.308  29.374  51.650  1.00  0.00     0.000 C 
BRANCH   7   8
ATOM      8  C   UNL     1      13.466  28.127  51.961  1.00  0.00     0.000 C 
BRANCH   8   9
ATOM      9  C   UNL     1      13.097  27.334  50.698  1.00  0.00     0.000 C 
BRANCH   9  10
ATOM     10  C   UNL     1      13.361  28.120  49.404  1.00  0.00     0.000 C 
BRANCH  10  11
ATOM     11  C   UNL     1      12.087  28.222  48.555  1.00  0.00     0.000 C 
BRANCH  11  12
ATOM     12  C   UNL     1      11.218  26.953  48.628  1.00  0.00     0.006 C 
BRANCH  12  13
ATOM     13  C   UNL     1       9.737  27.178  48.278  1.00  0.00     0.053 C 
BRANCH  13  14
ATOM     14  C   UNL     1       9.052  25.903  47.890  1.00  0.00     0.041 C 
ATOM     15  O   UNL     1       9.566  24.793  48.184  1.00  0.00    -0.550 OA
ATOM     16  O   UNL     1       7.853  25.944  47.190  1.00  0.00    -0.550 OA
ENDBRANCH  13  14
ENDBRANCH  12  13
ENDBRANCH  11  12
ENDBRANCH  10  11
ENDBRANCH   9  10
ENDBRANCH   8   9
ENDBRANCH   7   8
ENDBRANCH   6   7
ENDBRANCH   5   6
ENDBRANCH   4   5
ENDBRANCH   3   4
ENDBRANCH   2   3
ENDBRANCH   1   2
BRANCH   1  17
ATOM     17  C   UNL     1      13.790  35.568  48.406  1.00  0.00     0.000 C 
BRANCH  17  18
ATOM     18  C   UNL     1      13.539  36.876  47.646  1.00  0.00     0.000 C 
BRANCH  18  19
ATOM     19  C   UNL     1      14.607  37.948  47.921  1.00  0.00     0.000 C 
BRANCH  19  20
ATOM     20  C   UNL     1      14.312  39.313  47.268  1.00  0.00     0.000 C 
BRANCH  20  21
ATOM     21  C   UNL     1      15.075  39.508  45.944  1.00  0.00     0.000 C 
BRANCH  21  22
ATOM     22  C   UNL     1      16.294  38.578  45.830  1.00  0.00    -0.000 C 
BRANCH  22  23
ATOM     23  C   UNL     1      17.179  38.616  47.084  1.00  0.00    -0.000 C 
BRANCH  23  24
ATOM     24  C   UNL     1      18.533  39.273  46.779  1.00  0.00    -0.000 C 
BRANCH  24  25
ATOM     25  C   UNL     1      19.723  38.355  47.097  1.00  0.00    -0.000 C 
BRANCH  25  26
ATOM     26  C   UNL     1      19.421  36.876  46.807  1.00  0.00    -0.000 C 
BRANCH  26  27
ATOM     27  C   UNL     1      19.616  36.552  45.321  1.00  0.00    -0.000 C 
BRANCH  27  28
ATOM     28  C   UNL     1      20.906  35.747  45.102  1.00  0.00    -0.000 C 
BRANCH  28  29
ATOM     29  C   UNL     1      20.661  34.437  44.341  1.00  0.00    -0.003 C 
ATOM     30  C   UNL     1      21.522  34.313  43.084  1.00  0.00     0.004 C 
ENDBRANCH  28  29
ENDBRANCH  27  28
ENDBRANCH  26  27
ENDBRANCH  25  26
ENDBRANCH  24  25
ENDBRANCH  23  24
ENDBRANCH  22  23
ENDBRANCH  21  22
ENDBRANCH  20  21
ENDBRANCH  19  20
ENDBRANCH  18  19
ENDBRANCH  17  18
ENDBRANCH   1  17
TORSDOF 26
ENDMDL
