MODEL 1
REMARK VINA RESULT:    -4.447      0.000      0.000
REMARK INTER + INTRA:          -7.900
REMARK INTER:                  -6.007
REMARK INTRA:                  -1.893
REMARK UNBOUND:                -1.893
REMARK SMILES CC[C@H](CC[C@@H](C)[C@@H]1CC[C@H]2[C@H]3CC(=O)C4=CC(=O)CC[C@@]4(C)[C@H]3CC[C@@]21C)C(C)C
REMARK SMILES IDX 4 1 3 2 2 3 1 4 29 5 30 6 31 7 5 8 6 9 7 10 8 11 9 12 27 13
REMARK SMILES IDX 10 14 11 15 26 16 28 17 12 18 25 19 24 20 13 21 22 22 14 23
REMARK SMILES IDX 16 24 21 25 23 26 15 27 17 28 20 29 18 30 19 31
REMARK H PARENT
REMARK Flexibility Score: inf
ROOT
ATOM      1  C   UNL     1      13.970  37.540  94.401  1.00  0.00     0.004 C 
ENDROOT
BRANCH   1   2
ATOM      2  C   UNL     1      13.209  36.549  93.473  1.00  0.00    -0.009 C 
BRANCH   2   3
ATOM      3  C   UNL     1      11.732  36.443  93.946  1.00  0.00     0.000 C 
ATOM      4  C   UNL     1      10.697  36.497  92.821  1.00  0.00     0.004 C 
ENDBRANCH   2   3
BRANCH   2   5
ATOM      5  C   UNL     1      13.405  36.938  91.963  1.00  0.00    -0.014 C 
ATOM      6  C   UNL     1      14.501  36.135  91.245  1.00  0.00     0.007 C 
ATOM      7  C   UNL     1      13.620  38.449  91.764  1.00  0.00     0.007 C 
ENDBRANCH   2   5
ENDBRANCH   1   2
BRANCH   1   8
ATOM      8  C   UNL     1      14.826  36.851  95.493  1.00  0.00     0.004 C 
BRANCH   8   9
ATOM      9  C   UNL     1      16.362  37.021  95.285  1.00  0.00    -0.011 C 
ATOM     10  C   UNL     1      17.173  35.875  95.919  1.00  0.00     0.008 C 
BRANCH   9  11
ATOM     11  C   UNL     1      16.834  37.343  93.819  1.00  0.00    -0.002 C 
ATOM     12  C   UNL     1      17.687  36.190  93.211  1.00  0.00     0.005 C 
ATOM     13  C   UNL     1      17.660  38.641  93.501  1.00  0.00    -0.026 C 
ATOM     14  C   UNL     1      19.093  36.747  92.923  1.00  0.00     0.005 C 
ATOM     15  C   UNL     1      19.102  38.109  93.598  1.00  0.00    -0.001 C 
ATOM     16  C   UNL     1      17.545  39.858  94.447  1.00  0.00     0.007 C 
ATOM     17  C   UNL     1      17.222  39.095  92.072  1.00  0.00     0.012 C 
ATOM     18  C   UNL     1      20.246  39.106  93.281  1.00  0.00     0.004 C 
ATOM     19  C   UNL     1      18.611  40.941  94.131  1.00  0.00     0.005 C 
ATOM     20  C   UNL     1      20.074  40.395  94.156  1.00  0.00     0.003 C 
ATOM     21  C   UNL     1      20.510  39.332  91.772  1.00  0.00     0.085 C 
ATOM     22  C   UNL     1      21.198  41.470  93.877  1.00  0.00    -0.000 C 
ATOM     23  C   UNL     1      21.149  40.641  91.409  1.00  0.00     0.159 C 
ATOM     24  C   UNL     1      21.329  41.749  92.384  1.00  0.00     0.005 C 
ATOM     25  C   UNL     1      20.891  42.803  94.639  1.00  0.00     0.020 C 
ATOM     26  C   UNL     1      22.563  40.919  94.376  1.00  0.00     0.017 C 
ATOM     27  O   UNL     1      21.529  40.789  90.213  1.00  0.00    -0.295 OA
ATOM     28  C   UNL     1      21.784  42.942  91.946  1.00  0.00     0.055 C 
ATOM     29  C   UNL     1      21.896  43.920  94.339  1.00  0.00     0.081 C 
ATOM     30  C   UNL     1      22.108  44.051  92.861  1.00  0.00     0.156 C 
ATOM     31  O   UNL     1      22.611  45.106  92.400  1.00  0.00    -0.295 OA
ENDBRANCH   9  11
ENDBRANCH   8   9
ENDBRANCH   1   8
TORSDOF 6
ENDMDL
MODEL 2
REMARK VINA RESULT:    -4.406      1.681      2.199
REMARK INTER + INTRA:          -7.845
REMARK INTER:                  -5.993
REMARK INTRA:                  -1.853
REMARK UNBOUND:                -1.893
REMARK SMILES CC[C@H](CC[C@@H](C)[C@@H]1CC[C@H]2[C@H]3CC(=O)C4=CC(=O)CC[C@@]4(C)[C@H]3CC[C@@]21C)C(C)C
REMARK SMILES IDX 4 1 3 2 2 3 1 4 29 5 30 6 31 7 5 8 6 9 7 10 8 11 9 12 27 13
REMARK SMILES IDX 10 14 11 15 26 16 28 17 12 18 25 19 24 20 13 21 22 22 14 23
REMARK SMILES IDX 16 24 21 25 23 26 15 27 17 28 20 29 18 30 19 31
REMARK H PARENT
REMARK Flexibility Score: inf
ROOT
ATOM      1  C   UNL     1      14.941  38.130  95.277  1.00  0.00     0.004 C 
ENDROOT
BRANCH   1   2
ATOM      2  C   UNL     1      13.806  37.100  95.002  1.00  0.00    -0.009 C 
BRANCH   2   3
ATOM      3  C   UNL     1      12.617  37.388  95.961  1.00  0.00     0.000 C 
ATOM      4  C   UNL     1      12.761  38.665  96.789  1.00  0.00     0.004 C 
ENDBRANCH   2   3
BRANCH   2   5
ATOM      5  C   UNL     1      13.445  37.066  93.473  1.00  0.00    -0.014 C 
ATOM      6  C   UNL     1      14.142  35.943  92.689  1.00  0.00     0.007 C 
ATOM      7  C   UNL     1      13.658  38.424  92.782  1.00  0.00     0.007 C 
ENDBRANCH   2   5
ENDBRANCH   1   2
BRANCH   1   8
ATOM      8  C   UNL     1      16.113  37.566  96.119  1.00  0.00     0.004 C 
BRANCH   8   9
ATOM      9  C   UNL     1      17.460  37.480  95.339  1.00  0.00    -0.011 C 
ATOM     10  C   UNL     1      18.366  36.344  95.850  1.00  0.00     0.008 C 
BRANCH   9  11
ATOM     11  C   UNL     1      17.357  37.499  93.769  1.00  0.00    -0.002 C 
ATOM     12  C   UNL     1      17.841  36.160  93.134  1.00  0.00     0.005 C 
ATOM     13  C   UNL     1      18.079  38.608  92.922  1.00  0.00    -0.026 C 
ATOM     14  C   UNL     1      19.063  36.473  92.252  1.00  0.00     0.005 C 
ATOM     15  C   UNL     1      19.413  37.912  92.594  1.00  0.00    -0.001 C 
ATOM     16  C   UNL     1      18.409  39.965  93.584  1.00  0.00     0.007 C 
ATOM     17  C   UNL     1      17.159  38.881  91.690  1.00  0.00     0.012 C 
ATOM     18  C   UNL     1      20.410  38.685  91.692  1.00  0.00     0.004 C 
ATOM     19  C   UNL     1      19.339  40.833  92.696  1.00  0.00     0.005 C 
ATOM     20  C   UNL     1      20.665  40.110  92.296  1.00  0.00     0.003 C 
ATOM     21  C   UNL     1      20.092  38.631  90.177  1.00  0.00     0.085 C 
ATOM     22  C   UNL     1      21.662  40.968  91.421  1.00  0.00    -0.000 C 
ATOM     23  C   UNL     1      20.626  39.769  89.356  1.00  0.00     0.159 C 
ATOM     24  C   UNL     1      21.232  40.985  89.959  1.00  0.00     0.005 C 
ATOM     25  C   UNL     1      21.752  42.435  91.963  1.00  0.00     0.020 C 
ATOM     26  C   UNL     1      23.078  40.328  91.490  1.00  0.00     0.017 C 
ATOM     27  O   UNL     1      20.529  39.671  88.100  1.00  0.00    -0.295 OA
ATOM     28  C   UNL     1      21.559  42.022  89.159  1.00  0.00     0.055 C 
ATOM     29  C   UNL     1      22.634  43.346  91.103  1.00  0.00     0.081 C 
ATOM     30  C   UNL     1      22.275  43.210  89.655  1.00  0.00     0.156 C 
ATOM     31  O   UNL     1      22.630  44.101  88.844  1.00  0.00    -0.295 OA
ENDBRANCH   9  11
ENDBRANCH   8   9
ENDBRANCH   1   8
TORSDOF 6
ENDMDL
MODEL 3
REMARK VINA RESULT:    -4.386      1.254      2.005
REMARK INTER + INTRA:          -7.817
REMARK INTER:                  -6.206
REMARK INTRA:                  -1.611
REMARK UNBOUND:                -1.893
REMARK SMILES CC[C@H](CC[C@@H](C)[C@@H]1CC[C@H]2[C@H]3CC(=O)C4=CC(=O)CC[C@@]4(C)[C@H]3CC[C@@]21C)C(C)C
REMARK SMILES IDX 4 1 3 2 2 3 1 4 29 5 30 6 31 7 5 8 6 9 7 10 8 11 9 12 27 13
REMARK SMILES IDX 10 14 11 15 26 16 28 17 12 18 25 19 24 20 13 21 22 22 14 23
REMARK SMILES IDX 16 24 21 25 23 26 15 27 17 28 20 29 18 30 19 31
REMARK H PARENT
REMARK Flexibility Score: inf
ROOT
ATOM      1  C   UNL     1      14.373  36.406  94.144  1.00  0.00     0.004 C 
ENDROOT
BRANCH   1   2
ATOM      2  C   UNL     1      14.101  37.879  93.723  1.00  0.00    -0.009 C 
BRANCH   2   3
ATOM      3  C   UNL     1      13.076  37.893  92.555  1.00  0.00     0.000 C 
ATOM      4  C   UNL     1      13.686  38.144  91.175  1.00  0.00     0.004 C 
ENDBRANCH   2   3
BRANCH   2   5
ATOM      5  C   UNL     1      13.709  38.750  94.971  1.00  0.00    -0.014 C 
ATOM      6  C   UNL     1      14.167  40.215  94.883  1.00  0.00     0.007 C 
ATOM      7  C   UNL     1      14.161  38.119  96.300  1.00  0.00     0.007 C 
ENDBRANCH   2   5
ENDBRANCH   1   2
BRANCH   1   8
ATOM      8  C   UNL     1      15.764  35.875  93.715  1.00  0.00     0.004 C 
BRANCH   8   9
ATOM      9  C   UNL     1      16.931  36.864  94.014  1.00  0.00    -0.011 C 
ATOM     10  C   UNL     1      17.953  36.286  95.012  1.00  0.00     0.008 C 
BRANCH   9  11
ATOM     11  C   UNL     1      17.627  37.519  92.764  1.00  0.00    -0.002 C 
ATOM     12  C   UNL     1      18.686  36.575  92.121  1.00  0.00     0.005 C 
ATOM     13  C   UNL     1      18.364  38.901  92.879  1.00  0.00    -0.026 C 
ATOM     14  C   UNL     1      20.058  37.263  92.233  1.00  0.00     0.005 C 
ATOM     15  C   UNL     1      19.810  38.448  93.152  1.00  0.00    -0.001 C 
ATOM     16  C   UNL     1      17.959  39.880  94.005  1.00  0.00     0.007 C 
ATOM     17  C   UNL     1      18.149  39.623  91.511  1.00  0.00     0.012 C 
ATOM     18  C   UNL     1      20.888  39.556  93.271  1.00  0.00     0.004 C 
ATOM     19  C   UNL     1      18.952  41.067  94.127  1.00  0.00     0.005 C 
ATOM     20  C   UNL     1      20.433  40.616  94.332  1.00  0.00     0.003 C 
ATOM     21  C   UNL     1      21.397  40.114  91.919  1.00  0.00     0.085 C 
ATOM     22  C   UNL     1      21.477  41.791  94.499  1.00  0.00    -0.000 C 
ATOM     23  C   UNL     1      21.957  41.506  91.957  1.00  0.00     0.159 C 
ATOM     24  C   UNL     1      21.847  42.390  93.147  1.00  0.00     0.005 C 
ATOM     25  C   UNL     1      20.905  42.910  95.434  1.00  0.00     0.020 C 
ATOM     26  C   UNL     1      22.777  41.228  95.140  1.00  0.00     0.017 C 
ATOM     27  O   UNL     1      22.531  41.927  90.912  1.00  0.00    -0.295 OA
ATOM     28  C   UNL     1      22.253  43.673  93.052  1.00  0.00     0.055 C 
ATOM     29  C   UNL     1      21.832  44.123  95.565  1.00  0.00     0.081 C 
ATOM     30  C   UNL     1      22.294  44.579  94.214  1.00  0.00     0.156 C 
ATOM     31  O   UNL     1      22.765  45.736  94.080  1.00  0.00    -0.295 OA
ENDBRANCH   9  11
ENDBRANCH   8   9
ENDBRANCH   1   8
TORSDOF 6
ENDMDL
MODEL 4
REMARK VINA RESULT:    -4.316      3.057      7.652
REMARK INTER + INTRA:          -7.723
REMARK INTER:                  -5.817
REMARK INTRA:                  -1.906
REMARK UNBOUND:                -1.893
REMARK SMILES CC[C@H](CC[C@@H](C)[C@@H]1CC[C@H]2[C@H]3CC(=O)C4=CC(=O)CC[C@@]4(C)[C@H]3CC[C@@]21C)C(C)C
REMARK SMILES IDX 4 1 3 2 2 3 1 4 29 5 30 6 31 7 5 8 6 9 7 10 8 11 9 12 27 13
REMARK SMILES IDX 10 14 11 15 26 16 28 17 12 18 25 19 24 20 13 21 22 22 14 23
REMARK SMILES IDX 16 24 21 25 23 26 15 27 17 28 20 29 18 30 19 31
REMARK H PARENT
REMARK Flexibility Score: inf
ROOT
ATOM      1  C   UNL     1      21.865  40.931  90.280  1.00  0.00     0.004 C 
ENDROOT
BRANCH   1   2
ATOM      2  C   UNL     1      20.880  40.359  89.219  1.00  0.00    -0.009 C 
BRANCH   2   3
ATOM      3  C   UNL     1      21.500  40.531  87.804  1.00  0.00     0.000 C 
ATOM      4  C   UNL     1      23.015  40.329  87.744  1.00  0.00     0.004 C 
ENDBRANCH   2   3
BRANCH   2   5
ATOM      5  C   UNL     1      20.452  38.893  89.592  1.00  0.00    -0.014 C 
ATOM      6  C   UNL     1      19.133  38.805  90.377  1.00  0.00     0.007 C 
ATOM      7  C   UNL     1      21.566  38.116  90.314  1.00  0.00     0.007 C 
ENDBRANCH   2   5
ENDBRANCH   1   2
BRANCH   1   8
ATOM      8  C   UNL     1      21.192  41.841  91.338  1.00  0.00     0.004 C 
BRANCH   8   9
ATOM      9  C   UNL     1      22.152  42.285  92.483  1.00  0.00    -0.011 C 
ATOM     10  C   UNL     1      22.047  43.792  92.790  1.00  0.00     0.008 C 
BRANCH   9  11
ATOM     11  C   UNL     1      22.130  41.409  93.790  1.00  0.00    -0.002 C 
ATOM     12  C   UNL     1      23.054  40.160  93.674  1.00  0.00     0.005 C 
ATOM     13  C   UNL     1      20.782  40.838  94.359  1.00  0.00    -0.026 C 
ATOM     14  C   UNL     1      22.167  38.908  93.787  1.00  0.00     0.005 C 
ATOM     15  C   UNL     1      20.748  39.445  93.705  1.00  0.00    -0.001 C 
ATOM     16  C   UNL     1      19.456  41.551  94.012  1.00  0.00     0.007 C 
ATOM     17  C   UNL     1      20.935  40.831  95.913  1.00  0.00     0.012 C 
ATOM     18  C   UNL     1      19.563  38.517  94.079  1.00  0.00     0.004 C 
ATOM     19  C   UNL     1      18.219  40.715  94.437  1.00  0.00     0.005 C 
ATOM     20  C   UNL     1      18.210  39.273  93.836  1.00  0.00     0.003 C 
ATOM     21  C   UNL     1      19.708  37.794  95.440  1.00  0.00     0.085 C 
ATOM     22  C   UNL     1      16.951  38.396  94.211  1.00  0.00    -0.000 C 
ATOM     23  C   UNL     1      18.426  37.379  96.100  1.00  0.00     0.159 C 
ATOM     24  C   UNL     1      17.090  37.810  95.612  1.00  0.00     0.005 C 
ATOM     25  C   UNL     1      15.638  39.244  94.120  1.00  0.00     0.020 C 
ATOM     26  C   UNL     1      16.843  37.210  93.211  1.00  0.00     0.017 C 
ATOM     27  O   UNL     1      18.513  36.643  97.124  1.00  0.00    -0.295 OA
ATOM     28  C   UNL     1      15.995  37.510  96.342  1.00  0.00     0.055 C 
ATOM     29  C   UNL     1      14.387  38.476  94.560  1.00  0.00     0.081 C 
ATOM     30  C   UNL     1      14.627  37.789  95.870  1.00  0.00     0.156 C 
ATOM     31  O   UNL     1      13.646  37.406  96.555  1.00  0.00    -0.295 OA
ENDBRANCH   9  11
ENDBRANCH   8   9
ENDBRANCH   1   8
TORSDOF 6
ENDMDL
MODEL 5
REMARK VINA RESULT:    -4.244      2.917      7.515
REMARK INTER + INTRA:          -7.626
REMARK INTER:                  -5.224
REMARK INTRA:                  -2.402
REMARK UNBOUND:                -1.893
REMARK SMILES CC[C@H](CC[C@@H](C)[C@@H]1CC[C@H]2[C@H]3CC(=O)C4=CC(=O)CC[C@@]4(C)[C@H]3CC[C@@]21C)C(C)C
REMARK SMILES IDX 4 1 3 2 2 3 1 4 29 5 30 6 31 7 5 8 6 9 7 10 8 11 9 12 27 13
REMARK SMILES IDX 10 14 11 15 26 16 28 17 12 18 25 19 24 20 13 21 22 22 14 23
REMARK SMILES IDX 16 24 21 25 23 26 15 27 17 28 20 29 18 30 19 31
REMARK H PARENT
REMARK Flexibility Score: inf
ROOT
ATOM      1  C   UNL     1      21.833  38.924  93.517  1.00  0.00     0.004 C 
ENDROOT
BRANCH   1   2
ATOM      2  C   UNL     1      21.570  40.424  93.839  1.00  0.00    -0.009 C 
BRANCH   2   3
ATOM      3  C   UNL     1      21.391  41.205  92.507  1.00  0.00     0.000 C 
ATOM      4  C   UNL     1      22.192  42.506  92.419  1.00  0.00     0.004 C 
ENDBRANCH   2   3
BRANCH   2   5
ATOM      5  C   UNL     1      20.394  40.573  94.870  1.00  0.00    -0.014 C 
ATOM      6  C   UNL     1      20.021  39.267  95.589  1.00  0.00     0.007 C 
ATOM      7  C   UNL     1      19.146  41.231  94.256  1.00  0.00     0.007 C 
ENDBRANCH   2   5
ENDBRANCH   1   2
BRANCH   1   8
ATOM      8  C   UNL     1      22.490  38.681  92.135  1.00  0.00     0.004 C 
BRANCH   8   9
ATOM      9  C   UNL     1      22.163  37.286  91.522  1.00  0.00    -0.011 C 
ATOM     10  C   UNL     1      22.271  36.148  92.555  1.00  0.00     0.008 C 
BRANCH   9  11
ATOM     11  C   UNL     1      20.844  37.192  90.669  1.00  0.00    -0.002 C 
ATOM     12  C   UNL     1      20.659  38.428  89.739  1.00  0.00     0.005 C 
ATOM     13  C   UNL     1      19.444  37.018  91.360  1.00  0.00    -0.026 C 
ATOM     14  C   UNL     1      19.370  39.151  90.169  1.00  0.00     0.005 C 
ATOM     15  C   UNL     1      18.985  38.483  91.479  1.00  0.00    -0.001 C 
ATOM     16  C   UNL     1      19.372  36.389  92.770  1.00  0.00     0.007 C 
ATOM     17  C   UNL     1      18.590  36.138  90.393  1.00  0.00     0.012 C 
ATOM     18  C   UNL     1      17.576  38.736  92.074  1.00  0.00     0.004 C 
ATOM     19  C   UNL     1      17.960  36.530  93.397  1.00  0.00     0.005 C 
ATOM     20  C   UNL     1      17.453  38.007  93.457  1.00  0.00     0.003 C 
ATOM     21  C   UNL     1      16.405  38.527  91.083  1.00  0.00     0.085 C 
ATOM     22  C   UNL     1      16.034  38.205  94.122  1.00  0.00    -0.000 C 
ATOM     23  C   UNL     1      15.079  38.191  91.700  1.00  0.00     0.159 C 
ATOM     24  C   UNL     1      14.918  37.863  93.141  1.00  0.00     0.005 C 
ATOM     25  C   UNL     1      15.897  37.322  95.407  1.00  0.00     0.020 C 
ATOM     26  C   UNL     1      15.867  39.697  94.527  1.00  0.00     0.017 C 
ATOM     27  O   UNL     1      14.072  38.178  90.937  1.00  0.00    -0.295 OA
ATOM     28  C   UNL     1      13.718  37.436  93.588  1.00  0.00     0.055 C 
ATOM     29  C   UNL     1      14.509  37.398  96.052  1.00  0.00     0.081 C 
ATOM     30  C   UNL     1      13.440  37.210  95.018  1.00  0.00     0.156 C 
ATOM     31  O   UNL     1      12.278  36.898  95.380  1.00  0.00    -0.295 OA
ENDBRANCH   9  11
ENDBRANCH   8   9
ENDBRANCH   1   8
TORSDOF 6
ENDMDL
MODEL 6
REMARK VINA RESULT:    -4.162      2.664      4.927
REMARK INTER + INTRA:          -7.516
REMARK INTER:                  -5.087
REMARK INTRA:                  -2.428
REMARK UNBOUND:                -1.893
REMARK SMILES CC[C@H](CC[C@@H](C)[C@@H]1CC[C@H]2[C@H]3CC(=O)C4=CC(=O)CC[C@@]4(C)[C@H]3CC[C@@]21C)C(C)C
REMARK SMILES IDX 4 1 3 2 2 3 1 4 29 5 30 6 31 7 5 8 6 9 7 10 8 11 9 12 27 13
REMARK SMILES IDX 10 14 11 15 26 16 28 17 12 18 25 19 24 20 13 21 22 22 14 23
REMARK SMILES IDX 16 24 21 25 23 26 15 27 17 28 20 29 18 30 19 31
REMARK H PARENT
REMARK Flexibility Score: inf
ROOT
ATOM      1  C   UNL     1      19.303  38.408  95.939  1.00  0.00     0.004 C 
ENDROOT
BRANCH   1   2
ATOM      2  C   UNL     1      20.851  38.511  95.810  1.00  0.00    -0.009 C 
BRANCH   2   3
ATOM      3  C   UNL     1      21.340  37.499  94.736  1.00  0.00     0.000 C 
ATOM      4  C   UNL     1      22.799  37.674  94.313  1.00  0.00     0.004 C 
ENDBRANCH   2   3
BRANCH   2   5
ATOM      5  C   UNL     1      21.291  40.002  95.578  1.00  0.00    -0.014 C 
ATOM      6  C   UNL     1      22.541  40.417  96.372  1.00  0.00     0.007 C 
ATOM      7  C   UNL     1      20.144  41.001  95.809  1.00  0.00     0.007 C 
ENDBRANCH   2   5
ENDBRANCH   1   2
BRANCH   1   8
ATOM      8  C   UNL     1      18.713  37.081  95.399  1.00  0.00     0.004 C 
BRANCH   8   9
ATOM      9  C   UNL     1      17.315  37.245  94.727  1.00  0.00    -0.011 C 
ATOM     10  C   UNL     1      16.482  38.373  95.366  1.00  0.00     0.008 C 
BRANCH   9  11
ATOM     11  C   UNL     1      17.303  37.314  93.155  1.00  0.00    -0.002 C 
ATOM     12  C   UNL     1      17.835  36.001  92.507  1.00  0.00     0.005 C 
ATOM     13  C   UNL     1      18.061  38.456  92.388  1.00  0.00    -0.026 C 
ATOM     14  C   UNL     1      19.102  36.352  91.707  1.00  0.00     0.005 C 
ATOM     15  C   UNL     1      19.418  37.782  92.114  1.00  0.00    -0.001 C 
ATOM     16  C   UNL     1      18.339  39.793  93.111  1.00  0.00     0.007 C 
ATOM     17  C   UNL     1      17.210  38.762  91.114  1.00  0.00     0.012 C 
ATOM     18  C   UNL     1      20.457  38.592  91.297  1.00  0.00     0.004 C 
ATOM     19  C   UNL     1      19.310  40.697  92.306  1.00  0.00     0.005 C 
ATOM     20  C   UNL     1      20.664  39.998  91.960  1.00  0.00     0.003 C 
ATOM     21  C   UNL     1      20.228  38.584  89.766  1.00  0.00     0.085 C 
ATOM     22  C   UNL     1      21.701  40.892  91.172  1.00  0.00    -0.000 C 
ATOM     23  C   UNL     1      20.796  39.753  89.014  1.00  0.00     0.159 C 
ATOM     24  C   UNL     1      21.354  40.953  89.689  1.00  0.00     0.005 C 
ATOM     25  C   UNL     1      21.745  42.341  91.765  1.00  0.00     0.020 C 
ATOM     26  C   UNL     1      23.116  40.262  91.302  1.00  0.00     0.017 C 
ATOM     27  O   UNL     1      20.773  39.695  87.752  1.00  0.00    -0.295 OA
ATOM     28  C   UNL     1      21.717  42.018  88.943  1.00  0.00     0.055 C 
ATOM     29  C   UNL     1      22.666  43.287  90.988  1.00  0.00     0.081 C 
ATOM     30  C   UNL     1      22.392  43.195  89.517  1.00  0.00     0.156 C 
ATOM     31  O   UNL     1      22.783  44.116  88.757  1.00  0.00    -0.295 OA
ENDBRANCH   9  11
ENDBRANCH   8   9
ENDBRANCH   1   8
TORSDOF 6
ENDMDL
MODEL 7
REMARK VINA RESULT:    -4.070      3.041      7.993
REMARK INTER + INTRA:          -7.391
REMARK INTER:                  -5.308
REMARK INTRA:                  -2.083
REMARK UNBOUND:                -1.893
REMARK SMILES CC[C@H](CC[C@@H](C)[C@@H]1CC[C@H]2[C@H]3CC(=O)C4=CC(=O)CC[C@@]4(C)[C@H]3CC[C@@]21C)C(C)C
REMARK SMILES IDX 4 1 3 2 2 3 1 4 29 5 30 6 31 7 5 8 6 9 7 10 8 11 9 12 27 13
REMARK SMILES IDX 10 14 11 15 26 16 28 17 12 18 25 19 24 20 13 21 22 22 14 23
REMARK SMILES IDX 16 24 21 25 23 26 15 27 17 28 20 29 18 30 19 31
REMARK H PARENT
REMARK Flexibility Score: inf
ROOT
ATOM      1  C   UNL     1      23.026  41.182  91.214  1.00  0.00     0.004 C 
ENDROOT
BRANCH   1   2
ATOM      2  C   UNL     1      22.332  42.574  91.297  1.00  0.00    -0.009 C 
BRANCH   2   3
ATOM      3  C   UNL     1      21.124  42.598  90.320  1.00  0.00     0.000 C 
ATOM      4  C   UNL     1      21.285  43.546  89.131  1.00  0.00     0.004 C 
ENDBRANCH   2   3
BRANCH   2   5
ATOM      5  C   UNL     1      21.999  42.941  92.788  1.00  0.00    -0.014 C 
ATOM      6  C   UNL     1      22.766  42.106  93.826  1.00  0.00     0.007 C 
ATOM      7  C   UNL     1      20.489  42.918  93.082  1.00  0.00     0.007 C 
ENDBRANCH   2   5
ENDBRANCH   1   2
BRANCH   1   8
ATOM      8  C   UNL     1      22.639  40.359  89.960  1.00  0.00     0.004 C 
BRANCH   8   9
ATOM      9  C   UNL     1      21.825  39.070  90.283  1.00  0.00    -0.011 C 
ATOM     10  C   UNL     1      22.143  37.913  89.317  1.00  0.00     0.008 C 
BRANCH   9  11
ATOM     11  C   UNL     1      21.825  38.605  91.787  1.00  0.00    -0.002 C 
ATOM     12  C   UNL     1      22.334  37.141  91.947  1.00  0.00     0.005 C 
ATOM     13  C   UNL     1      20.513  38.653  92.649  1.00  0.00    -0.026 C 
ATOM     14  C   UNL     1      21.181  36.305  92.531  1.00  0.00     0.005 C 
ATOM     15  C   UNL     1      19.973  37.224  92.452  1.00  0.00    -0.001 C 
ATOM     16  C   UNL     1      19.388  39.637  92.256  1.00  0.00     0.007 C 
ATOM     17  C   UNL     1      20.964  38.990  94.106  1.00  0.00     0.012 C 
ATOM     18  C   UNL     1      18.680  36.845  93.217  1.00  0.00     0.004 C 
ATOM     19  C   UNL     1      18.081  39.370  93.049  1.00  0.00     0.005 C 
ATOM     20  C   UNL     1      17.563  37.903  92.914  1.00  0.00     0.003 C 
ATOM     21  C   UNL     1      18.890  36.480  94.708  1.00  0.00     0.085 C 
ATOM     22  C   UNL     1      16.213  37.593  93.674  1.00  0.00    -0.000 C 
ATOM     23  C   UNL     1      17.701  36.673  95.602  1.00  0.00     0.159 C 
ATOM     24  C   UNL     1      16.462  37.367  95.161  1.00  0.00     0.005 C 
ATOM     25  C   UNL     1      15.188  38.762  93.481  1.00  0.00     0.020 C 
ATOM     26  C   UNL     1      15.592  36.291  93.095  1.00  0.00     0.017 C 
ATOM     27  O   UNL     1      17.786  36.231  96.783  1.00  0.00    -0.295 OA
ATOM     28  C   UNL     1      15.494  37.623  96.066  1.00  0.00     0.055 C 
ATOM     29  C   UNL     1      13.889  38.566  94.269  1.00  0.00     0.081 C 
ATOM     30  C   UNL     1      14.188  38.192  95.689  1.00  0.00     0.156 C 
ATOM     31  O   UNL     1      13.296  38.324  96.563  1.00  0.00    -0.295 OA
ENDBRANCH   9  11
ENDBRANCH   8   9
ENDBRANCH   1   8
TORSDOF 6
ENDMDL
MODEL 8
REMARK VINA RESULT:    -4.061      3.283      8.199
REMARK INTER + INTRA:          -7.378
REMARK INTER:                  -5.950
REMARK INTRA:                  -1.428
REMARK UNBOUND:                -1.893
REMARK SMILES CC[C@H](CC[C@@H](C)[C@@H]1CC[C@H]2[C@H]3CC(=O)C4=CC(=O)CC[C@@]4(C)[C@H]3CC[C@@]21C)C(C)C
REMARK SMILES IDX 4 1 3 2 2 3 1 4 29 5 30 6 31 7 5 8 6 9 7 10 8 11 9 12 27 13
REMARK SMILES IDX 10 14 11 15 26 16 28 17 12 18 25 19 24 20 13 21 22 22 14 23
REMARK SMILES IDX 16 24 21 25 23 26 15 27 17 28 20 29 18 30 19 31
REMARK H PARENT
REMARK Flexibility Score: inf
ROOT
ATOM      1  C   UNL     1      22.489  40.649  91.845  1.00  0.00     0.004 C 
ENDROOT
BRANCH   1   2
ATOM      2  C   UNL     1      22.590  41.109  90.361  1.00  0.00    -0.009 C 
BRANCH   2   3
ATOM      3  C   UNL     1      22.877  39.872  89.464  1.00  0.00     0.000 C 
ATOM      4  C   UNL     1      22.065  39.823  88.169  1.00  0.00     0.004 C 
ENDBRANCH   2   3
BRANCH   2   5
ATOM      5  C   UNL     1      21.331  41.957  89.955  1.00  0.00    -0.014 C 
ATOM      6  C   UNL     1      21.664  43.256  89.205  1.00  0.00     0.007 C 
ATOM      7  C   UNL     1      20.398  42.241  91.146  1.00  0.00     0.007 C 
ENDBRANCH   2   5
ENDBRANCH   1   2
BRANCH   1   8
ATOM      8  C   UNL     1      22.363  39.115  92.022  1.00  0.00     0.004 C 
BRANCH   8   9
ATOM      9  C   UNL     1      21.105  38.679  92.833  1.00  0.00    -0.011 C 
ATOM     10  C   UNL     1      20.582  39.796  93.756  1.00  0.00     0.008 C 
BRANCH   9  11
ATOM     11  C   UNL     1      19.950  37.997  92.011  1.00  0.00    -0.002 C 
ATOM     12  C   UNL     1      19.546  38.835  90.761  1.00  0.00     0.005 C 
ATOM     13  C   UNL     1      18.580  37.634  92.688  1.00  0.00    -0.026 C 
ATOM     14  C   UNL     1      18.077  39.259  90.934  1.00  0.00     0.005 C 
ATOM     15  C   UNL     1      17.747  38.889  92.371  1.00  0.00    -0.001 C 
ATOM     16  C   UNL     1      18.530  37.413  94.217  1.00  0.00     0.007 C 
ATOM     17  C   UNL     1      18.086  36.324  91.994  1.00  0.00     0.012 C 
ATOM     18  C   UNL     1      16.267  38.891  92.834  1.00  0.00     0.004 C 
ATOM     19  C   UNL     1      17.073  37.319  94.743  1.00  0.00     0.005 C 
ATOM     20  C   UNL     1      16.198  38.556  94.364  1.00  0.00     0.003 C 
ATOM     21  C   UNL     1      15.298  38.106  91.917  1.00  0.00     0.085 C 
ATOM     22  C   UNL     1      14.715  38.524  94.910  1.00  0.00    -0.000 C 
ATOM     23  C   UNL     1      14.049  37.594  92.572  1.00  0.00     0.159 C 
ATOM     24  C   UNL     1      13.832  37.635  94.042  1.00  0.00     0.005 C 
ATOM     25  C   UNL     1      14.682  38.017  96.391  1.00  0.00     0.020 C 
ATOM     26  C   UNL     1      14.127  39.963  94.866  1.00  0.00     0.017 C 
ATOM     27  O   UNL     1      13.163  37.097  91.820  1.00  0.00    -0.295 OA
ATOM     28  C   UNL     1      12.745  37.028  94.564  1.00  0.00     0.055 C 
ATOM     29  C   UNL     1      13.263  37.876  96.953  1.00  0.00     0.081 C 
ATOM     30  C   UNL     1      12.391  37.127  95.991  1.00  0.00     0.156 C 
ATOM     31  O   UNL     1      11.319  36.614  96.399  1.00  0.00    -0.295 OA
ENDBRANCH   9  11
ENDBRANCH   8   9
ENDBRANCH   1   8
TORSDOF 6
ENDMDL
MODEL 9
REMARK VINA RESULT:    -3.990      1.501      2.138
REMARK INTER + INTRA:          -7.283
REMARK INTER:                  -5.668
REMARK INTRA:                  -1.616
REMARK UNBOUND:                -1.893
REMARK SMILES CC[C@H](CC[C@@H](C)[C@@H]1CC[C@H]2[C@H]3CC(=O)C4=CC(=O)CC[C@@]4(C)[C@H]3CC[C@@]21C)C(C)C
REMARK SMILES IDX 4 1 3 2 2 3 1 4 29 5 30 6 31 7 5 8 6 9 7 10 8 11 9 12 27 13
REMARK SMILES IDX 10 14 11 15 26 16 28 17 12 18 25 19 24 20 13 21 22 22 14 23
REMARK SMILES IDX 16 24 21 25 23 26 15 27 17 28 20 29 18 30 19 31
REMARK H PARENT
REMARK Flexibility Score: inf
ROOT
ATOM      1  C   UNL     1      12.971  37.351  94.646  1.00  0.00     0.004 C 
ENDROOT
BRANCH   1   2
ATOM      2  C   UNL     1      13.473  36.755  93.298  1.00  0.00    -0.009 C 
BRANCH   2   3
ATOM      3  C   UNL     1      12.343  35.889  92.674  1.00  0.00     0.000 C 
ATOM      4  C   UNL     1      10.994  35.991  93.389  1.00  0.00     0.004 C 
ENDBRANCH   2   3
BRANCH   2   5
ATOM      5  C   UNL     1      14.044  37.886  92.369  1.00  0.00    -0.014 C 
ATOM      6  C   UNL     1      12.972  38.818  91.782  1.00  0.00     0.007 C 
ATOM      7  C   UNL     1      14.953  37.335  91.256  1.00  0.00     0.007 C 
ENDBRANCH   2   5
ENDBRANCH   1   2
BRANCH   1   8
ATOM      8  C   UNL     1      13.980  38.311  95.324  1.00  0.00     0.004 C 
BRANCH   8   9
ATOM      9  C   UNL     1      15.065  37.581  96.173  1.00  0.00    -0.011 C 
ATOM     10  C   UNL     1      14.464  36.513  97.106  1.00  0.00     0.008 C 
BRANCH   9  11
ATOM     11  C   UNL     1      16.320  37.048  95.389  1.00  0.00    -0.002 C 
ATOM     12  C   UNL     1      17.157  36.043  96.237  1.00  0.00     0.005 C 
ATOM     13  C   UNL     1      17.390  38.037  94.802  1.00  0.00    -0.026 C 
ATOM     14  C   UNL     1      18.554  36.653  96.445  1.00  0.00     0.005 C 
ATOM     15  C   UNL     1      18.417  38.083  95.948  1.00  0.00    -0.001 C 
ATOM     16  C   UNL     1      16.976  39.492  94.485  1.00  0.00     0.007 C 
ATOM     17  C   UNL     1      17.907  37.383  93.481  1.00  0.00     0.012 C 
ATOM     18  C   UNL     1      19.693  38.933  95.719  1.00  0.00     0.004 C 
ATOM     19  C   UNL     1      18.202  40.387  94.162  1.00  0.00     0.005 C 
ATOM     20  C   UNL     1      19.285  40.384  95.288  1.00  0.00     0.003 C 
ATOM     21  C   UNL     1      20.787  38.246  94.865  1.00  0.00     0.085 C 
ATOM     22  C   UNL     1      20.536  41.310  95.020  1.00  0.00    -0.000 C 
ATOM     23  C   UNL     1      21.730  39.167  94.148  1.00  0.00     0.159 C 
ATOM     24  C   UNL     1      21.522  40.637  94.071  1.00  0.00     0.005 C 
ATOM     25  C   UNL     1      20.088  42.688  94.426  1.00  0.00     0.020 C 
ATOM     26  C   UNL     1      21.274  41.568  96.364  1.00  0.00     0.017 C 
ATOM     27  O   UNL     1      22.731  38.644  93.580  1.00  0.00    -0.295 OA
ATOM     28  C   UNL     1      22.338  41.377  93.291  1.00  0.00     0.055 C 
ATOM     29  C   UNL     1      21.262  43.602  94.058  1.00  0.00     0.081 C 
ATOM     30  C   UNL     1      22.280  42.849  93.256  1.00  0.00     0.156 C 
ATOM     31  O   UNL     1      23.125  43.485  92.577  1.00  0.00    -0.295 OA
ENDBRANCH   9  11
ENDBRANCH   8   9
ENDBRANCH   1   8
TORSDOF 6
ENDMDL
