MODEL 1
REMARK VINA RESULT:    -2.537      0.000      0.000
REMARK INTER + INTRA:          -5.089
REMARK INTER:                  -3.872
REMARK INTRA:                  -1.217
REMARK UNBOUND:                -1.217
REMARK SMILES CCCCCCCCCCC(=O)[O-]
REMARK SMILES IDX 7 1 8 2 9 3 10 4 11 5 12 6 13 7 6 8 5 9 4 10 3 11 2 12 1 13
REMARK H PARENT
REMARK Flexibility Score: inf
ROOT
ATOM      1  C   UNL     1      -9.756 -17.546  11.496  1.00  0.00     0.000 C 
ENDROOT
BRANCH   1   2
ATOM      2  C   UNL     1      -8.577 -17.496  12.479  1.00  0.00     0.000 C 
BRANCH   2   3
ATOM      3  C   UNL     1      -9.059 -17.153  13.897  1.00  0.00     0.006 C 
BRANCH   3   4
ATOM      4  C   UNL     1     -10.564 -16.856  13.943  1.00  0.00     0.053 C 
BRANCH   4   5
ATOM      5  C   UNL     1     -11.153 -17.179  15.282  1.00  0.00     0.041 C 
ATOM      6  O   UNL     1     -12.108 -16.496  15.738  1.00  0.00    -0.550 OA
ATOM      7  O   UNL     1     -10.669 -18.258  16.012  1.00  0.00    -0.550 OA
ENDBRANCH   4   5
ENDBRANCH   3   4
ENDBRANCH   2   3
ENDBRANCH   1   2
BRANCH   1   8
ATOM      8  C   UNL     1      -9.763 -18.825  10.644  1.00  0.00     0.000 C 
BRANCH   8   9
ATOM      9  C   UNL     1      -8.465 -19.636  10.783  1.00  0.00    -0.000 C 
BRANCH   9  10
ATOM     10  C   UNL     1      -8.701 -20.915  11.600  1.00  0.00    -0.000 C 
BRANCH  10  11
ATOM     11  C   UNL     1     -10.120 -20.995  12.190  1.00  0.00    -0.000 C 
BRANCH  11  12
ATOM     12  C   UNL     1     -10.184 -20.983  13.729  1.00  0.00    -0.003 C 
ATOM     13  C   UNL     1      -8.813 -20.819  14.383  1.00  0.00     0.004 C 
ENDBRANCH  11  12
ENDBRANCH  10  11
ENDBRANCH   9  10
ENDBRANCH   8   9
ENDBRANCH   1   8
TORSDOF 9
ENDMDL
MODEL 2
REMARK VINA RESULT:    -2.535      1.950      3.544
REMARK INTER + INTRA:          -5.085
REMARK INTER:                  -3.973
REMARK INTRA:                  -1.111
REMARK UNBOUND:                -1.217
REMARK SMILES CCCCCCCCCCC(=O)[O-]
REMARK SMILES IDX 7 1 8 2 9 3 10 4 11 5 12 6 13 7 6 8 5 9 4 10 3 11 2 12 1 13
REMARK H PARENT
REMARK Flexibility Score: inf
ROOT
ATOM      1  C   UNL     1     -10.440 -17.072  13.415  1.00  0.00     0.000 C 
ENDROOT
BRANCH   1   2
ATOM      2  C   UNL     1     -11.135 -16.683  14.728  1.00  0.00     0.000 C 
BRANCH   2   3
ATOM      3  C   UNL     1     -10.786 -17.674  15.848  1.00  0.00     0.006 C 
BRANCH   3   4
ATOM      4  C   UNL     1     -11.657 -18.937  15.800  1.00  0.00     0.053 C 
BRANCH   4   5
ATOM      5  C   UNL     1     -10.850 -20.155  15.471  1.00  0.00     0.041 C 
ATOM      6  O   UNL     1      -9.700 -20.306  15.961  1.00  0.00    -0.550 OA
ATOM      7  O   UNL     1     -11.383 -21.142  14.650  1.00  0.00    -0.550 OA
ENDBRANCH   4   5
ENDBRANCH   3   4
ENDBRANCH   2   3
ENDBRANCH   1   2
BRANCH   1   8
ATOM      8  C   UNL     1      -8.952 -17.407  13.609  1.00  0.00     0.000 C 
BRANCH   8   9
ATOM      9  C   UNL     1      -8.553 -18.735  12.946  1.00  0.00    -0.000 C 
BRANCH   9  10
ATOM     10  C   UNL     1      -9.605 -19.171  11.915  1.00  0.00    -0.000 C 
BRANCH  10  11
ATOM     11  C   UNL     1      -9.016 -19.374  10.507  1.00  0.00    -0.000 C 
BRANCH  11  12
ATOM     12  C   UNL     1      -8.531 -18.086   9.815  1.00  0.00    -0.003 C 
ATOM     13  C   UNL     1      -9.596 -16.991   9.775  1.00  0.00     0.004 C 
ENDBRANCH  11  12
ENDBRANCH  10  11
ENDBRANCH   9  10
ENDBRANCH   8   9
ENDBRANCH   1   8
TORSDOF 9
ENDMDL
MODEL 3
REMARK VINA RESULT:    -2.488     14.702     15.887
REMARK INTER + INTRA:          -5.014
REMARK INTER:                  -4.510
REMARK INTRA:                  -0.504
REMARK UNBOUND:                -1.217
REMARK SMILES CCCCCCCCCCC(=O)[O-]
REMARK SMILES IDX 7 1 8 2 9 3 10 4 11 5 12 6 13 7 6 8 5 9 4 10 3 11 2 12 1 13
REMARK H PARENT
REMARK Flexibility Score: inf
ROOT
ATOM      1  C   UNL     1      -9.800 -18.138  -1.685  1.00  0.00     0.000 C 
ENDROOT
BRANCH   1   2
ATOM      2  C   UNL     1      -9.355 -17.229  -2.841  1.00  0.00     0.000 C 
BRANCH   2   3
ATOM      3  C   UNL     1      -8.212 -16.302  -2.401  1.00  0.00     0.006 C 
BRANCH   3   4
ATOM      4  C   UNL     1      -7.974 -15.161  -3.400  1.00  0.00     0.053 C 
BRANCH   4   5
ATOM      5  C   UNL     1      -8.049 -13.819  -2.737  1.00  0.00     0.041 C 
ATOM      6  O   UNL     1      -8.299 -12.788  -3.417  1.00  0.00    -0.550 OA
ATOM      7  O   UNL     1      -7.875 -13.712  -1.363  1.00  0.00    -0.550 OA
ENDBRANCH   4   5
ENDBRANCH   3   4
ENDBRANCH   2   3
ENDBRANCH   1   2
BRANCH   1   8
ATOM      8  C   UNL     1      -8.781 -19.246  -1.376  1.00  0.00     0.000 C 
BRANCH   8   9
ATOM      9  C   UNL     1      -8.569 -20.202  -2.560  1.00  0.00    -0.000 C 
BRANCH   9  10
ATOM     10  C   UNL     1      -9.870 -20.943  -2.905  1.00  0.00    -0.000 C 
BRANCH  10  11
ATOM     11  C   UNL     1      -9.731 -22.473  -2.813  1.00  0.00    -0.000 C 
BRANCH  11  12
ATOM     12  C   UNL     1     -10.108 -23.077  -1.448  1.00  0.00    -0.003 C 
ATOM     13  C   UNL     1      -8.948 -23.080  -0.453  1.00  0.00     0.004 C 
ENDBRANCH  11  12
ENDBRANCH  10  11
ENDBRANCH   9  10
ENDBRANCH   8   9
ENDBRANCH   1   8
TORSDOF 9
ENDMDL
MODEL 4
REMARK VINA RESULT:    -2.480      2.823      4.327
REMARK INTER + INTRA:          -5.002
REMARK INTER:                  -3.825
REMARK INTRA:                  -1.177
REMARK UNBOUND:                -1.217
REMARK SMILES CCCCCCCCCCC(=O)[O-]
REMARK SMILES IDX 7 1 8 2 9 3 10 4 11 5 12 6 13 7 6 8 5 9 4 10 3 11 2 12 1 13
REMARK H PARENT
REMARK Flexibility Score: inf
ROOT
ATOM      1  C   UNL     1     -10.659 -16.842  13.625  1.00  0.00     0.000 C 
ENDROOT
BRANCH   1   2
ATOM      2  C   UNL     1      -9.157 -17.146  13.728  1.00  0.00     0.000 C 
BRANCH   2   3
ATOM      3  C   UNL     1      -8.645 -17.826  12.450  1.00  0.00     0.006 C 
BRANCH   3   4
ATOM      4  C   UNL     1      -9.790 -18.262  11.525  1.00  0.00     0.053 C 
BRANCH   4   5
ATOM      5  C   UNL     1      -9.539 -17.861  10.104  1.00  0.00     0.041 C 
ATOM      6  O   UNL     1      -9.743 -16.674   9.733  1.00  0.00    -0.550 OA
ATOM      7  O   UNL     1      -9.047 -18.790   9.196  1.00  0.00    -0.550 OA
ENDBRANCH   4   5
ENDBRANCH   3   4
ENDBRANCH   2   3
ENDBRANCH   1   2
BRANCH   1   8
ATOM      8  C   UNL     1     -11.334 -16.712  14.999  1.00  0.00     0.000 C 
BRANCH   8   9
ATOM      9  C   UNL     1     -10.844 -17.769  16.001  1.00  0.00    -0.000 C 
BRANCH   9  10
ATOM     10  C   UNL     1     -11.502 -19.131  15.728  1.00  0.00    -0.000 C 
BRANCH  10  11
ATOM     11  C   UNL     1     -10.477 -20.265  15.545  1.00  0.00    -0.000 C 
BRANCH  11  12
ATOM     12  C   UNL     1     -10.502 -20.943  14.163  1.00  0.00    -0.003 C 
ATOM     13  C   UNL     1      -9.110 -21.307  13.649  1.00  0.00     0.004 C 
ENDBRANCH  11  12
ENDBRANCH  10  11
ENDBRANCH   9  10
ENDBRANCH   8   9
ENDBRANCH   1   8
TORSDOF 9
ENDMDL
MODEL 5
REMARK VINA RESULT:    -2.455      1.277      3.247
REMARK INTER + INTRA:          -4.963
REMARK INTER:                  -4.111
REMARK INTRA:                  -0.852
REMARK UNBOUND:                -1.217
REMARK SMILES CCCCCCCCCCC(=O)[O-]
REMARK SMILES IDX 7 1 8 2 9 3 10 4 11 5 12 6 13 7 6 8 5 9 4 10 3 11 2 12 1 13
REMARK H PARENT
REMARK Flexibility Score: inf
ROOT
ATOM      1  C   UNL     1     -10.361 -21.100  13.952  1.00  0.00     0.000 C 
ENDROOT
BRANCH   1   2
ATOM      2  C   UNL     1      -9.272 -20.277  14.655  1.00  0.00     0.000 C 
BRANCH   2   3
ATOM      3  C   UNL     1      -9.871 -19.031  15.325  1.00  0.00     0.006 C 
BRANCH   3   4
ATOM      4  C   UNL     1      -9.616 -17.755  14.512  1.00  0.00     0.053 C 
BRANCH   4   5
ATOM      5  C   UNL     1     -10.863 -16.939  14.355  1.00  0.00     0.041 C 
ATOM      6  O   UNL     1     -11.603 -16.712  15.349  1.00  0.00    -0.550 OA
ATOM      7  O   UNL     1     -11.189 -16.399  13.117  1.00  0.00    -0.550 OA
ENDBRANCH   4   5
ENDBRANCH   3   4
ENDBRANCH   2   3
ENDBRANCH   1   2
BRANCH   1   8
ATOM      8  C   UNL     1     -10.142 -21.197  12.434  1.00  0.00     0.000 C 
BRANCH   8   9
ATOM      9  C   UNL     1      -8.668 -21.027  12.035  1.00  0.00    -0.000 C 
BRANCH   9  10
ATOM     10  C   UNL     1      -8.452 -19.704  11.285  1.00  0.00    -0.000 C 
BRANCH  10  11
ATOM     11  C   UNL     1      -9.771 -18.993  10.933  1.00  0.00    -0.000 C 
BRANCH  11  12
ATOM     12  C   UNL     1      -9.765 -18.246   9.586  1.00  0.00    -0.003 C 
ATOM     13  C   UNL     1      -9.474 -16.753   9.731  1.00  0.00     0.004 C 
ENDBRANCH  11  12
ENDBRANCH  10  11
ENDBRANCH   9  10
ENDBRANCH   8   9
ENDBRANCH   1   8
TORSDOF 9
ENDMDL
MODEL 6
REMARK VINA RESULT:    -2.321      1.695      2.161
REMARK INTER + INTRA:          -4.759
REMARK INTER:                  -4.193
REMARK INTRA:                  -0.566
REMARK UNBOUND:                -1.217
REMARK SMILES CCCCCCCCCCC(=O)[O-]
REMARK SMILES IDX 7 1 8 2 9 3 10 4 11 5 12 6 13 7 6 8 5 9 4 10 3 11 2 12 1 13
REMARK H PARENT
REMARK Flexibility Score: inf
ROOT
ATOM      1  C   UNL     1      -9.810 -17.831  11.118  1.00  0.00     0.000 C 
ENDROOT
BRANCH   1   2
ATOM      2  C   UNL     1      -9.389 -17.564  12.571  1.00  0.00     0.000 C 
BRANCH   2   3
ATOM      3  C   UNL     1     -10.514 -16.865  13.349  1.00  0.00     0.006 C 
BRANCH   3   4
ATOM      4  C   UNL     1     -10.261 -16.867  14.863  1.00  0.00     0.053 C 
BRANCH   4   5
ATOM      5  C   UNL     1      -8.809 -16.686  15.183  1.00  0.00     0.041 C 
ATOM      6  O   UNL     1      -8.252 -15.571  15.000  1.00  0.00    -0.550 OA
ATOM      7  O   UNL     1      -8.078 -17.742  15.714  1.00  0.00    -0.550 OA
ENDBRANCH   4   5
ENDBRANCH   3   4
ENDBRANCH   2   3
ENDBRANCH   1   2
BRANCH   1   8
ATOM      8  C   UNL     1      -9.849 -19.330  10.778  1.00  0.00     0.000 C 
BRANCH   8   9
ATOM      9  C   UNL     1      -8.503 -20.028  11.028  1.00  0.00    -0.000 C 
BRANCH   9  10
ATOM     10  C   UNL     1      -8.675 -21.231  11.968  1.00  0.00    -0.000 C 
BRANCH  10  11
ATOM     11  C   UNL     1     -10.113 -21.374  12.500  1.00  0.00    -0.000 C 
BRANCH  11  12
ATOM     12  C   UNL     1     -10.715 -22.786  12.369  1.00  0.00    -0.003 C 
ATOM     13  C   UNL     1     -12.198 -22.772  12.002  1.00  0.00     0.004 C 
ENDBRANCH  11  12
ENDBRANCH  10  11
ENDBRANCH   9  10
ENDBRANCH   8   9
ENDBRANCH   1   8
TORSDOF 9
ENDMDL
MODEL 7
REMARK VINA RESULT:    -2.289      2.908      4.845
REMARK INTER + INTRA:          -4.710
REMARK INTER:                  -3.542
REMARK INTRA:                  -1.168
REMARK UNBOUND:                -1.217
REMARK SMILES CCCCCCCCCCC(=O)[O-]
REMARK SMILES IDX 7 1 8 2 9 3 10 4 11 5 12 6 13 7 6 8 5 9 4 10 3 11 2 12 1 13
REMARK H PARENT
REMARK Flexibility Score: inf
ROOT
ATOM      1  C   UNL     1     -10.490 -21.338  12.463  1.00  0.00     0.000 C 
ENDROOT
BRANCH   1   2
ATOM      2  C   UNL     1      -9.031 -21.290  11.986  1.00  0.00     0.000 C 
BRANCH   2   3
ATOM      3  C   UNL     1      -8.599 -19.846  11.686  1.00  0.00     0.006 C 
BRANCH   3   4
ATOM      4  C   UNL     1      -9.758 -18.992  11.154  1.00  0.00     0.053 C 
BRANCH   4   5
ATOM      5  C   UNL     1      -9.434 -18.382   9.825  1.00  0.00     0.041 C 
ATOM      6  O   UNL     1      -8.903 -19.077   8.919  1.00  0.00    -0.550 OA
ATOM      7  O   UNL     1      -9.747 -17.051   9.576  1.00  0.00    -0.550 OA
ENDBRANCH   4   5
ENDBRANCH   3   4
ENDBRANCH   2   3
ENDBRANCH   1   2
BRANCH   1   8
ATOM      8  C   UNL     1     -10.622 -21.808  13.920  1.00  0.00     0.000 C 
BRANCH   8   9
ATOM      9  C   UNL     1     -10.881 -20.649  14.895  1.00  0.00    -0.000 C 
BRANCH   9  10
ATOM     10  C   UNL     1      -9.559 -20.035  15.380  1.00  0.00    -0.000 C 
BRANCH  10  11
ATOM     11  C   UNL     1      -9.466 -18.523  15.108  1.00  0.00    -0.000 C 
BRANCH  11  12
ATOM     12  C   UNL     1     -10.820 -17.808  14.945  1.00  0.00    -0.003 C 
ATOM     13  C   UNL     1     -10.808 -16.748  13.845  1.00  0.00     0.004 C 
ENDBRANCH  11  12
ENDBRANCH  10  11
ENDBRANCH   9  10
ENDBRANCH   8   9
ENDBRANCH   1   8
TORSDOF 9
ENDMDL
MODEL 8
REMARK VINA RESULT:    -2.254     15.027     16.938
REMARK INTER + INTRA:          -4.656
REMARK INTER:                  -4.225
REMARK INTRA:                  -0.431
REMARK UNBOUND:                -1.217
REMARK SMILES CCCCCCCCCCC(=O)[O-]
REMARK SMILES IDX 7 1 8 2 9 3 10 4 11 5 12 6 13 7 6 8 5 9 4 10 3 11 2 12 1 13
REMARK H PARENT
REMARK Flexibility Score: inf
ROOT
ATOM      1  C   UNL     1      -9.984 -18.054  -1.446  1.00  0.00     0.000 C 
ENDROOT
BRANCH   1   2
ATOM      2  C   UNL     1      -8.835 -18.939  -0.940  1.00  0.00     0.000 C 
BRANCH   2   3
ATOM      3  C   UNL     1      -8.715 -20.218  -1.782  1.00  0.00     0.006 C 
BRANCH   3   4
ATOM      4  C   UNL     1     -10.045 -20.979  -1.874  1.00  0.00     0.053 C 
BRANCH   4   5
ATOM      5  C   UNL     1     -10.211 -21.649  -3.203  1.00  0.00     0.041 C 
ATOM      6  O   UNL     1      -9.376 -21.447  -4.125  1.00  0.00    -0.550 OA
ATOM      7  O   UNL     1     -11.270 -22.523  -3.414  1.00  0.00    -0.550 OA
ENDBRANCH   4   5
ENDBRANCH   3   4
ENDBRANCH   2   3
ENDBRANCH   1   2
BRANCH   1   8
ATOM      8  C   UNL     1      -9.561 -17.140  -2.607  1.00  0.00     0.000 C 
BRANCH   8   9
ATOM      9  C   UNL     1      -8.136 -16.590  -2.439  1.00  0.00    -0.000 C 
BRANCH   9  10
ATOM     10  C   UNL     1      -7.877 -15.432  -3.415  1.00  0.00    -0.000 C 
BRANCH  10  11
ATOM     11  C   UNL     1      -7.906 -14.054  -2.730  1.00  0.00    -0.000 C 
BRANCH  11  12
ATOM     12  C   UNL     1      -8.711 -12.975  -3.477  1.00  0.00    -0.003 C 
ATOM     13  C   UNL     1      -7.877 -11.745  -3.833  1.00  0.00     0.004 C 
ENDBRANCH  11  12
ENDBRANCH  10  11
ENDBRANCH   9  10
ENDBRANCH   8   9
ENDBRANCH   1   8
TORSDOF 9
ENDMDL
MODEL 9
REMARK VINA RESULT:    -2.242      2.387      4.317
REMARK INTER + INTRA:          -4.638
REMARK INTER:                  -3.663
REMARK INTRA:                  -0.975
REMARK UNBOUND:                -1.217
REMARK SMILES CCCCCCCCCCC(=O)[O-]
REMARK SMILES IDX 7 1 8 2 9 3 10 4 11 5 12 6 13 7 6 8 5 9 4 10 3 11 2 12 1 13
REMARK H PARENT
REMARK Flexibility Score: inf
ROOT
ATOM      1  C   UNL     1     -10.215 -20.022  11.513  1.00  0.00     0.000 C 
ENDROOT
BRANCH   1   2
ATOM      2  C   UNL     1      -9.202 -21.087  11.958  1.00  0.00     0.000 C 
BRANCH   2   3
ATOM      3  C   UNL     1      -9.917 -22.316  12.539  1.00  0.00     0.006 C 
BRANCH   3   4
ATOM      4  C   UNL     1     -11.439 -22.246  12.350  1.00  0.00     0.053 C 
BRANCH   4   5
ATOM      5  C   UNL     1     -12.168 -22.438  13.643  1.00  0.00     0.041 C 
ATOM      6  O   UNL     1     -11.528 -22.574  14.720  1.00  0.00    -0.550 OA
ATOM      7  O   UNL     1     -13.558 -22.435  13.665  1.00  0.00    -0.550 OA
ENDBRANCH   4   5
ENDBRANCH   3   4
ENDBRANCH   2   3
ENDBRANCH   1   2
BRANCH   1   8
ATOM      8  C   UNL     1      -9.540 -18.768  10.934  1.00  0.00     0.000 C 
BRANCH   8   9
ATOM      9  C   UNL     1      -9.831 -17.505  11.759  1.00  0.00    -0.000 C 
BRANCH   9  10
ATOM     10  C   UNL     1      -9.044 -17.518  13.078  1.00  0.00    -0.000 C 
BRANCH  10  11
ATOM     11  C   UNL     1      -9.822 -16.887  14.247  1.00  0.00    -0.000 C 
BRANCH  11  12
ATOM     12  C   UNL     1     -10.849 -17.816  14.919  1.00  0.00    -0.003 C 
ATOM     13  C   UNL     1     -10.323 -19.235  15.131  1.00  0.00     0.004 C 
ENDBRANCH  11  12
ENDBRANCH  10  11
ENDBRANCH   9  10
ENDBRANCH   8   9
ENDBRANCH   1   8
TORSDOF 9
ENDMDL
