MODEL 1
REMARK VINA RESULT:    -3.837      0.000      0.000
REMARK INTER + INTRA:          -4.617
REMARK INTER:                  -4.510
REMARK INTRA:                  -0.107
REMARK UNBOUND:                -0.107
REMARK SMILES O=C([O-])CCC(=O)[O-]
REMARK SMILES IDX 4 1 2 2 1 3 3 4 5 5 6 6 7 7 8 8
REMARK H PARENT
REMARK Flexibility Score: inf
ROOT
ATOM      1  C   UNL     1     184.359 207.721  93.508  1.00  0.00     0.059 C 
ENDROOT
BRANCH   1   2
ATOM      2  C   UNL     1     185.259 208.674  92.782  1.00  0.00     0.042 C 
ATOM      3  O   UNL     1     184.830 209.804  92.426  1.00  0.00    -0.550 OA
ATOM      4  O   UNL     1     186.556 208.298  92.460  1.00  0.00    -0.550 OA
ENDBRANCH   1   2
BRANCH   1   5
ATOM      5  C   UNL     1     185.046 206.374  93.759  1.00  0.00     0.059 C 
BRANCH   5   6
ATOM      6  C   UNL     1     185.416 206.204  95.200  1.00  0.00     0.042 C 
ATOM      7  O   UNL     1     184.559 205.803  96.033  1.00  0.00    -0.550 OA
ATOM      8  O   UNL     1     186.719 206.449  95.617  1.00  0.00    -0.550 OA
ENDBRANCH   5   6
ENDBRANCH   1   5
TORSDOF 3
ENDMDL
MODEL 2
REMARK VINA RESULT:    -3.758      0.151      3.967
REMARK INTER + INTRA:          -4.524
REMARK INTER:                  -4.415
REMARK INTRA:                  -0.108
REMARK UNBOUND:                -0.107
REMARK SMILES O=C([O-])CCC(=O)[O-]
REMARK SMILES IDX 4 1 2 2 1 3 3 4 5 5 6 6 7 7 8 8
REMARK H PARENT
REMARK Flexibility Score: inf
ROOT
ATOM      1  C   UNL     1     185.232 206.374  93.808  1.00  0.00     0.059 C 
ENDROOT
BRANCH   1   2
ATOM      2  C   UNL     1     185.486 206.268  95.281  1.00  0.00     0.042 C 
ATOM      3  O   UNL     1     186.610 206.585  95.753  1.00  0.00    -0.550 OA
ATOM      4  O   UNL     1     184.497 205.781  96.125  1.00  0.00    -0.550 OA
ENDBRANCH   1   2
BRANCH   1   5
ATOM      5  C   UNL     1     184.496 207.671  93.454  1.00  0.00     0.059 C 
BRANCH   5   6
ATOM      6  C   UNL     1     185.400 208.649  92.769  1.00  0.00     0.042 C 
ATOM      7  O   UNL     1     186.594 208.337  92.512  1.00  0.00    -0.550 OA
ATOM      8  O   UNL     1     184.913 209.890  92.378  1.00  0.00    -0.550 OA
ENDBRANCH   5   6
ENDBRANCH   1   5
TORSDOF 3
ENDMDL
MODEL 3
REMARK VINA RESULT:    -3.663      0.624      1.723
REMARK INTER + INTRA:          -4.413
REMARK INTER:                  -4.290
REMARK INTRA:                  -0.123
REMARK UNBOUND:                -0.107
REMARK SMILES O=C([O-])CCC(=O)[O-]
REMARK SMILES IDX 4 1 2 2 1 3 3 4 5 5 6 6 7 7 8 8
REMARK H PARENT
REMARK Flexibility Score: inf
ROOT
ATOM      1  C   UNL     1     184.596 207.302  93.178  1.00  0.00     0.059 C 
ENDROOT
BRANCH   1   2
ATOM      2  C   UNL     1     185.625 208.357  92.905  1.00  0.00     0.042 C 
ATOM      3  O   UNL     1     186.850 208.064  92.922  1.00  0.00    -0.550 OA
ATOM      4  O   UNL     1     185.233 209.669  92.675  1.00  0.00    -0.550 OA
ENDBRANCH   1   2
BRANCH   1   5
ATOM      5  C   UNL     1     185.172 206.152  94.011  1.00  0.00     0.059 C 
BRANCH   5   6
ATOM      6  C   UNL     1     185.092 206.441  95.479  1.00  0.00     0.042 C 
ATOM      7  O   UNL     1     186.132 206.738  96.125  1.00  0.00    -0.550 OA
ATOM      8  O   UNL     1     183.862 206.423  96.125  1.00  0.00    -0.550 OA
ENDBRANCH   5   6
ENDBRANCH   1   5
TORSDOF 3
ENDMDL
MODEL 4
REMARK VINA RESULT:    -3.596      1.681      3.288
REMARK INTER + INTRA:          -4.334
REMARK INTER:                  -4.172
REMARK INTRA:                  -0.162
REMARK UNBOUND:                -0.107
REMARK SMILES O=C([O-])CCC(=O)[O-]
REMARK SMILES IDX 4 1 2 2 1 3 3 4 5 5 6 6 7 7 8 8
REMARK H PARENT
REMARK Flexibility Score: inf
ROOT
ATOM      1  C   UNL     1     185.695 206.427  95.667  1.00  0.00     0.059 C 
ENDROOT
BRANCH   1   2
ATOM      2  C   UNL     1     186.990 207.180  95.617  1.00  0.00     0.042 C 
ATOM      3  O   UNL     1     187.073 208.330  96.124  1.00  0.00    -0.550 OA
ATOM      4  O   UNL     1     188.091 206.629  94.975  1.00  0.00    -0.550 OA
ENDBRANCH   1   2
BRANCH   1   5
ATOM      5  C   UNL     1     184.528 207.275  95.150  1.00  0.00     0.059 C 
BRANCH   5   6
ATOM      6  C   UNL     1     184.649 207.541  93.680  1.00  0.00     0.042 C 
ATOM      7  O   UNL     1     184.395 206.631  92.848  1.00  0.00    -0.550 OA
ATOM      8  O   UNL     1     185.003 208.807  93.230  1.00  0.00    -0.550 OA
ENDBRANCH   5   6
ENDBRANCH   1   5
TORSDOF 3
ENDMDL
MODEL 5
REMARK VINA RESULT:    -3.532      1.432      1.852
REMARK INTER + INTRA:          -4.259
REMARK INTER:                  -4.141
REMARK INTRA:                  -0.118
REMARK UNBOUND:                -0.107
REMARK SMILES O=C([O-])CCC(=O)[O-]
REMARK SMILES IDX 4 1 2 2 1 3 3 4 5 5 6 6 7 7 8 8
REMARK H PARENT
REMARK Flexibility Score: inf
ROOT
ATOM      1  C   UNL     1     185.008 207.186  93.301  1.00  0.00     0.059 C 
ENDROOT
BRANCH   1   2
ATOM      2  C   UNL     1     184.559 208.502  92.741  1.00  0.00     0.042 C 
ATOM      3  O   UNL     1     183.381 208.640  92.320  1.00  0.00    -0.550 OA
ATOM      4  O   UNL     1     185.453 209.559  92.648  1.00  0.00    -0.550 OA
ENDBRANCH   1   2
BRANCH   1   5
ATOM      5  C   UNL     1     185.181 207.249  94.823  1.00  0.00     0.059 C 
BRANCH   5   6
ATOM      6  C   UNL     1     186.617 207.428  95.208  1.00  0.00     0.042 C 
ATOM      7  O   UNL     1     187.074 208.581  95.434  1.00  0.00    -0.550 OA
ATOM      8  O   UNL     1     187.441 206.319  95.356  1.00  0.00    -0.550 OA
ENDBRANCH   5   6
ENDBRANCH   1   5
TORSDOF 3
ENDMDL
MODEL 6
REMARK VINA RESULT:    -3.487      1.759      2.166
REMARK INTER + INTRA:          -4.206
REMARK INTER:                  -4.076
REMARK INTRA:                  -0.130
REMARK UNBOUND:                -0.107
REMARK SMILES O=C([O-])CCC(=O)[O-]
REMARK SMILES IDX 4 1 2 2 1 3 3 4 5 5 6 6 7 7 8 8
REMARK H PARENT
REMARK Flexibility Score: inf
ROOT
ATOM      1  C   UNL     1     185.868 208.884  93.493  1.00  0.00     0.059 C 
ENDROOT
BRANCH   1   2
ATOM      2  C   UNL     1     187.257 208.357  93.293  1.00  0.00     0.042 C 
ATOM      3  O   UNL     1     187.793 208.403  92.154  1.00  0.00    -0.550 OA
ATOM      4  O   UNL     1     187.942 207.780  94.354  1.00  0.00    -0.550 OA
ENDBRANCH   1   2
BRANCH   1   5
ATOM      5  C   UNL     1     184.810 207.840  93.121  1.00  0.00     0.059 C 
BRANCH   5   6
ATOM      6  C   UNL     1     184.558 206.885  94.247  1.00  0.00     0.042 C 
ATOM      7  O   UNL     1     183.764 207.193  95.175  1.00  0.00    -0.550 OA
ATOM      8  O   UNL     1     185.169 205.637  94.251  1.00  0.00    -0.550 OA
ENDBRANCH   5   6
ENDBRANCH   1   5
TORSDOF 3
ENDMDL
MODEL 7
REMARK VINA RESULT:    -3.444     17.230     18.114
REMARK INTER + INTRA:          -4.155
REMARK INTER:                  -4.087
REMARK INTRA:                  -0.069
REMARK UNBOUND:                -0.107
REMARK SMILES O=C([O-])CCC(=O)[O-]
REMARK SMILES IDX 4 1 2 2 1 3 3 4 5 5 6 6 7 7 8 8
REMARK H PARENT
REMARK Flexibility Score: inf
ROOT
ATOM      1  C   UNL     1     191.333 193.204  84.378  1.00  0.00     0.059 C 
ENDROOT
BRANCH   1   2
ATOM      2  C   UNL     1     189.950 192.629  84.425  1.00  0.00     0.042 C 
ATOM      3  O   UNL     1     189.667 191.606  83.747  1.00  0.00    -0.550 OA
ATOM      4  O   UNL     1     188.964 193.247  85.183  1.00  0.00    -0.550 OA
ENDBRANCH   1   2
BRANCH   1   5
ATOM      5  C   UNL     1     191.638 193.829  83.012  1.00  0.00     0.059 C 
BRANCH   5   6
ATOM      6  C   UNL     1     191.323 195.294  82.993  1.00  0.00     0.042 C 
ATOM      7  O   UNL     1     190.128 195.687  83.071  1.00  0.00    -0.550 OA
ATOM      8  O   UNL     1     192.351 196.226  82.930  1.00  0.00    -0.550 OA
ENDBRANCH   5   6
ENDBRANCH   1   5
TORSDOF 3
ENDMDL
MODEL 8
REMARK VINA RESULT:    -3.421      1.940      3.170
REMARK INTER + INTRA:          -4.129
REMARK INTER:                  -4.026
REMARK INTRA:                  -0.103
REMARK UNBOUND:                -0.107
REMARK SMILES O=C([O-])CCC(=O)[O-]
REMARK SMILES IDX 4 1 2 2 1 3 3 4 5 5 6 6 7 7 8 8
REMARK H PARENT
REMARK Flexibility Score: inf
ROOT
ATOM      1  C   UNL     1     185.742 206.297  94.575  1.00  0.00     0.059 C 
ENDROOT
BRANCH   1   2
ATOM      2  C   UNL     1     184.469 207.084  94.513  1.00  0.00     0.042 C 
ATOM      3  O   UNL     1     184.206 207.782  93.498  1.00  0.00    -0.550 OA
ATOM      4  O   UNL     1     183.595 207.080  95.591  1.00  0.00    -0.550 OA
ENDBRANCH   1   2
BRANCH   1   5
ATOM      5  C   UNL     1     186.671 206.811  95.680  1.00  0.00     0.059 C 
BRANCH   5   6
ATOM      6  C   UNL     1     187.833 207.570  95.115  1.00  0.00     0.042 C 
ATOM      7  O   UNL     1     188.827 207.841  95.840  1.00  0.00    -0.550 OA
ATOM      8  O   UNL     1     187.836 207.941  93.776  1.00  0.00    -0.550 OA
ENDBRANCH   5   6
ENDBRANCH   1   5
TORSDOF 3
ENDMDL
MODEL 9
REMARK VINA RESULT:    -3.371      2.230      2.841
REMARK INTER + INTRA:          -4.069
REMARK INTER:                  -3.922
REMARK INTRA:                  -0.147
REMARK UNBOUND:                -0.107
REMARK SMILES O=C([O-])CCC(=O)[O-]
REMARK SMILES IDX 4 1 2 2 1 3 3 4 5 5 6 6 7 7 8 8
REMARK H PARENT
REMARK Flexibility Score: inf
ROOT
ATOM      1  C   UNL     1     187.313 206.693  95.173  1.00  0.00     0.059 C 
ENDROOT
BRANCH   1   2
ATOM      2  C   UNL     1     187.556 208.169  95.078  1.00  0.00     0.042 C 
ATOM      3  O   UNL     1     187.425 208.897  96.098  1.00  0.00    -0.550 OA
ATOM      4  O   UNL     1     187.885 208.743  93.859  1.00  0.00    -0.550 OA
ENDBRANCH   1   2
BRANCH   1   5
ATOM      5  C   UNL     1     185.947 206.384  95.796  1.00  0.00     0.059 C 
BRANCH   5   6
ATOM      6  C   UNL     1     184.828 206.664  94.839  1.00  0.00     0.042 C 
ATOM      7  O   UNL     1     183.746 207.159  95.255  1.00  0.00    -0.550 OA
ATOM      8  O   UNL     1     184.996 206.417  93.482  1.00  0.00    -0.550 OA
ENDBRANCH   5   6
ENDBRANCH   1   5
TORSDOF 3
ENDMDL
