MODEL 1
REMARK VINA RESULT:     4.811      0.000      0.000
REMARK INTER + INTRA:           4.811
REMARK INTER:                   4.811
REMARK INTRA:                   0.000
REMARK UNBOUND:                 0.000
REMARK SMILES CC1=CC=CC(C)(C)[C@H]1C
REMARK SMILES IDX 10 1 9 2 2 3 3 4 4 5 5 6 6 7 7 8 8 9 1 10
REMARK H PARENT
REMARK Flexibility Score: inf
ROOT
ATOM      1  C   UNL     1      -1.956   5.849  -9.090  1.00  0.00     0.013 C 
ATOM      2  C   UNL     1      -0.642   6.526  -9.524  1.00  0.00     0.021 C 
ATOM      3  C   UNL     1       0.318   6.508  -8.344  1.00  0.00    -0.070 C 
ATOM      4  C   UNL     1       1.152   5.469  -8.174  1.00  0.00    -0.001 C 
ATOM      5  C   UNL     1       1.241   4.400  -9.186  1.00  0.00    -0.004 C 
ATOM      6  C   UNL     1       0.679   4.548 -10.390  1.00  0.00    -0.020 C 
ATOM      7  C   UNL     1       0.020   5.858 -10.785  1.00  0.00    -0.011 C 
ATOM      8  C   UNL     1      -1.009   5.597 -11.907  1.00  0.00     0.016 C 
ATOM      9  C   UNL     1       1.110   6.797 -11.348  1.00  0.00     0.016 C 
ATOM     10  C   UNL     1       0.279   7.603  -7.317  1.00  0.00     0.040 C 
ENDROOT
TORSDOF 0
ENDMDL
MODEL 2
REMARK VINA RESULT:     7.440      1.101      3.391
REMARK INTER + INTRA:           7.440
REMARK INTER:                   7.440
REMARK INTRA:                   0.000
REMARK UNBOUND:                 0.000
REMARK SMILES CC1=CC=CC(C)(C)[C@H]1C
REMARK SMILES IDX 10 1 9 2 2 3 3 4 4 5 5 6 6 7 7 8 8 9 1 10
REMARK H PARENT
REMARK Flexibility Score: inf
ROOT
ATOM      1  C   UNL     1      -1.536   6.641  -9.266  1.00  0.00     0.013 C 
ATOM      2  C   UNL     1      -0.840   5.427  -9.908  1.00  0.00     0.021 C 
ATOM      3  C   UNL     1      -1.041   5.501 -11.415  1.00  0.00    -0.070 C 
ATOM      4  C   UNL     1      -0.150   6.154 -12.179  1.00  0.00    -0.001 C 
ATOM      5  C   UNL     1       1.091   6.696 -11.594  1.00  0.00    -0.004 C 
ATOM      6  C   UNL     1       1.472   6.355 -10.358  1.00  0.00    -0.020 C 
ATOM      7  C   UNL     1       0.691   5.326  -9.560  1.00  0.00    -0.011 C 
ATOM      8  C   UNL     1       0.955   5.538  -8.053  1.00  0.00     0.016 C 
ATOM      9  C   UNL     1       1.211   3.922  -9.941  1.00  0.00     0.016 C 
ATOM     10  C   UNL     1      -2.277   4.924 -12.045  1.00  0.00     0.040 C 
ENDROOT
TORSDOF 0
ENDMDL
