MODEL 1
REMARK VINA RESULT:    -5.026      0.000      0.000
REMARK INTER + INTRA:          -8.965
REMARK INTER:                  -7.670
REMARK INTRA:                  -1.294
REMARK UNBOUND:                -1.294
REMARK SMILES OC[C@H]1O[C@@](CO)(O[C@H]2O[C@H](CO)[C@@H](O)[C@H](O)[C@@H]2O)[C@@H](O)[C@@H]1O
REMARK SMILES IDX 8 1 9 2 11 3 14 4 10 5 16 6 18 7 12 8 13 9 15 11 17 13 19 15
REMARK SMILES IDX 5 17 20 18 4 19 22 20 3 21 6 22 7 23 21 25 23 27 2 29 1 30
REMARK H PARENT 13 10 15 12 17 14 19 16 7 24 21 26 23 28 1 31
REMARK Flexibility Score: inf
ROOT
ATOM      1  O   UNL     1      -9.735  12.889  51.397  1.00  0.00    -0.313 OA
ENDROOT
BRANCH   1   2
ATOM      2  C   UNL     1      -8.630  12.895  50.497  1.00  0.00     0.285 C 
ATOM      3  C   UNL     1      -7.192  12.043  52.157  1.00  0.00     0.178 C 
ATOM      4  C   UNL     1      -7.039  10.672  51.459  1.00  0.00     0.177 C 
ATOM      5  O   UNL     1      -7.414  13.077  51.207  1.00  0.00    -0.341 OA
ATOM      6  C   UNL     1      -8.277  10.380  50.595  1.00  0.00     0.179 C 
ATOM      7  C   UNL     1      -8.612  11.580  49.688  1.00  0.00     0.202 C 
BRANCH   3   8
ATOM      8  C   UNL     1      -5.923  12.380  52.951  1.00  0.00     0.191 C 
BRANCH   8   9
ATOM      9  O   UNL     1      -5.703  13.763  52.927  1.00  0.00    -0.394 OA
ATOM     10  H   UNL     1      -5.391  14.009  53.836  1.00  0.00     0.210 HD
ENDBRANCH   8   9
ENDBRANCH   3   8
BRANCH   4  11
ATOM     11  O   UNL     1      -6.897   9.664  52.429  1.00  0.00    -0.387 OA
ATOM     12  H   UNL     1      -6.175   9.060  52.114  1.00  0.00     0.211 HD
ENDBRANCH   4  11
BRANCH   6  13
ATOM     13  O   UNL     1      -8.054   9.231  49.820  1.00  0.00    -0.387 OA
ATOM     14  H   UNL     1      -7.353   9.464  49.156  1.00  0.00     0.211 HD
ENDBRANCH   6  13
BRANCH   7  15
ATOM     15  O   UNL     1      -7.724  11.664  48.598  1.00  0.00    -0.385 OA
ATOM     16  H   UNL     1      -8.205  11.362  47.783  1.00  0.00     0.211 HD
ENDBRANCH   7  15
ENDBRANCH   1   2
BRANCH   1  17
ATOM     17  C   UNL     1     -10.681  13.931  51.168  1.00  0.00     0.224 C 
ATOM     18  C   UNL     1     -11.685  13.937  52.331  1.00  0.00     0.208 C 
ATOM     19  O   UNL     1     -10.042  15.198  51.159  1.00  0.00    -0.337 OA
ATOM     20  C   UNL     1     -11.022  14.864  53.313  1.00  0.00     0.180 C 
ATOM     21  C   UNL     1     -10.312  15.841  52.387  1.00  0.00     0.179 C 
BRANCH  17  22
ATOM     22  C   UNL     1     -11.419  13.708  49.830  1.00  0.00     0.225 C 
BRANCH  22  23
ATOM     23  O   UNL     1     -11.074  14.710  48.914  1.00  0.00    -0.391 OA
ATOM     24  H   UNL     1     -10.557  15.385  49.424  1.00  0.00     0.210 HD
ENDBRANCH  22  23
ENDBRANCH  17  22
BRANCH  18  25
ATOM     25  O   UNL     1     -11.863  12.653  52.872  1.00  0.00    -0.385 OA
ATOM     26  H   UNL     1     -11.818  12.017  52.111  1.00  0.00     0.211 HD
ENDBRANCH  18  25
BRANCH  20  27
ATOM     27  O   UNL     1     -11.966  15.526  54.114  1.00  0.00    -0.387 OA
ATOM     28  H   UNL     1     -12.689  15.828  53.505  1.00  0.00     0.211 HD
ENDBRANCH  20  27
BRANCH  21  29
ATOM     29  C   UNL     1      -9.008  16.367  52.999  1.00  0.00     0.191 C 
BRANCH  29  30
ATOM     30  O   UNL     1      -7.923  15.575  52.598  1.00  0.00    -0.394 OA
ATOM     31  H   UNL     1      -7.838  15.687  51.615  1.00  0.00     0.210 HD
ENDBRANCH  29  30
ENDBRANCH  21  29
ENDBRANCH   1  17
TORSDOF 13
ENDMDL
MODEL 2
REMARK VINA RESULT:    -4.791     12.812     15.630
REMARK INTER + INTRA:          -8.606
REMARK INTER:                  -7.058
REMARK INTRA:                  -1.548
REMARK UNBOUND:                -1.294
REMARK SMILES OC[C@H]1O[C@@](CO)(O[C@H]2O[C@H](CO)[C@@H](O)[C@H](O)[C@@H]2O)[C@@H](O)[C@@H]1O
REMARK SMILES IDX 8 1 9 2 11 3 14 4 10 5 16 6 18 7 12 8 13 9 15 11 17 13 19 15
REMARK SMILES IDX 5 17 20 18 4 19 22 20 3 21 6 22 7 23 21 25 23 27 2 29 1 30
REMARK H PARENT 13 10 15 12 17 14 19 16 7 24 21 26 23 28 1 31
REMARK Flexibility Score: inf
ROOT
ATOM      1  O   UNL     1       5.796  11.761  56.633  1.00  0.00    -0.313 OA
ENDROOT
BRANCH   1   2
ATOM      2  C   UNL     1       5.310  10.796  55.704  1.00  0.00     0.285 C 
ATOM      3  C   UNL     1       5.018  12.445  54.047  1.00  0.00     0.178 C 
ATOM      4  C   UNL     1       6.164  11.898  53.164  1.00  0.00     0.177 C 
ATOM      5  O   UNL     1       4.405  11.399  54.791  1.00  0.00    -0.341 OA
ATOM      6  C   UNL     1       7.191  11.157  54.035  1.00  0.00     0.179 C 
ATOM      7  C   UNL     1       6.496  10.142  54.964  1.00  0.00     0.202 C 
BRANCH   3   8
ATOM      8  C   UNL     1       3.945  13.110  53.175  1.00  0.00     0.191 C 
BRANCH   8   9
ATOM      9  O   UNL     1       2.775  13.293  53.922  1.00  0.00    -0.394 OA
ATOM     10  H   UNL     1       2.533  14.251  53.826  1.00  0.00     0.210 HD
ENDBRANCH   8   9
ENDBRANCH   3   8
BRANCH   4  11
ATOM     11  O   UNL     1       6.796  12.965  52.501  1.00  0.00    -0.387 OA
ATOM     12  H   UNL     1       6.191  13.749  52.573  1.00  0.00     0.211 HD
ENDBRANCH   4  11
BRANCH   6  13
ATOM     13  O   UNL     1       8.125  10.505  53.214  1.00  0.00    -0.387 OA
ATOM     14  H   UNL     1       8.383   9.667  53.681  1.00  0.00     0.211 HD
ENDBRANCH   6  13
BRANCH   7  15
ATOM     15  O   UNL     1       6.089   8.994  54.259  1.00  0.00    -0.385 OA
ATOM     16  H   UNL     1       5.619   9.287  53.435  1.00  0.00     0.211 HD
ENDBRANCH   7  15
ENDBRANCH   1   2
BRANCH   1  17
ATOM     17  C   UNL     1       5.482  11.474  57.994  1.00  0.00     0.224 C 
ATOM     18  C   UNL     1       5.640  12.765  58.810  1.00  0.00     0.208 C 
ATOM     19  O   UNL     1       4.130  11.059  58.121  1.00  0.00    -0.337 OA
ATOM     20  C   UNL     1       4.268  13.374  58.704  1.00  0.00     0.180 C 
ATOM     21  C   UNL     1       3.383  12.136  58.649  1.00  0.00     0.179 C 
BRANCH  17  22
ATOM     22  C   UNL     1       6.418  10.378  58.547  1.00  0.00     0.225 C 
BRANCH  22  23
ATOM     23  O   UNL     1       7.303  10.925  59.485  1.00  0.00    -0.391 OA
ATOM     24  H   UNL     1       8.212  10.643  59.204  1.00  0.00     0.210 HD
ENDBRANCH  22  23
ENDBRANCH  17  22
BRANCH  18  25
ATOM     25  O   UNL     1       6.622  13.609  58.265  1.00  0.00    -0.385 OA
ATOM     26  H   UNL     1       7.111  13.072  57.589  1.00  0.00     0.211 HD
ENDBRANCH  18  25
BRANCH  20  27
ATOM     27  O   UNL     1       3.964  14.158  59.828  1.00  0.00    -0.387 OA
ATOM     28  H   UNL     1       3.904  13.535  60.598  1.00  0.00     0.211 HD
ENDBRANCH  20  27
BRANCH  21  29
ATOM     29  C   UNL     1       2.127  12.366  57.801  1.00  0.00     0.191 C 
BRANCH  29  30
ATOM     30  O   UNL     1       2.458  13.006  56.598  1.00  0.00    -0.394 OA
ATOM     31  H   UNL     1       2.298  12.347  55.872  1.00  0.00     0.210 HD
ENDBRANCH  29  30
ENDBRANCH  21  29
ENDBRANCH   1  17
TORSDOF 13
ENDMDL
MODEL 3
REMARK VINA RESULT:    -4.783      1.575      3.942
REMARK INTER + INTRA:          -8.594
REMARK INTER:                  -7.241
REMARK INTRA:                  -1.353
REMARK UNBOUND:                -1.294
REMARK SMILES OC[C@H]1O[C@@](CO)(O[C@H]2O[C@H](CO)[C@@H](O)[C@H](O)[C@@H]2O)[C@@H](O)[C@@H]1O
REMARK SMILES IDX 8 1 9 2 11 3 14 4 10 5 16 6 18 7 12 8 13 9 15 11 17 13 19 15
REMARK SMILES IDX 5 17 20 18 4 19 22 20 3 21 6 22 7 23 21 25 23 27 2 29 1 30
REMARK H PARENT 13 10 15 12 17 14 19 16 7 24 21 26 23 28 1 31
REMARK Flexibility Score: inf
ROOT
ATOM      1  O   UNL     1      -8.169  14.175  51.251  1.00  0.00    -0.313 OA
ENDROOT
BRANCH   1   2
ATOM      2  C   UNL     1      -7.712  13.211  52.197  1.00  0.00     0.285 C 
ATOM      3  C   UNL     1      -7.399  11.604  50.503  1.00  0.00     0.178 C 
ATOM      4  C   UNL     1      -5.857  11.633  50.625  1.00  0.00     0.177 C 
ATOM      5  O   UNL     1      -8.015  11.897  51.750  1.00  0.00    -0.341 OA
ATOM      6  C   UNL     1      -5.399  12.997  51.167  1.00  0.00     0.179 C 
ATOM      7  C   UNL     1      -6.196  13.386  52.428  1.00  0.00     0.202 C 
BRANCH   3   8
ATOM      8  C   UNL     1      -7.870  10.217  50.046  1.00  0.00     0.191 C 
BRANCH   8   9
ATOM      9  O   UNL     1      -6.910   9.255  50.384  1.00  0.00    -0.394 OA
ATOM     10  H   UNL     1      -6.449   9.016  49.538  1.00  0.00     0.210 HD
ENDBRANCH   8   9
ENDBRANCH   3   8
BRANCH   4  11
ATOM     11  O   UNL     1      -5.282  11.414  49.361  1.00  0.00    -0.387 OA
ATOM     12  H   UNL     1      -5.729  10.618  48.975  1.00  0.00     0.211 HD
ENDBRANCH   4  11
BRANCH   6  13
ATOM     13  O   UNL     1      -4.025  12.955  51.454  1.00  0.00    -0.387 OA
ATOM     14  H   UNL     1      -3.913  12.355  52.237  1.00  0.00     0.211 HD
ENDBRANCH   6  13
BRANCH   7  15
ATOM     15  O   UNL     1      -5.764  12.660  53.554  1.00  0.00    -0.385 OA
ATOM     16  H   UNL     1      -4.831  12.930  53.757  1.00  0.00     0.211 HD
ENDBRANCH   7  15
ENDBRANCH   1   2
BRANCH   1  17
ATOM     17  C   UNL     1      -9.365  14.850  51.634  1.00  0.00     0.224 C 
ATOM     18  C   UNL     1     -10.022  15.424  50.370  1.00  0.00     0.208 C 
ATOM     19  O   UNL     1     -10.290  13.944  52.214  1.00  0.00    -0.337 OA
ATOM     20  C   UNL     1     -10.901  14.286  49.928  1.00  0.00     0.180 C 
ATOM     21  C   UNL     1     -11.293  13.662  51.261  1.00  0.00     0.179 C 
BRANCH  17  22
ATOM     22  C   UNL     1      -9.049  15.986  52.631  1.00  0.00     0.225 C 
BRANCH  22  23
ATOM     23  O   UNL     1      -9.523  15.655  53.908  1.00  0.00    -0.391 OA
ATOM     24  H   UNL     1      -9.007  14.858  54.196  1.00  0.00     0.210 HD
ENDBRANCH  22  23
ENDBRANCH  17  22
BRANCH  18  25
ATOM     25  O   UNL     1      -9.070  15.751  49.390  1.00  0.00    -0.385 OA
ATOM     26  H   UNL     1      -9.497  15.577  48.512  1.00  0.00     0.211 HD
ENDBRANCH  18  25
BRANCH  20  27
ATOM     27  O   UNL     1     -12.032  14.747  49.238  1.00  0.00    -0.387 OA
ATOM     28  H   UNL     1     -11.981  15.737  49.243  1.00  0.00     0.211 HD
ENDBRANCH  20  27
BRANCH  21  29
ATOM     29  C   UNL     1     -11.495  12.146  51.147  1.00  0.00     0.191 C 
BRANCH  29  30
ATOM     30  O   UNL     1     -10.880  11.488  52.221  1.00  0.00    -0.394 OA
ATOM     31  H   UNL     1     -10.180  12.102  52.567  1.00  0.00     0.210 HD
ENDBRANCH  29  30
ENDBRANCH  21  29
ENDBRANCH   1  17
TORSDOF 13
ENDMDL
MODEL 4
REMARK VINA RESULT:    -4.633     11.307     13.724
REMARK INTER + INTRA:          -8.365
REMARK INTER:                  -6.979
REMARK INTRA:                  -1.386
REMARK UNBOUND:                -1.294
REMARK SMILES OC[C@H]1O[C@@](CO)(O[C@H]2O[C@H](CO)[C@@H](O)[C@H](O)[C@@H]2O)[C@@H](O)[C@@H]1O
REMARK SMILES IDX 8 1 9 2 11 3 14 4 10 5 16 6 18 7 12 8 13 9 15 11 17 13 19 15
REMARK SMILES IDX 5 17 20 18 4 19 22 20 3 21 6 22 7 23 21 25 23 27 2 29 1 30
REMARK H PARENT 13 10 15 12 17 14 19 16 7 24 21 26 23 28 1 31
REMARK Flexibility Score: inf
ROOT
ATOM      1  O   UNL     1       3.470  13.795  46.565  1.00  0.00    -0.313 OA
ENDROOT
BRANCH   1   2
ATOM      2  C   UNL     1       3.763  12.950  45.455  1.00  0.00     0.285 C 
ATOM      3  C   UNL     1       2.307  14.169  44.061  1.00  0.00     0.178 C 
ATOM      4  C   UNL     1       3.456  14.753  43.207  1.00  0.00     0.177 C 
ATOM      5  O   UNL     1       2.652  12.888  44.573  1.00  0.00    -0.341 OA
ATOM      6  C   UNL     1       4.749  14.814  44.037  1.00  0.00     0.179 C 
ATOM      7  C   UNL     1       5.024  13.464  44.729  1.00  0.00     0.202 C 
BRANCH   3   8
ATOM      8  C   UNL     1       1.036  14.024  43.214  1.00  0.00     0.191 C 
BRANCH   8   9
ATOM      9  O   UNL     1       0.304  15.217  43.251  1.00  0.00    -0.394 OA
ATOM     10  H   UNL     1      -0.614  14.987  42.950  1.00  0.00     0.210 HD
ENDBRANCH   8   9
ENDBRANCH   3   8
BRANCH   4  11
ATOM     11  O   UNL     1       3.113  16.049  42.781  1.00  0.00    -0.387 OA
ATOM     12  H   UNL     1       2.133  16.142  42.903  1.00  0.00     0.211 HD
ENDBRANCH   4  11
BRANCH   6  13
ATOM     13  O   UNL     1       5.827  15.165  43.209  1.00  0.00    -0.387 OA
ATOM     14  H   UNL     1       5.533  15.945  42.670  1.00  0.00     0.211 HD
ENDBRANCH   6  13
BRANCH   7  15
ATOM     15  O   UNL     1       5.513  12.509  43.816  1.00  0.00    -0.385 OA
ATOM     16  H   UNL     1       5.149  12.724  42.918  1.00  0.00     0.211 HD
ENDBRANCH   7  15
ENDBRANCH   1   2
BRANCH   1  17
ATOM     17  C   UNL     1       2.792  13.141  47.635  1.00  0.00     0.224 C 
ATOM     18  C   UNL     1       2.790  14.079  48.851  1.00  0.00     0.208 C 
ATOM     19  O   UNL     1       1.436  12.892  47.294  1.00  0.00    -0.337 OA
ATOM     20  C   UNL     1       1.526  14.867  48.638  1.00  0.00     0.180 C 
ATOM     21  C   UNL     1       0.629  13.839  47.962  1.00  0.00     0.179 C 
BRANCH  17  22
ATOM     22  C   UNL     1       3.494  11.812  47.990  1.00  0.00     0.225 C 
BRANCH  22  23
ATOM     23  O   UNL     1       4.435  12.018  49.007  1.00  0.00    -0.391 OA
ATOM     24  H   UNL     1       5.041  12.733  48.682  1.00  0.00     0.210 HD
ENDBRANCH  22  23
ENDBRANCH  17  22
BRANCH  18  25
ATOM     25  O   UNL     1       3.921  14.912  48.869  1.00  0.00    -0.385 OA
ATOM     26  H   UNL     1       3.978  15.291  49.784  1.00  0.00     0.211 HD
ENDBRANCH  18  25
BRANCH  20  27
ATOM     27  O   UNL     1       0.973  15.293  49.855  1.00  0.00    -0.387 OA
ATOM     28  H   UNL     1       0.526  14.502  50.254  1.00  0.00     0.211 HD
ENDBRANCH  20  27
BRANCH  21  29
ATOM     29  C   UNL     1      -0.344  14.489  46.972  1.00  0.00     0.191 C 
BRANCH  29  30
ATOM     30  O   UNL     1      -0.388  15.876  47.166  1.00  0.00    -0.394 OA
ATOM     31  H   UNL     1       0.526  16.218  46.982  1.00  0.00     0.210 HD
ENDBRANCH  29  30
ENDBRANCH  21  29
ENDBRANCH   1  17
TORSDOF 13
ENDMDL
MODEL 5
REMARK VINA RESULT:    -4.573     11.405     15.102
REMARK INTER + INTRA:          -8.273
REMARK INTER:                  -6.724
REMARK INTRA:                  -1.549
REMARK UNBOUND:                -1.294
REMARK SMILES OC[C@H]1O[C@@](CO)(O[C@H]2O[C@H](CO)[C@@H](O)[C@H](O)[C@@H]2O)[C@@H](O)[C@@H]1O
REMARK SMILES IDX 8 1 9 2 11 3 14 4 10 5 16 6 18 7 12 8 13 9 15 11 17 13 19 15
REMARK SMILES IDX 5 17 20 18 4 19 22 20 3 21 6 22 7 23 21 25 23 27 2 29 1 30
REMARK H PARENT 13 10 15 12 17 14 19 16 7 24 21 26 23 28 1 31
REMARK Flexibility Score: inf
ROOT
ATOM      1  O   UNL     1       3.960  10.049  57.998  1.00  0.00    -0.313 OA
ENDROOT
BRANCH   1   2
ATOM      2  C   UNL     1       2.759   9.720  58.692  1.00  0.00     0.285 C 
ATOM      3  C   UNL     1       1.652  11.598  57.798  1.00  0.00     0.178 C 
ATOM      4  C   UNL     1       0.715  10.746  56.912  1.00  0.00     0.177 C 
ATOM      5  O   UNL     1       2.015  10.895  58.980  1.00  0.00    -0.341 OA
ATOM      6  C   UNL     1       1.385   9.402  56.579  1.00  0.00     0.179 C 
ATOM      7  C   UNL     1       1.929   8.726  57.852  1.00  0.00     0.202 C 
BRANCH   3   8
ATOM      8  C   UNL     1       0.957  12.903  58.207  1.00  0.00     0.191 C 
BRANCH   8   9
ATOM      9  O   UNL     1       1.499  13.974  57.487  1.00  0.00    -0.394 OA
ATOM     10  H   UNL     1       0.726  14.490  57.137  1.00  0.00     0.210 HD
ENDBRANCH   8   9
ENDBRANCH   3   8
BRANCH   4  11
ATOM     11  O   UNL     1       0.438  11.439  55.720  1.00  0.00    -0.387 OA
ATOM     12  H   UNL     1       0.665  10.828  54.972  1.00  0.00     0.211 HD
ENDBRANCH   4  11
BRANCH   6  13
ATOM     13  O   UNL     1       0.463   8.561  55.936  1.00  0.00    -0.387 OA
ATOM     14  H   UNL     1      -0.018   8.065  56.649  1.00  0.00     0.211 HD
ENDBRANCH   6  13
BRANCH   7  15
ATOM     15  O   UNL     1       0.891   8.156  58.614  1.00  0.00    -0.385 OA
ATOM     16  H   UNL     1       0.321   8.891  58.962  1.00  0.00     0.211 HD
ENDBRANCH   7  15
ENDBRANCH   1   2
BRANCH   1  17
ATOM     17  C   UNL     1       5.093  10.233  58.844  1.00  0.00     0.224 C 
ATOM     18  C   UNL     1       6.162  11.007  58.059  1.00  0.00     0.208 C 
ATOM     19  O   UNL     1       4.753  11.018  59.977  1.00  0.00    -0.337 OA
ATOM     20  C   UNL     1       5.802  12.436  58.363  1.00  0.00     0.180 C 
ATOM     21  C   UNL     1       5.256  12.323  59.780  1.00  0.00     0.179 C 
BRANCH  17  22
ATOM     22  C   UNL     1       5.653   8.869  59.303  1.00  0.00     0.225 C 
BRANCH  22  23
ATOM     23  O   UNL     1       6.843   8.581  58.622  1.00  0.00    -0.391 OA
ATOM     24  H   UNL     1       6.788   9.060  57.755  1.00  0.00     0.210 HD
ENDBRANCH  22  23
ENDBRANCH  17  22
BRANCH  18  25
ATOM     25  O   UNL     1       6.092  10.739  56.681  1.00  0.00    -0.385 OA
ATOM     26  H   UNL     1       7.018  10.817  56.332  1.00  0.00     0.211 HD
ENDBRANCH  18  25
BRANCH  20  27
ATOM     27  O   UNL     1       6.931  13.270  58.326  1.00  0.00    -0.387 OA
ATOM     28  H   UNL     1       6.632  14.129  57.929  1.00  0.00     0.211 HD
ENDBRANCH  20  27
BRANCH  21  29
ATOM     29  C   UNL     1       4.156  13.355  60.054  1.00  0.00     0.191 C 
BRANCH  29  30
ATOM     30  O   UNL     1       4.089  14.290  59.011  1.00  0.00    -0.394 OA
ATOM     31  H   UNL     1       3.226  14.770  59.115  1.00  0.00     0.210 HD
ENDBRANCH  29  30
ENDBRANCH  21  29
ENDBRANCH   1  17
TORSDOF 13
ENDMDL
MODEL 6
REMARK VINA RESULT:    -4.563      1.644      5.693
REMARK INTER + INTRA:          -8.259
REMARK INTER:                  -7.206
REMARK INTRA:                  -1.053
REMARK UNBOUND:                -1.294
REMARK SMILES OC[C@H]1O[C@@](CO)(O[C@H]2O[C@H](CO)[C@@H](O)[C@H](O)[C@@H]2O)[C@@H](O)[C@@H]1O
REMARK SMILES IDX 8 1 9 2 11 3 14 4 10 5 16 6 18 7 12 8 13 9 15 11 17 13 19 15
REMARK SMILES IDX 5 17 20 18 4 19 22 20 3 21 6 22 7 23 21 25 23 27 2 29 1 30
REMARK H PARENT 13 10 15 12 17 14 19 16 7 24 21 26 23 28 1 31
REMARK Flexibility Score: inf
ROOT
ATOM      1  O   UNL     1      -7.895  12.907  51.644  1.00  0.00    -0.313 OA
ENDROOT
BRANCH   1   2
ATOM      2  C   UNL     1      -8.887  13.200  50.663  1.00  0.00     0.285 C 
ATOM      3  C   UNL     1     -10.603  12.412  52.072  1.00  0.00     0.178 C 
ATOM      4  C   UNL     1     -11.202  13.820  52.293  1.00  0.00     0.177 C 
ATOM      5  O   UNL     1      -9.989  12.313  50.793  1.00  0.00    -0.341 OA
ATOM      6  C   UNL     1     -10.112  14.889  52.114  1.00  0.00     0.179 C 
ATOM      7  C   UNL     1      -9.336  14.670  50.800  1.00  0.00     0.202 C 
BRANCH   3   8
ATOM      8  C   UNL     1     -11.703  11.345  52.163  1.00  0.00     0.191 C 
BRANCH   8   9
ATOM      9  O   UNL     1     -12.035  11.120  53.504  1.00  0.00    -0.394 OA
ATOM     10  H   UNL     1     -11.411  11.676  54.040  1.00  0.00     0.210 HD
ENDBRANCH   8   9
ENDBRANCH   3   8
BRANCH   4  11
ATOM     11  O   UNL     1     -11.733  13.906  53.592  1.00  0.00    -0.387 OA
ATOM     12  H   UNL     1     -11.187  14.573  54.083  1.00  0.00     0.211 HD
ENDBRANCH   4  11
BRANCH   6  13
ATOM     13  O   UNL     1     -10.695  16.166  52.128  1.00  0.00    -0.387 OA
ATOM     14  H   UNL     1      -9.960  16.819  51.986  1.00  0.00     0.211 HD
ENDBRANCH   6  13
BRANCH   7  15
ATOM     15  O   UNL     1     -10.089  15.081  49.684  1.00  0.00    -0.385 OA
ATOM     16  H   UNL     1      -9.820  14.525  48.907  1.00  0.00     0.211 HD
ENDBRANCH   7  15
ENDBRANCH   1   2
BRANCH   1  17
ATOM     17  C   UNL     1      -6.673  12.405  51.108  1.00  0.00     0.224 C 
ATOM     18  C   UNL     1      -5.557  12.652  52.134  1.00  0.00     0.208 C 
ATOM     19  O   UNL     1      -6.752  11.003  50.902  1.00  0.00    -0.337 OA
ATOM     20  C   UNL     1      -5.613  11.401  52.967  1.00  0.00     0.180 C 
ATOM     21  C   UNL     1      -6.035  10.361  51.937  1.00  0.00     0.179 C 
BRANCH  17  22
ATOM     22  C   UNL     1      -6.336  13.110  49.776  1.00  0.00     0.225 C 
BRANCH  22  23
ATOM     23  O   UNL     1      -4.980  12.939  49.466  1.00  0.00    -0.391 OA
ATOM     24  H   UNL     1      -4.954  12.513  48.571  1.00  0.00     0.210 HD
ENDBRANCH  22  23
ENDBRANCH  17  22
BRANCH  18  25
ATOM     25  O   UNL     1      -5.806  13.799  52.908  1.00  0.00    -0.385 OA
ATOM     26  H   UNL     1      -5.278  14.534  52.501  1.00  0.00     0.211 HD
ENDBRANCH  18  25
BRANCH  20  27
ATOM     27  O   UNL     1      -4.358  11.087  53.511  1.00  0.00    -0.387 OA
ATOM     28  H   UNL     1      -3.683  11.521  52.928  1.00  0.00     0.211 HD
ENDBRANCH  20  27
BRANCH  21  29
ATOM     29  C   UNL     1      -6.893   9.253  52.558  1.00  0.00     0.191 C 
BRANCH  29  30
ATOM     30  O   UNL     1      -8.217   9.346  52.106  1.00  0.00    -0.394 OA
ATOM     31  H   UNL     1      -8.233   8.956  51.192  1.00  0.00     0.210 HD
ENDBRANCH  29  30
ENDBRANCH  21  29
ENDBRANCH   1  17
TORSDOF 13
ENDMDL
MODEL 7
REMARK VINA RESULT:    -4.435     10.839     14.299
REMARK INTER + INTRA:          -8.063
REMARK INTER:                  -6.569
REMARK INTRA:                  -1.494
REMARK UNBOUND:                -1.294
REMARK SMILES OC[C@H]1O[C@@](CO)(O[C@H]2O[C@H](CO)[C@@H](O)[C@H](O)[C@@H]2O)[C@@H](O)[C@@H]1O
REMARK SMILES IDX 8 1 9 2 11 3 14 4 10 5 16 6 18 7 12 8 13 9 15 11 17 13 19 15
REMARK SMILES IDX 5 17 20 18 4 19 22 20 3 21 6 22 7 23 21 25 23 27 2 29 1 30
REMARK H PARENT 13 10 15 12 17 14 19 16 7 24 21 26 23 28 1 31
REMARK Flexibility Score: inf
ROOT
ATOM      1  O   UNL     1       4.065  12.835  56.714  1.00  0.00    -0.313 OA
ENDROOT
BRANCH   1   2
ATOM      2  C   UNL     1       4.434  11.717  55.911  1.00  0.00     0.285 C 
ATOM      3  C   UNL     1       2.730  12.192  54.355  1.00  0.00     0.178 C 
ATOM      4  C   UNL     1       3.724  12.609  53.247  1.00  0.00     0.177 C 
ATOM      5  O   UNL     1       3.304  11.214  55.213  1.00  0.00    -0.341 OA
ATOM      6  C   UNL     1       5.031  13.117  53.877  1.00  0.00     0.179 C 
ATOM      7  C   UNL     1       5.556  12.126  54.934  1.00  0.00     0.202 C 
BRANCH   3   8
ATOM      8  C   UNL     1       1.457  11.602  53.734  1.00  0.00     0.191 C 
BRANCH   8   9
ATOM      9  O   UNL     1       0.625  12.635  53.287  1.00  0.00    -0.394 OA
ATOM     10  H   UNL     1       0.435  13.200  54.081  1.00  0.00     0.210 HD
ENDBRANCH   8   9
ENDBRANCH   3   8
BRANCH   4  11
ATOM     11  O   UNL     1       3.154  13.628  52.464  1.00  0.00    -0.387 OA
ATOM     12  H   UNL     1       3.181  13.318  51.522  1.00  0.00     0.211 HD
ENDBRANCH   4  11
BRANCH   6  13
ATOM     13  O   UNL     1       5.994  13.316  52.874  1.00  0.00    -0.387 OA
ATOM     14  H   UNL     1       6.635  13.989  53.221  1.00  0.00     0.211 HD
ENDBRANCH   6  13
BRANCH   7  15
ATOM     15  O   UNL     1       6.146  10.998  54.331  1.00  0.00    -0.385 OA
ATOM     16  H   UNL     1       5.618  10.767  53.523  1.00  0.00     0.211 HD
ENDBRANCH   7  15
ENDBRANCH   1   2
BRANCH   1  17
ATOM     17  C   UNL     1       4.262  12.641  58.113  1.00  0.00     0.224 C 
ATOM     18  C   UNL     1       2.984  13.076  58.846  1.00  0.00     0.208 C 
ATOM     19  O   UNL     1       4.468  11.267  58.406  1.00  0.00    -0.337 OA
ATOM     20  C   UNL     1       2.183  11.802  58.862  1.00  0.00     0.180 C 
ATOM     21  C   UNL     1       3.278  10.748  58.962  1.00  0.00     0.179 C 
BRANCH  17  22
ATOM     22  C   UNL     1       5.467  13.468  58.610  1.00  0.00     0.225 C 
BRANCH  22  23
ATOM     23  O   UNL     1       5.026  14.546  59.389  1.00  0.00    -0.391 OA
ATOM     24  H   UNL     1       4.372  15.041  58.831  1.00  0.00     0.210 HD
ENDBRANCH  22  23
ENDBRANCH  17  22
BRANCH  18  25
ATOM     25  O   UNL     1       2.311  14.099  58.158  1.00  0.00    -0.385 OA
ATOM     26  H   UNL     1       1.621  13.657  57.598  1.00  0.00     0.211 HD
ENDBRANCH  18  25
BRANCH  20  27
ATOM     27  O   UNL     1       1.329  11.745  59.975  1.00  0.00    -0.387 OA
ATOM     28  H   UNL     1       1.125  10.785  60.124  1.00  0.00     0.211 HD
ENDBRANCH  20  27
BRANCH  21  29
ATOM     29  C   UNL     1       2.890   9.449  58.246  1.00  0.00     0.191 C 
BRANCH  29  30
ATOM     30  O   UNL     1       1.782   9.660  57.413  1.00  0.00    -0.394 OA
ATOM     31  H   UNL     1       0.996   9.772  58.010  1.00  0.00     0.210 HD
ENDBRANCH  29  30
ENDBRANCH  21  29
ENDBRANCH   1  17
TORSDOF 13
ENDMDL
MODEL 8
REMARK VINA RESULT:    -4.420     12.821     15.780
REMARK INTER + INTRA:          -8.040
REMARK INTER:                  -6.525
REMARK INTRA:                  -1.515
REMARK UNBOUND:                -1.294
REMARK SMILES OC[C@H]1O[C@@](CO)(O[C@H]2O[C@H](CO)[C@@H](O)[C@H](O)[C@@H]2O)[C@@H](O)[C@@H]1O
REMARK SMILES IDX 8 1 9 2 11 3 14 4 10 5 16 6 18 7 12 8 13 9 15 11 17 13 19 15
REMARK SMILES IDX 5 17 20 18 4 19 22 20 3 21 6 22 7 23 21 25 23 27 2 29 1 30
REMARK H PARENT 13 10 15 12 17 14 19 16 7 24 21 26 23 28 1 31
REMARK Flexibility Score: inf
ROOT
ATOM      1  O   UNL     1       4.850  12.181  54.929  1.00  0.00    -0.313 OA
ENDROOT
BRANCH   1   2
ATOM      2  C   UNL     1       4.326  11.464  56.044  1.00  0.00     0.285 C 
ATOM      3  C   UNL     1       6.061  12.239  57.438  1.00  0.00     0.178 C 
ATOM      4  C   UNL     1       5.118  13.132  58.278  1.00  0.00     0.177 C 
ATOM      5  O   UNL     1       5.371  11.101  56.935  1.00  0.00    -0.341 OA
ATOM      6  C   UNL     1       3.899  13.545  57.439  1.00  0.00     0.179 C 
ATOM      7  C   UNL     1       3.258  12.320  56.757  1.00  0.00     0.202 C 
BRANCH   3   8
ATOM      8  C   UNL     1       7.236  11.751  58.295  1.00  0.00     0.191 C 
BRANCH   8   9
ATOM      9  O   UNL     1       6.778  11.399  59.571  1.00  0.00    -0.394 OA
ATOM     10  H   UNL     1       6.722  12.244  60.087  1.00  0.00     0.210 HD
ENDBRANCH   8   9
ENDBRANCH   3   8
BRANCH   4  11
ATOM     11  O   UNL     1       5.810  14.282  58.696  1.00  0.00    -0.387 OA
ATOM     12  H   UNL     1       6.778  14.065  58.661  1.00  0.00     0.211 HD
ENDBRANCH   4  11
BRANCH   6  13
ATOM     13  O   UNL     1       2.959  14.194  58.256  1.00  0.00    -0.387 OA
ATOM     14  H   UNL     1       2.111  13.684  58.179  1.00  0.00     0.211 HD
ENDBRANCH   6  13
BRANCH   7  15
ATOM     15  O   UNL     1       2.516  11.551  57.674  1.00  0.00    -0.385 OA
ATOM     16  H   UNL     1       3.152  11.103  58.289  1.00  0.00     0.211 HD
ENDBRANCH   7  15
ENDBRANCH   1   2
BRANCH   1  17
ATOM     17  C   UNL     1       4.754  11.485  53.689  1.00  0.00     0.224 C 
ATOM     18  C   UNL     1       5.762  12.102  52.708  1.00  0.00     0.208 C 
ATOM     19  O   UNL     1       5.107  10.119  53.849  1.00  0.00    -0.337 OA
ATOM     20  C   UNL     1       7.000  11.290  52.977  1.00  0.00     0.180 C 
ATOM     21  C   UNL     1       6.409   9.933  53.334  1.00  0.00     0.179 C 
BRANCH  17  22
ATOM     22  C   UNL     1       3.324  11.591  53.118  1.00  0.00     0.225 C 
BRANCH  22  23
ATOM     23  O   UNL     1       3.228  12.689  52.252  1.00  0.00    -0.391 OA
ATOM     24  H   UNL     1       3.147  13.491  52.831  1.00  0.00     0.210 HD
ENDBRANCH  22  23
ENDBRANCH  17  22
BRANCH  18  25
ATOM     25  O   UNL     1       5.974  13.467  52.969  1.00  0.00    -0.385 OA
ATOM     26  H   UNL     1       6.574  13.801  52.253  1.00  0.00     0.211 HD
ENDBRANCH  18  25
BRANCH  20  27
ATOM     27  O   UNL     1       7.813  11.198  51.836  1.00  0.00    -0.387 OA
ATOM     28  H   UNL     1       7.861  10.236  51.602  1.00  0.00     0.211 HD
ENDBRANCH  20  27
BRANCH  21  29
ATOM     29  C   UNL     1       7.272   9.182  54.354  1.00  0.00     0.191 C 
BRANCH  29  30
ATOM     30  O   UNL     1       7.892  10.084  55.230  1.00  0.00    -0.394 OA
ATOM     31  H   UNL     1       7.216  10.323  55.917  1.00  0.00     0.210 HD
ENDBRANCH  29  30
ENDBRANCH  21  29
ENDBRANCH   1  17
TORSDOF 13
ENDMDL
MODEL 9
REMARK VINA RESULT:    -4.368     14.384     16.425
REMARK INTER + INTRA:          -7.960
REMARK INTER:                  -6.811
REMARK INTRA:                  -1.149
REMARK UNBOUND:                -1.294
REMARK SMILES OC[C@H]1O[C@@](CO)(O[C@H]2O[C@H](CO)[C@@H](O)[C@H](O)[C@@H]2O)[C@@H](O)[C@@H]1O
REMARK SMILES IDX 8 1 9 2 11 3 14 4 10 5 16 6 18 7 12 8 13 9 15 11 17 13 19 15
REMARK SMILES IDX 5 17 20 18 4 19 22 20 3 21 6 22 7 23 21 25 23 27 2 29 1 30
REMARK H PARENT 13 10 15 12 17 14 19 16 7 24 21 26 23 28 1 31
REMARK Flexibility Score: inf
ROOT
ATOM      1  O   UNL     1       5.507  10.999  56.500  1.00  0.00    -0.313 OA
ENDROOT
BRANCH   1   2
ATOM      2  C   UNL     1       5.857  11.243  57.860  1.00  0.00     0.285 C 
ATOM      3  C   UNL     1       5.330  13.530  57.653  1.00  0.00     0.178 C 
ATOM      4  C   UNL     1       4.091  13.427  58.572  1.00  0.00     0.177 C 
ATOM      5  O   UNL     1       6.319  12.576  58.021  1.00  0.00    -0.341 OA
ATOM      6  C   UNL     1       3.527  11.998  58.537  1.00  0.00     0.179 C 
ATOM      7  C   UNL     1       4.642  10.959  58.769  1.00  0.00     0.202 C 
BRANCH   3   8
ATOM      8  C   UNL     1       5.951  14.930  57.749  1.00  0.00     0.191 C 
BRANCH   8   9
ATOM      9  O   UNL     1       5.948  15.358  59.082  1.00  0.00    -0.394 OA
ATOM     10  H   UNL     1       5.053  15.127  59.444  1.00  0.00     0.210 HD
ENDBRANCH   8   9
ENDBRANCH   3   8
BRANCH   4  11
ATOM     11  O   UNL     1       3.106  14.330  58.134  1.00  0.00    -0.387 OA
ATOM     12  H   UNL     1       3.560  15.197  57.972  1.00  0.00     0.211 HD
ENDBRANCH   4  11
BRANCH   6  13
ATOM     13  O   UNL     1       2.525  11.861  59.510  1.00  0.00    -0.387 OA
ATOM     14  H   UNL     1       1.984  12.693  59.485  1.00  0.00     0.211 HD
ENDBRANCH   6  13
BRANCH   7  15
ATOM     15  O   UNL     1       5.020  10.905  60.124  1.00  0.00    -0.385 OA
ATOM     16  H   UNL     1       4.902  11.809  60.516  1.00  0.00     0.211 HD
ENDBRANCH   7  15
ENDBRANCH   1   2
BRANCH   1  17
ATOM     17  C   UNL     1       6.466  10.231  55.777  1.00  0.00     0.224 C 
ATOM     18  C   UNL     1       5.718   9.157  54.972  1.00  0.00     0.208 C 
ATOM     19  O   UNL     1       7.163  11.044  54.846  1.00  0.00    -0.337 OA
ATOM     20  C   UNL     1       5.435   9.874  53.680  1.00  0.00     0.180 C 
ATOM     21  C   UNL     1       6.651  10.781  53.556  1.00  0.00     0.179 C 
BRANCH  17  22
ATOM     22  C   UNL     1       7.468   9.567  56.745  1.00  0.00     0.225 C 
BRANCH  22  23
ATOM     23  O   UNL     1       7.241   8.186  56.806  1.00  0.00    -0.391 OA
ATOM     24  H   UNL     1       6.297   8.074  57.093  1.00  0.00     0.210 HD
ENDBRANCH  22  23
ENDBRANCH  17  22
BRANCH  18  25
ATOM     25  O   UNL     1       4.532   8.759  55.611  1.00  0.00    -0.385 OA
ATOM     26  H   UNL     1       4.544   9.174  56.513  1.00  0.00     0.211 HD
ENDBRANCH  18  25
BRANCH  20  27
ATOM     27  O   UNL     1       5.364   8.980  52.600  1.00  0.00    -0.387 OA
ATOM     28  H   UNL     1       6.291   8.873  52.262  1.00  0.00     0.211 HD
ENDBRANCH  20  27
BRANCH  21  29
ATOM     29  C   UNL     1       6.314  12.099  52.849  1.00  0.00     0.191 C 
BRANCH  29  30
ATOM     30  O   UNL     1       7.455  12.632  52.233  1.00  0.00    -0.394 OA
ATOM     31  H   UNL     1       7.913  13.189  52.916  1.00  0.00     0.210 HD
ENDBRANCH  29  30
ENDBRANCH  21  29
ENDBRANCH   1  17
TORSDOF 13
ENDMDL
