MODEL 1
REMARK VINA RESULT:    -4.000      0.000      0.000
REMARK INTER + INTRA:          -6.948
REMARK INTER:                  -6.104
REMARK INTRA:                  -0.843
REMARK UNBOUND:                -0.843
REMARK SMILES CCCCCCCCCCC(=O)[O-]
REMARK SMILES IDX 7 1 8 2 9 3 10 4 11 5 12 6 13 7 6 8 5 9 4 10 3 11 2 12 1 13
REMARK H PARENT
REMARK Flexibility Score: inf
ROOT
ATOM      1  C   UNL     1       0.201   4.276   6.611  1.00  0.00     0.000 C 
ENDROOT
BRANCH   1   2
ATOM      2  C   UNL     1       1.692   3.903   6.572  1.00  0.00     0.000 C 
BRANCH   2   3
ATOM      3  C   UNL     1       2.012   2.664   7.435  1.00  0.00     0.006 C 
BRANCH   3   4
ATOM      4  C   UNL     1       1.418   1.359   6.880  1.00  0.00     0.053 C 
BRANCH   4   5
ATOM      5  C   UNL     1       2.466   0.447   6.325  1.00  0.00     0.041 C 
ATOM      6  O   UNL     1       2.140  -0.665   5.832  1.00  0.00    -0.550 OA
ATOM      7  O   UNL     1       3.799   0.836   6.325  1.00  0.00    -0.550 OA
ENDBRANCH   4   5
ENDBRANCH   3   4
ENDBRANCH   2   3
ENDBRANCH   1   2
BRANCH   1   8
ATOM      8  C   UNL     1      -0.430   4.345   5.212  1.00  0.00     0.000 C 
BRANCH   8   9
ATOM      9  C   UNL     1      -1.352   3.153   4.916  1.00  0.00    -0.000 C 
BRANCH   9  10
ATOM     10  C   UNL     1      -1.966   2.600   6.207  1.00  0.00    -0.000 C 
BRANCH  10  11
ATOM     11  C   UNL     1      -3.422   2.174   5.988  1.00  0.00    -0.000 C 
BRANCH  11  12
ATOM     12  C   UNL     1      -4.370   3.374   6.095  1.00  0.00    -0.003 C 
ATOM     13  C   UNL     1      -3.975   4.287   7.251  1.00  0.00     0.004 C 
ENDBRANCH  11  12
ENDBRANCH  10  11
ENDBRANCH   9  10
ENDBRANCH   8   9
ENDBRANCH   1   8
TORSDOF 9
ENDMDL
MODEL 2
REMARK VINA RESULT:    -3.983      2.770      5.631
REMARK INTER + INTRA:          -6.921
REMARK INTER:                  -6.032
REMARK INTRA:                  -0.889
REMARK UNBOUND:                -0.843
REMARK SMILES CCCCCCCCCCC(=O)[O-]
REMARK SMILES IDX 7 1 8 2 9 3 10 4 11 5 12 6 13 7 6 8 5 9 4 10 3 11 2 12 1 13
REMARK H PARENT
REMARK Flexibility Score: inf
ROOT
ATOM      1  C   UNL     1       2.320   4.107   6.377  1.00  0.00     0.000 C 
ENDROOT
BRANCH   1   2
ATOM      2  C   UNL     1       1.455   3.251   7.318  1.00  0.00     0.000 C 
BRANCH   2   3
ATOM      3  C   UNL     1       0.476   2.338   6.549  1.00  0.00     0.006 C 
BRANCH   3   4
ATOM      4  C   UNL     1      -0.997   2.745   6.708  1.00  0.00     0.053 C 
BRANCH   4   5
ATOM      5  C   UNL     1      -1.751   2.679   5.418  1.00  0.00     0.041 C 
ATOM      6  O   UNL     1      -2.896   2.157   5.380  1.00  0.00    -0.550 OA
ATOM      7  O   UNL     1      -1.201   3.218   4.262  1.00  0.00    -0.550 OA
ENDBRANCH   4   5
ENDBRANCH   3   4
ENDBRANCH   2   3
ENDBRANCH   1   2
BRANCH   1   8
ATOM      8  C   UNL     1       3.766   3.598   6.276  1.00  0.00     0.000 C 
BRANCH   8   9
ATOM      9  C   UNL     1       4.113   2.573   7.366  1.00  0.00    -0.000 C 
BRANCH   9  10
ATOM     10  C   UNL     1       4.626   1.267   6.750  1.00  0.00    -0.000 C 
BRANCH  10  11
ATOM     11  C   UNL     1       4.295   0.066   7.644  1.00  0.00    -0.000 C 
BRANCH  11  12
ATOM     12  C   UNL     1       2.796  -0.253   7.604  1.00  0.00    -0.003 C 
ATOM     13  C   UNL     1       2.411  -0.933   6.294  1.00  0.00     0.004 C 
ENDBRANCH  11  12
ENDBRANCH  10  11
ENDBRANCH   9  10
ENDBRANCH   8   9
ENDBRANCH   1   8
TORSDOF 9
ENDMDL
MODEL 3
REMARK VINA RESULT:    -3.889     12.916     14.104
REMARK INTER + INTRA:          -6.779
REMARK INTER:                  -5.879
REMARK INTRA:                  -0.900
REMARK UNBOUND:                -0.843
REMARK SMILES CCCCCCCCCCC(=O)[O-]
REMARK SMILES IDX 7 1 8 2 9 3 10 4 11 5 12 6 13 7 6 8 5 9 4 10 3 11 2 12 1 13
REMARK H PARENT
REMARK Flexibility Score: inf
ROOT
ATOM      1  C   UNL     1      -4.890  -1.766  -7.373  1.00  0.00     0.000 C 
ENDROOT
BRANCH   1   2
ATOM      2  C   UNL     1      -5.804  -2.548  -6.414  1.00  0.00     0.000 C 
BRANCH   2   3
ATOM      3  C   UNL     1      -5.129  -3.824  -5.870  1.00  0.00     0.006 C 
BRANCH   3   4
ATOM      4  C   UNL     1      -4.926  -3.809  -4.346  1.00  0.00     0.053 C 
BRANCH   4   5
ATOM      5  C   UNL     1      -4.412  -5.114  -3.826  1.00  0.00     0.041 C 
ATOM      6  O   UNL     1      -5.211  -5.964  -3.350  1.00  0.00    -0.550 OA
ATOM      7  O   UNL     1      -3.056  -5.405  -3.892  1.00  0.00    -0.550 OA
ENDBRANCH   4   5
ENDBRANCH   3   4
ENDBRANCH   2   3
ENDBRANCH   1   2
BRANCH   1   8
ATOM      8  C   UNL     1      -4.429  -0.423  -6.787  1.00  0.00     0.000 C 
BRANCH   8   9
ATOM      9  C   UNL     1      -3.366  -0.588  -5.690  1.00  0.00    -0.000 C 
BRANCH   9  10
ATOM     10  C   UNL     1      -2.124  -1.305  -6.232  1.00  0.00    -0.000 C 
BRANCH  10  11
ATOM     11  C   UNL     1      -1.661  -2.408  -5.273  1.00  0.00    -0.000 C 
BRANCH  11  12
ATOM     12  C   UNL     1      -0.175  -2.726  -5.475  1.00  0.00    -0.003 C 
ATOM     13  C   UNL     1       0.523  -1.622  -6.263  1.00  0.00     0.004 C 
ENDBRANCH  11  12
ENDBRANCH  10  11
ENDBRANCH   9  10
ENDBRANCH   8   9
ENDBRANCH   1   8
TORSDOF 9
ENDMDL
MODEL 4
REMARK VINA RESULT:    -3.871      2.780      5.973
REMARK INTER + INTRA:          -6.752
REMARK INTER:                  -5.778
REMARK INTRA:                  -0.974
REMARK UNBOUND:                -0.843
REMARK SMILES CCCCCCCCCCC(=O)[O-]
REMARK SMILES IDX 7 1 8 2 9 3 10 4 11 5 12 6 13 7 6 8 5 9 4 10 3 11 2 12 1 13
REMARK H PARENT
REMARK Flexibility Score: inf
ROOT
ATOM      1  C   UNL     1       1.115   0.941   7.726  1.00  0.00     0.000 C 
ENDROOT
BRANCH   1   2
ATOM      2  C   UNL     1       0.829   1.732   6.439  1.00  0.00     0.000 C 
BRANCH   2   3
ATOM      3  C   UNL     1       0.470   3.206   6.722  1.00  0.00     0.006 C 
BRANCH   3   4
ATOM      4  C   UNL     1      -1.031   3.509   6.588  1.00  0.00     0.053 C 
BRANCH   4   5
ATOM      5  C   UNL     1      -1.616   2.947   5.331  1.00  0.00     0.041 C 
ATOM      6  O   UNL     1      -2.558   2.113   5.390  1.00  0.00    -0.550 OA
ATOM      7  O   UNL     1      -1.142   3.364   4.094  1.00  0.00    -0.550 OA
ENDBRANCH   4   5
ENDBRANCH   3   4
ENDBRANCH   2   3
ENDBRANCH   1   2
BRANCH   1   8
ATOM      8  C   UNL     1       1.883  -0.363   7.461  1.00  0.00     0.000 C 
BRANCH   8   9
ATOM      9  C   UNL     1       3.206  -0.132   6.716  1.00  0.00    -0.000 C 
BRANCH   9  10
ATOM     10  C   UNL     1       4.332   0.227   7.694  1.00  0.00    -0.000 C 
BRANCH  10  11
ATOM     11  C   UNL     1       5.204   1.360   7.140  1.00  0.00    -0.000 C 
BRANCH  11  12
ATOM     12  C   UNL     1       4.538   2.723   7.357  1.00  0.00    -0.003 C 
ATOM     13  C   UNL     1       4.182   3.382   6.027  1.00  0.00     0.004 C 
ENDBRANCH  11  12
ENDBRANCH  10  11
ENDBRANCH   9  10
ENDBRANCH   8   9
ENDBRANCH   1   8
TORSDOF 9
ENDMDL
MODEL 5
REMARK VINA RESULT:    -3.827      1.264      2.087
REMARK INTER + INTRA:          -6.684
REMARK INTER:                  -5.816
REMARK INTRA:                  -0.868
REMARK UNBOUND:                -0.843
REMARK SMILES CCCCCCCCCCC(=O)[O-]
REMARK SMILES IDX 7 1 8 2 9 3 10 4 11 5 12 6 13 7 6 8 5 9 4 10 3 11 2 12 1 13
REMARK H PARENT
REMARK Flexibility Score: inf
ROOT
ATOM      1  C   UNL     1       1.522   4.157   7.601  1.00  0.00     0.000 C 
ENDROOT
BRANCH   1   2
ATOM      2  C   UNL     1       1.037   2.742   7.961  1.00  0.00     0.000 C 
BRANCH   2   3
ATOM      3  C   UNL     1       1.157   1.760   6.777  1.00  0.00     0.006 C 
BRANCH   3   4
ATOM      4  C   UNL     1       2.454   0.936   6.792  1.00  0.00     0.053 C 
BRANCH   4   5
ATOM      5  C   UNL     1       2.201  -0.530   6.636  1.00  0.00     0.041 C 
ATOM      6  O   UNL     1       2.426  -1.097   5.534  1.00  0.00    -0.550 OA
ATOM      7  O   UNL     1       1.742  -1.276   7.714  1.00  0.00    -0.550 OA
ENDBRANCH   4   5
ENDBRANCH   3   4
ENDBRANCH   2   3
ENDBRANCH   1   2
BRANCH   1   8
ATOM      8  C   UNL     1       1.447   4.442   6.093  1.00  0.00     0.000 C 
BRANCH   8   9
ATOM      9  C   UNL     1       0.205   5.259   5.705  1.00  0.00    -0.000 C 
BRANCH   9  10
ATOM     10  C   UNL     1      -0.772   4.413   4.880  1.00  0.00    -0.000 C 
BRANCH  10  11
ATOM     11  C   UNL     1      -2.034   4.084   5.686  1.00  0.00    -0.000 C 
BRANCH  11  12
ATOM     12  C   UNL     1      -2.241   2.569   5.792  1.00  0.00    -0.003 C 
ATOM     13  C   UNL     1      -3.696   2.231   6.105  1.00  0.00     0.004 C 
ENDBRANCH  11  12
ENDBRANCH  10  11
ENDBRANCH   9  10
ENDBRANCH   8   9
ENDBRANCH   1   8
TORSDOF 9
ENDMDL
MODEL 6
REMARK VINA RESULT:    -3.808      3.191      5.977
REMARK INTER + INTRA:          -6.654
REMARK INTER:                  -5.893
REMARK INTRA:                  -0.761
REMARK UNBOUND:                -0.843
REMARK SMILES CCCCCCCCCCC(=O)[O-]
REMARK SMILES IDX 7 1 8 2 9 3 10 4 11 5 12 6 13 7 6 8 5 9 4 10 3 11 2 12 1 13
REMARK H PARENT
REMARK Flexibility Score: inf
ROOT
ATOM      1  C   UNL     1       0.176   3.044   7.012  1.00  0.00     0.000 C 
ENDROOT
BRANCH   1   2
ATOM      2  C   UNL     1      -0.380   2.533   5.672  1.00  0.00     0.000 C 
BRANCH   2   3
ATOM      3  C   UNL     1      -1.545   3.400   5.150  1.00  0.00     0.006 C 
BRANCH   3   4
ATOM      4  C   UNL     1      -2.545   3.807   6.244  1.00  0.00     0.053 C 
BRANCH   4   5
ATOM      5  C   UNL     1      -3.910   3.243   6.008  1.00  0.00     0.041 C 
ATOM      6  O   UNL     1      -4.045   2.043   5.649  1.00  0.00    -0.550 OA
ATOM      7  O   UNL     1      -5.035   4.031   6.212  1.00  0.00    -0.550 OA
ENDBRANCH   4   5
ENDBRANCH   3   4
ENDBRANCH   2   3
ENDBRANCH   1   2
BRANCH   1   8
ATOM      8  C   UNL     1       1.228   4.149   6.834  1.00  0.00     0.000 C 
BRANCH   8   9
ATOM      9  C   UNL     1       2.642   3.593   6.611  1.00  0.00    -0.000 C 
BRANCH   9  10
ATOM     10  C   UNL     1       2.875   2.332   7.452  1.00  0.00    -0.000 C 
BRANCH  10  11
ATOM     11  C   UNL     1       3.814   1.356   6.734  1.00  0.00    -0.000 C 
BRANCH  11  12
ATOM     12  C   UNL     1       3.355  -0.094   6.927  1.00  0.00    -0.003 C 
ATOM     13  C   UNL     1       1.963  -0.314   6.341  1.00  0.00     0.004 C 
ENDBRANCH  11  12
ENDBRANCH  10  11
ENDBRANCH   9  10
ENDBRANCH   8   9
ENDBRANCH   1   8
TORSDOF 9
ENDMDL
MODEL 7
REMARK VINA RESULT:    -3.798     12.768     14.149
REMARK INTER + INTRA:          -6.639
REMARK INTER:                  -5.678
REMARK INTRA:                  -0.961
REMARK UNBOUND:                -0.843
REMARK SMILES CCCCCCCCCCC(=O)[O-]
REMARK SMILES IDX 7 1 8 2 9 3 10 4 11 5 12 6 13 7 6 8 5 9 4 10 3 11 2 12 1 13
REMARK H PARENT
REMARK Flexibility Score: inf
ROOT
ATOM      1  C   UNL     1      -4.702  -1.366  -6.704  1.00  0.00     0.000 C 
ENDROOT
BRANCH   1   2
ATOM      2  C   UNL     1      -5.527  -2.597  -6.291  1.00  0.00     0.000 C 
BRANCH   2   3
ATOM      3  C   UNL     1      -4.884  -3.368  -5.119  1.00  0.00     0.006 C 
BRANCH   3   4
ATOM      4  C   UNL     1      -4.691  -4.866  -5.403  1.00  0.00     0.053 C 
BRANCH   4   5
ATOM      5  C   UNL     1      -5.008  -5.718  -4.215  1.00  0.00     0.041 C 
ATOM      6  O   UNL     1      -5.555  -6.842  -4.370  1.00  0.00    -0.550 OA
ATOM      7  O   UNL     1      -4.675  -5.284  -2.938  1.00  0.00    -0.550 OA
ENDBRANCH   4   5
ENDBRANCH   3   4
ENDBRANCH   2   3
ENDBRANCH   1   2
BRANCH   1   8
ATOM      8  C   UNL     1      -3.459  -1.163  -5.824  1.00  0.00     0.000 C 
BRANCH   8   9
ATOM      9  C   UNL     1      -2.168  -1.020  -6.645  1.00  0.00    -0.000 C 
BRANCH   9  10
ATOM     10  C   UNL     1      -0.996  -1.725  -5.952  1.00  0.00    -0.000 C 
BRANCH  10  11
ATOM     11  C   UNL     1      -1.269  -3.225  -5.794  1.00  0.00    -0.000 C 
BRANCH  11  12
ATOM     12  C   UNL     1      -0.396  -3.830  -4.688  1.00  0.00    -0.003 C 
ATOM     13  C   UNL     1      -1.250  -4.494  -3.612  1.00  0.00     0.004 C 
ENDBRANCH  11  12
ENDBRANCH  10  11
ENDBRANCH   9  10
ENDBRANCH   8   9
ENDBRANCH   1   8
TORSDOF 9
ENDMDL
MODEL 8
REMARK VINA RESULT:    -3.780      3.160      5.999
REMARK INTER + INTRA:          -6.612
REMARK INTER:                  -5.833
REMARK INTRA:                  -0.779
REMARK UNBOUND:                -0.843
REMARK SMILES CCCCCCCCCCC(=O)[O-]
REMARK SMILES IDX 7 1 8 2 9 3 10 4 11 5 12 6 13 7 6 8 5 9 4 10 3 11 2 12 1 13
REMARK H PARENT
REMARK Flexibility Score: inf
ROOT
ATOM      1  C   UNL     1       0.094   2.535   7.487  1.00  0.00     0.000 C 
ENDROOT
BRANCH   1   2
ATOM      2  C   UNL     1       0.147   3.061   6.043  1.00  0.00     0.000 C 
BRANCH   2   3
ATOM      3  C   UNL     1      -1.152   2.769   5.262  1.00  0.00     0.006 C 
BRANCH   3   4
ATOM      4  C   UNL     1      -2.323   3.683   5.657  1.00  0.00     0.053 C 
BRANCH   4   5
ATOM      5  C   UNL     1      -3.563   2.912   5.987  1.00  0.00     0.041 C 
ATOM      6  O   UNL     1      -3.709   1.737   5.558  1.00  0.00    -0.550 OA
ATOM      7  O   UNL     1      -4.543   3.480   6.789  1.00  0.00    -0.550 OA
ENDBRANCH   4   5
ENDBRANCH   3   4
ENDBRANCH   2   3
ENDBRANCH   1   2
BRANCH   1   8
ATOM      8  C   UNL     1       1.229   1.548   7.800  1.00  0.00     0.000 C 
BRANCH   8   9
ATOM      9  C   UNL     1       1.552   0.621   6.619  1.00  0.00    -0.000 C 
BRANCH   9  10
ATOM     10  C   UNL     1       3.067   0.459   6.447  1.00  0.00    -0.000 C 
BRANCH  10  11
ATOM     11  C   UNL     1       3.833   1.451   7.329  1.00  0.00    -0.000 C 
BRANCH  11  12
ATOM     12  C   UNL     1       4.448   2.575   6.488  1.00  0.00    -0.003 C 
ATOM     13  C   UNL     1       4.207   3.939   7.129  1.00  0.00     0.004 C 
ENDBRANCH  11  12
ENDBRANCH  10  11
ENDBRANCH   9  10
ENDBRANCH   8   9
ENDBRANCH   1   8
TORSDOF 9
ENDMDL
MODEL 9
REMARK VINA RESULT:    -3.753     13.170     14.465
REMARK INTER + INTRA:          -6.570
REMARK INTER:                  -5.517
REMARK INTRA:                  -1.054
REMARK UNBOUND:                -0.843
REMARK SMILES CCCCCCCCCCC(=O)[O-]
REMARK SMILES IDX 7 1 8 2 9 3 10 4 11 5 12 6 13 7 6 8 5 9 4 10 3 11 2 12 1 13
REMARK H PARENT
REMARK Flexibility Score: inf
ROOT
ATOM      1  C   UNL     1      -4.119  -3.553  -5.765  1.00  0.00     0.000 C 
ENDROOT
BRANCH   1   2
ATOM      2  C   UNL     1      -4.861  -3.947  -4.476  1.00  0.00     0.000 C 
BRANCH   2   3
ATOM      3  C   UNL     1      -4.206  -5.149  -3.764  1.00  0.00     0.006 C 
BRANCH   3   4
ATOM      4  C   UNL     1      -4.480  -6.495  -4.455  1.00  0.00     0.053 C 
BRANCH   4   5
ATOM      5  C   UNL     1      -5.859  -7.006  -4.182  1.00  0.00     0.041 C 
ATOM      6  O   UNL     1      -6.175  -7.388  -3.024  1.00  0.00    -0.550 OA
ATOM      7  O   UNL     1      -6.804  -7.036  -5.199  1.00  0.00    -0.550 OA
ENDBRANCH   4   5
ENDBRANCH   3   4
ENDBRANCH   2   3
ENDBRANCH   1   2
BRANCH   1   8
ATOM      8  C   UNL     1      -3.984  -2.032  -5.929  1.00  0.00     0.000 C 
BRANCH   8   9
ATOM      9  C   UNL     1      -2.567  -1.525  -5.626  1.00  0.00    -0.000 C 
BRANCH   9  10
ATOM     10  C   UNL     1      -1.510  -2.439  -6.258  1.00  0.00    -0.000 C 
BRANCH  10  11
ATOM     11  C   UNL     1      -0.346  -2.687  -5.292  1.00  0.00    -0.000 C 
BRANCH  11  12
ATOM     12  C   UNL     1      -0.689  -3.793  -4.288  1.00  0.00    -0.003 C 
ATOM     13  C   UNL     1      -0.705  -5.163  -4.959  1.00  0.00     0.004 C 
ENDBRANCH  11  12
ENDBRANCH  10  11
ENDBRANCH   9  10
ENDBRANCH   8   9
ENDBRANCH   1   8
TORSDOF 9
ENDMDL
