MODEL 1
REMARK VINA RESULT:     7.434      0.000      0.000
REMARK INTER + INTRA:          18.013
REMARK INTER:                  19.602
REMARK INTRA:                  -1.589
REMARK UNBOUND:                -1.589
REMARK SMILES CCCCCCCCCCCCCCCCCCCCCCCCCCCCCC(=O)[O-]
REMARK SMILES IDX 16 1 17 2 18 3 19 4 20 5 21 6 22 7 23 8 24 9 25 10 26 11
REMARK SMILES IDX 27 12 28 13 29 14 30 15 31 16 32 17 15 18 14 19 13 20 12 21
REMARK SMILES IDX 11 22 10 23 9 24 8 25 7 26 6 27 5 28 4 29 3 30 2 31 1 32
REMARK H PARENT
REMARK Flexibility Score: inf
ROOT
ATOM      1  C   UNL     1      14.804  10.280 -13.641  1.00  0.00     0.000 C 
ENDROOT
BRANCH   1   2
ATOM      2  C   UNL     1      14.147   8.946 -14.026  1.00  0.00     0.000 C 
BRANCH   2   3
ATOM      3  C   UNL     1      15.174   7.877 -14.440  1.00  0.00     0.000 C 
BRANCH   3   4
ATOM      4  C   UNL     1      16.616   8.416 -14.473  1.00  0.00     0.000 C 
BRANCH   4   5
ATOM      5  C   UNL     1      17.264   8.438 -15.869  1.00  0.00     0.000 C 
BRANCH   5   6
ATOM      6  C   UNL     1      18.780   8.175 -15.831  1.00  0.00     0.000 C 
BRANCH   6   7
ATOM      7  C   UNL     1      19.550   9.288 -15.104  1.00  0.00     0.000 C 
BRANCH   7   8
ATOM      8  C   UNL     1      20.778   9.764 -15.898  1.00  0.00     0.000 C 
BRANCH   8   9
ATOM      9  C   UNL     1      21.869  10.377 -15.002  1.00  0.00     0.000 C 
BRANCH   9  10
ATOM     10  C   UNL     1      21.829  11.915 -14.883  1.00  0.00     0.000 C 
BRANCH  10  11
ATOM     11  C   UNL     1      20.463  12.556 -15.187  1.00  0.00     0.000 C 
BRANCH  11  12
ATOM     12  C   UNL     1      19.587  12.714 -13.933  1.00  0.00     0.000 C 
BRANCH  12  13
ATOM     13  C   UNL     1      18.417  11.711 -13.889  1.00  0.00     0.006 C 
BRANCH  13  14
ATOM     14  C   UNL     1      17.856  11.474 -12.476  1.00  0.00     0.053 C 
BRANCH  14  15
ATOM     15  C   UNL     1      16.937  12.568 -12.029  1.00  0.00     0.041 C 
ATOM     16  O   UNL     1      16.343  13.283 -12.879  1.00  0.00    -0.550 OA
ATOM     17  O   UNL     1      16.711  12.781 -10.674  1.00  0.00    -0.550 OA
ENDBRANCH  14  15
ENDBRANCH  13  14
ENDBRANCH  12  13
ENDBRANCH  11  12
ENDBRANCH  10  11
ENDBRANCH   9  10
ENDBRANCH   8   9
ENDBRANCH   7   8
ENDBRANCH   6   7
ENDBRANCH   5   6
ENDBRANCH   4   5
ENDBRANCH   3   4
ENDBRANCH   2   3
ENDBRANCH   1   2
BRANCH   1  18
ATOM     18  C   UNL     1      13.806  11.270 -13.024  1.00  0.00     0.000 C 
BRANCH  18  19
ATOM     19  C   UNL     1      12.584  11.459 -13.936  1.00  0.00     0.000 C 
BRANCH  19  20
ATOM     20  C   UNL     1      11.440  12.228 -13.251  1.00  0.00     0.000 C 
BRANCH  20  21
ATOM     21  C   UNL     1      10.047  12.020 -13.879  1.00  0.00     0.000 C 
BRANCH  21  22
ATOM     22  C   UNL     1       8.915  11.722 -12.874  1.00  0.00     0.000 C 
BRANCH  22  23
ATOM     23  C   UNL     1       7.685  11.015 -13.475  1.00  0.00     0.000 C 
BRANCH  23  24
ATOM     24  C   UNL     1       6.942  10.068 -12.510  1.00  0.00    -0.000 C 
BRANCH  24  25
ATOM     25  C   UNL     1       7.070   8.568 -12.844  1.00  0.00    -0.000 C 
BRANCH  25  26
ATOM     26  C   UNL     1       5.788   7.911 -13.392  1.00  0.00    -0.000 C 
BRANCH  26  27
ATOM     27  C   UNL     1       5.406   8.328 -14.826  1.00  0.00    -0.000 C 
BRANCH  27  28
ATOM     28  C   UNL     1       3.914   8.161 -15.177  1.00  0.00    -0.000 C 
BRANCH  28  29
ATOM     29  C   UNL     1       2.932   8.799 -14.172  1.00  0.00    -0.000 C 
BRANCH  29  30
ATOM     30  C   UNL     1       3.452  10.068 -13.473  1.00  0.00    -0.000 C 
BRANCH  30  31
ATOM     31  C   UNL     1       2.978  11.361 -14.154  1.00  0.00    -0.003 C 
ATOM     32  C   UNL     1       3.994  11.842 -15.186  1.00  0.00     0.004 C 
ENDBRANCH  30  31
ENDBRANCH  29  30
ENDBRANCH  28  29
ENDBRANCH  27  28
ENDBRANCH  26  27
ENDBRANCH  25  26
ENDBRANCH  24  25
ENDBRANCH  23  24
ENDBRANCH  22  23
ENDBRANCH  21  22
ENDBRANCH  20  21
ENDBRANCH  19  20
ENDBRANCH  18  19
ENDBRANCH   1  18
TORSDOF 28
ENDMDL
MODEL 2
REMARK VINA RESULT:     7.665      2.416      3.090
REMARK INTER + INTRA:          18.621
REMARK INTER:                  20.044
REMARK INTRA:                  -1.422
REMARK UNBOUND:                -1.589
REMARK SMILES CCCCCCCCCCCCCCCCCCCCCCCCCCCCCC(=O)[O-]
REMARK SMILES IDX 16 1 17 2 18 3 19 4 20 5 21 6 22 7 23 8 24 9 25 10 26 11
REMARK SMILES IDX 27 12 28 13 29 14 30 15 31 16 32 17 15 18 14 19 13 20 12 21
REMARK SMILES IDX 11 22 10 23 9 24 8 25 7 26 6 27 5 28 4 29 3 30 2 31 1 32
REMARK H PARENT
REMARK Flexibility Score: inf
ROOT
ATOM      1  C   UNL     1      14.627  10.419 -13.712  1.00  0.00     0.000 C 
ENDROOT
BRANCH   1   2
ATOM      2  C   UNL     1      14.015   9.081 -14.155  1.00  0.00     0.000 C 
BRANCH   2   3
ATOM      3  C   UNL     1      15.082   8.039 -14.537  1.00  0.00     0.000 C 
BRANCH   3   4
ATOM      4  C   UNL     1      16.505   8.627 -14.573  1.00  0.00     0.000 C 
BRANCH   4   5
ATOM      5  C   UNL     1      17.241   8.451 -15.913  1.00  0.00     0.000 C 
BRANCH   5   6
ATOM      6  C   UNL     1      18.734   8.117 -15.737  1.00  0.00     0.000 C 
BRANCH   6   7
ATOM      7  C   UNL     1      19.525   9.277 -15.113  1.00  0.00     0.000 C 
BRANCH   7   8
ATOM      8  C   UNL     1      20.818   9.586 -15.887  1.00  0.00     0.000 C 
BRANCH   8   9
ATOM      9  C   UNL     1      21.335  11.014 -15.640  1.00  0.00     0.000 C 
BRANCH   9  10
ATOM     10  C   UNL     1      20.304  12.135 -15.886  1.00  0.00     0.000 C 
BRANCH  10  11
ATOM     11  C   UNL     1      20.727  13.530 -15.391  1.00  0.00     0.000 C 
BRANCH  11  12
ATOM     12  C   UNL     1      21.992  14.053 -16.093  1.00  0.00     0.000 C 
BRANCH  12  13
ATOM     13  C   UNL     1      22.067  15.592 -16.125  1.00  0.00     0.006 C 
BRANCH  13  14
ATOM     14  C   UNL     1      20.692  16.280 -16.106  1.00  0.00     0.053 C 
BRANCH  14  15
ATOM     15  C   UNL     1      20.768  17.710 -15.666  1.00  0.00     0.041 C 
ATOM     16  O   UNL     1      19.746  18.444 -15.717  1.00  0.00    -0.550 OA
ATOM     17  O   UNL     1      21.961  18.227 -15.172  1.00  0.00    -0.550 OA
ENDBRANCH  14  15
ENDBRANCH  13  14
ENDBRANCH  12  13
ENDBRANCH  11  12
ENDBRANCH  10  11
ENDBRANCH   9  10
ENDBRANCH   8   9
ENDBRANCH   7   8
ENDBRANCH   6   7
ENDBRANCH   5   6
ENDBRANCH   4   5
ENDBRANCH   3   4
ENDBRANCH   2   3
ENDBRANCH   1   2
BRANCH   1  18
ATOM     18  C   UNL     1      13.563  11.434 -13.271  1.00  0.00     0.000 C 
BRANCH  18  19
ATOM     19  C   UNL     1      12.382  11.455 -14.254  1.00  0.00     0.000 C 
BRANCH  19  20
ATOM     20  C   UNL     1      11.097  12.031 -13.633  1.00  0.00     0.000 C 
BRANCH  20  21
ATOM     21  C   UNL     1       9.784  11.480 -14.223  1.00  0.00     0.000 C 
BRANCH  21  22
ATOM     22  C   UNL     1       8.616  11.363 -13.223  1.00  0.00     0.000 C 
BRANCH  22  23
ATOM     23  C   UNL     1       7.365  10.645 -13.767  1.00  0.00     0.000 C 
BRANCH  23  24
ATOM     24  C   UNL     1       6.376  10.155 -12.690  1.00  0.00    -0.000 C 
BRANCH  24  25
ATOM     25  C   UNL     1       5.901   8.698 -12.858  1.00  0.00    -0.000 C 
BRANCH  25  26
ATOM     26  C   UNL     1       4.419   8.537 -13.249  1.00  0.00    -0.000 C 
BRANCH  26  27
ATOM     27  C   UNL     1       4.025   9.195 -14.587  1.00  0.00    -0.000 C 
BRANCH  27  28
ATOM     28  C   UNL     1       2.581   9.733 -14.646  1.00  0.00    -0.000 C 
BRANCH  28  29
ATOM     29  C   UNL     1       2.231  10.782 -13.571  1.00  0.00    -0.000 C 
BRANCH  29  30
ATOM     30  C   UNL     1       2.211  12.240 -14.068  1.00  0.00    -0.000 C 
BRANCH  30  31
ATOM     31  C   UNL     1       3.034  12.444 -15.349  1.00  0.00    -0.003 C 
ATOM     32  C   UNL     1       3.465  13.900 -15.498  1.00  0.00     0.004 C 
ENDBRANCH  30  31
ENDBRANCH  29  30
ENDBRANCH  28  29
ENDBRANCH  27  28
ENDBRANCH  26  27
ENDBRANCH  25  26
ENDBRANCH  24  25
ENDBRANCH  23  24
ENDBRANCH  22  23
ENDBRANCH  21  22
ENDBRANCH  20  21
ENDBRANCH  19  20
ENDBRANCH  18  19
ENDBRANCH   1  18
TORSDOF 28
ENDMDL
MODEL 3
REMARK VINA RESULT:     9.813      3.727     13.283
REMARK INTER + INTRA:          24.287
REMARK INTER:                  24.439
REMARK INTRA:                  -0.152
REMARK UNBOUND:                -1.589
REMARK SMILES CCCCCCCCCCCCCCCCCCCCCCCCCCCCCC(=O)[O-]
REMARK SMILES IDX 16 1 17 2 18 3 19 4 20 5 21 6 22 7 23 8 24 9 25 10 26 11
REMARK SMILES IDX 27 12 28 13 29 14 30 15 31 16 32 17 15 18 14 19 13 20 12 21
REMARK SMILES IDX 11 22 10 23 9 24 8 25 7 26 6 27 5 28 4 29 3 30 2 31 1 32
REMARK H PARENT
REMARK Flexibility Score: inf
ROOT
ATOM      1  C   UNL     1      15.225  10.394 -13.611  1.00  0.00     0.000 C 
ENDROOT
BRANCH   1   2
ATOM      2  C   UNL     1      14.172  11.428 -13.183  1.00  0.00     0.000 C 
BRANCH   2   3
ATOM      3  C   UNL     1      12.925  11.410 -14.085  1.00  0.00     0.000 C 
BRANCH   3   4
ATOM      4  C   UNL     1      11.619  11.641 -13.302  1.00  0.00     0.000 C 
BRANCH   4   5
ATOM      5  C   UNL     1      10.544  12.439 -14.062  1.00  0.00     0.000 C 
BRANCH   5   6
ATOM      6  C   UNL     1       9.250  11.636 -14.288  1.00  0.00     0.000 C 
BRANCH   6   7
ATOM      7  C   UNL     1       8.254  11.792 -13.128  1.00  0.00     0.000 C 
BRANCH   7   8
ATOM      8  C   UNL     1       7.059  10.831 -13.251  1.00  0.00     0.000 C 
BRANCH   8   9
ATOM      9  C   UNL     1       5.709  11.565 -13.341  1.00  0.00     0.000 C 
BRANCH   9  10
ATOM     10  C   UNL     1       4.636  10.857 -14.193  1.00  0.00     0.000 C 
BRANCH  10  11
ATOM     11  C   UNL     1       4.460   9.355 -13.903  1.00  0.00     0.000 C 
BRANCH  11  12
ATOM     12  C   UNL     1       4.718   9.000 -12.428  1.00  0.00     0.000 C 
BRANCH  12  13
ATOM     13  C   UNL     1       3.466   8.452 -11.715  1.00  0.00     0.006 C 
BRANCH  13  14
ATOM     14  C   UNL     1       3.750   7.876 -10.318  1.00  0.00     0.053 C 
BRANCH  14  15
ATOM     15  C   UNL     1       4.704   8.719  -9.528  1.00  0.00     0.041 C 
ATOM     16  O   UNL     1       5.892   8.868  -9.921  1.00  0.00    -0.550 OA
ATOM     17  O   UNL     1       4.276   9.365  -8.374  1.00  0.00    -0.550 OA
ENDBRANCH  14  15
ENDBRANCH  13  14
ENDBRANCH  12  13
ENDBRANCH  11  12
ENDBRANCH  10  11
ENDBRANCH   9  10
ENDBRANCH   8   9
ENDBRANCH   7   8
ENDBRANCH   6   7
ENDBRANCH   5   6
ENDBRANCH   4   5
ENDBRANCH   3   4
ENDBRANCH   2   3
ENDBRANCH   1   2
BRANCH   1  18
ATOM     18  C   UNL     1      14.609   9.021 -13.918  1.00  0.00     0.000 C 
BRANCH  18  19
ATOM     19  C   UNL     1      15.701   7.980 -14.209  1.00  0.00     0.000 C 
BRANCH  19  20
ATOM     20  C   UNL     1      16.315   8.134 -15.612  1.00  0.00     0.000 C 
BRANCH  20  21
ATOM     21  C   UNL     1      17.842   7.939 -15.681  1.00  0.00     0.000 C 
BRANCH  21  22
ATOM     22  C   UNL     1      18.667   9.242 -15.714  1.00  0.00     0.000 C 
BRANCH  22  23
ATOM     23  C   UNL     1      20.155   9.077 -15.349  1.00  0.00     0.000 C 
BRANCH  23  24
ATOM     24  C   UNL     1      21.043  10.298 -15.664  1.00  0.00    -0.000 C 
BRANCH  24  25
ATOM     25  C   UNL     1      20.278  11.560 -16.111  1.00  0.00    -0.000 C 
BRANCH  25  26
ATOM     26  C   UNL     1      19.315  12.144 -15.059  1.00  0.00    -0.000 C 
BRANCH  26  27
ATOM     27  C   UNL     1      19.334  13.682 -14.944  1.00  0.00    -0.000 C 
BRANCH  27  28
ATOM     28  C   UNL     1      20.554  14.368 -15.589  1.00  0.00    -0.000 C 
BRANCH  28  29
ATOM     29  C   UNL     1      21.720  14.667 -14.625  1.00  0.00    -0.000 C 
BRANCH  29  30
ATOM     30  C   UNL     1      22.046  16.161 -14.445  1.00  0.00    -0.000 C 
BRANCH  30  31
ATOM     31  C   UNL     1      21.222  17.067 -15.371  1.00  0.00    -0.003 C 
ATOM     32  C   UNL     1      22.120  18.045 -16.124  1.00  0.00     0.004 C 
ENDBRANCH  30  31
ENDBRANCH  29  30
ENDBRANCH  28  29
ENDBRANCH  27  28
ENDBRANCH  26  27
ENDBRANCH  25  26
ENDBRANCH  24  25
ENDBRANCH  23  24
ENDBRANCH  22  23
ENDBRANCH  21  22
ENDBRANCH  20  21
ENDBRANCH  19  20
ENDBRANCH  18  19
ENDBRANCH   1  18
TORSDOF 28
ENDMDL
