MODEL 1
REMARK VINA RESULT:    -4.873      0.000      0.000
REMARK INTER + INTRA:         -14.425
REMARK INTER:                 -11.140
REMARK INTRA:                  -3.285
REMARK UNBOUND:                -3.285
REMARK SMILES CCCCCCCCCCCCCCCCCCCCCCCC(=O)[O-]
REMARK SMILES IDX 13 1 14 2 15 3 16 4 17 5 18 6 19 7 20 8 21 9 22 10 23 11
REMARK SMILES IDX 24 12 25 13 26 14 12 15 11 16 10 17 9 18 8 19 7 20 6 21 5 22
REMARK SMILES IDX 4 23 3 24 2 25 1 26
REMARK H PARENT
REMARK Flexibility Score: inf
ROOT
ATOM      1  C   UNL     1      40.508 117.008  12.169  1.00  0.00     0.000 C 
ENDROOT
BRANCH   1   2
ATOM      2  C   UNL     1      41.841 116.998  11.403  1.00  0.00     0.000 C 
BRANCH   2   3
ATOM      3  C   UNL     1      41.807 117.874  10.137  1.00  0.00     0.000 C 
BRANCH   3   4
ATOM      4  C   UNL     1      42.450 117.164   8.924  1.00  0.00     0.000 C 
BRANCH   4   5
ATOM      5  C   UNL     1      43.757 116.421   9.260  1.00  0.00     0.000 C 
BRANCH   5   6
ATOM      6  C   UNL     1      43.777 114.972   8.746  1.00  0.00     0.000 C 
BRANCH   6   7
ATOM      7  C   UNL     1      44.564 114.017   9.666  1.00  0.00     0.000 C 
BRANCH   7   8
ATOM      8  C   UNL     1      44.086 113.984  11.132  1.00  0.00     0.000 C 
BRANCH   8   9
ATOM      9  C   UNL     1      45.116 114.498  12.167  1.00  0.00     0.000 C 
BRANCH   9  10
ATOM     10  C   UNL     1      44.539 115.556  13.136  1.00  0.00     0.006 C 
BRANCH  10  11
ATOM     11  C   UNL     1      45.393 116.837  13.210  1.00  0.00     0.053 C 
BRANCH  11  12
ATOM     12  C   UNL     1      45.721 117.177  14.633  1.00  0.00     0.041 C 
ATOM     13  O   UNL     1      44.842 117.688  15.383  1.00  0.00    -0.550 OA
ATOM     14  O   UNL     1      47.032 117.090  15.078  1.00  0.00    -0.550 OA
ENDBRANCH  11  12
ENDBRANCH  10  11
ENDBRANCH   9  10
ENDBRANCH   8   9
ENDBRANCH   7   8
ENDBRANCH   6   7
ENDBRANCH   5   6
ENDBRANCH   4   5
ENDBRANCH   3   4
ENDBRANCH   2   3
ENDBRANCH   1   2
BRANCH   1  15
ATOM     15  C   UNL     1      40.042 118.434  12.499  1.00  0.00     0.000 C 
BRANCH  15  16
ATOM     16  C   UNL     1      39.991 118.667  14.014  1.00  0.00     0.000 C 
BRANCH  16  17
ATOM     17  C   UNL     1      40.547 117.476  14.820  1.00  0.00     0.000 C 
BRANCH  17  18
ATOM     18  C   UNL     1      39.518 116.750  15.712  1.00  0.00    -0.000 C 
BRANCH  18  19
ATOM     19  C   UNL     1      38.426 117.653  16.317  1.00  0.00    -0.000 C 
BRANCH  19  20
ATOM     20  C   UNL     1      37.007 117.207  15.936  1.00  0.00    -0.000 C 
BRANCH  20  21
ATOM     21  C   UNL     1      36.996 116.532  14.551  1.00  0.00    -0.000 C 
BRANCH  21  22
ATOM     22  C   UNL     1      36.548 117.492  13.438  1.00  0.00    -0.000 C 
BRANCH  22  23
ATOM     23  C   UNL     1      36.026 118.830  13.987  1.00  0.00    -0.000 C 
BRANCH  23  24
ATOM     24  C   UNL     1      36.725 120.038  13.331  1.00  0.00    -0.000 C 
BRANCH  24  25
ATOM     25  C   UNL     1      37.129 121.128  14.340  1.00  0.00    -0.003 C 
ATOM     26  C   UNL     1      36.605 120.859  15.756  1.00  0.00     0.004 C 
ENDBRANCH  24  25
ENDBRANCH  23  24
ENDBRANCH  22  23
ENDBRANCH  21  22
ENDBRANCH  20  21
ENDBRANCH  19  20
ENDBRANCH  18  19
ENDBRANCH  17  18
ENDBRANCH  16  17
ENDBRANCH  15  16
ENDBRANCH   1  15
TORSDOF 22
ENDMDL
MODEL 2
REMARK VINA RESULT:    -4.648      1.319      3.410
REMARK INTER + INTRA:         -13.910
REMARK INTER:                 -10.544
REMARK INTRA:                  -3.365
REMARK UNBOUND:                -3.285
REMARK SMILES CCCCCCCCCCCCCCCCCCCCCCCC(=O)[O-]
REMARK SMILES IDX 13 1 14 2 15 3 16 4 17 5 18 6 19 7 20 8 21 9 22 10 23 11
REMARK SMILES IDX 24 12 25 13 26 14 12 15 11 16 10 17 9 18 8 19 7 20 6 21 5 22
REMARK SMILES IDX 4 23 3 24 2 25 1 26
REMARK H PARENT
REMARK Flexibility Score: inf
ROOT
ATOM      1  C   UNL     1      39.589 117.402  13.111  1.00  0.00     0.000 C 
ENDROOT
BRANCH   1   2
ATOM      2  C   UNL     1      40.988 116.778  13.250  1.00  0.00     0.000 C 
BRANCH   2   3
ATOM      3  C   UNL     1      41.683 116.566  11.892  1.00  0.00     0.000 C 
BRANCH   3   4
ATOM      4  C   UNL     1      41.340 117.687  10.884  1.00  0.00     0.000 C 
BRANCH   4   5
ATOM      5  C   UNL     1      42.087 117.568   9.543  1.00  0.00     0.000 C 
BRANCH   5   6
ATOM      6  C   UNL     1      43.485 116.944   9.683  1.00  0.00     0.000 C 
BRANCH   6   7
ATOM      7  C   UNL     1      43.861 116.034   8.496  1.00  0.00     0.000 C 
BRANCH   7   8
ATOM      8  C   UNL     1      44.493 114.682   8.887  1.00  0.00     0.000 C 
BRANCH   8   9
ATOM      9  C   UNL     1      44.037 114.119  10.255  1.00  0.00     0.000 C 
BRANCH   9  10
ATOM     10  C   UNL     1      45.160 114.105  11.319  1.00  0.00     0.006 C 
BRANCH  10  11
ATOM     11  C   UNL     1      44.730 114.732  12.660  1.00  0.00     0.053 C 
BRANCH  11  12
ATOM     12  C   UNL     1      45.649 115.854  13.042  1.00  0.00     0.041 C 
ATOM     13  O   UNL     1      46.529 115.678  13.932  1.00  0.00    -0.550 OA
ATOM     14  O   UNL     1      45.425 117.129  12.544  1.00  0.00    -0.550 OA
ENDBRANCH  11  12
ENDBRANCH  10  11
ENDBRANCH   9  10
ENDBRANCH   8   9
ENDBRANCH   7   8
ENDBRANCH   6   7
ENDBRANCH   5   6
ENDBRANCH   4   5
ENDBRANCH   3   4
ENDBRANCH   2   3
ENDBRANCH   1   2
BRANCH   1  15
ATOM     15  C   UNL     1      39.423 118.650  13.990  1.00  0.00     0.000 C 
BRANCH  15  16
ATOM     16  C   UNL     1      38.832 119.819  13.191  1.00  0.00     0.000 C 
BRANCH  16  17
ATOM     17  C   UNL     1      37.467 120.283  13.736  1.00  0.00     0.000 C 
BRANCH  17  18
ATOM     18  C   UNL     1      36.239 119.595  13.102  1.00  0.00    -0.000 C 
BRANCH  18  19
ATOM     19  C   UNL     1      35.498 118.607  14.021  1.00  0.00    -0.000 C 
BRANCH  19  20
ATOM     20  C   UNL     1      35.732 118.889  15.511  1.00  0.00    -0.000 C 
BRANCH  20  21
ATOM     21  C   UNL     1      36.488 117.723  16.178  1.00  0.00    -0.000 C 
BRANCH  21  22
ATOM     22  C   UNL     1      36.652 116.519  15.235  1.00  0.00    -0.000 C 
BRANCH  22  23
ATOM     23  C   UNL     1      37.728 115.534  15.718  1.00  0.00    -0.000 C 
BRANCH  23  24
ATOM     24  C   UNL     1      38.736 116.198  16.677  1.00  0.00    -0.000 C 
BRANCH  24  25
ATOM     25  C   UNL     1      40.117 115.519  16.675  1.00  0.00    -0.003 C 
ATOM     26  C   UNL     1      40.149 114.228  15.848  1.00  0.00     0.004 C 
ENDBRANCH  24  25
ENDBRANCH  23  24
ENDBRANCH  22  23
ENDBRANCH  21  22
ENDBRANCH  20  21
ENDBRANCH  19  20
ENDBRANCH  18  19
ENDBRANCH  17  18
ENDBRANCH  16  17
ENDBRANCH  15  16
ENDBRANCH   1  15
TORSDOF 22
ENDMDL
MODEL 3
REMARK VINA RESULT:    -4.568      3.635      4.603
REMARK INTER + INTRA:         -13.728
REMARK INTER:                 -11.951
REMARK INTRA:                  -1.776
REMARK UNBOUND:                -3.285
REMARK SMILES CCCCCCCCCCCCCCCCCCCCCCCC(=O)[O-]
REMARK SMILES IDX 13 1 14 2 15 3 16 4 17 5 18 6 19 7 20 8 21 9 22 10 23 11
REMARK SMILES IDX 24 12 25 13 26 14 12 15 11 16 10 17 9 18 8 19 7 20 6 21 5 22
REMARK SMILES IDX 4 23 3 24 2 25 1 26
REMARK H PARENT
REMARK Flexibility Score: inf
ROOT
ATOM      1  C   UNL     1      40.812 116.981  12.196  1.00  0.00     0.000 C 
ENDROOT
BRANCH   1   2
ATOM      2  C   UNL     1      42.071 116.876  11.319  1.00  0.00     0.000 C 
BRANCH   2   3
ATOM      3  C   UNL     1      41.897 117.551   9.944  1.00  0.00     0.000 C 
BRANCH   3   4
ATOM      4  C   UNL     1      43.008 117.137   8.952  1.00  0.00     0.000 C 
BRANCH   4   5
ATOM      5  C   UNL     1      43.951 116.047   9.494  1.00  0.00     0.000 C 
BRANCH   5   6
ATOM      6  C   UNL     1      43.845 114.720   8.725  1.00  0.00     0.000 C 
BRANCH   6   7
ATOM      7  C   UNL     1      45.154 113.905   8.746  1.00  0.00     0.000 C 
BRANCH   7   8
ATOM      8  C   UNL     1      45.378 113.002   7.515  1.00  0.00     0.000 C 
BRANCH   8   9
ATOM      9  C   UNL     1      46.812 112.437   7.371  1.00  0.00     0.000 C 
BRANCH   9  10
ATOM     10  C   UNL     1      47.623 113.103   6.235  1.00  0.00     0.006 C 
BRANCH  10  11
ATOM     11  C   UNL     1      46.809 114.139   5.437  1.00  0.00     0.053 C 
BRANCH  11  12
ATOM     12  C   UNL     1      47.716 115.088   4.713  1.00  0.00     0.041 C 
ATOM     13  O   UNL     1      47.241 116.110   4.142  1.00  0.00    -0.550 OA
ATOM     14  O   UNL     1      49.050 114.758   4.524  1.00  0.00    -0.550 OA
ENDBRANCH  11  12
ENDBRANCH  10  11
ENDBRANCH   9  10
ENDBRANCH   8   9
ENDBRANCH   7   8
ENDBRANCH   6   7
ENDBRANCH   5   6
ENDBRANCH   4   5
ENDBRANCH   3   4
ENDBRANCH   2   3
ENDBRANCH   1   2
BRANCH   1  15
ATOM     15  C   UNL     1      40.272 118.417  12.262  1.00  0.00     0.000 C 
BRANCH  15  16
ATOM     16  C   UNL     1      39.791 118.766  13.676  1.00  0.00     0.000 C 
BRANCH  16  17
ATOM     17  C   UNL     1      40.374 117.829  14.753  1.00  0.00     0.000 C 
BRANCH  17  18
ATOM     18  C   UNL     1      39.365 116.846  15.383  1.00  0.00    -0.000 C 
BRANCH  18  19
ATOM     19  C   UNL     1      38.641 117.368  16.638  1.00  0.00    -0.000 C 
BRANCH  19  20
ATOM     20  C   UNL     1      37.284 118.012  16.318  1.00  0.00    -0.000 C 
BRANCH  20  21
ATOM     21  C   UNL     1      36.588 117.277  15.155  1.00  0.00    -0.000 C 
BRANCH  21  22
ATOM     22  C   UNL     1      36.207 118.229  14.009  1.00  0.00    -0.000 C 
BRANCH  22  23
ATOM     23  C   UNL     1      35.902 119.653  14.501  1.00  0.00    -0.000 C 
BRANCH  23  24
ATOM     24  C   UNL     1      36.987 120.660  14.070  1.00  0.00    -0.000 C 
BRANCH  24  25
ATOM     25  C   UNL     1      37.012 121.933  14.934  1.00  0.00    -0.003 C 
ATOM     26  C   UNL     1      36.617 121.676  16.394  1.00  0.00     0.004 C 
ENDBRANCH  24  25
ENDBRANCH  23  24
ENDBRANCH  22  23
ENDBRANCH  21  22
ENDBRANCH  20  21
ENDBRANCH  19  20
ENDBRANCH  18  19
ENDBRANCH  17  18
ENDBRANCH  16  17
ENDBRANCH  15  16
ENDBRANCH   1  15
TORSDOF 22
ENDMDL
MODEL 4
REMARK VINA RESULT:    -4.558      2.958      8.249
REMARK INTER + INTRA:         -13.706
REMARK INTER:                 -10.334
REMARK INTRA:                  -3.372
REMARK UNBOUND:                -3.285
REMARK SMILES CCCCCCCCCCCCCCCCCCCCCCCC(=O)[O-]
REMARK SMILES IDX 13 1 14 2 15 3 16 4 17 5 18 6 19 7 20 8 21 9 22 10 23 11
REMARK SMILES IDX 24 12 25 13 26 14 12 15 11 16 10 17 9 18 8 19 7 20 6 21 5 22
REMARK SMILES IDX 4 23 3 24 2 25 1 26
REMARK H PARENT
REMARK Flexibility Score: inf
ROOT
ATOM      1  C   UNL     1      41.087 117.698  10.870  1.00  0.00     0.000 C 
ENDROOT
BRANCH   1   2
ATOM      2  C   UNL     1      40.718 117.108  12.241  1.00  0.00     0.000 C 
BRANCH   2   3
ATOM      3  C   UNL     1      41.770 116.111  12.763  1.00  0.00     0.000 C 
BRANCH   3   4
ATOM      4  C   UNL     1      41.390 115.541  14.149  1.00  0.00     0.000 C 
BRANCH   4   5
ATOM      5  C   UNL     1      40.340 116.380  14.900  1.00  0.00     0.000 C 
BRANCH   5   6
ATOM      6  C   UNL     1      39.587 115.583  15.978  1.00  0.00     0.000 C 
BRANCH   6   7
ATOM      7  C   UNL     1      38.121 115.294  15.599  1.00  0.00     0.000 C 
BRANCH   7   8
ATOM      8  C   UNL     1      37.072 116.106  16.387  1.00  0.00     0.000 C 
BRANCH   8   9
ATOM      9  C   UNL     1      36.465 117.307  15.622  1.00  0.00     0.000 C 
BRANCH   9  10
ATOM     10  C   UNL     1      36.841 117.335  14.122  1.00  0.00     0.006 C 
BRANCH  10  11
ATOM     11  C   UNL     1      37.643 118.588  13.722  1.00  0.00     0.053 C 
BRANCH  11  12
ATOM     12  C   UNL     1      36.729 119.752  13.482  1.00  0.00     0.041 C 
ATOM     13  O   UNL     1      35.704 119.614  12.756  1.00  0.00    -0.550 OA
ATOM     14  O   UNL     1      37.095 121.017  13.915  1.00  0.00    -0.550 OA
ENDBRANCH  11  12
ENDBRANCH  10  11
ENDBRANCH   9  10
ENDBRANCH   8   9
ENDBRANCH   7   8
ENDBRANCH   6   7
ENDBRANCH   5   6
ENDBRANCH   4   5
ENDBRANCH   3   4
ENDBRANCH   2   3
ENDBRANCH   1   2
BRANCH   1  15
ATOM     15  C   UNL     1      42.513 117.319  10.443  1.00  0.00     0.000 C 
BRANCH  15  16
ATOM     16  C   UNL     1      42.613 117.157   8.921  1.00  0.00     0.000 C 
BRANCH  16  17
ATOM     17  C   UNL     1      43.709 116.158   8.498  1.00  0.00     0.000 C 
BRANCH  17  18
ATOM     18  C   UNL     1      44.883 116.014   9.489  1.00  0.00    -0.000 C 
BRANCH  18  19
ATOM     19  C   UNL     1      45.163 114.577   9.966  1.00  0.00    -0.000 C 
BRANCH  19  20
ATOM     20  C   UNL     1      43.910 113.875  10.510  1.00  0.00    -0.000 C 
BRANCH  20  21
ATOM     21  C   UNL     1      44.092 113.497  11.993  1.00  0.00    -0.000 C 
BRANCH  21  22
ATOM     22  C   UNL     1      45.553 113.162  12.333  1.00  0.00    -0.000 C 
BRANCH  22  23
ATOM     23  C   UNL     1      46.100 114.010  13.492  1.00  0.00    -0.000 C 
BRANCH  23  24
ATOM     24  C   UNL     1      44.976 114.729  14.265  1.00  0.00    -0.000 C 
BRANCH  24  25
ATOM     25  C   UNL     1      45.162 116.255  14.331  1.00  0.00    -0.003 C 
ATOM     26  C   UNL     1      45.513 116.875  12.973  1.00  0.00     0.004 C 
ENDBRANCH  24  25
ENDBRANCH  23  24
ENDBRANCH  22  23
ENDBRANCH  21  22
ENDBRANCH  20  21
ENDBRANCH  19  20
ENDBRANCH  18  19
ENDBRANCH  17  18
ENDBRANCH  16  17
ENDBRANCH  15  16
ENDBRANCH   1  15
TORSDOF 22
ENDMDL
MODEL 5
REMARK VINA RESULT:    -4.521      4.749      6.899
REMARK INTER + INTRA:         -13.620
REMARK INTER:                 -12.107
REMARK INTRA:                  -1.514
REMARK UNBOUND:                -3.285
REMARK SMILES CCCCCCCCCCCCCCCCCCCCCCCC(=O)[O-]
REMARK SMILES IDX 13 1 14 2 15 3 16 4 17 5 18 6 19 7 20 8 21 9 22 10 23 11
REMARK SMILES IDX 24 12 25 13 26 14 12 15 11 16 10 17 9 18 8 19 7 20 6 21 5 22
REMARK SMILES IDX 4 23 3 24 2 25 1 26
REMARK H PARENT
REMARK Flexibility Score: inf
ROOT
ATOM      1  C   UNL     1      44.262 114.519   9.257  1.00  0.00     0.000 C 
ENDROOT
BRANCH   1   2
ATOM      2  C   UNL     1      45.220 113.430   8.747  1.00  0.00     0.000 C 
BRANCH   2   3
ATOM      3  C   UNL     1      45.671 113.667   7.293  1.00  0.00     0.000 C 
BRANCH   3   4
ATOM      4  C   UNL     1      45.685 112.359   6.470  1.00  0.00     0.000 C 
BRANCH   4   5
ATOM      5  C   UNL     1      46.432 111.200   7.157  1.00  0.00     0.000 C 
BRANCH   5   6
ATOM      6  C   UNL     1      47.884 111.549   7.521  1.00  0.00     0.000 C 
BRANCH   6   7
ATOM      7  C   UNL     1      48.775 111.785   6.285  1.00  0.00     0.000 C 
BRANCH   7   8
ATOM      8  C   UNL     1      49.382 113.199   6.180  1.00  0.00     0.000 C 
BRANCH   8   9
ATOM      9  C   UNL     1      49.858 113.603   4.764  1.00  0.00     0.000 C 
BRANCH   9  10
ATOM     10  C   UNL     1      49.151 114.864   4.213  1.00  0.00     0.006 C 
BRANCH  10  11
ATOM     11  C   UNL     1      47.846 114.545   3.460  1.00  0.00     0.053 C 
BRANCH  11  12
ATOM     12  C   UNL     1      46.802 115.586   3.736  1.00  0.00     0.041 C 
ATOM     13  O   UNL     1      46.609 115.994   4.916  1.00  0.00    -0.550 OA
ATOM     14  O   UNL     1      45.935 115.978   2.727  1.00  0.00    -0.550 OA
ENDBRANCH  11  12
ENDBRANCH  10  11
ENDBRANCH   9  10
ENDBRANCH   8   9
ENDBRANCH   7   8
ENDBRANCH   6   7
ENDBRANCH   5   6
ENDBRANCH   4   5
ENDBRANCH   3   4
ENDBRANCH   2   3
ENDBRANCH   1   2
BRANCH   1  15
ATOM     15  C   UNL     1      44.962 115.507  10.202  1.00  0.00     0.000 C 
BRANCH  15  16
ATOM     16  C   UNL     1      44.111 116.765  10.422  1.00  0.00     0.000 C 
BRANCH  16  17
ATOM     17  C   UNL     1      42.999 116.925   9.366  1.00  0.00     0.000 C 
BRANCH  17  18
ATOM     18  C   UNL     1      41.670 117.502   9.896  1.00  0.00    -0.000 C 
BRANCH  18  19
ATOM     19  C   UNL     1      41.438 117.326  11.409  1.00  0.00    -0.000 C 
BRANCH  19  20
ATOM     20  C   UNL     1      40.022 117.727  11.846  1.00  0.00    -0.000 C 
BRANCH  20  21
ATOM     21  C   UNL     1      40.054 119.003  12.709  1.00  0.00    -0.000 C 
BRANCH  21  22
ATOM     22  C   UNL     1      38.955 119.007  13.784  1.00  0.00    -0.000 C 
BRANCH  22  23
ATOM     23  C   UNL     1      37.705 119.787  13.348  1.00  0.00    -0.000 C 
BRANCH  23  24
ATOM     24  C   UNL     1      36.644 119.853  14.465  1.00  0.00    -0.000 C 
BRANCH  24  25
ATOM     25  C   UNL     1      35.396 119.001  14.171  1.00  0.00    -0.003 C 
ATOM     26  C   UNL     1      35.247 118.649  12.686  1.00  0.00     0.004 C 
ENDBRANCH  24  25
ENDBRANCH  23  24
ENDBRANCH  22  23
ENDBRANCH  21  22
ENDBRANCH  20  21
ENDBRANCH  19  20
ENDBRANCH  18  19
ENDBRANCH  17  18
ENDBRANCH  16  17
ENDBRANCH  15  16
ENDBRANCH   1  15
TORSDOF 22
ENDMDL
MODEL 6
REMARK VINA RESULT:    -4.507      1.319      2.479
REMARK INTER + INTRA:         -13.588
REMARK INTER:                 -10.330
REMARK INTRA:                  -3.258
REMARK UNBOUND:                -3.285
REMARK SMILES CCCCCCCCCCCCCCCCCCCCCCCC(=O)[O-]
REMARK SMILES IDX 13 1 14 2 15 3 16 4 17 5 18 6 19 7 20 8 21 9 22 10 23 11
REMARK SMILES IDX 24 12 25 13 26 14 12 15 11 16 10 17 9 18 8 19 7 20 6 21 5 22
REMARK SMILES IDX 4 23 3 24 2 25 1 26
REMARK H PARENT
REMARK Flexibility Score: inf
ROOT
ATOM      1  C   UNL     1      42.572 117.075  10.548  1.00  0.00     0.000 C 
ENDROOT
BRANCH   1   2
ATOM      2  C   UNL     1      43.297 116.857   9.210  1.00  0.00     0.000 C 
BRANCH   2   3
ATOM      3  C   UNL     1      44.259 115.654   9.243  1.00  0.00     0.000 C 
BRANCH   3   4
ATOM      4  C   UNL     1      43.776 114.552  10.213  1.00  0.00     0.000 C 
BRANCH   4   5
ATOM      5  C   UNL     1      44.917 113.822  10.944  1.00  0.00     0.000 C 
BRANCH   5   6
ATOM      6  C   UNL     1      44.495 113.254  12.309  1.00  0.00     0.000 C 
BRANCH   6   7
ATOM      7  C   UNL     1      43.098 113.730  12.753  1.00  0.00     0.000 C 
BRANCH   7   8
ATOM      8  C   UNL     1      42.982 114.106  14.245  1.00  0.00     0.000 C 
BRANCH   8   9
ATOM      9  C   UNL     1      44.327 114.394  14.954  1.00  0.00     0.000 C 
BRANCH   9  10
ATOM     10  C   UNL     1      44.594 115.900  15.181  1.00  0.00     0.006 C 
BRANCH  10  11
ATOM     11  C   UNL     1      44.467 116.738  13.895  1.00  0.00     0.053 C 
BRANCH  11  12
ATOM     12  C   UNL     1      45.780 116.815  13.176  1.00  0.00     0.041 C 
ATOM     13  O   UNL     1      46.861 116.662  13.811  1.00  0.00    -0.550 OA
ATOM     14  O   UNL     1      45.818 117.221  11.851  1.00  0.00    -0.550 OA
ENDBRANCH  11  12
ENDBRANCH  10  11
ENDBRANCH   9  10
ENDBRANCH   8   9
ENDBRANCH   7   8
ENDBRANCH   6   7
ENDBRANCH   5   6
ENDBRANCH   4   5
ENDBRANCH   3   4
ENDBRANCH   2   3
ENDBRANCH   1   2
BRANCH   1  15
ATOM     15  C   UNL     1      41.264 117.862  10.374  1.00  0.00     0.000 C 
BRANCH  15  16
ATOM     16  C   UNL     1      40.368 117.731  11.612  1.00  0.00     0.000 C 
BRANCH  16  17
ATOM     17  C   UNL     1      40.926 116.739  12.651  1.00  0.00     0.000 C 
BRANCH  17  18
ATOM     18  C   UNL     1      40.793 117.185  14.123  1.00  0.00    -0.000 C 
BRANCH  18  19
ATOM     19  C   UNL     1      39.628 116.542  14.897  1.00  0.00    -0.000 C 
BRANCH  19  20
ATOM     20  C   UNL     1      39.126 117.418  16.054  1.00  0.00    -0.000 C 
BRANCH  20  21
ATOM     21  C   UNL     1      37.597 117.599  15.982  1.00  0.00    -0.000 C 
BRANCH  21  22
ATOM     22  C   UNL     1      37.066 117.495  14.543  1.00  0.00    -0.000 C 
BRANCH  22  23
ATOM     23  C   UNL     1      36.019 118.574  14.220  1.00  0.00    -0.000 C 
BRANCH  23  24
ATOM     24  C   UNL     1      36.578 119.662  13.282  1.00  0.00    -0.000 C 
BRANCH  24  25
ATOM     25  C   UNL     1      37.462 120.694  14.006  1.00  0.00    -0.003 C 
ATOM     26  C   UNL     1      36.791 121.291  15.249  1.00  0.00     0.004 C 
ENDBRANCH  24  25
ENDBRANCH  23  24
ENDBRANCH  22  23
ENDBRANCH  21  22
ENDBRANCH  20  21
ENDBRANCH  19  20
ENDBRANCH  18  19
ENDBRANCH  17  18
ENDBRANCH  16  17
ENDBRANCH  15  16
ENDBRANCH   1  15
TORSDOF 22
ENDMDL
MODEL 7
REMARK VINA RESULT:    -4.505      3.456      8.582
REMARK INTER + INTRA:         -13.584
REMARK INTER:                 -10.582
REMARK INTRA:                  -3.002
REMARK UNBOUND:                -3.285
REMARK SMILES CCCCCCCCCCCCCCCCCCCCCCCC(=O)[O-]
REMARK SMILES IDX 13 1 14 2 15 3 16 4 17 5 18 6 19 7 20 8 21 9 22 10 23 11
REMARK SMILES IDX 24 12 25 13 26 14 12 15 11 16 10 17 9 18 8 19 7 20 6 21 5 22
REMARK SMILES IDX 4 23 3 24 2 25 1 26
REMARK H PARENT
REMARK Flexibility Score: inf
ROOT
ATOM      1  C   UNL     1      37.222 117.305  12.964  1.00  0.00     0.000 C 
ENDROOT
BRANCH   1   2
ATOM      2  C   UNL     1      36.088 118.332  13.112  1.00  0.00     0.000 C 
BRANCH   2   3
ATOM      3  C   UNL     1      36.607 119.756  13.388  1.00  0.00     0.000 C 
BRANCH   3   4
ATOM      4  C   UNL     1      36.466 120.145  14.877  1.00  0.00     0.000 C 
BRANCH   4   5
ATOM      5  C   UNL     1      35.591 119.175  15.694  1.00  0.00     0.000 C 
BRANCH   5   6
ATOM      6  C   UNL     1      36.313 118.597  16.921  1.00  0.00     0.000 C 
BRANCH   6   7
ATOM      7  C   UNL     1      37.779 118.213  16.633  1.00  0.00     0.000 C 
BRANCH   7   8
ATOM      8  C   UNL     1      38.067 116.697  16.635  1.00  0.00     0.000 C 
BRANCH   8   9
ATOM      9  C   UNL     1      36.811 115.793  16.608  1.00  0.00     0.000 C 
BRANCH   9  10
ATOM     10  C   UNL     1      36.869 114.691  15.525  1.00  0.00     0.006 C 
BRANCH  10  11
ATOM     11  C   UNL     1      37.250 113.309  16.088  1.00  0.00     0.053 C 
BRANCH  11  12
ATOM     12  C   UNL     1      36.050 112.413  16.161  1.00  0.00     0.041 C 
ATOM     13  O   UNL     1      36.187 111.160  16.077  1.00  0.00    -0.550 OA
ATOM     14  O   UNL     1      34.777 112.963  16.151  1.00  0.00    -0.550 OA
ENDBRANCH  11  12
ENDBRANCH  10  11
ENDBRANCH   9  10
ENDBRANCH   8   9
ENDBRANCH   7   8
ENDBRANCH   6   7
ENDBRANCH   5   6
ENDBRANCH   4   5
ENDBRANCH   3   4
ENDBRANCH   2   3
ENDBRANCH   1   2
BRANCH   1  15
ATOM     15  C   UNL     1      38.607 117.969  12.968  1.00  0.00     0.000 C 
BRANCH  15  16
ATOM     16  C   UNL     1      39.696 116.983  13.412  1.00  0.00     0.000 C 
BRANCH  16  17
ATOM     17  C   UNL     1      40.959 117.053  12.532  1.00  0.00     0.000 C 
BRANCH  17  18
ATOM     18  C   UNL     1      40.708 117.409  11.051  1.00  0.00    -0.000 C 
BRANCH  18  19
ATOM     19  C   UNL     1      41.929 117.967  10.297  1.00  0.00    -0.000 C 
BRANCH  19  20
ATOM     20  C   UNL     1      42.127 117.317   8.920  1.00  0.00    -0.000 C 
BRANCH  20  21
ATOM     21  C   UNL     1      43.475 116.573   8.852  1.00  0.00    -0.000 C 
BRANCH  21  22
ATOM     22  C   UNL     1      43.466 115.275   9.677  1.00  0.00    -0.000 C 
BRANCH  22  23
ATOM     23  C   UNL     1      44.285 115.393  10.972  1.00  0.00    -0.000 C 
BRANCH  23  24
ATOM     24  C   UNL     1      45.192 116.639  10.974  1.00  0.00    -0.000 C 
BRANCH  24  25
ATOM     25  C   UNL     1      45.542 117.136  12.388  1.00  0.00    -0.003 C 
ATOM     26  C   UNL     1      44.723 116.445  13.485  1.00  0.00     0.004 C 
ENDBRANCH  24  25
ENDBRANCH  23  24
ENDBRANCH  22  23
ENDBRANCH  21  22
ENDBRANCH  20  21
ENDBRANCH  19  20
ENDBRANCH  18  19
ENDBRANCH  17  18
ENDBRANCH  16  17
ENDBRANCH  15  16
ENDBRANCH   1  15
TORSDOF 22
ENDMDL
MODEL 8
REMARK VINA RESULT:    -4.451      1.734      3.276
REMARK INTER + INTRA:         -13.461
REMARK INTER:                 -10.592
REMARK INTRA:                  -2.870
REMARK UNBOUND:                -3.285
REMARK SMILES CCCCCCCCCCCCCCCCCCCCCCCC(=O)[O-]
REMARK SMILES IDX 13 1 14 2 15 3 16 4 17 5 18 6 19 7 20 8 21 9 22 10 23 11
REMARK SMILES IDX 24 12 25 13 26 14 12 15 11 16 10 17 9 18 8 19 7 20 6 21 5 22
REMARK SMILES IDX 4 23 3 24 2 25 1 26
REMARK H PARENT
REMARK Flexibility Score: inf
ROOT
ATOM      1  C   UNL     1      42.818 117.141   9.086  1.00  0.00     0.000 C 
ENDROOT
BRANCH   1   2
ATOM      2  C   UNL     1      44.081 116.288   8.883  1.00  0.00     0.000 C 
BRANCH   2   3
ATOM      3  C   UNL     1      43.864 114.807   9.246  1.00  0.00     0.000 C 
BRANCH   3   4
ATOM      4  C   UNL     1      45.103 114.192   9.935  1.00  0.00     0.000 C 
BRANCH   4   5
ATOM      5  C   UNL     1      44.776 113.414  11.223  1.00  0.00     0.000 C 
BRANCH   5   6
ATOM      6  C   UNL     1      43.752 114.130  12.118  1.00  0.00     0.000 C 
BRANCH   6   7
ATOM      7  C   UNL     1      44.406 114.912  13.276  1.00  0.00     0.000 C 
BRANCH   7   8
ATOM      8  C   UNL     1      44.925 116.316  12.902  1.00  0.00     0.000 C 
BRANCH   8   9
ATOM      9  C   UNL     1      46.027 116.874  13.835  1.00  0.00     0.000 C 
BRANCH   9  10
ATOM     10  C   UNL     1      46.516 115.855  14.889  1.00  0.00     0.006 C 
BRANCH  10  11
ATOM     11  C   UNL     1      47.888 115.241  14.547  1.00  0.00     0.053 C 
BRANCH  11  12
ATOM     12  C   UNL     1      47.879 113.758  14.768  1.00  0.00     0.041 C 
ATOM     13  O   UNL     1      48.520 113.257  15.734  1.00  0.00    -0.550 OA
ATOM     14  O   UNL     1      47.310 112.923  13.818  1.00  0.00    -0.550 OA
ENDBRANCH  11  12
ENDBRANCH  10  11
ENDBRANCH   9  10
ENDBRANCH   8   9
ENDBRANCH   7   8
ENDBRANCH   6   7
ENDBRANCH   5   6
ENDBRANCH   4   5
ENDBRANCH   3   4
ENDBRANCH   2   3
ENDBRANCH   1   2
BRANCH   1  15
ATOM     15  C   UNL     1      42.342 117.130  10.546  1.00  0.00     0.000 C 
BRANCH  15  16
ATOM     16  C   UNL     1      41.015 117.882  10.705  1.00  0.00     0.000 C 
BRANCH  16  17
ATOM     17  C   UNL     1      40.322 117.593  12.052  1.00  0.00     0.000 C 
BRANCH  17  18
ATOM     18  C   UNL     1      41.107 116.671  13.008  1.00  0.00    -0.000 C 
BRANCH  18  19
ATOM     19  C   UNL     1      40.447 116.439  14.380  1.00  0.00    -0.000 C 
BRANCH  19  20
ATOM     20  C   UNL     1      39.295 117.414  14.659  1.00  0.00    -0.000 C 
BRANCH  20  21
ATOM     21  C   UNL     1      38.149 116.709  15.410  1.00  0.00    -0.000 C 
BRANCH  21  22
ATOM     22  C   UNL     1      36.771 117.031  14.806  1.00  0.00    -0.000 C 
BRANCH  22  23
ATOM     23  C   UNL     1      36.802 117.107  13.272  1.00  0.00    -0.000 C 
BRANCH  23  24
ATOM     24  C   UNL     1      36.270 118.455  12.746  1.00  0.00    -0.000 C 
BRANCH  24  25
ATOM     25  C   UNL     1      35.924 119.451  13.868  1.00  0.00    -0.003 C 
ATOM     26  C   UNL     1      36.963 120.569  14.019  1.00  0.00     0.004 C 
ENDBRANCH  24  25
ENDBRANCH  23  24
ENDBRANCH  22  23
ENDBRANCH  21  22
ENDBRANCH  20  21
ENDBRANCH  19  20
ENDBRANCH  18  19
ENDBRANCH  17  18
ENDBRANCH  16  17
ENDBRANCH  15  16
ENDBRANCH   1  15
TORSDOF 22
ENDMDL
MODEL 9
REMARK VINA RESULT:    -4.437      2.578      4.693
REMARK INTER + INTRA:         -13.429
REMARK INTER:                  -9.926
REMARK INTRA:                  -3.503
REMARK UNBOUND:                -3.285
REMARK SMILES CCCCCCCCCCCCCCCCCCCCCCCC(=O)[O-]
REMARK SMILES IDX 13 1 14 2 15 3 16 4 17 5 18 6 19 7 20 8 21 9 22 10 23 11
REMARK SMILES IDX 24 12 25 13 26 14 12 15 11 16 10 17 9 18 8 19 7 20 6 21 5 22
REMARK SMILES IDX 4 23 3 24 2 25 1 26
REMARK H PARENT
REMARK Flexibility Score: inf
ROOT
ATOM      1  C   UNL     1      39.417 117.454  12.117  1.00  0.00     0.000 C 
ENDROOT
BRANCH   1   2
ATOM      2  C   UNL     1      40.720 116.820  12.631  1.00  0.00     0.000 C 
BRANCH   2   3
ATOM      3  C   UNL     1      40.766 116.716  14.167  1.00  0.00     0.000 C 
BRANCH   3   4
ATOM      4  C   UNL     1      41.773 115.645  14.645  1.00  0.00     0.000 C 
BRANCH   4   5
ATOM      5  C   UNL     1      41.929 114.460  13.673  1.00  0.00     0.000 C 
BRANCH   5   6
ATOM      6  C   UNL     1      43.373 113.941  13.580  1.00  0.00     0.000 C 
BRANCH   6   7
ATOM      7  C   UNL     1      44.425 115.065  13.672  1.00  0.00     0.000 C 
BRANCH   7   8
ATOM      8  C   UNL     1      45.058 115.477  12.327  1.00  0.00     0.000 C 
BRANCH   8   9
ATOM      9  C   UNL     1      44.334 116.629  11.589  1.00  0.00     0.000 C 
BRANCH   9  10
ATOM     10  C   UNL     1      43.442 116.147  10.421  1.00  0.00     0.006 C 
BRANCH  10  11
ATOM     11  C   UNL     1      43.829 114.750   9.900  1.00  0.00     0.053 C 
BRANCH  11  12
ATOM     12  C   UNL     1      44.571 114.852   8.601  1.00  0.00     0.041 C 
ATOM     13  O   UNL     1      45.062 113.818   8.067  1.00  0.00    -0.550 OA
ATOM     14  O   UNL     1      44.865 116.100   8.071  1.00  0.00    -0.550 OA
ENDBRANCH  11  12
ENDBRANCH  10  11
ENDBRANCH   9  10
ENDBRANCH   8   9
ENDBRANCH   7   8
ENDBRANCH   6   7
ENDBRANCH   5   6
ENDBRANCH   4   5
ENDBRANCH   3   4
ENDBRANCH   2   3
ENDBRANCH   1   2
BRANCH   1  15
ATOM     15  C   UNL     1      38.373 117.613  13.232  1.00  0.00     0.000 C 
BRANCH  15  16
ATOM     16  C   UNL     1      36.988 117.142  12.769  1.00  0.00     0.000 C 
BRANCH  16  17
ATOM     17  C   UNL     1      35.999 118.307  12.564  1.00  0.00     0.000 C 
BRANCH  17  18
ATOM     18  C   UNL     1      35.542 119.013  13.858  1.00  0.00    -0.000 C 
BRANCH  18  19
ATOM     19  C   UNL     1      36.338 120.279  14.227  1.00  0.00    -0.000 C 
BRANCH  19  20
ATOM     20  C   UNL     1      36.490 120.465  15.743  1.00  0.00    -0.000 C 
BRANCH  20  21
ATOM     21  C   UNL     1      36.296 119.128  16.484  1.00  0.00    -0.000 C 
BRANCH  21  22
ATOM     22  C   UNL     1      37.601 118.618  17.119  1.00  0.00    -0.000 C 
BRANCH  22  23
ATOM     23  C   UNL     1      37.929 117.172  16.714  1.00  0.00    -0.000 C 
BRANCH  23  24
ATOM     24  C   UNL     1      36.658 116.330  16.489  1.00  0.00    -0.000 C 
BRANCH  24  25
ATOM     25  C   UNL     1      36.923 115.019  15.727  1.00  0.00    -0.003 C 
ATOM     26  C   UNL     1      38.289 114.403  16.052  1.00  0.00     0.004 C 
ENDBRANCH  24  25
ENDBRANCH  23  24
ENDBRANCH  22  23
ENDBRANCH  21  22
ENDBRANCH  20  21
ENDBRANCH  19  20
ENDBRANCH  18  19
ENDBRANCH  17  18
ENDBRANCH  16  17
ENDBRANCH  15  16
ENDBRANCH   1  15
TORSDOF 22
ENDMDL
