MODEL 1
REMARK VINA RESULT:    -6.407      0.000      0.000
REMARK INTER + INTRA:          -8.865
REMARK INTER:                  -8.654
REMARK INTRA:                  -0.211
REMARK UNBOUND:                -0.211
REMARK SMILES CCCCCCCC(=O)[O-]
REMARK SMILES IDX 5 1 6 2 7 3 8 4 9 5 10 6 4 7 3 8 2 9 1 10
REMARK H PARENT
REMARK Flexibility Score: inf
ROOT
ATOM      1  C   UNL     1       6.833  -5.753  21.026  1.00  0.00     0.000 C 
ENDROOT
BRANCH   1   2
ATOM      2  C   UNL     1       7.765  -6.793  21.666  1.00  0.00     0.006 C 
BRANCH   2   3
ATOM      3  C   UNL     1       7.372  -8.230  21.300  1.00  0.00     0.053 C 
BRANCH   3   4
ATOM      4  C   UNL     1       6.930  -9.008  22.500  1.00  0.00     0.041 C 
ATOM      5  O   UNL     1       6.255 -10.062  22.360  1.00  0.00    -0.550 OA
ATOM      6  O   UNL     1       7.234  -8.551  23.776  1.00  0.00    -0.550 OA
ENDBRANCH   3   4
ENDBRANCH   2   3
ENDBRANCH   1   2
BRANCH   1   7
ATOM      7  C   UNL     1       7.587  -4.448  20.730  1.00  0.00     0.000 C 
BRANCH   7   8
ATOM      8  C   UNL     1       6.644  -3.256  20.508  1.00  0.00    -0.000 C 
BRANCH   8   9
ATOM      9  C   UNL     1       6.415  -2.436  21.787  1.00  0.00    -0.003 C 
ATOM     10  C   UNL     1       5.075  -2.785  22.430  1.00  0.00     0.004 C 
ENDBRANCH   8   9
ENDBRANCH   7   8
ENDBRANCH   1   7
TORSDOF 6
ENDMDL
MODEL 2
REMARK VINA RESULT:    -6.212      3.527      5.597
REMARK INTER + INTRA:          -8.601
REMARK INTER:                  -8.362
REMARK INTRA:                  -0.239
REMARK UNBOUND:                -0.211
REMARK SMILES CCCCCCCC(=O)[O-]
REMARK SMILES IDX 5 1 6 2 7 3 8 4 9 5 10 6 4 7 3 8 2 9 1 10
REMARK H PARENT
REMARK Flexibility Score: inf
ROOT
ATOM      1  C   UNL     1       7.422  -4.184  20.431  1.00  0.00     0.000 C 
ENDROOT
BRANCH   1   2
ATOM      2  C   UNL     1       6.784  -2.854  20.863  1.00  0.00     0.006 C 
BRANCH   2   3
ATOM      3  C   UNL     1       5.683  -3.052  21.913  1.00  0.00     0.053 C 
BRANCH   3   4
ATOM      4  C   UNL     1       4.362  -2.532  21.436  1.00  0.00     0.041 C 
ATOM      5  O   UNL     1       3.591  -1.933  22.233  1.00  0.00    -0.550 OA
ATOM      6  O   UNL     1       3.967  -2.738  20.121  1.00  0.00    -0.550 OA
ENDBRANCH   3   4
ENDBRANCH   2   3
ENDBRANCH   1   2
BRANCH   1   7
ATOM      7  C   UNL     1       6.740  -5.371  21.129  1.00  0.00     0.000 C 
BRANCH   7   8
ATOM      8  C   UNL     1       7.737  -6.459  21.557  1.00  0.00    -0.000 C 
BRANCH   8   9
ATOM      9  C   UNL     1       7.259  -7.874  21.200  1.00  0.00    -0.003 C 
ATOM     10  C   UNL     1       6.836  -8.642  22.449  1.00  0.00     0.004 C 
ENDBRANCH   8   9
ENDBRANCH   7   8
ENDBRANCH   1   7
TORSDOF 6
ENDMDL
MODEL 3
REMARK VINA RESULT:    -6.177      3.183      5.623
REMARK INTER + INTRA:          -8.554
REMARK INTER:                  -8.355
REMARK INTRA:                  -0.199
REMARK UNBOUND:                -0.211
REMARK SMILES CCCCCCCC(=O)[O-]
REMARK SMILES IDX 5 1 6 2 7 3 8 4 9 5 10 6 4 7 3 8 2 9 1 10
REMARK H PARENT
REMARK Flexibility Score: inf
ROOT
ATOM      1  C   UNL     1       6.964  -5.902  20.885  1.00  0.00     0.000 C 
ENDROOT
BRANCH   1   2
ATOM      2  C   UNL     1       7.638  -4.545  21.147  1.00  0.00     0.006 C 
BRANCH   2   3
ATOM      3  C   UNL     1       6.932  -3.396  20.415  1.00  0.00     0.053 C 
BRANCH   3   4
ATOM      4  C   UNL     1       6.380  -2.385  21.372  1.00  0.00     0.041 C 
ATOM      5  O   UNL     1       6.357  -1.164  21.062  1.00  0.00    -0.550 OA
ATOM      6  O   UNL     1       5.922  -2.786  22.620  1.00  0.00    -0.550 OA
ENDBRANCH   3   4
ENDBRANCH   2   3
ENDBRANCH   1   2
BRANCH   1   7
ATOM      7  C   UNL     1       7.643  -7.016  21.696  1.00  0.00     0.000 C 
BRANCH   7   8
ATOM      8  C   UNL     1       7.278  -8.421  21.192  1.00  0.00    -0.000 C 
BRANCH   8   9
ATOM      9  C   UNL     1       6.905  -9.380  22.332  1.00  0.00    -0.003 C 
ATOM     10  C   UNL     1       6.993  -8.682  23.687  1.00  0.00     0.004 C 
ENDBRANCH   8   9
ENDBRANCH   7   8
ENDBRANCH   1   7
TORSDOF 6
ENDMDL
MODEL 4
REMARK VINA RESULT:    -6.150      3.813      5.777
REMARK INTER + INTRA:          -8.518
REMARK INTER:                  -8.269
REMARK INTRA:                  -0.248
REMARK UNBOUND:                -0.211
REMARK SMILES CCCCCCCC(=O)[O-]
REMARK SMILES IDX 5 1 6 2 7 3 8 4 9 5 10 6 4 7 3 8 2 9 1 10
REMARK H PARENT
REMARK Flexibility Score: inf
ROOT
ATOM      1  C   UNL     1       6.464  -3.027  21.836  1.00  0.00     0.000 C 
ENDROOT
BRANCH   1   2
ATOM      2  C   UNL     1       6.156  -1.563  21.483  1.00  0.00     0.006 C 
BRANCH   2   3
ATOM      3  C   UNL     1       5.372  -1.435  20.171  1.00  0.00     0.053 C 
BRANCH   3   4
ATOM      4  C   UNL     1       4.048  -2.130  20.245  1.00  0.00     0.041 C 
ATOM      5  O   UNL     1       3.772  -3.060  19.440  1.00  0.00    -0.550 OA
ATOM      6  O   UNL     1       3.104  -1.730  21.182  1.00  0.00    -0.550 OA
ENDBRANCH   3   4
ENDBRANCH   2   3
ENDBRANCH   1   2
BRANCH   1   7
ATOM      7  C   UNL     1       7.260  -3.706  20.711  1.00  0.00     0.000 C 
BRANCH   7   8
ATOM      8  C   UNL     1       7.842  -5.064  21.134  1.00  0.00    -0.000 C 
BRANCH   8   9
ATOM      9  C   UNL     1       6.797  -6.189  21.108  1.00  0.00    -0.003 C 
ATOM     10  C   UNL     1       7.422  -7.529  21.485  1.00  0.00     0.004 C 
ENDBRANCH   8   9
ENDBRANCH   7   8
ENDBRANCH   1   7
TORSDOF 6
ENDMDL
MODEL 5
REMARK VINA RESULT:    -5.757      1.102      1.666
REMARK INTER + INTRA:          -7.987
REMARK INTER:                  -7.615
REMARK INTRA:                  -0.371
REMARK UNBOUND:                -0.211
REMARK SMILES CCCCCCCC(=O)[O-]
REMARK SMILES IDX 5 1 6 2 7 3 8 4 9 5 10 6 4 7 3 8 2 9 1 10
REMARK H PARENT
REMARK Flexibility Score: inf
ROOT
ATOM      1  C   UNL     1       7.920  -4.449  20.359  1.00  0.00     0.000 C 
ENDROOT
BRANCH   1   2
ATOM      2  C   UNL     1       7.948  -5.527  21.454  1.00  0.00     0.006 C 
BRANCH   2   3
ATOM      3  C   UNL     1       6.751  -6.481  21.361  1.00  0.00     0.053 C 
BRANCH   3   4
ATOM      4  C   UNL     1       7.134  -7.888  21.704  1.00  0.00     0.041 C 
ATOM      5  O   UNL     1       7.061  -8.293  22.894  1.00  0.00    -0.550 OA
ATOM      6  O   UNL     1       7.604  -8.741  20.714  1.00  0.00    -0.550 OA
ENDBRANCH   3   4
ENDBRANCH   2   3
ENDBRANCH   1   2
BRANCH   1   7
ATOM      7  C   UNL     1       6.555  -3.743  20.320  1.00  0.00     0.000 C 
BRANCH   7   8
ATOM      8  C   UNL     1       6.663  -2.232  20.576  1.00  0.00    -0.000 C 
BRANCH   8   9
ATOM      9  C   UNL     1       5.744  -1.758  21.712  1.00  0.00    -0.003 C 
ATOM     10  C   UNL     1       4.985  -2.929  22.329  1.00  0.00     0.004 C 
ENDBRANCH   8   9
ENDBRANCH   7   8
ENDBRANCH   1   7
TORSDOF 6
ENDMDL
MODEL 6
REMARK VINA RESULT:    -5.730      5.093      6.892
REMARK INTER + INTRA:          -7.950
REMARK INTER:                  -7.560
REMARK INTRA:                  -0.390
REMARK UNBOUND:                -0.211
REMARK SMILES CCCCCCCC(=O)[O-]
REMARK SMILES IDX 5 1 6 2 7 3 8 4 9 5 10 6 4 7 3 8 2 9 1 10
REMARK H PARENT
REMARK Flexibility Score: inf
ROOT
ATOM      1  C   UNL     1       4.669  -2.317  22.015  1.00  0.00     0.000 C 
ENDROOT
BRANCH   1   2
ATOM      2  C   UNL     1       4.136  -2.492  20.584  1.00  0.00     0.006 C 
BRANCH   2   3
ATOM      3  C   UNL     1       2.978  -1.535  20.274  1.00  0.00     0.053 C 
BRANCH   3   4
ATOM      4  C   UNL     1       3.439  -0.339  19.499  1.00  0.00     0.041 C 
ATOM      5  O   UNL     1       4.670  -0.116  19.349  1.00  0.00    -0.550 OA
ATOM      6  O   UNL     1       2.509   0.547  18.970  1.00  0.00    -0.550 OA
ENDBRANCH   3   4
ENDBRANCH   2   3
ENDBRANCH   1   2
BRANCH   1   7
ATOM      7  C   UNL     1       6.103  -2.854  22.135  1.00  0.00     0.000 C 
BRANCH   7   8
ATOM      8  C   UNL     1       6.871  -2.795  20.805  1.00  0.00    -0.000 C 
BRANCH   8   9
ATOM      9  C   UNL     1       7.586  -4.114  20.476  1.00  0.00    -0.003 C 
ATOM     10  C   UNL     1       6.757  -5.315  20.923  1.00  0.00     0.004 C 
ENDBRANCH   8   9
ENDBRANCH   7   8
ENDBRANCH   1   7
TORSDOF 6
ENDMDL
MODEL 7
REMARK VINA RESULT:    -5.690      2.991      4.274
REMARK INTER + INTRA:          -7.896
REMARK INTER:                  -7.459
REMARK INTRA:                  -0.437
REMARK UNBOUND:                -0.211
REMARK SMILES CCCCCCCC(=O)[O-]
REMARK SMILES IDX 5 1 6 2 7 3 8 4 9 5 10 6 4 7 3 8 2 9 1 10
REMARK H PARENT
REMARK Flexibility Score: inf
ROOT
ATOM      1  C   UNL     1       6.128  -1.510  21.443  1.00  0.00     0.000 C 
ENDROOT
BRANCH   1   2
ATOM      2  C   UNL     1       6.118  -2.852  22.191  1.00  0.00     0.006 C 
BRANCH   2   3
ATOM      3  C   UNL     1       5.712  -4.020  21.283  1.00  0.00     0.053 C 
BRANCH   3   4
ATOM      4  C   UNL     1       6.853  -4.961  21.045  1.00  0.00     0.041 C 
ATOM      5  O   UNL     1       7.963  -4.524  20.639  1.00  0.00    -0.550 OA
ATOM      6  O   UNL     1       6.681  -6.325  21.240  1.00  0.00    -0.550 OA
ENDBRANCH   3   4
ENDBRANCH   2   3
ENDBRANCH   1   2
BRANCH   1   7
ATOM      7  C   UNL     1       5.444  -1.641  20.073  1.00  0.00     0.000 C 
BRANCH   7   8
ATOM      8  C   UNL     1       4.745  -0.345  19.634  1.00  0.00    -0.000 C 
BRANCH   8   9
ATOM      9  C   UNL     1       3.272  -0.566  19.260  1.00  0.00    -0.003 C 
ATOM     10  C   UNL     1       2.724  -1.832  19.912  1.00  0.00     0.004 C 
ENDBRANCH   8   9
ENDBRANCH   7   8
ENDBRANCH   1   7
TORSDOF 6
ENDMDL
MODEL 8
REMARK VINA RESULT:    -5.592      3.311      4.820
REMARK INTER + INTRA:          -7.764
REMARK INTER:                  -7.313
REMARK INTRA:                  -0.451
REMARK UNBOUND:                -0.211
REMARK SMILES CCCCCCCC(=O)[O-]
REMARK SMILES IDX 5 1 6 2 7 3 8 4 9 5 10 6 4 7 3 8 2 9 1 10
REMARK H PARENT
REMARK Flexibility Score: inf
ROOT
ATOM      1  C   UNL     1       4.635  -2.458  22.337  1.00  0.00     0.000 C 
ENDROOT
BRANCH   1   2
ATOM      2  C   UNL     1       5.865  -2.153  21.467  1.00  0.00     0.006 C 
BRANCH   2   3
ATOM      3  C   UNL     1       6.912  -3.272  21.530  1.00  0.00     0.053 C 
BRANCH   3   4
ATOM      4  C   UNL     1       6.605  -4.375  20.564  1.00  0.00     0.041 C 
ATOM      5  O   UNL     1       6.242  -4.106  19.388  1.00  0.00    -0.550 OA
ATOM      6  O   UNL     1       6.686  -5.700  20.973  1.00  0.00    -0.550 OA
ENDBRANCH   3   4
ENDBRANCH   2   3
ENDBRANCH   1   2
BRANCH   1   7
ATOM      7  C   UNL     1       3.351  -1.939  21.672  1.00  0.00     0.000 C 
BRANCH   7   8
ATOM      8  C   UNL     1       3.343  -2.157  20.151  1.00  0.00    -0.000 C 
BRANCH   8   9
ATOM      9  C   UNL     1       2.788  -0.948  19.383  1.00  0.00    -0.003 C 
ATOM     10  C   UNL     1       3.865   0.113  19.177  1.00  0.00     0.004 C 
ENDBRANCH   8   9
ENDBRANCH   7   8
ENDBRANCH   1   7
TORSDOF 6
ENDMDL
MODEL 9
REMARK VINA RESULT:    -5.315      5.365      6.716
REMARK INTER + INTRA:          -7.390
REMARK INTER:                  -7.199
REMARK INTRA:                  -0.191
REMARK UNBOUND:                -0.211
REMARK SMILES CCCCCCCC(=O)[O-]
REMARK SMILES IDX 5 1 6 2 7 3 8 4 9 5 10 6 4 7 3 8 2 9 1 10
REMARK H PARENT
REMARK Flexibility Score: inf
ROOT
ATOM      1  C   UNL     1       2.741  -1.863  19.668  1.00  0.00     0.000 C 
ENDROOT
BRANCH   1   2
ATOM      2  C   UNL     1       3.926  -2.839  19.608  1.00  0.00     0.006 C 
BRANCH   2   3
ATOM      3  C   UNL     1       4.673  -2.929  20.945  1.00  0.00     0.053 C 
BRANCH   3   4
ATOM      4  C   UNL     1       6.041  -2.326  20.859  1.00  0.00     0.041 C 
ATOM      5  O   UNL     1       7.019  -3.022  20.475  1.00  0.00    -0.550 OA
ATOM      6  O   UNL     1       6.243  -1.004  21.235  1.00  0.00    -0.550 OA
ENDBRANCH   3   4
ENDBRANCH   2   3
ENDBRANCH   1   2
BRANCH   1   7
ATOM      7  C   UNL     1       3.220  -0.410  19.530  1.00  0.00     0.000 C 
BRANCH   7   8
ATOM      8  C   UNL     1       2.679   0.274  18.265  1.00  0.00    -0.000 C 
BRANCH   8   9
ATOM      9  C   UNL     1       1.345   0.994  18.506  1.00  0.00    -0.003 C 
ATOM     10  C   UNL     1       1.262   2.283  17.694  1.00  0.00     0.004 C 
ENDBRANCH   8   9
ENDBRANCH   7   8
ENDBRANCH   1   7
TORSDOF 6
ENDMDL
