MODEL 1
REMARK VINA RESULT:     0.000      0.000      0.000
REMARK INTER + INTRA:          -0.251
REMARK INTER:                   0.000
REMARK INTRA:                  -0.251
REMARK UNBOUND:                -0.251
REMARK SMILES CCCCCC=O
REMARK SMILES IDX 4 1 3 2 2 3 1 4 5 5 6 6 7 7
REMARK H PARENT
REMARK Flexibility Score: inf
ROOT
ATOM      1  C   UNL     1       0.773   1.208  -5.164  1.00  0.00     0.008 C 
ENDROOT
BRANCH   1   2
ATOM      2  C   UNL     1       2.037   0.480  -4.666  1.00  0.00     0.000 C 
BRANCH   2   3
ATOM      3  C   UNL     1       3.295   0.871  -5.455  1.00  0.00    -0.003 C 
ATOM      4  C   UNL     1       4.104   1.928  -4.710  1.00  0.00     0.004 C 
ENDBRANCH   2   3
ENDBRANCH   1   2
BRANCH   1   5
ATOM      5  C   UNL     1       0.336   2.386  -4.278  1.00  0.00     0.072 C 
BRANCH   5   6
ATOM      6  C   UNL     1       0.756   3.710  -4.846  1.00  0.00     0.224 C 
ATOM      7  O   UNL     1       1.247   3.779  -5.961  1.00  0.00    -0.303 OA
ENDBRANCH   5   6
ENDBRANCH   1   5
TORSDOF 4
ENDMDL
MODEL 2
REMARK VINA RESULT:     0.000      7.303      8.648
REMARK INTER + INTRA:          -0.251
REMARK INTER:                   0.000
REMARK INTRA:                  -0.251
REMARK UNBOUND:                -0.251
REMARK SMILES CCCCCC=O
REMARK SMILES IDX 4 1 3 2 2 3 1 4 5 5 6 6 7 7
REMARK H PARENT
REMARK Flexibility Score: inf
ROOT
ATOM      1  C   UNL     1       5.546   0.022 -12.014  1.00  0.00     0.008 C 
ENDROOT
BRANCH   1   2
ATOM      2  C   UNL     1       4.526   0.161 -10.868  1.00  0.00     0.000 C 
BRANCH   2   3
ATOM      3  C   UNL     1       4.933  -0.627  -9.614  1.00  0.00    -0.003 C 
ATOM      4  C   UNL     1       4.209  -1.969  -9.552  1.00  0.00     0.004 C 
ENDBRANCH   2   3
ENDBRANCH   1   2
BRANCH   1   5
ATOM      5  C   UNL     1       5.119  -0.956 -13.121  1.00  0.00     0.072 C 
BRANCH   5   6
ATOM      6  C   UNL     1       5.788  -2.292 -12.988  1.00  0.00     0.224 C 
ATOM      7  O   UNL     1       6.674  -2.463 -12.165  1.00  0.00    -0.303 OA
ENDBRANCH   5   6
ENDBRANCH   1   5
TORSDOF 4
ENDMDL
MODEL 3
REMARK VINA RESULT:     0.000      8.739      9.498
REMARK INTER + INTRA:          -0.251
REMARK INTER:                   0.000
REMARK INTRA:                  -0.251
REMARK UNBOUND:                -0.251
REMARK SMILES CCCCCC=O
REMARK SMILES IDX 4 1 3 2 2 3 1 4 5 5 6 6 7 7
REMARK H PARENT
REMARK Flexibility Score: inf
ROOT
ATOM      1  C   UNL     1       0.218  -1.942 -13.339  1.00  0.00     0.008 C 
ENDROOT
BRANCH   1   2
ATOM      2  C   UNL     1       0.220  -0.890 -12.213  1.00  0.00     0.000 C 
BRANCH   2   3
ATOM      3  C   UNL     1       0.344   0.546 -12.744  1.00  0.00    -0.003 C 
ATOM      4  C   UNL     1       1.784   1.041 -12.654  1.00  0.00     0.004 C 
ENDBRANCH   2   3
ENDBRANCH   1   2
BRANCH   1   5
ATOM      5  C   UNL     1       1.558  -2.674 -13.517  1.00  0.00     0.072 C 
BRANCH   5   6
ATOM      6  C   UNL     1       2.357  -2.127 -14.664  1.00  0.00     0.224 C 
ATOM      7  O   UNL     1       1.870  -1.302 -15.421  1.00  0.00    -0.303 OA
ENDBRANCH   5   6
ENDBRANCH   1   5
TORSDOF 4
ENDMDL
MODEL 4
REMARK VINA RESULT:     0.000     10.934     11.764
REMARK INTER + INTRA:          -0.251
REMARK INTER:                   0.000
REMARK INTRA:                  -0.251
REMARK UNBOUND:                -0.251
REMARK SMILES CCCCCC=O
REMARK SMILES IDX 4 1 3 2 2 3 1 4 5 5 6 6 7 7
REMARK H PARENT
REMARK Flexibility Score: inf
ROOT
ATOM      1  C   UNL     1       3.258  -3.866 -15.690  1.00  0.00     0.008 C 
ENDROOT
BRANCH   1   2
ATOM      2  C   UNL     1       4.761  -3.600 -15.898  1.00  0.00     0.000 C 
BRANCH   2   3
ATOM      3  C   UNL     1       5.029  -2.433 -16.859  1.00  0.00    -0.003 C 
ATOM      4  C   UNL     1       5.322  -1.147 -16.092  1.00  0.00     0.004 C 
ENDBRANCH   2   3
ENDBRANCH   1   2
BRANCH   1   5
ATOM      5  C   UNL     1       2.702  -3.324 -14.363  1.00  0.00     0.072 C 
BRANCH   5   6
ATOM      6  C   UNL     1       1.971  -2.026 -14.542  1.00  0.00     0.224 C 
ATOM      7  O   UNL     1       1.750  -1.587 -15.659  1.00  0.00    -0.303 OA
ENDBRANCH   5   6
ENDBRANCH   1   5
TORSDOF 4
ENDMDL
MODEL 5
REMARK VINA RESULT:     0.000     12.277     13.472
REMARK INTER + INTRA:          -0.251
REMARK INTER:                   0.000
REMARK INTRA:                  -0.251
REMARK UNBOUND:                -0.251
REMARK SMILES CCCCCC=O
REMARK SMILES IDX 4 1 3 2 2 3 1 4 5 5 6 6 7 7
REMARK H PARENT
REMARK Flexibility Score: inf
ROOT
ATOM      1  C   UNL     1       5.933  -9.772 -11.744  1.00  0.00     0.008 C 
ENDROOT
BRANCH   1   2
ATOM      2  C   UNL     1       6.638  -8.540 -11.146  1.00  0.00     0.000 C 
BRANCH   2   3
ATOM      3  C   UNL     1       6.783  -7.391 -12.155  1.00  0.00    -0.003 C 
ATOM      4  C   UNL     1       5.684  -6.350 -11.962  1.00  0.00     0.004 C 
ENDBRANCH   2   3
ENDBRANCH   1   2
BRANCH   1   5
ATOM      5  C   UNL     1       4.459  -9.914 -11.333  1.00  0.00     0.072 C 
BRANCH   5   6
ATOM      6  C   UNL     1       3.522  -9.438 -12.404  1.00  0.00     0.224 C 
ATOM      7  O   UNL     1       3.946  -9.133 -13.508  1.00  0.00    -0.303 OA
ENDBRANCH   5   6
ENDBRANCH   1   5
TORSDOF 4
ENDMDL
MODEL 6
REMARK VINA RESULT:     0.000      8.956     10.184
REMARK INTER + INTRA:          -0.251
REMARK INTER:                   0.000
REMARK INTRA:                  -0.251
REMARK UNBOUND:                -0.251
REMARK SMILES CCCCCC=O
REMARK SMILES IDX 4 1 3 2 2 3 1 4 5 5 6 6 7 7
REMARK H PARENT
REMARK Flexibility Score: inf
ROOT
ATOM      1  C   UNL     1      -5.058  -6.328  -5.885  1.00  0.00     0.008 C 
ENDROOT
BRANCH   1   2
ATOM      2  C   UNL     1      -6.327  -5.624  -5.368  1.00  0.00     0.000 C 
BRANCH   2   3
ATOM      3  C   UNL     1      -6.099  -4.893  -4.037  1.00  0.00    -0.003 C 
ATOM      4  C   UNL     1      -5.856  -3.404  -4.263  1.00  0.00     0.004 C 
ENDBRANCH   2   3
ENDBRANCH   1   2
BRANCH   1   5
ATOM      5  C   UNL     1      -4.337  -5.574  -7.015  1.00  0.00     0.072 C 
BRANCH   5   6
ATOM      6  C   UNL     1      -3.146  -4.808  -6.519  1.00  0.00     0.224 C 
ATOM      7  O   UNL     1      -2.762  -4.938  -5.368  1.00  0.00    -0.303 OA
ENDBRANCH   5   6
ENDBRANCH   1   5
TORSDOF 4
ENDMDL
MODEL 7
REMARK VINA RESULT:     0.000      8.372      9.421
REMARK INTER + INTRA:          -0.251
REMARK INTER:                   0.000
REMARK INTRA:                  -0.251
REMARK UNBOUND:                -0.251
REMARK SMILES CCCCCC=O
REMARK SMILES IDX 4 1 3 2 2 3 1 4 5 5 6 6 7 7
REMARK H PARENT
REMARK Flexibility Score: inf
ROOT
ATOM      1  C   UNL     1      -5.611  -0.721  -4.368  1.00  0.00     0.008 C 
ENDROOT
BRANCH   1   2
ATOM      2  C   UNL     1      -6.968  -0.808  -5.093  1.00  0.00     0.000 C 
BRANCH   2   3
ATOM      3  C   UNL     1      -7.754  -2.076  -4.729  1.00  0.00    -0.003 C 
ATOM      4  C   UNL     1      -6.817  -3.193  -4.279  1.00  0.00     0.004 C 
ENDBRANCH   2   3
ENDBRANCH   1   2
BRANCH   1   5
ATOM      5  C   UNL     1      -5.600   0.241  -3.170  1.00  0.00     0.072 C 
BRANCH   5   6
ATOM      6  C   UNL     1      -5.722  -0.481  -1.860  1.00  0.00     0.224 C 
ATOM      7  O   UNL     1      -6.807  -0.887  -1.474  1.00  0.00    -0.303 OA
ENDBRANCH   5   6
ENDBRANCH   1   5
TORSDOF 4
ENDMDL
MODEL 8
REMARK VINA RESULT:     0.000      5.604      6.250
REMARK INTER + INTRA:          -0.251
REMARK INTER:                   0.000
REMARK INTRA:                  -0.251
REMARK UNBOUND:                -0.251
REMARK SMILES CCCCCC=O
REMARK SMILES IDX 4 1 3 2 2 3 1 4 5 5 6 6 7 7
REMARK H PARENT
REMARK Flexibility Score: inf
ROOT
ATOM      1  C   UNL     1      -1.602  -0.183 -10.187  1.00  0.00     0.008 C 
ENDROOT
BRANCH   1   2
ATOM      2  C   UNL     1      -1.002  -1.219 -11.157  1.00  0.00     0.000 C 
BRANCH   2   3
ATOM      3  C   UNL     1       0.071  -0.619 -12.077  1.00  0.00    -0.003 C 
ATOM      4  C   UNL     1       1.472  -0.908 -11.547  1.00  0.00     0.004 C 
ENDBRANCH   2   3
ENDBRANCH   1   2
BRANCH   1   5
ATOM      5  C   UNL     1      -1.055  -0.275  -8.753  1.00  0.00     0.072 C 
BRANCH   5   6
ATOM      6  C   UNL     1      -0.007   0.762  -8.477  1.00  0.00     0.224 C 
ATOM      7  O   UNL     1       0.224   1.643  -9.290  1.00  0.00    -0.303 OA
ENDBRANCH   5   6
ENDBRANCH   1   5
TORSDOF 4
ENDMDL
MODEL 9
REMARK VINA RESULT:     0.000      8.477      9.273
REMARK INTER + INTRA:          -0.251
REMARK INTER:                   0.000
REMARK INTRA:                  -0.251
REMARK UNBOUND:                -0.251
REMARK SMILES CCCCCC=O
REMARK SMILES IDX 4 1 3 2 2 3 1 4 5 5 6 6 7 7
REMARK H PARENT
REMARK Flexibility Score: inf
ROOT
ATOM      1  C   UNL     1       1.914   0.305 -13.069  1.00  0.00     0.008 C 
ENDROOT
BRANCH   1   2
ATOM      2  C   UNL     1       0.513   0.014 -12.497  1.00  0.00     0.000 C 
BRANCH   2   3
ATOM      3  C   UNL     1       0.442  -1.329 -11.757  1.00  0.00    -0.003 C 
ATOM      4  C   UNL     1       1.814  -1.737 -11.228  1.00  0.00     0.004 C 
ENDBRANCH   2   3
ENDBRANCH   1   2
BRANCH   1   5
ATOM      5  C   UNL     1       2.039   0.056 -14.581  1.00  0.00     0.072 C 
BRANCH   5   6
ATOM      6  C   UNL     1       2.701  -1.256 -14.888  1.00  0.00     0.224 C 
ATOM      7  O   UNL     1       2.073  -2.300 -14.807  1.00  0.00    -0.303 OA
ENDBRANCH   5   6
ENDBRANCH   1   5
TORSDOF 4
ENDMDL
