MODEL 1
REMARK VINA RESULT:    -7.834      0.000      0.000
REMARK INTER + INTRA:          -9.504
REMARK INTER:                  -9.208
REMARK INTRA:                  -0.296
REMARK UNBOUND:                -0.296
REMARK SMILES O=c1cc(-c2ccc(O)c(O)c2)oc2cc(O)cc(O)c12
REMARK SMILES IDX 4 1 3 2 2 3 1 4 21 5 19 6 18 7 16 8 15 9 14 10 13 11 5 12
REMARK SMILES IDX 6 13 7 14 8 15 12 16 10 17 9 18 11 20 20 22 17 24
REMARK H PARENT 9 19 11 21 20 23 17 25
REMARK Flexibility Score: inf
ROOT
ATOM      1  C   UNL     1     131.939 135.485 152.044  1.00  0.00     0.138 A 
ATOM      2  C   UNL     1     132.975 135.525 151.096  1.00  0.00     0.100 A 
ATOM      3  C   UNL     1     132.993 134.592 150.059  1.00  0.00     0.197 A 
ATOM      4  O   UNL     1     133.926 134.636 149.212  1.00  0.00    -0.289 OA
ATOM      5  C   UNL     1     131.971 133.625 149.975  1.00  0.00     0.107 A 
ATOM      6  C   UNL     1     131.914 132.642 148.959  1.00  0.00     0.134 A 
ATOM      7  C   UNL     1     130.859 131.718 148.943  1.00  0.00     0.093 A 
ATOM      8  C   UNL     1     129.863 131.757 149.921  1.00  0.00     0.123 A 
ATOM      9  C   UNL     1     129.913 132.727 150.929  1.00  0.00     0.094 A 
ATOM     10  C   UNL     1     130.957 133.656 150.963  1.00  0.00     0.146 A 
ATOM     11  O   UNL     1     130.984 134.565 151.931  1.00  0.00    -0.456 OA
ENDROOT
BRANCH   1  12
ATOM     12  C   UNL     1     131.869 136.454 153.168  1.00  0.00     0.021 A 
ATOM     13  C   UNL     1     130.949 136.239 154.208  1.00  0.00     0.016 A 
ATOM     14  C   UNL     1     130.867 137.131 155.280  1.00  0.00     0.051 A 
ATOM     15  C   UNL     1     131.708 138.245 155.339  1.00  0.00     0.157 A 
ATOM     16  C   UNL     1     132.724 137.571 153.237  1.00  0.00     0.062 A 
ATOM     17  C   UNL     1     132.644 138.466 154.315  1.00  0.00     0.158 A 
BRANCH  15  18
ATOM     18  O   UNL     1     131.603 139.119 156.421  1.00  0.00    -0.504 OA
ATOM     19  H   UNL     1     131.101 139.995 156.358  1.00  0.00     0.293 HD
ENDBRANCH  15  18
BRANCH  17  20
ATOM     20  O   UNL     1     133.494 139.570 154.373  1.00  0.00    -0.504 OA
ATOM     21  H   UNL     1     133.215 140.432 154.826  1.00  0.00     0.293 HD
ENDBRANCH  17  20
ENDBRANCH   1  12
BRANCH   6  22
ATOM     22  O   UNL     1     132.895 132.579 147.968  1.00  0.00    -0.507 OA
ATOM     23  H   UNL     1     133.854 132.849 148.150  1.00  0.00     0.293 HD
ENDBRANCH   6  22
BRANCH   8  24
ATOM     24  O   UNL     1     128.825 130.828 149.882  1.00  0.00    -0.508 OA
ATOM     25  H   UNL     1     128.916 129.914 150.311  1.00  0.00     0.293 HD
ENDBRANCH   8  24
TORSDOF 5
ENDMDL
MODEL 2
REMARK VINA RESULT:    -7.661      2.547      4.822
REMARK INTER + INTRA:          -9.301
REMARK INTER:                  -9.029
REMARK INTRA:                  -0.272
REMARK UNBOUND:                -0.296
REMARK SMILES O=c1cc(-c2ccc(O)c(O)c2)oc2cc(O)cc(O)c12
REMARK SMILES IDX 4 1 3 2 2 3 1 4 21 5 19 6 18 7 16 8 15 9 14 10 13 11 5 12
REMARK SMILES IDX 6 13 7 14 8 15 12 16 10 17 9 18 11 20 20 22 17 24
REMARK H PARENT 9 19 11 21 20 23 17 25
REMARK Flexibility Score: inf
ROOT
ATOM      1  C   UNL     1     130.249 132.835 150.062  1.00  0.00     0.138 A 
ATOM      2  C   UNL     1     128.966 132.430 150.465  1.00  0.00     0.100 A 
ATOM      3  C   UNL     1     128.214 131.601 149.632  1.00  0.00     0.197 A 
ATOM      4  O   UNL     1     127.063 131.242 150.003  1.00  0.00    -0.289 OA
ATOM      5  C   UNL     1     128.753 131.180 148.400  1.00  0.00     0.107 A 
ATOM      6  C   UNL     1     128.058 130.342 147.496  1.00  0.00     0.134 A 
ATOM      7  C   UNL     1     128.667 129.962 146.291  1.00  0.00     0.093 A 
ATOM      8  C   UNL     1     129.954 130.403 145.974  1.00  0.00     0.123 A 
ATOM      9  C   UNL     1     130.647 131.232 146.864  1.00  0.00     0.094 A 
ATOM     10  C   UNL     1     130.056 131.622 148.069  1.00  0.00     0.146 A 
ATOM     11  O   UNL     1     130.733 132.411 148.897  1.00  0.00    -0.456 OA
ENDROOT
BRANCH   1  12
ATOM     12  C   UNL     1     131.094 133.715 150.909  1.00  0.00     0.021 A 
ATOM     13  C   UNL     1     131.620 134.900 150.364  1.00  0.00     0.016 A 
ATOM     14  C   UNL     1     132.411 135.749 151.141  1.00  0.00     0.051 A 
ATOM     15  C   UNL     1     132.684 135.438 152.476  1.00  0.00     0.157 A 
ATOM     16  C   UNL     1     131.360 133.412 152.258  1.00  0.00     0.062 A 
ATOM     17  C   UNL     1     132.153 134.265 153.039  1.00  0.00     0.158 A 
BRANCH  15  18
ATOM     18  O   UNL     1     133.478 136.304 153.226  1.00  0.00    -0.504 OA
ATOM     19  H   UNL     1     133.525 137.296 153.031  1.00  0.00     0.293 HD
ENDBRANCH  15  18
BRANCH  17  20
ATOM     20  O   UNL     1     132.412 133.955 154.374  1.00  0.00    -0.504 OA
ATOM     21  H   UNL     1     132.982 133.158 154.633  1.00  0.00     0.293 HD
ENDBRANCH  17  20
ENDBRANCH   1  12
BRANCH   6  22
ATOM     22  O   UNL     1     126.771 129.885 147.785  1.00  0.00    -0.507 OA
ATOM     23  H   UNL     1     126.170 129.498 147.068  1.00  0.00     0.293 HD
ENDBRANCH   6  22
BRANCH   8  24
ATOM     24  O   UNL     1     130.537 130.011 144.771  1.00  0.00    -0.508 OA
ATOM     25  H   UNL     1     130.119 130.246 143.878  1.00  0.00     0.293 HD
ENDBRANCH   8  24
TORSDOF 5
ENDMDL
MODEL 3
REMARK VINA RESULT:    -7.609      2.636      3.058
REMARK INTER + INTRA:          -9.239
REMARK INTER:                  -8.965
REMARK INTRA:                  -0.273
REMARK UNBOUND:                -0.296
REMARK SMILES O=c1cc(-c2ccc(O)c(O)c2)oc2cc(O)cc(O)c12
REMARK SMILES IDX 4 1 3 2 2 3 1 4 21 5 19 6 18 7 16 8 15 9 14 10 13 11 5 12
REMARK SMILES IDX 6 13 7 14 8 15 12 16 10 17 9 18 11 20 20 22 17 24
REMARK H PARENT 9 19 11 21 20 23 17 25
REMARK Flexibility Score: inf
ROOT
ATOM      1  C   UNL     1     131.628 135.515 153.896  1.00  0.00     0.138 A 
ATOM      2  C   UNL     1     132.016 135.248 152.572  1.00  0.00     0.100 A 
ATOM      3  C   UNL     1     132.045 133.929 152.118  1.00  0.00     0.197 A 
ATOM      4  O   UNL     1     132.393 133.700 150.928  1.00  0.00    -0.289 OA
ATOM      5  C   UNL     1     131.682 132.884 152.991  1.00  0.00     0.107 A 
ATOM      6  C   UNL     1     131.686 131.521 152.612  1.00  0.00     0.134 A 
ATOM      7  C   UNL     1     131.305 130.540 153.540  1.00  0.00     0.093 A 
ATOM      8  C   UNL     1     130.922 130.896 154.836  1.00  0.00     0.123 A 
ATOM      9  C   UNL     1     130.917 132.243 155.216  1.00  0.00     0.094 A 
ATOM     10  C   UNL     1     131.294 133.235 154.306  1.00  0.00     0.146 A 
ATOM     11  O   UNL     1     131.282 134.506 154.692  1.00  0.00    -0.456 OA
ENDROOT
BRANCH   1  12
ATOM     12  C   UNL     1     131.578 136.899 154.433  1.00  0.00     0.021 A 
ATOM     13  C   UNL     1     130.411 137.348 155.075  1.00  0.00     0.016 A 
ATOM     14  C   UNL     1     130.339 138.642 155.595  1.00  0.00     0.051 A 
ATOM     15  C   UNL     1     131.432 139.507 155.494  1.00  0.00     0.157 A 
ATOM     16  C   UNL     1     132.681 137.768 154.344  1.00  0.00     0.062 A 
ATOM     17  C   UNL     1     132.611 139.068 154.868  1.00  0.00     0.158 A 
BRANCH  15  18
ATOM     18  O   UNL     1     131.331 140.794 156.021  1.00  0.00    -0.504 OA
ATOM     19  H   UNL     1     131.375 140.972 157.016  1.00  0.00     0.293 HD
ENDBRANCH  15  18
BRANCH  17  20
ATOM     20  O   UNL     1     133.710 139.922 154.774  1.00  0.00    -0.504 OA
ATOM     21  H   UNL     1     133.717 140.710 154.138  1.00  0.00     0.293 HD
ENDBRANCH  17  20
ENDBRANCH   1  12
BRANCH   6  22
ATOM     22  O   UNL     1     132.063 131.135 151.325  1.00  0.00    -0.507 OA
ATOM     23  H   UNL     1     132.794 131.620 150.817  1.00  0.00     0.293 HD
ENDBRANCH   6  22
BRANCH   8  24
ATOM     24  O   UNL     1     130.549 129.903 155.738  1.00  0.00    -0.508 OA
ATOM     25  H   UNL     1     129.663 129.939 156.230  1.00  0.00     0.293 HD
ENDBRANCH   8  24
TORSDOF 5
ENDMDL
MODEL 4
REMARK VINA RESULT:    -7.604      1.540      2.877
REMARK INTER + INTRA:          -9.233
REMARK INTER:                  -8.970
REMARK INTRA:                  -0.264
REMARK UNBOUND:                -0.296
REMARK SMILES O=c1cc(-c2ccc(O)c(O)c2)oc2cc(O)cc(O)c12
REMARK SMILES IDX 4 1 3 2 2 3 1 4 21 5 19 6 18 7 16 8 15 9 14 10 13 11 5 12
REMARK SMILES IDX 6 13 7 14 8 15 12 16 10 17 9 18 11 20 20 22 17 24
REMARK H PARENT 9 19 11 21 20 23 17 25
REMARK Flexibility Score: inf
ROOT
ATOM      1  C   UNL     1     132.184 135.114 152.010  1.00  0.00     0.138 A 
ATOM      2  C   UNL     1     130.861 134.641 152.051  1.00  0.00     0.100 A 
ATOM      3  C   UNL     1     130.380 133.855 151.004  1.00  0.00     0.197 A 
ATOM      4  O   UNL     1     129.192 133.435 151.050  1.00  0.00    -0.289 OA
ATOM      5  C   UNL     1     131.227 133.543 149.921  1.00  0.00     0.107 A 
ATOM      6  C   UNL     1     130.819 132.755 148.819  1.00  0.00     0.134 A 
ATOM      7  C   UNL     1     131.725 132.485 147.784  1.00  0.00     0.093 A 
ATOM      8  C   UNL     1     133.028 132.987 147.828  1.00  0.00     0.123 A 
ATOM      9  C   UNL     1     133.438 133.768 148.915  1.00  0.00     0.094 A 
ATOM     10  C   UNL     1     132.549 134.048 149.957  1.00  0.00     0.146 A 
ATOM     11  O   UNL     1     132.961 134.793 150.977  1.00  0.00    -0.456 OA
ENDROOT
BRANCH   1  12
ATOM     12  C   UNL     1     132.749 135.953 153.096  1.00  0.00     0.021 A 
ATOM     13  C   UNL     1     133.499 135.345 154.119  1.00  0.00     0.016 A 
ATOM     14  C   UNL     1     134.049 136.112 155.149  1.00  0.00     0.051 A 
ATOM     15  C   UNL     1     133.869 137.498 155.172  1.00  0.00     0.157 A 
ATOM     16  C   UNL     1     132.582 137.351 153.117  1.00  0.00     0.062 A 
ATOM     17  C   UNL     1     133.135 138.122 154.150  1.00  0.00     0.158 A 
BRANCH  15  18
ATOM     18  O   UNL     1     134.427 138.237 156.214  1.00  0.00    -0.504 OA
ATOM     19  H   UNL     1     133.862 138.651 156.944  1.00  0.00     0.293 HD
ENDBRANCH  15  18
BRANCH  17  20
ATOM     20  O   UNL     1     132.961 139.506 154.161  1.00  0.00    -0.504 OA
ATOM     21  H   UNL     1     132.759 140.009 155.017  1.00  0.00     0.293 HD
ENDBRANCH  17  20
ENDBRANCH   1  12
BRANCH   6  22
ATOM     22  O   UNL     1     129.524 132.239 148.747  1.00  0.00    -0.507 OA
ATOM     23  H   UNL     1     129.317 131.281 149.002  1.00  0.00     0.293 HD
ENDBRANCH   6  22
BRANCH   8  24
ATOM     24  O   UNL     1     133.909 132.704 146.787  1.00  0.00    -0.508 OA
ATOM     25  H   UNL     1     134.204 131.756 146.584  1.00  0.00     0.293 HD
ENDBRANCH   8  24
TORSDOF 5
ENDMDL
MODEL 5
REMARK VINA RESULT:    -7.500      0.887      1.626
REMARK INTER + INTRA:          -9.112
REMARK INTER:                  -8.794
REMARK INTRA:                  -0.318
REMARK UNBOUND:                -0.296
REMARK SMILES O=c1cc(-c2ccc(O)c(O)c2)oc2cc(O)cc(O)c12
REMARK SMILES IDX 4 1 3 2 2 3 1 4 21 5 19 6 18 7 16 8 15 9 14 10 13 11 5 12
REMARK SMILES IDX 6 13 7 14 8 15 12 16 10 17 9 18 11 20 20 22 17 24
REMARK H PARENT 9 19 11 21 20 23 17 25
REMARK Flexibility Score: inf
ROOT
ATOM      1  C   UNL     1     131.695 135.092 151.815  1.00  0.00     0.138 A 
ATOM      2  C   UNL     1     132.737 135.099 150.872  1.00  0.00     0.100 A 
ATOM      3  C   UNL     1     132.680 134.234 149.779  1.00  0.00     0.197 A 
ATOM      4  O   UNL     1     133.619 134.249 148.938  1.00  0.00    -0.289 OA
ATOM      5  C   UNL     1     131.578 133.367 149.634  1.00  0.00     0.107 A 
ATOM      6  C   UNL     1     131.444 132.458 148.558  1.00  0.00     0.134 A 
ATOM      7  C   UNL     1     130.312 131.633 148.482  1.00  0.00     0.093 A 
ATOM      8  C   UNL     1     129.315 131.699 149.459  1.00  0.00     0.123 A 
ATOM      9  C   UNL     1     129.443 132.595 150.526  1.00  0.00     0.094 A 
ATOM     10  C   UNL     1     130.564 133.426 150.619  1.00  0.00     0.146 A 
ATOM     11  O   UNL     1     130.663 134.268 151.643  1.00  0.00    -0.456 OA
ENDROOT
BRANCH   1  12
ATOM     12  C   UNL     1     131.701 135.991 152.996  1.00  0.00     0.021 A 
ATOM     13  C   UNL     1     132.707 136.967 153.115  1.00  0.00     0.016 A 
ATOM     14  C   UNL     1     132.732 137.831 154.212  1.00  0.00     0.051 A 
ATOM     15  C   UNL     1     131.751 137.744 155.204  1.00  0.00     0.157 A 
ATOM     16  C   UNL     1     130.708 135.916 153.990  1.00  0.00     0.062 A 
ATOM     17  C   UNL     1     130.732 136.784 155.092  1.00  0.00     0.158 A 
BRANCH  15  18
ATOM     18  O   UNL     1     131.804 138.618 156.289  1.00  0.00    -0.504 OA
ATOM     19  H   UNL     1     132.541 139.304 156.392  1.00  0.00     0.293 HD
ENDBRANCH  15  18
BRANCH  17  20
ATOM     20  O   UNL     1     129.743 136.699 156.072  1.00  0.00    -0.504 OA
ATOM     21  H   UNL     1     128.949 136.079 155.974  1.00  0.00     0.293 HD
ENDBRANCH  17  20
ENDBRANCH   1  12
BRANCH   6  22
ATOM     22  O   UNL     1     132.422 132.370 147.566  1.00  0.00    -0.507 OA
ATOM     23  H   UNL     1     132.353 131.703 146.808  1.00  0.00     0.293 HD
ENDBRANCH   6  22
BRANCH   8  24
ATOM     24  O   UNL     1     128.201 130.868 149.361  1.00  0.00    -0.508 OA
ATOM     25  H   UNL     1     128.295 129.874 149.185  1.00  0.00     0.293 HD
ENDBRANCH   8  24
TORSDOF 5
ENDMDL
MODEL 6
REMARK VINA RESULT:    -7.316      2.037      6.761
REMARK INTER + INTRA:          -8.895
REMARK INTER:                  -8.602
REMARK INTRA:                  -0.293
REMARK UNBOUND:                -0.296
REMARK SMILES O=c1cc(-c2ccc(O)c(O)c2)oc2cc(O)cc(O)c12
REMARK SMILES IDX 4 1 3 2 2 3 1 4 21 5 19 6 18 7 16 8 15 9 14 10 13 11 5 12
REMARK SMILES IDX 6 13 7 14 8 15 12 16 10 17 9 18 11 20 20 22 17 24
REMARK H PARENT 9 19 11 21 20 23 17 25
REMARK Flexibility Score: inf
ROOT
ATOM      1  C   UNL     1     131.283 135.951 153.132  1.00  0.00     0.138 A 
ATOM      2  C   UNL     1     132.028 136.959 153.767  1.00  0.00     0.100 A 
ATOM      3  C   UNL     1     131.476 137.640 154.853  1.00  0.00     0.197 A 
ATOM      4  O   UNL     1     132.152 138.542 155.416  1.00  0.00    -0.289 OA
ATOM      5  C   UNL     1     130.181 137.306 155.299  1.00  0.00     0.107 A 
ATOM      6  C   UNL     1     129.547 137.948 156.389  1.00  0.00     0.134 A 
ATOM      7  C   UNL     1     128.258 137.552 156.774  1.00  0.00     0.093 A 
ATOM      8  C   UNL     1     127.593 136.530 156.093  1.00  0.00     0.123 A 
ATOM      9  C   UNL     1     128.214 135.892 155.013  1.00  0.00     0.094 A 
ATOM     10  C   UNL     1     129.499 136.273 154.613  1.00  0.00     0.146 A 
ATOM     11  O   UNL     1     130.067 135.653 153.584  1.00  0.00    -0.456 OA
ENDROOT
BRANCH   1  12
ATOM     12  C   UNL     1     131.821 135.192 151.974  1.00  0.00     0.021 A 
ATOM     13  C   UNL     1     131.241 133.959 151.628  1.00  0.00     0.016 A 
ATOM     14  C   UNL     1     131.722 133.229 150.539  1.00  0.00     0.051 A 
ATOM     15  C   UNL     1     132.782 133.720 149.771  1.00  0.00     0.157 A 
ATOM     16  C   UNL     1     132.879 135.689 151.190  1.00  0.00     0.062 A 
ATOM     17  C   UNL     1     133.362 134.957 150.095  1.00  0.00     0.158 A 
BRANCH  15  18
ATOM     18  O   UNL     1     133.242 132.968 148.690  1.00  0.00    -0.504 OA
ATOM     19  H   UNL     1     133.832 133.365 147.971  1.00  0.00     0.293 HD
ENDBRANCH  15  18
BRANCH  17  20
ATOM     20  O   UNL     1     134.412 135.458 149.326  1.00  0.00    -0.504 OA
ATOM     21  H   UNL     1     134.451 135.316 148.324  1.00  0.00     0.293 HD
ENDBRANCH  17  20
ENDBRANCH   1  12
BRANCH   6  22
ATOM     22  O   UNL     1     130.187 138.971 157.089  1.00  0.00    -0.507 OA
ATOM     23  H   UNL     1     130.103 139.941 156.810  1.00  0.00     0.293 HD
ENDBRANCH   6  22
BRANCH   8  24
ATOM     24  O   UNL     1     126.313 136.156 156.496  1.00  0.00    -0.508 OA
ATOM     25  H   UNL     1     125.958 136.386 157.417  1.00  0.00     0.293 HD
ENDBRANCH   8  24
TORSDOF 5
ENDMDL
MODEL 7
REMARK VINA RESULT:    -7.289      1.661      2.772
REMARK INTER + INTRA:          -8.863
REMARK INTER:                  -8.580
REMARK INTRA:                  -0.283
REMARK UNBOUND:                -0.296
REMARK SMILES O=c1cc(-c2ccc(O)c(O)c2)oc2cc(O)cc(O)c12
REMARK SMILES IDX 4 1 3 2 2 3 1 4 21 5 19 6 18 7 16 8 15 9 14 10 13 11 5 12
REMARK SMILES IDX 6 13 7 14 8 15 12 16 10 17 9 18 11 20 20 22 17 24
REMARK H PARENT 9 19 11 21 20 23 17 25
REMARK Flexibility Score: inf
ROOT
ATOM      1  C   UNL     1     131.546 135.322 153.504  1.00  0.00     0.138 A 
ATOM      2  C   UNL     1     131.309 134.177 154.284  1.00  0.00     0.100 A 
ATOM      3  C   UNL     1     131.291 132.923 153.673  1.00  0.00     0.197 A 
ATOM      4  O   UNL     1     131.079 131.901 154.382  1.00  0.00    -0.289 OA
ATOM      5  C   UNL     1     131.513 132.820 152.285  1.00  0.00     0.107 A 
ATOM      6  C   UNL     1     131.510 131.589 151.589  1.00  0.00     0.134 A 
ATOM      7  C   UNL     1     131.745 131.572 150.206  1.00  0.00     0.093 A 
ATOM      8  C   UNL     1     131.984 132.758 149.509  1.00  0.00     0.123 A 
ATOM      9  C   UNL     1     131.988 133.980 150.193  1.00  0.00     0.094 A 
ATOM     10  C   UNL     1     131.754 134.018 151.571  1.00  0.00     0.146 A 
ATOM     11  O   UNL     1     131.762 135.190 152.197  1.00  0.00    -0.456 OA
ENDROOT
BRANCH   1  12
ATOM     12  C   UNL     1     131.578 136.682 154.099  1.00  0.00     0.021 A 
ATOM     13  C   UNL     1     130.487 137.124 154.869  1.00  0.00     0.016 A 
ATOM     14  C   UNL     1     130.494 138.396 155.447  1.00  0.00     0.051 A 
ATOM     15  C   UNL     1     131.592 139.244 155.276  1.00  0.00     0.157 A 
ATOM     16  C   UNL     1     132.687 137.534 153.941  1.00  0.00     0.062 A 
ATOM     17  C   UNL     1     132.696 138.811 154.523  1.00  0.00     0.158 A 
BRANCH  15  18
ATOM     18  O   UNL     1     131.570 140.508 155.863  1.00  0.00    -0.504 OA
ATOM     19  H   UNL     1     130.855 141.190 155.646  1.00  0.00     0.293 HD
ENDBRANCH  15  18
BRANCH  17  20
ATOM     20  O   UNL     1     133.799 139.648 154.358  1.00  0.00    -0.504 OA
ATOM     21  H   UNL     1     133.956 140.158 153.497  1.00  0.00     0.293 HD
ENDBRANCH  17  20
ENDBRANCH   1  12
BRANCH   6  22
ATOM     22  O   UNL     1     131.275 130.387 152.258  1.00  0.00    -0.507 OA
ATOM     23  H   UNL     1     131.052 129.534 151.759  1.00  0.00     0.293 HD
ENDBRANCH   6  22
BRANCH   8  24
ATOM     24  O   UNL     1     132.215 132.714 148.136  1.00  0.00    -0.508 OA
ATOM     25  H   UNL     1     132.470 133.545 147.614  1.00  0.00     0.293 HD
ENDBRANCH   8  24
TORSDOF 5
ENDMDL
MODEL 8
REMARK VINA RESULT:    -7.226      1.652      2.265
REMARK INTER + INTRA:          -8.789
REMARK INTER:                  -8.523
REMARK INTRA:                  -0.266
REMARK UNBOUND:                -0.296
REMARK SMILES O=c1cc(-c2ccc(O)c(O)c2)oc2cc(O)cc(O)c12
REMARK SMILES IDX 4 1 3 2 2 3 1 4 21 5 19 6 18 7 16 8 15 9 14 10 13 11 5 12
REMARK SMILES IDX 6 13 7 14 8 15 12 16 10 17 9 18 11 20 20 22 17 24
REMARK H PARENT 9 19 11 21 20 23 17 25
REMARK Flexibility Score: inf
ROOT
ATOM      1  C   UNL     1     131.521 133.771 151.237  1.00  0.00     0.138 A 
ATOM      2  C   UNL     1     132.351 133.632 150.112  1.00  0.00     0.100 A 
ATOM      3  C   UNL     1     131.906 132.891 149.017  1.00  0.00     0.197 A 
ATOM      4  O   UNL     1     132.658 132.774 148.012  1.00  0.00    -0.289 OA
ATOM      5  C   UNL     1     130.629 132.295 149.052  1.00  0.00     0.107 A 
ATOM      6  C   UNL     1     130.102 131.528 147.987  1.00  0.00     0.134 A 
ATOM      7  C   UNL     1     128.819 130.973 148.099  1.00  0.00     0.093 A 
ATOM      8  C   UNL     1     128.055 131.170 149.251  1.00  0.00     0.123 A 
ATOM      9  C   UNL     1     128.571 131.928 150.309  1.00  0.00     0.094 A 
ATOM     10  C   UNL     1     129.848 132.489 150.217  1.00  0.00     0.146 A 
ATOM     11  O   UNL     1     130.317 133.203 151.235  1.00  0.00    -0.456 OA
ENDROOT
BRANCH   1  12
ATOM     12  C   UNL     1     131.942 134.548 152.430  1.00  0.00     0.021 A 
ATOM     13  C   UNL     1     132.081 133.894 153.667  1.00  0.00     0.016 A 
ATOM     14  C   UNL     1     132.483 134.600 154.803  1.00  0.00     0.051 A 
ATOM     15  C   UNL     1     132.763 135.967 154.724  1.00  0.00     0.157 A 
ATOM     16  C   UNL     1     132.239 135.922 152.352  1.00  0.00     0.062 A 
ATOM     17  C   UNL     1     132.644 136.632 153.492  1.00  0.00     0.158 A 
BRANCH  15  18
ATOM     18  O   UNL     1     133.161 136.646 155.875  1.00  0.00    -0.504 OA
ATOM     19  H   UNL     1     134.136 136.813 156.092  1.00  0.00     0.293 HD
ENDBRANCH  15  18
BRANCH  17  20
ATOM     20  O   UNL     1     132.934 137.993 153.404  1.00  0.00    -0.504 OA
ATOM     21  H   UNL     1     133.594 138.438 154.030  1.00  0.00     0.293 HD
ENDBRANCH  17  20
ENDBRANCH   1  12
BRANCH   6  22
ATOM     22  O   UNL     1     130.842 131.314 146.823  1.00  0.00    -0.507 OA
ATOM     23  H   UNL     1     130.907 130.398 146.395  1.00  0.00     0.293 HD
ENDBRANCH   6  22
BRANCH   8  24
ATOM     24  O   UNL     1     126.783 130.608 149.337  1.00  0.00    -0.508 OA
ATOM     25  H   UNL     1     126.131 130.881 150.063  1.00  0.00     0.293 HD
ENDBRANCH   8  24
TORSDOF 5
ENDMDL
MODEL 9
REMARK VINA RESULT:    -7.202      1.532      7.314
REMARK INTER + INTRA:          -8.761
REMARK INTER:                  -8.470
REMARK INTRA:                  -0.291
REMARK UNBOUND:                -0.296
REMARK SMILES O=c1cc(-c2ccc(O)c(O)c2)oc2cc(O)cc(O)c12
REMARK SMILES IDX 4 1 3 2 2 3 1 4 21 5 19 6 18 7 16 8 15 9 14 10 13 11 5 12
REMARK SMILES IDX 6 13 7 14 8 15 12 16 10 17 9 18 11 20 20 22 17 24
REMARK H PARENT 9 19 11 21 20 23 17 25
REMARK Flexibility Score: inf
ROOT
ATOM      1  C   UNL     1     132.033 134.904 151.928  1.00  0.00     0.138 A 
ATOM      2  C   UNL     1     131.206 134.209 152.826  1.00  0.00     0.100 A 
ATOM      3  C   UNL     1     130.882 134.790 154.052  1.00  0.00     0.197 A 
ATOM      4  O   UNL     1     130.138 134.159 154.851  1.00  0.00    -0.289 OA
ATOM      5  C   UNL     1     131.386 136.067 154.372  1.00  0.00     0.107 A 
ATOM      6  C   UNL     1     131.108 136.727 155.592  1.00  0.00     0.134 A 
ATOM      7  C   UNL     1     131.643 138.001 155.832  1.00  0.00     0.093 A 
ATOM      8  C   UNL     1     132.449 138.626 154.877  1.00  0.00     0.123 A 
ATOM      9  C   UNL     1     132.728 137.978 153.668  1.00  0.00     0.094 A 
ATOM     10  C   UNL     1     132.204 136.707 153.411  1.00  0.00     0.146 A 
ATOM     11  O   UNL     1     132.485 136.112 152.257  1.00  0.00    -0.456 OA
ENDROOT
BRANCH   1  12
ATOM     12  C   UNL     1     132.410 134.334 150.609  1.00  0.00     0.021 A 
ATOM     13  C   UNL     1     133.580 134.783 149.972  1.00  0.00     0.016 A 
ATOM     14  C   UNL     1     133.961 134.259 148.735  1.00  0.00     0.051 A 
ATOM     15  C   UNL     1     133.189 133.272 148.117  1.00  0.00     0.157 A 
ATOM     16  C   UNL     1     131.642 133.330 149.989  1.00  0.00     0.062 A 
ATOM     17  C   UNL     1     132.025 132.802 148.748  1.00  0.00     0.158 A 
BRANCH  15  18
ATOM     18  O   UNL     1     133.594 132.769 146.881  1.00  0.00    -0.504 OA
ATOM     19  H   UNL     1     132.945 132.330 146.240  1.00  0.00     0.293 HD
ENDBRANCH  15  18
BRANCH  17  20
ATOM     20  O   UNL     1     131.256 131.809 148.141  1.00  0.00    -0.504 OA
ATOM     21  H   UNL     1     130.382 131.495 148.543  1.00  0.00     0.293 HD
ENDBRANCH  17  20
ENDBRANCH   1  12
BRANCH   6  22
ATOM     22  O   UNL     1     130.305 136.128 156.565  1.00  0.00    -0.507 OA
ATOM     23  H   UNL     1     129.475 136.584 156.925  1.00  0.00     0.293 HD
ENDBRANCH   6  22
BRANCH   8  24
ATOM     24  O   UNL     1     132.969 139.891 155.139  1.00  0.00    -0.508 OA
ATOM     25  H   UNL     1     133.645 140.044 155.879  1.00  0.00     0.293 HD
ENDBRANCH   8  24
TORSDOF 5
ENDMDL
