MODEL 1
REMARK VINA RESULT:    -4.426      0.000      0.000
REMARK INTER + INTRA:          -6.734
REMARK INTER:                  -6.237
REMARK INTRA:                  -0.497
REMARK UNBOUND:                -0.497
REMARK SMILES CCCCCCCCC(=O)[O-]
REMARK SMILES IDX 6 1 7 2 8 3 9 4 10 5 11 6 5 7 4 8 3 9 2 10 1 11
REMARK H PARENT
REMARK Flexibility Score: inf
ROOT
ATOM      1  C   UNL     1      -3.905  36.141  19.739  1.00  0.00     0.000 C 
ENDROOT
BRANCH   1   2
ATOM      2  C   UNL     1      -3.723  37.304  18.748  1.00  0.00     0.006 C 
BRANCH   2   3
ATOM      3  C   UNL     1      -2.359  37.255  18.046  1.00  0.00     0.053 C 
BRANCH   3   4
ATOM      4  C   UNL     1      -2.491  36.872  16.604  1.00  0.00     0.041 C 
ATOM      5  O   UNL     1      -1.907  35.845  16.166  1.00  0.00    -0.550 OA
ATOM      6  O   UNL     1      -3.286  37.628  15.753  1.00  0.00    -0.550 OA
ENDBRANCH   3   4
ENDBRANCH   2   3
ENDBRANCH   1   2
BRANCH   1   7
ATOM      7  C   UNL     1      -5.376  35.719  19.894  1.00  0.00     0.000 C 
BRANCH   7   8
ATOM      8  C   UNL     1      -5.844  35.741  21.360  1.00  0.00    -0.000 C 
BRANCH   8   9
ATOM      9  C   UNL     1      -4.733  36.186  22.326  1.00  0.00    -0.000 C 
BRANCH   9  10
ATOM     10  C   UNL     1      -5.122  37.426  23.145  1.00  0.00    -0.003 C 
ATOM     11  C   UNL     1      -4.830  38.708  22.370  1.00  0.00     0.004 C 
ENDBRANCH   9  10
ENDBRANCH   8   9
ENDBRANCH   7   8
ENDBRANCH   1   7
TORSDOF 7
ENDMDL
MODEL 2
REMARK VINA RESULT:    -4.363      3.422      6.022
REMARK INTER + INTRA:          -6.646
REMARK INTER:                  -6.338
REMARK INTRA:                  -0.308
REMARK UNBOUND:                -0.497
REMARK SMILES CCCCCCCCC(=O)[O-]
REMARK SMILES IDX 6 1 7 2 8 3 9 4 10 5 11 6 5 7 4 8 3 9 2 10 1 11
REMARK H PARENT
REMARK Flexibility Score: inf
ROOT
ATOM      1  C   UNL     1      -4.302  35.853  19.414  1.00  0.00     0.000 C 
ENDROOT
BRANCH   1   2
ATOM      2  C   UNL     1      -5.350  35.915  20.540  1.00  0.00     0.006 C 
BRANCH   2   3
ATOM      3  C   UNL     1      -4.708  35.835  21.932  1.00  0.00     0.053 C 
BRANCH   3   4
ATOM      4  C   UNL     1      -4.959  37.077  22.730  1.00  0.00     0.041 C 
ATOM      5  O   UNL     1      -5.214  38.165  22.147  1.00  0.00    -0.550 OA
ATOM      6  O   UNL     1      -4.946  37.026  24.118  1.00  0.00    -0.550 OA
ENDBRANCH   3   4
ENDBRANCH   2   3
ENDBRANCH   1   2
BRANCH   1   7
ATOM      7  C   UNL     1      -3.970  37.239  18.836  1.00  0.00     0.000 C 
BRANCH   7   8
ATOM      8  C   UNL     1      -2.886  37.178  17.746  1.00  0.00    -0.000 C 
BRANCH   8   9
ATOM      9  C   UNL     1      -3.169  36.093  16.693  1.00  0.00    -0.000 C 
BRANCH   9  10
ATOM     10  C   UNL     1      -2.578  36.434  15.317  1.00  0.00    -0.003 C 
ATOM     11  C   UNL     1      -3.615  37.118  14.429  1.00  0.00     0.004 C 
ENDBRANCH   9  10
ENDBRANCH   8   9
ENDBRANCH   7   8
ENDBRANCH   1   7
TORSDOF 7
ENDMDL
MODEL 3
REMARK VINA RESULT:    -4.350      1.203      1.769
REMARK INTER + INTRA:          -6.627
REMARK INTER:                  -6.084
REMARK INTRA:                  -0.543
REMARK UNBOUND:                -0.497
REMARK SMILES CCCCCCCCC(=O)[O-]
REMARK SMILES IDX 6 1 7 2 8 3 9 4 10 5 11 6 5 7 4 8 3 9 2 10 1 11
REMARK H PARENT
REMARK Flexibility Score: inf
ROOT
ATOM      1  C   UNL     1      -5.380  35.694  19.908  1.00  0.00     0.000 C 
ENDROOT
BRANCH   1   2
ATOM      2  C   UNL     1      -3.928  36.204  19.873  1.00  0.00     0.006 C 
BRANCH   2   3
ATOM      3  C   UNL     1      -3.737  37.331  18.849  1.00  0.00     0.053 C 
BRANCH   3   4
ATOM      4  C   UNL     1      -2.367  37.303  18.244  1.00  0.00     0.041 C 
ATOM      5  O   UNL     1      -2.178  36.746  17.130  1.00  0.00    -0.550 OA
ATOM      6  O   UNL     1      -1.307  37.922  18.894  1.00  0.00    -0.550 OA
ENDBRANCH   3   4
ENDBRANCH   2   3
ENDBRANCH   1   2
BRANCH   1   7
ATOM      7  C   UNL     1      -5.947  35.619  21.336  1.00  0.00     0.000 C 
BRANCH   7   8
ATOM      8  C   UNL     1      -4.945  36.111  22.395  1.00  0.00    -0.000 C 
BRANCH   8   9
ATOM      9  C   UNL     1      -5.617  36.942  23.501  1.00  0.00    -0.000 C 
BRANCH   9  10
ATOM     10  C   UNL     1      -4.970  38.323  23.681  1.00  0.00    -0.003 C 
ATOM     11  C   UNL     1      -4.577  38.924  22.334  1.00  0.00     0.004 C 
ENDBRANCH   9  10
ENDBRANCH   8   9
ENDBRANCH   7   8
ENDBRANCH   1   7
TORSDOF 7
ENDMDL
MODEL 4
REMARK VINA RESULT:    -4.263      3.731      6.054
REMARK INTER + INTRA:          -6.504
REMARK INTER:                  -6.270
REMARK INTRA:                  -0.234
REMARK UNBOUND:                -0.497
REMARK SMILES CCCCCCCCC(=O)[O-]
REMARK SMILES IDX 6 1 7 2 8 3 9 4 10 5 11 6 5 7 4 8 3 9 2 10 1 11
REMARK H PARENT
REMARK Flexibility Score: inf
ROOT
ATOM      1  C   UNL     1      -4.246  35.704  20.761  1.00  0.00     0.000 C 
ENDROOT
BRANCH   1   2
ATOM      2  C   UNL     1      -5.632  35.948  21.383  1.00  0.00     0.006 C 
BRANCH   2   3
ATOM      3  C   UNL     1      -5.649  35.651  22.889  1.00  0.00     0.053 C 
BRANCH   3   4
ATOM      4  C   UNL     1      -5.304  36.864  23.697  1.00  0.00     0.041 C 
ATOM      5  O   UNL     1      -5.001  36.749  24.915  1.00  0.00    -0.550 OA
ATOM      6  O   UNL     1      -5.284  38.117  23.098  1.00  0.00    -0.550 OA
ENDBRANCH   3   4
ENDBRANCH   2   3
ENDBRANCH   1   2
BRANCH   1   7
ATOM      7  C   UNL     1      -4.254  35.831  19.228  1.00  0.00     0.000 C 
BRANCH   7   8
ATOM      8  C   UNL     1      -3.889  37.248  18.752  1.00  0.00    -0.000 C 
BRANCH   8   9
ATOM      9  C   UNL     1      -2.868  37.240  17.602  1.00  0.00    -0.000 C 
BRANCH   9  10
ATOM     10  C   UNL     1      -3.134  36.122  16.582  1.00  0.00    -0.003 C 
ATOM     11  C   UNL     1      -3.147  36.671  15.158  1.00  0.00     0.004 C 
ENDBRANCH   9  10
ENDBRANCH   8   9
ENDBRANCH   7   8
ENDBRANCH   1   7
TORSDOF 7
ENDMDL
MODEL 5
REMARK VINA RESULT:    -4.248      3.950      5.956
REMARK INTER + INTRA:          -6.483
REMARK INTER:                  -6.115
REMARK INTRA:                  -0.369
REMARK UNBOUND:                -0.497
REMARK SMILES CCCCCCCCC(=O)[O-]
REMARK SMILES IDX 6 1 7 2 8 3 9 4 10 5 11 6 5 7 4 8 3 9 2 10 1 11
REMARK H PARENT
REMARK Flexibility Score: inf
ROOT
ATOM      1  C   UNL     1      -4.612  35.441  21.918  1.00  0.00     0.000 C 
ENDROOT
BRANCH   1   2
ATOM      2  C   UNL     1      -5.464  35.336  23.195  1.00  0.00     0.006 C 
BRANCH   2   3
ATOM      3  C   UNL     1      -6.102  36.679  23.575  1.00  0.00     0.053 C 
BRANCH   3   4
ATOM      4  C   UNL     1      -5.114  37.596  24.228  1.00  0.00     0.041 C 
ATOM      5  O   UNL     1      -4.783  38.674  23.667  1.00  0.00    -0.550 OA
ATOM      6  O   UNL     1      -4.585  37.276  25.472  1.00  0.00    -0.550 OA
ENDBRANCH   3   4
ENDBRANCH   2   3
ENDBRANCH   1   2
BRANCH   1   7
ATOM      7  C   UNL     1      -5.289  36.278  20.820  1.00  0.00     0.000 C 
BRANCH   7   8
ATOM      8  C   UNL     1      -4.282  37.113  20.010  1.00  0.00    -0.000 C 
BRANCH   8   9
ATOM      9  C   UNL     1      -3.926  36.463  18.663  1.00  0.00    -0.000 C 
BRANCH   9  10
ATOM     10  C   UNL     1      -2.915  37.291  17.855  1.00  0.00    -0.003 C 
ATOM     11  C   UNL     1      -1.716  37.683  18.714  1.00  0.00     0.004 C 
ENDBRANCH   9  10
ENDBRANCH   8   9
ENDBRANCH   7   8
ENDBRANCH   1   7
TORSDOF 7
ENDMDL
MODEL 6
REMARK VINA RESULT:    -4.216      1.013      1.908
REMARK INTER + INTRA:          -6.437
REMARK INTER:                  -6.188
REMARK INTRA:                  -0.249
REMARK UNBOUND:                -0.497
REMARK SMILES CCCCCCCCC(=O)[O-]
REMARK SMILES IDX 6 1 7 2 8 3 9 4 10 5 11 6 5 7 4 8 3 9 2 10 1 11
REMARK H PARENT
REMARK Flexibility Score: inf
ROOT
ATOM      1  C   UNL     1      -4.032  36.219  20.139  1.00  0.00     0.000 C 
ENDROOT
BRANCH   1   2
ATOM      2  C   UNL     1      -3.981  36.131  18.603  1.00  0.00     0.006 C 
BRANCH   2   3
ATOM      3  C   UNL     1      -3.044  37.184  17.995  1.00  0.00     0.053 C 
BRANCH   3   4
ATOM      4  C   UNL     1      -2.816  36.946  16.535  1.00  0.00     0.041 C 
ATOM      5  O   UNL     1      -3.351  37.700  15.678  1.00  0.00    -0.550 OA
ATOM      6  O   UNL     1      -1.986  35.913  16.119  1.00  0.00    -0.550 OA
ENDBRANCH   3   4
ENDBRANCH   2   3
ENDBRANCH   1   2
BRANCH   1   7
ATOM      7  C   UNL     1      -5.114  37.191  20.641  1.00  0.00     0.000 C 
BRANCH   7   8
ATOM      8  C   UNL     1      -4.549  38.258  21.596  1.00  0.00    -0.000 C 
BRANCH   8   9
ATOM      9  C   UNL     1      -5.198  38.205  22.989  1.00  0.00    -0.000 C 
BRANCH   9  10
ATOM     10  C   UNL     1      -5.147  36.802  23.613  1.00  0.00    -0.003 C 
ATOM     11  C   UNL     1      -5.107  36.881  25.137  1.00  0.00     0.004 C 
ENDBRANCH   9  10
ENDBRANCH   8   9
ENDBRANCH   7   8
ENDBRANCH   1   7
TORSDOF 7
ENDMDL
MODEL 7
REMARK VINA RESULT:    -4.080      1.235      2.133
REMARK INTER + INTRA:          -6.247
REMARK INTER:                  -5.856
REMARK INTRA:                  -0.391
REMARK UNBOUND:                -0.497
REMARK SMILES CCCCCCCCC(=O)[O-]
REMARK SMILES IDX 6 1 7 2 8 3 9 4 10 5 11 6 5 7 4 8 3 9 2 10 1 11
REMARK H PARENT
REMARK Flexibility Score: inf
ROOT
ATOM      1  C   UNL     1      -2.582  37.248  18.727  1.00  0.00     0.000 C 
ENDROOT
BRANCH   1   2
ATOM      2  C   UNL     1      -1.998  36.903  17.346  1.00  0.00     0.006 C 
BRANCH   2   3
ATOM      3  C   UNL     1      -3.035  36.236  16.431  1.00  0.00     0.053 C 
BRANCH   3   4
ATOM      4  C   UNL     1      -3.148  36.942  15.115  1.00  0.00     0.041 C 
ATOM      5  O   UNL     1      -3.875  37.965  15.005  1.00  0.00    -0.550 OA
ATOM      6  O   UNL     1      -2.424  36.491  14.019  1.00  0.00    -0.550 OA
ENDBRANCH   3   4
ENDBRANCH   2   3
ENDBRANCH   1   2
BRANCH   1   7
ATOM      7  C   UNL     1      -4.121  37.250  18.736  1.00  0.00     0.000 C 
BRANCH   7   8
ATOM      8  C   UNL     1      -4.701  37.132  20.156  1.00  0.00    -0.000 C 
BRANCH   8   9
ATOM      9  C   UNL     1      -4.443  35.753  20.786  1.00  0.00    -0.000 C 
BRANCH   9  10
ATOM     10  C   UNL     1      -4.641  35.751  22.309  1.00  0.00    -0.003 C 
ATOM     11  C   UNL     1      -5.265  37.060  22.783  1.00  0.00     0.004 C 
ENDBRANCH   9  10
ENDBRANCH   8   9
ENDBRANCH   7   8
ENDBRANCH   1   7
TORSDOF 7
ENDMDL
MODEL 8
REMARK VINA RESULT:    -3.124      3.704      5.159
REMARK INTER + INTRA:          -4.899
REMARK INTER:                  -4.250
REMARK INTRA:                  -0.649
REMARK UNBOUND:                -0.497
REMARK SMILES CCCCCCCCC(=O)[O-]
REMARK SMILES IDX 6 1 7 2 8 3 9 4 10 5 11 6 5 7 4 8 3 9 2 10 1 11
REMARK H PARENT
REMARK Flexibility Score: inf
ROOT
ATOM      1  C   UNL     1      -4.665  37.363  25.076  1.00  0.00     0.000 C 
ENDROOT
BRANCH   1   2
ATOM      2  C   UNL     1      -4.313  38.655  24.317  1.00  0.00     0.006 C 
BRANCH   2   3
ATOM      3  C   UNL     1      -5.499  39.188  23.502  1.00  0.00     0.053 C 
BRANCH   3   4
ATOM      4  C   UNL     1      -5.171  39.284  22.044  1.00  0.00     0.041 C 
ATOM      5  O   UNL     1      -4.141  38.720  21.587  1.00  0.00    -0.550 OA
ATOM      6  O   UNL     1      -6.020  39.968  21.184  1.00  0.00    -0.550 OA
ENDBRANCH   3   4
ENDBRANCH   2   3
ENDBRANCH   1   2
BRANCH   1   7
ATOM      7  C   UNL     1      -6.053  36.816  24.701  1.00  0.00     0.000 C 
BRANCH   7   8
ATOM      8  C   UNL     1      -6.124  35.281  24.791  1.00  0.00    -0.000 C 
BRANCH   8   9
ATOM      9  C   UNL     1      -5.747  34.595  23.467  1.00  0.00    -0.000 C 
BRANCH   9  10
ATOM     10  C   UNL     1      -5.962  35.502  22.247  1.00  0.00    -0.003 C 
ATOM     11  C   UNL     1      -4.718  35.537  21.363  1.00  0.00     0.004 C 
ENDBRANCH   9  10
ENDBRANCH   8   9
ENDBRANCH   7   8
ENDBRANCH   1   7
TORSDOF 7
ENDMDL
MODEL 9
REMARK VINA RESULT:    -3.114      4.445      6.476
REMARK INTER + INTRA:          -4.886
REMARK INTER:                  -4.684
REMARK INTRA:                  -0.202
REMARK UNBOUND:                -0.497
REMARK SMILES CCCCCCCCC(=O)[O-]
REMARK SMILES IDX 6 1 7 2 8 3 9 4 10 5 11 6 5 7 4 8 3 9 2 10 1 11
REMARK H PARENT
REMARK Flexibility Score: inf
ROOT
ATOM      1  C   UNL     1      -5.195  38.923  22.161  1.00  0.00     0.000 C 
ENDROOT
BRANCH   1   2
ATOM      2  C   UNL     1      -4.805  37.775  23.108  1.00  0.00     0.006 C 
BRANCH   2   3
ATOM      3  C   UNL     1      -6.018  36.930  23.520  1.00  0.00     0.053 C 
BRANCH   3   4
ATOM      4  C   UNL     1      -5.826  36.304  24.867  1.00  0.00     0.041 C 
ATOM      5  O   UNL     1      -5.422  37.000  25.837  1.00  0.00    -0.550 OA
ATOM      6  O   UNL     1      -6.125  34.962  25.060  1.00  0.00    -0.550 OA
ENDBRANCH   3   4
ENDBRANCH   2   3
ENDBRANCH   1   2
BRANCH   1   7
ATOM      7  C   UNL     1      -5.111  38.523  20.678  1.00  0.00     0.000 C 
BRANCH   7   8
ATOM      8  C   UNL     1      -4.260  37.260  20.457  1.00  0.00    -0.000 C 
BRANCH   8   9
ATOM      9  C   UNL     1      -4.305  36.767  19.000  1.00  0.00    -0.000 C 
BRANCH   9  10
ATOM     10  C   UNL     1      -3.041  37.138  18.210  1.00  0.00    -0.003 C 
ATOM     11  C   UNL     1      -3.007  36.424  16.862  1.00  0.00     0.004 C 
ENDBRANCH   9  10
ENDBRANCH   8   9
ENDBRANCH   7   8
ENDBRANCH   1   7
TORSDOF 7
ENDMDL
