MODEL 1
REMARK VINA RESULT:    -4.177      0.000      0.000
REMARK INTER + INTRA:          -5.274
REMARK INTER:                  -6.375
REMARK INTRA:                   1.101
REMARK UNBOUND:                 1.101
REMARK SMILES CC1=CCC[C@@H](C)C(=O)C[C@H](C(C)C)C(=O)C1
REMARK SMILES IDX 8 1 9 2 6 3 7 4 5 5 4 6 3 7 2 8 1 9 10 11 11 12 15 13 16 14
REMARK SMILES IDX 17 15 12 17 13 18 14 19
REMARK H PARENT
REMARK Flexibility Score: 70.00
ROOT
ATOM      1  C   UNL     1      -9.730  75.115  30.980  1.00  0.00     0.136 C 
ATOM      2  O   UNL     1      -8.646  74.859  31.488  1.00  0.00    -0.299 OA
ENDROOT
BRANCH   1   3
ATOM      3  C   UNL     1     -10.947  75.286  31.870  1.00  0.00     0.053 C 
ATOM      4  C   UNL     1     -10.885  76.665  32.544  1.00  0.00     0.016 C 
BRANCH   3   5
ATOM      5  C   UNL     1     -11.019  74.156  32.931  1.00  0.00     0.015 C 
BRANCH   5   6
ATOM      6  C   UNL     1     -11.271  72.720  32.401  1.00  0.00     0.028 C 
BRANCH   6   7
ATOM      7  C   UNL     1     -10.096  71.993  31.787  1.00  0.00    -0.028 C 
ATOM      8  C   UNL     1      -9.978  71.651  30.486  1.00  0.00    -0.070 CG0
ATOM      9  C   UNL     1      -8.624  71.193  30.000  1.00  0.00     0.039 C 
ATOM     10  G   UNL     1     -11.101  71.840  29.486  1.00  0.00     0.000 G0
ENDBRANCH   6   7
ENDBRANCH   5   6
ENDBRANCH   3   5
ENDBRANCH   1   3
BRANCH   1  11
ATOM     11  C   UNL     1      -9.813  75.347  29.492  1.00  0.00     0.087 C 
BRANCH  11  12
ATOM     12  C   UNL     1      -9.774  74.041  28.644  1.00  0.00     0.066 C 
BRANCH  12  13
ATOM     13  C   UNL     1     -11.034  73.164  28.749  1.00  0.00     0.140 C 
ATOM     14  O   UNL     1     -12.035  73.503  28.135  1.00  0.00    -0.299 OA
BRANCH  13  15
ATOM     15  C   UNL     1     -11.093  71.834  29.471  1.00  0.00     0.106 CG0
ATOM     16  G   UNL     1      -9.973  71.652  30.476  1.00  0.00     0.000 G0
ENDBRANCH  13  15
ENDBRANCH  12  13
BRANCH  12  17
ATOM     17  C   UNL     1      -9.378  74.383  27.165  1.00  0.00    -0.006 C 
ATOM     18  C   UNL     1     -10.500  75.070  26.373  1.00  0.00     0.008 C 
ATOM     19  C   UNL     1      -8.841  73.166  26.390  1.00  0.00     0.008 C 
ENDBRANCH  12  17
ENDBRANCH  11  12
ENDBRANCH   1  11
TORSDOF 1
ENDMDL
MODEL 2
REMARK VINA RESULT:    -4.117      5.584      8.016
REMARK INTER + INTRA:          -5.183
REMARK INTER:                  -5.060
REMARK INTRA:                  -0.124
REMARK UNBOUND:                 1.101
REMARK SMILES CC1=CCC[C@@H](C)C(=O)C[C@H](C(C)C)C(=O)C1
REMARK SMILES IDX 8 1 9 2 6 3 7 4 5 5 4 6 3 7 2 8 1 9 10 11 11 12 15 13 16 14
REMARK SMILES IDX 17 15 12 17 13 18 14 19
REMARK H PARENT
REMARK Flexibility Score: 70.00
ROOT
ATOM      1  C   UNL     1      -8.497  72.815  25.583  1.00  0.00     0.136 C 
ATOM      2  O   UNL     1      -8.929  72.439  26.665  1.00  0.00    -0.299 OA
ENDROOT
BRANCH   1   3
ATOM      3  C   UNL     1      -9.313  73.791  24.756  1.00  0.00     0.053 C 
ATOM      4  C   UNL     1      -9.872  74.885  25.678  1.00  0.00     0.016 C 
BRANCH   3   5
ATOM      5  C   UNL     1     -10.460  73.058  24.010  1.00  0.00     0.015 C 
BRANCH   5   6
ATOM      6  C   UNL     1     -10.482  73.193  22.465  1.00  0.00     0.028 C 
BRANCH   6   7
ATOM      7  C   UNL     1      -9.598  74.255  21.850  1.00  0.00    -0.028 C 
ATOM      8  C   UNL     1      -8.384  74.042  21.298  1.00  0.00    -0.070 CG0
ATOM      9  C   UNL     1      -7.779  75.157  20.480  1.00  0.00     0.039 C 
ATOM     10  G   UNL     1      -7.684  72.698  21.355  1.00  0.00     0.000 G0
ENDBRANCH   6   7
ENDBRANCH   5   6
ENDBRANCH   3   5
ENDBRANCH   1   3
BRANCH   1  11
ATOM     11  C   UNL     1      -7.123  72.377  25.142  1.00  0.00     0.087 C 
BRANCH  11  12
ATOM     12  C   UNL     1      -7.104  71.637  23.771  1.00  0.00     0.066 C 
BRANCH  12  13
ATOM     13  C   UNL     1      -6.783  72.528  22.559  1.00  0.00     0.140 C 
ATOM     14  O   UNL     1      -5.691  73.074  22.508  1.00  0.00    -0.299 OA
BRANCH  13  15
ATOM     15  C   UNL     1      -7.684  72.689  21.352  1.00  0.00     0.106 CG0
ATOM     16  G   UNL     1      -8.388  74.031  21.310  1.00  0.00     0.000 G0
ENDBRANCH  13  15
ENDBRANCH  12  13
BRANCH  12  17
ATOM     17  C   UNL     1      -6.188  70.367  23.869  1.00  0.00    -0.006 C 
ATOM     18  C   UNL     1      -6.965  69.044  23.808  1.00  0.00     0.008 C 
ATOM     19  C   UNL     1      -5.260  70.388  25.096  1.00  0.00     0.008 C 
ENDBRANCH  12  17
ENDBRANCH  11  12
ENDBRANCH   1  11
TORSDOF 1
ENDMDL
MODEL 3
REMARK VINA RESULT:    -4.090      7.410      9.744
REMARK INTER + INTRA:          -5.142
REMARK INTER:                  -5.413
REMARK INTRA:                   0.272
REMARK UNBOUND:                 1.101
REMARK SMILES CC1=CCC[C@@H](C)C(=O)C[C@H](C(C)C)C(=O)C1
REMARK SMILES IDX 8 1 9 2 6 3 7 4 5 5 4 6 3 7 2 8 1 9 10 11 11 12 15 13 16 14
REMARK SMILES IDX 17 15 12 17 13 18 14 19
REMARK H PARENT
REMARK Flexibility Score: 70.00
ROOT
ATOM      1  C   UNL     1      -7.716  67.756  34.874  1.00  0.00     0.136 C 
ATOM      2  O   UNL     1      -8.249  66.731  35.276  1.00  0.00    -0.299 OA
ENDROOT
BRANCH   1   3
ATOM      3  C   UNL     1      -6.510  67.658  33.958  1.00  0.00     0.053 C 
ATOM      4  C   UNL     1      -6.650  66.407  33.077  1.00  0.00     0.016 C 
BRANCH   3   5
ATOM      5  C   UNL     1      -5.195  67.609  34.780  1.00  0.00     0.015 C 
BRANCH   5   6
ATOM      6  C   UNL     1      -4.494  68.967  35.050  1.00  0.00     0.028 C 
BRANCH   6   7
ATOM      7  C   UNL     1      -3.924  69.189  36.433  1.00  0.00    -0.028 C 
ATOM      8  C   UNL     1      -4.587  69.732  37.477  1.00  0.00    -0.070 CG0
ATOM      9  C   UNL     1      -3.962  69.610  38.845  1.00  0.00     0.039 C 
ATOM     10  G   UNL     1      -5.975  70.325  37.344  1.00  0.00     0.000 G0
ENDBRANCH   6   7
ENDBRANCH   5   6
ENDBRANCH   3   5
ENDBRANCH   1   3
BRANCH   1  11
ATOM     11  C   UNL     1      -8.327  69.092  35.219  1.00  0.00     0.087 C 
BRANCH  11  12
ATOM     12  C   UNL     1      -8.446  69.357  36.750  1.00  0.00     0.066 C 
BRANCH  12  13
ATOM     13  C   UNL     1      -7.114  69.314  37.519  1.00  0.00     0.140 C 
ATOM     14  O   UNL     1      -6.892  68.361  38.250  1.00  0.00    -0.299 OA
BRANCH  13  15
ATOM     15  C   UNL     1      -5.994  70.319  37.347  1.00  0.00     0.106 CG0
ATOM     16  G   UNL     1      -4.616  69.703  37.485  1.00  0.00     0.000 G0
ENDBRANCH  13  15
ENDBRANCH  12  13
BRANCH  12  17
ATOM     17  C   UNL     1      -9.263  70.673  36.996  1.00  0.00    -0.006 C 
ATOM     18  C   UNL     1     -10.410  70.503  38.003  1.00  0.00     0.008 C 
ATOM     19  C   UNL     1      -9.782  71.311  35.695  1.00  0.00     0.008 C 
ENDBRANCH  12  17
ENDBRANCH  11  12
ENDBRANCH   1  11
TORSDOF 1
ENDMDL
MODEL 4
REMARK VINA RESULT:    -4.077      8.022      9.691
REMARK INTER + INTRA:          -5.122
REMARK INTER:                  -4.832
REMARK INTRA:                  -0.290
REMARK UNBOUND:                 1.101
REMARK SMILES CC1=CCC[C@@H](C)C(=O)C[C@H](C(C)C)C(=O)C1
REMARK SMILES IDX 8 1 9 2 6 3 7 4 5 5 4 6 3 7 2 8 1 9 10 11 11 12 15 13 16 14
REMARK SMILES IDX 17 15 12 17 13 18 14 19
REMARK H PARENT
REMARK Flexibility Score: 70.00
ROOT
ATOM      1  C   UNL     1      -6.713  69.040  36.802  1.00  0.00     0.136 C 
ATOM      2  O   UNL     1      -6.764  68.513  37.905  1.00  0.00    -0.299 OA
ENDROOT
BRANCH   1   3
ATOM      3  C   UNL     1      -7.935  69.001  35.903  1.00  0.00     0.053 C 
ATOM      4  C   UNL     1      -9.143  69.555  36.672  1.00  0.00     0.016 C 
BRANCH   3   5
ATOM      5  C   UNL     1      -8.211  67.556  35.408  1.00  0.00     0.015 C 
BRANCH   5   6
ATOM      6  C   UNL     1      -7.025  66.812  34.739  1.00  0.00     0.028 C 
BRANCH   6   7
ATOM      7  C   UNL     1      -6.562  67.318  33.391  1.00  0.00    -0.028 C 
ATOM      8  C   UNL     1      -5.277  67.518  33.027  1.00  0.00    -0.070 CG0
ATOM      9  C   UNL     1      -4.990  67.745  31.563  1.00  0.00     0.039 C 
ATOM     10  G   UNL     1      -4.123  67.388  34.000  1.00  0.00     0.000 G0
ENDBRANCH   6   7
ENDBRANCH   5   6
ENDBRANCH   3   5
ENDBRANCH   1   3
BRANCH   1  11
ATOM     11  C   UNL     1      -5.473  69.798  36.401  1.00  0.00     0.087 C 
BRANCH  11  12
ATOM     12  C   UNL     1      -4.213  68.900  36.218  1.00  0.00     0.066 C 
BRANCH  12  13
ATOM     13  C   UNL     1      -3.799  68.657  34.756  1.00  0.00     0.140 C 
ATOM     14  O   UNL     1      -3.101  69.492  34.200  1.00  0.00    -0.299 OA
BRANCH  13  15
ATOM     15  C   UNL     1      -4.097  67.390  33.981  1.00  0.00     0.106 CG0
ATOM     16  G   UNL     1      -5.281  67.531  33.044  1.00  0.00     0.000 G0
ENDBRANCH  13  15
ENDBRANCH  12  13
BRANCH  12  17
ATOM     17  C   UNL     1      -3.044  69.441  37.112  1.00  0.00    -0.006 C 
ATOM     18  C   UNL     1      -2.258  68.333  37.829  1.00  0.00     0.008 C 
ATOM     19  C   UNL     1      -3.502  70.512  38.118  1.00  0.00     0.008 C 
ENDBRANCH  12  17
ENDBRANCH  11  12
ENDBRANCH   1  11
TORSDOF 1
ENDMDL
MODEL 5
REMARK VINA RESULT:    -3.981      7.583      9.443
REMARK INTER + INTRA:          -4.975
REMARK INTER:                  -4.777
REMARK INTRA:                  -0.198
REMARK UNBOUND:                 1.101
REMARK SMILES CC1=CCC[C@@H](C)C(=O)C[C@H](C(C)C)C(=O)C1
REMARK SMILES IDX 8 1 9 2 6 3 7 4 5 5 4 6 3 7 2 8 1 9 10 11 11 12 15 13 16 14
REMARK SMILES IDX 17 15 12 17 13 18 14 19
REMARK H PARENT
REMARK Flexibility Score: 70.00
ROOT
ATOM      1  C   UNL     1      -5.315  69.594  37.016  1.00  0.00     0.136 C 
ATOM      2  O   UNL     1      -5.644  70.772  37.036  1.00  0.00    -0.299 OA
ENDROOT
BRANCH   1   3
ATOM      3  C   UNL     1      -3.856  69.226  37.213  1.00  0.00     0.053 C 
ATOM      4  C   UNL     1      -3.285  70.046  38.379  1.00  0.00     0.016 C 
BRANCH   3   5
ATOM      5  C   UNL     1      -3.044  69.472  35.914  1.00  0.00     0.015 C 
BRANCH   5   6
ATOM      6  C   UNL     1      -3.674  68.960  34.593  1.00  0.00     0.028 C 
BRANCH   6   7
ATOM      7  C   UNL     1      -3.748  67.462  34.395  1.00  0.00    -0.028 C 
ATOM      8  C   UNL     1      -4.780  66.795  33.836  1.00  0.00    -0.070 CG0
ATOM      9  C   UNL     1      -4.560  65.350  33.459  1.00  0.00     0.039 C 
ATOM     10  G   UNL     1      -6.081  67.473  33.454  1.00  0.00     0.000 G0
ENDBRANCH   6   7
ENDBRANCH   5   6
ENDBRANCH   3   5
ENDBRANCH   1   3
BRANCH   1  11
ATOM     11  C   UNL     1      -6.378  68.530  36.892  1.00  0.00     0.087 C 
BRANCH  11  12
ATOM     12  C   UNL     1      -7.238  68.643  35.598  1.00  0.00     0.066 C 
BRANCH  12  13
ATOM     13  C   UNL     1      -7.076  67.474  34.611  1.00  0.00     0.140 C 
ATOM     14  O   UNL     1      -7.848  66.530  34.691  1.00  0.00    -0.299 OA
BRANCH  13  15
ATOM     15  C   UNL     1      -6.095  67.458  33.457  1.00  0.00     0.106 CG0
ATOM     16  G   UNL     1      -4.777  66.796  33.806  1.00  0.00     0.000 G0
ENDBRANCH  13  15
ENDBRANCH  12  13
BRANCH  12  17
ATOM     17  C   UNL     1      -8.732  68.931  35.980  1.00  0.00    -0.006 C 
ATOM     18  C   UNL     1      -9.090  70.424  35.973  1.00  0.00     0.008 C 
ATOM     19  C   UNL     1      -9.147  68.286  37.314  1.00  0.00     0.008 C 
ENDBRANCH  12  17
ENDBRANCH  11  12
ENDBRANCH   1  11
TORSDOF 1
ENDMDL
MODEL 6
REMARK VINA RESULT:    -3.785      4.979      7.324
REMARK INTER + INTRA:          -4.676
REMARK INTER:                  -5.313
REMARK INTRA:                   0.638
REMARK UNBOUND:                 1.101
REMARK SMILES CC1=CCC[C@@H](C)C(=O)C[C@H](C(C)C)C(=O)C1
REMARK SMILES IDX 8 1 9 2 6 3 7 4 5 5 4 6 3 7 2 8 1 9 10 11 11 12 15 13 16 14
REMARK SMILES IDX 17 15 12 17 13 18 14 19
REMARK H PARENT
REMARK Flexibility Score: 70.00
ROOT
ATOM      1  C   UNL     1      -9.902  73.802  24.242  1.00  0.00     0.136 C 
ATOM      2  O   UNL     1      -9.897  75.026  24.250  1.00  0.00    -0.299 OA
ENDROOT
BRANCH   1   3
ATOM      3  C   UNL     1     -10.093  73.050  25.546  1.00  0.00     0.053 C 
ATOM      4  C   UNL     1     -10.563  74.033  26.628  1.00  0.00     0.016 C 
BRANCH   3   5
ATOM      5  C   UNL     1      -8.778  72.345  25.975  1.00  0.00     0.015 C 
BRANCH   5   6
ATOM      6  C   UNL     1      -7.482  72.793  25.251  1.00  0.00     0.028 C 
BRANCH   6   7
ATOM      7  C   UNL     1      -6.467  71.721  24.920  1.00  0.00    -0.028 C 
ATOM      8  C   UNL     1      -6.421  71.011  23.772  1.00  0.00    -0.070 CG0
ATOM      9  C   UNL     1      -5.180  70.197  23.500  1.00  0.00     0.039 C 
ATOM     10  G   UNL     1      -7.494  71.111  22.706  1.00  0.00     0.000 G0
ENDBRANCH   6   7
ENDBRANCH   5   6
ENDBRANCH   3   5
ENDBRANCH   1   3
BRANCH   1  11
ATOM     11  C   UNL     1      -9.814  73.071  22.925  1.00  0.00     0.087 C 
BRANCH  11  12
ATOM     12  C   UNL     1      -8.591  73.483  22.053  1.00  0.00     0.066 C 
BRANCH  12  13
ATOM     13  C   UNL     1      -7.484  72.419  21.949  1.00  0.00     0.140 C 
ATOM     14  O   UNL     1      -6.482  72.680  21.300  1.00  0.00    -0.299 OA
BRANCH  13  15
ATOM     15  C   UNL     1      -7.490  71.101  22.696  1.00  0.00     0.106 CG0
ATOM     16  G   UNL     1      -6.423  71.021  23.769  1.00  0.00     0.000 G0
ENDBRANCH  13  15
ENDBRANCH  12  13
BRANCH  12  17
ATOM     17  C   UNL     1      -9.087  74.001  20.658  1.00  0.00    -0.006 C 
ATOM     18  C   UNL     1      -8.097  74.953  19.970  1.00  0.00     0.008 C 
ATOM     19  C   UNL     1     -10.489  74.633  20.715  1.00  0.00     0.008 C 
ENDBRANCH  12  17
ENDBRANCH  11  12
ENDBRANCH   1  11
TORSDOF 1
ENDMDL
MODEL 7
REMARK VINA RESULT:    -3.782      7.491      8.704
REMARK INTER + INTRA:          -4.671
REMARK INTER:                  -4.567
REMARK INTRA:                  -0.104
REMARK UNBOUND:                 1.101
REMARK SMILES CC1=CCC[C@@H](C)C(=O)C[C@H](C(C)C)C(=O)C1
REMARK SMILES IDX 8 1 9 2 6 3 7 4 5 5 4 6 3 7 2 8 1 9 10 11 11 12 15 13 16 14
REMARK SMILES IDX 17 15 12 17 13 18 14 19
REMARK H PARENT
REMARK Flexibility Score: 70.00
ROOT
ATOM      1  C   UNL     1      -3.860  70.373  26.613  1.00  0.00     0.136 C 
ATOM      2  O   UNL     1      -2.918  70.912  26.049  1.00  0.00    -0.299 OA
ENDROOT
BRANCH   1   3
ATOM      3  C   UNL     1      -3.661  69.784  27.997  1.00  0.00     0.053 C 
ATOM      4  C   UNL     1      -2.160  69.565  28.237  1.00  0.00     0.016 C 
BRANCH   3   5
ATOM      5  C   UNL     1      -4.444  68.454  28.150  1.00  0.00     0.015 C 
BRANCH   5   6
ATOM      6  C   UNL     1      -3.928  67.245  27.326  1.00  0.00     0.028 C 
BRANCH   6   7
ATOM      7  C   UNL     1      -4.966  66.349  26.686  1.00  0.00    -0.028 C 
ATOM      8  C   UNL     1      -5.291  66.339  25.375  1.00  0.00    -0.070 CG0
ATOM      9  C   UNL     1      -6.130  65.191  24.870  1.00  0.00     0.039 C 
ATOM     10  G   UNL     1      -4.738  67.347  24.387  1.00  0.00     0.000 G0
ENDBRANCH   6   7
ENDBRANCH   5   6
ENDBRANCH   3   5
ENDBRANCH   1   3
BRANCH   1  11
ATOM     11  C   UNL     1      -5.221  70.390  25.961  1.00  0.00     0.087 C 
BRANCH  11  12
ATOM     12  C   UNL     1      -5.205  70.003  24.452  1.00  0.00     0.066 C 
BRANCH  12  13
ATOM     13  C   UNL     1      -5.616  68.551  24.153  1.00  0.00     0.140 C 
ATOM     14  O   UNL     1      -6.693  68.347  23.614  1.00  0.00    -0.299 OA
BRANCH  13  15
ATOM     15  C   UNL     1      -4.724  67.346  24.372  1.00  0.00     0.106 CG0
ATOM     16  G   UNL     1      -5.294  66.358  25.370  1.00  0.00     0.000 G0
ENDBRANCH  13  15
ENDBRANCH  12  13
BRANCH  12  17
ATOM     17  C   UNL     1      -6.017  71.060  23.626  1.00  0.00    -0.006 C 
ATOM     18  C   UNL     1      -5.137  71.952  22.738  1.00  0.00     0.008 C 
ATOM     19  C   UNL     1      -6.945  71.923  24.501  1.00  0.00     0.008 C 
ENDBRANCH  12  17
ENDBRANCH  11  12
ENDBRANCH   1  11
TORSDOF 1
ENDMDL
MODEL 8
REMARK VINA RESULT:    -3.761      7.223      9.415
REMARK INTER + INTRA:          -4.639
REMARK INTER:                  -4.751
REMARK INTRA:                   0.112
REMARK UNBOUND:                 1.101
REMARK SMILES CC1=CCC[C@@H](C)C(=O)C[C@H](C(C)C)C(=O)C1
REMARK SMILES IDX 8 1 9 2 6 3 7 4 5 5 4 6 3 7 2 8 1 9 10 11 11 12 15 13 16 14
REMARK SMILES IDX 17 15 12 17 13 18 14 19
REMARK H PARENT
REMARK Flexibility Score: 70.00
ROOT
ATOM      1  C   UNL     1      -5.592  70.900  25.080  1.00  0.00     0.136 C 
ATOM      2  O   UNL     1      -6.469  71.688  25.406  1.00  0.00    -0.299 OA
ENDROOT
BRANCH   1   3
ATOM      3  C   UNL     1      -5.523  70.416  23.643  1.00  0.00     0.053 C 
ATOM      4  C   UNL     1      -5.036  71.566  22.749  1.00  0.00     0.016 C 
BRANCH   3   5
ATOM      5  C   UNL     1      -6.906  69.896  23.169  1.00  0.00     0.015 C 
BRANCH   5   6
ATOM      6  C   UNL     1      -7.228  68.408  23.463  1.00  0.00     0.028 C 
BRANCH   6   7
ATOM      7  C   UNL     1      -6.227  67.376  22.991  1.00  0.00    -0.028 C 
ATOM      8  C   UNL     1      -5.437  66.626  23.789  1.00  0.00    -0.070 CG0
ATOM      9  C   UNL     1      -4.718  65.456  23.165  1.00  0.00     0.039 C 
ATOM     10  G   UNL     1      -5.360  66.832  25.289  1.00  0.00     0.000 G0
ENDBRANCH   6   7
ENDBRANCH   5   6
ENDBRANCH   3   5
ENDBRANCH   1   3
BRANCH   1  11
ATOM     11  C   UNL     1      -4.542  70.502  26.088  1.00  0.00     0.087 C 
BRANCH  11  12
ATOM     12  C   UNL     1      -4.733  69.070  26.669  1.00  0.00     0.066 C 
BRANCH  12  13
ATOM     13  C   UNL     1      -4.386  67.927  25.699  1.00  0.00     0.140 C 
ATOM     14  O   UNL     1      -3.239  67.835  25.290  1.00  0.00    -0.299 OA
BRANCH  13  15
ATOM     15  C   UNL     1      -5.344  66.822  25.300  1.00  0.00     0.106 CG0
ATOM     16  G   UNL     1      -5.444  66.636  23.799  1.00  0.00     0.000 G0
ENDBRANCH  13  15
ENDBRANCH  12  13
BRANCH  12  17
ATOM     17  C   UNL     1      -3.997  68.957  28.050  1.00  0.00    -0.006 C 
ATOM     18  C   UNL     1      -4.890  69.306  29.250  1.00  0.00     0.008 C 
ATOM     19  C   UNL     1      -2.688  69.765  28.101  1.00  0.00     0.008 C 
ENDBRANCH  12  17
ENDBRANCH  11  12
ENDBRANCH   1  11
TORSDOF 1
ENDMDL
MODEL 9
REMARK VINA RESULT:    -3.672      7.437      9.383
REMARK INTER + INTRA:          -4.503
REMARK INTER:                  -4.209
REMARK INTRA:                  -0.294
REMARK UNBOUND:                 1.101
REMARK SMILES CC1=CCC[C@@H](C)C(=O)C[C@H](C(C)C)C(=O)C1
REMARK SMILES IDX 8 1 9 2 6 3 7 4 5 5 4 6 3 7 2 8 1 9 10 11 11 12 15 13 16 14
REMARK SMILES IDX 17 15 12 17 13 18 14 19
REMARK H PARENT
REMARK Flexibility Score: 70.00
ROOT
ATOM      1  C   UNL     1      -6.178  69.642  23.634  1.00  0.00     0.136 C 
ATOM      2  O   UNL     1      -6.321  70.016  22.478  1.00  0.00    -0.299 OA
ENDROOT
BRANCH   1   3
ATOM      3  C   UNL     1      -5.817  70.655  24.704  1.00  0.00     0.053 C 
ATOM      4  C   UNL     1      -6.716  71.891  24.547  1.00  0.00     0.016 C 
BRANCH   3   5
ATOM      5  C   UNL     1      -4.318  71.047  24.611  1.00  0.00     0.015 C 
BRANCH   5   6
ATOM      6  C   UNL     1      -3.385  70.489  25.717  1.00  0.00     0.028 C 
BRANCH   6   7
ATOM      7  C   UNL     1      -4.034  70.019  27.000  1.00  0.00    -0.028 C 
ATOM      8  C   UNL     1      -4.148  68.732  27.395  1.00  0.00    -0.070 CG0
ATOM      9  C   UNL     1      -4.560  68.471  28.823  1.00  0.00     0.039 C 
ATOM     10  G   UNL     1      -3.752  67.567  26.511  1.00  0.00     0.000 G0
ENDBRANCH   6   7
ENDBRANCH   5   6
ENDBRANCH   3   5
ENDBRANCH   1   3
BRANCH   1  11
ATOM     11  C   UNL     1      -6.456  68.201  23.986  1.00  0.00     0.087 C 
BRANCH  11  12
ATOM     12  C   UNL     1      -5.175  67.351  24.234  1.00  0.00     0.066 C 
BRANCH  12  13
ATOM     13  C   UNL     1      -4.906  67.001  25.708  1.00  0.00     0.140 C 
ATOM     14  O   UNL     1      -5.602  66.151  26.243  1.00  0.00    -0.299 OA
BRANCH  13  15
ATOM     15  C   UNL     1      -3.754  67.553  26.523  1.00  0.00     0.106 CG0
ATOM     16  G   UNL     1      -4.148  68.736  27.385  1.00  0.00     0.000 G0
ENDBRANCH  13  15
ENDBRANCH  12  13
BRANCH  12  17
ATOM     17  C   UNL     1      -5.180  66.099  23.289  1.00  0.00    -0.006 C 
ATOM     18  C   UNL     1      -4.230  66.231  22.090  1.00  0.00     0.008 C 
ATOM     19  C   UNL     1      -6.592  65.710  22.815  1.00  0.00     0.008 C 
ENDBRANCH  12  17
ENDBRANCH  11  12
ENDBRANCH   1  11
TORSDOF 1
ENDMDL
