MODEL 1
REMARK VINA RESULT:    -4.133      0.000      0.000
REMARK INTER + INTRA:          -4.133
REMARK INTER:                  -4.133
REMARK INTRA:                   0.000
REMARK UNBOUND:                 0.000
REMARK SMILES CC1=CC[C@@H]2[C@@H](C1)C2(C)C
REMARK SMILES IDX 1 1 2 2 3 3 4 4 5 5 6 6 7 7 8 8 9 9 10 10
REMARK H PARENT
REMARK Flexibility Score: inf
ROOT
ATOM      1  C   UNL     1      11.514  18.902  23.265  1.00  0.00     0.039 C 
ATOM      2  C   UNL     1      10.077  19.212  23.571  1.00  0.00    -0.077 C 
ATOM      3  C   UNL     1       9.730  19.619  24.828  1.00  0.00    -0.028 C 
ATOM      4  C   UNL     1       8.284  19.924  25.209  1.00  0.00     0.031 C 
ATOM      5  C   UNL     1       7.372  19.170  24.235  1.00  0.00     0.003 C 
ATOM      6  C   UNL     1       7.778  19.831  22.865  1.00  0.00     0.003 C 
ATOM      7  C   UNL     1       9.012  19.003  22.487  1.00  0.00     0.034 C 
ATOM      8  C   UNL     1       6.332  19.542  23.202  1.00  0.00    -0.029 C 
ATOM      9  C   UNL     1       5.686  18.394  22.421  1.00  0.00     0.012 C 
ATOM     10  C   UNL     1       5.450  20.743  23.554  1.00  0.00     0.012 C 
ENDROOT
TORSDOF 0
ENDMDL
MODEL 2
REMARK VINA RESULT:    -4.108     14.508     15.707
REMARK INTER + INTRA:          -4.108
REMARK INTER:                  -4.108
REMARK INTRA:                   0.000
REMARK UNBOUND:                 0.000
REMARK SMILES CC1=CC[C@@H]2[C@@H](C1)C2(C)C
REMARK SMILES IDX 1 1 2 2 3 3 4 4 5 5 6 6 7 7 8 8 9 9 10 10
REMARK H PARENT
REMARK Flexibility Score: inf
ROOT
ATOM      1  C   UNL     1      10.181  15.147  38.567  1.00  0.00     0.039 C 
ATOM      2  C   UNL     1      11.503  14.942  37.884  1.00  0.00    -0.077 C 
ATOM      3  C   UNL     1      11.840  13.698  37.432  1.00  0.00    -0.028 C 
ATOM      4  C   UNL     1      13.178  13.419  36.753  1.00  0.00     0.031 C 
ATOM      5  C   UNL     1      14.167  14.501  37.201  1.00  0.00     0.003 C 
ATOM      6  C   UNL     1      13.474  15.798  36.640  1.00  0.00     0.003 C 
ATOM      7  C   UNL     1      12.480  16.117  37.763  1.00  0.00     0.034 C 
ATOM      8  C   UNL     1      14.968  15.593  36.530  1.00  0.00    -0.029 C 
ATOM      9  C   UNL     1      15.826  16.482  37.435  1.00  0.00     0.012 C 
ATOM     10  C   UNL     1      15.521  15.252  35.143  1.00  0.00     0.012 C 
ENDROOT
TORSDOF 0
ENDMDL
MODEL 3
REMARK VINA RESULT:    -4.086      0.781      2.178
REMARK INTER + INTRA:          -4.086
REMARK INTER:                  -4.086
REMARK INTRA:                   0.000
REMARK UNBOUND:                 0.000
REMARK SMILES CC1=CC[C@@H]2[C@@H](C1)C2(C)C
REMARK SMILES IDX 1 1 2 2 3 3 4 4 5 5 6 6 7 7 8 8 9 9 10 10
REMARK H PARENT
REMARK Flexibility Score: inf
ROOT
ATOM      1  C   UNL     1      10.685  19.688  25.177  1.00  0.00     0.039 C 
ATOM      2  C   UNL     1       9.495  19.472  24.285  1.00  0.00    -0.077 C 
ATOM      3  C   UNL     1       9.686  19.033  23.006  1.00  0.00    -0.028 C 
ATOM      4  C   UNL     1       8.522  18.818  22.042  1.00  0.00     0.031 C 
ATOM      5  C   UNL     1       7.349  19.682  22.522  1.00  0.00     0.003 C 
ATOM      6  C   UNL     1       7.071  19.058  23.940  1.00  0.00     0.003 C 
ATOM      7  C   UNL     1       8.092  19.809  24.803  1.00  0.00     0.034 C 
ATOM      8  C   UNL     1       5.940  19.436  23.010  1.00  0.00    -0.029 C 
ATOM      9  C   UNL     1       5.124  20.664  23.426  1.00  0.00     0.012 C 
ATOM     10  C   UNL     1       5.193  18.289  22.325  1.00  0.00     0.012 C 
ENDROOT
TORSDOF 0
ENDMDL
MODEL 4
REMARK VINA RESULT:    -4.048      1.469      2.341
REMARK INTER + INTRA:          -4.048
REMARK INTER:                  -4.048
REMARK INTRA:                   0.000
REMARK UNBOUND:                 0.000
REMARK SMILES CC1=CC[C@@H]2[C@@H](C1)C2(C)C
REMARK SMILES IDX 1 1 2 2 3 3 4 4 5 5 6 6 7 7 8 8 9 9 10 10
REMARK H PARENT
REMARK Flexibility Score: inf
ROOT
ATOM      1  C   UNL     1      11.135  18.898  27.303  1.00  0.00     0.039 C 
ATOM      2  C   UNL     1       9.950  19.180  26.423  1.00  0.00    -0.077 C 
ATOM      3  C   UNL     1       8.701  19.233  26.974  1.00  0.00    -0.028 C 
ATOM      4  C   UNL     1       7.455  19.490  26.131  1.00  0.00     0.031 C 
ATOM      5  C   UNL     1       7.774  19.089  24.687  1.00  0.00     0.003 C 
ATOM      6  C   UNL     1       8.941  20.088  24.344  1.00  0.00     0.003 C 
ATOM      7  C   UNL     1      10.153  19.340  24.912  1.00  0.00     0.034 C 
ATOM      8  C   UNL     1       7.842  19.790  23.348  1.00  0.00    -0.029 C 
ATOM      9  C   UNL     1       8.255  18.943  22.141  1.00  0.00     0.012 C 
ATOM     10  C   UNL     1       6.797  20.885  23.121  1.00  0.00     0.012 C 
ENDROOT
TORSDOF 0
ENDMDL
MODEL 5
REMARK VINA RESULT:    -4.047      1.713      3.029
REMARK INTER + INTRA:          -4.047
REMARK INTER:                  -4.047
REMARK INTRA:                   0.000
REMARK UNBOUND:                 0.000
REMARK SMILES CC1=CC[C@@H]2[C@@H](C1)C2(C)C
REMARK SMILES IDX 1 1 2 2 3 3 4 4 5 5 6 6 7 7 8 8 9 9 10 10
REMARK H PARENT
REMARK Flexibility Score: inf
ROOT
ATOM      1  C   UNL     1      11.496  18.940  27.725  1.00  0.00     0.039 C 
ATOM      2  C   UNL     1      10.529  19.179  26.601  1.00  0.00    -0.077 C 
ATOM      3  C   UNL     1      10.984  19.185  25.313  1.00  0.00    -0.028 C 
ATOM      4  C   UNL     1      10.057  19.447  24.129  1.00  0.00     0.031 C 
ATOM      5  C   UNL     1       8.840  20.223  24.647  1.00  0.00     0.003 C 
ATOM      6  C   UNL     1       8.229  19.187  25.663  1.00  0.00     0.003 C 
ATOM      7  C   UNL     1       9.059  19.476  26.920  1.00  0.00     0.034 C 
ATOM      8  C   UNL     1       7.349  19.987  24.729  1.00  0.00    -0.029 C 
ATOM      9  C   UNL     1       6.507  21.083  25.389  1.00  0.00     0.012 C 
ATOM     10  C   UNL     1       6.731  19.236  23.546  1.00  0.00     0.012 C 
ENDROOT
TORSDOF 0
ENDMDL
MODEL 6
REMARK VINA RESULT:    -4.045     14.955     15.618
REMARK INTER + INTRA:          -4.045
REMARK INTER:                  -4.045
REMARK INTRA:                   0.000
REMARK UNBOUND:                 0.000
REMARK SMILES CC1=CC[C@@H]2[C@@H](C1)C2(C)C
REMARK SMILES IDX 1 1 2 2 3 3 4 4 5 5 6 6 7 7 8 8 9 9 10 10
REMARK H PARENT
REMARK Flexibility Score: inf
ROOT
ATOM      1  C   UNL     1      15.533  14.338  36.044  1.00  0.00     0.039 C 
ATOM      2  C   UNL     1      14.342  14.942  36.731  1.00  0.00    -0.077 C 
ATOM      3  C   UNL     1      14.179  16.298  36.724  1.00  0.00    -0.028 C 
ATOM      4  C   UNL     1      13.005  16.976  37.426  1.00  0.00     0.031 C 
ATOM      5  C   UNL     1      12.494  16.023  38.513  1.00  0.00     0.003 C 
ATOM      6  C   UNL     1      12.039  14.789  37.647  1.00  0.00     0.003 C 
ATOM      7  C   UNL     1      13.363  14.033  37.484  1.00  0.00     0.034 C 
ATOM      8  C   UNL     1      11.203  15.290  38.804  1.00  0.00    -0.029 C 
ATOM      9  C   UNL     1      11.180  14.389  40.042  1.00  0.00     0.012 C 
ATOM     10  C   UNL     1       9.919  16.047  38.455  1.00  0.00     0.012 C 
ENDROOT
TORSDOF 0
ENDMDL
MODEL 7
REMARK VINA RESULT:    -4.001      1.094      3.965
REMARK INTER + INTRA:          -4.001
REMARK INTER:                  -4.001
REMARK INTRA:                   0.000
REMARK UNBOUND:                 0.000
REMARK SMILES CC1=CC[C@@H]2[C@@H](C1)C2(C)C
REMARK SMILES IDX 1 1 2 2 3 3 4 4 5 5 6 6 7 7 8 8 9 9 10 10
REMARK H PARENT
REMARK Flexibility Score: inf
ROOT
ATOM      1  C   UNL     1       5.646  18.510  22.168  1.00  0.00     0.039 C 
ATOM      2  C   UNL     1       6.943  18.887  22.827  1.00  0.00    -0.077 C 
ATOM      3  C   UNL     1       6.959  19.176  24.161  1.00  0.00    -0.028 C 
ATOM      4  C   UNL     1       8.239  19.590  24.883  1.00  0.00     0.031 C 
ATOM      5  C   UNL     1       9.207  20.155  23.837  1.00  0.00     0.003 C 
ATOM      6  C   UNL     1       9.425  18.899  22.914  1.00  0.00     0.003 C 
ATOM      7  C   UNL     1       8.215  19.003  21.977  1.00  0.00     0.034 C 
ATOM      8  C   UNL     1      10.578  19.794  23.310  1.00  0.00    -0.029 C 
ATOM      9  C   UNL     1      11.147  20.674  22.193  1.00  0.00     0.012 C 
ATOM     10  C   UNL     1      11.560  19.241  24.345  1.00  0.00     0.012 C 
ENDROOT
TORSDOF 0
ENDMDL
MODEL 8
REMARK VINA RESULT:    -3.986      1.718      4.827
REMARK INTER + INTRA:          -3.986
REMARK INTER:                  -3.986
REMARK INTRA:                   0.000
REMARK UNBOUND:                 0.000
REMARK SMILES CC1=CC[C@@H]2[C@@H](C1)C2(C)C
REMARK SMILES IDX 1 1 2 2 3 3 4 4 5 5 6 6 7 7 8 8 9 9 10 10
REMARK H PARENT
REMARK Flexibility Score: inf
ROOT
ATOM      1  C   UNL     1       2.403  19.707  21.024  1.00  0.00     0.039 C 
ATOM      2  C   UNL     1       3.671  19.838  21.820  1.00  0.00    -0.077 C 
ATOM      3  C   UNL     1       3.816  20.887  22.683  1.00  0.00    -0.028 C 
ATOM      4  C   UNL     1       5.089  21.091  23.501  1.00  0.00     0.031 C 
ATOM      5  C   UNL     1       6.231  20.365  22.782  1.00  0.00     0.003 C 
ATOM      6  C   UNL     1       5.724  18.875  22.831  1.00  0.00     0.003 C 
ATOM      7  C   UNL     1       4.806  18.830  21.604  1.00  0.00     0.034 C 
ATOM      8  C   UNL     1       7.171  19.224  23.099  1.00  0.00    -0.029 C 
ATOM      9  C   UNL     1       8.164  18.816  22.006  1.00  0.00     0.012 C 
ATOM     10  C   UNL     1       7.646  19.142  24.552  1.00  0.00     0.012 C 
ENDROOT
TORSDOF 0
ENDMDL
MODEL 9
REMARK VINA RESULT:    -3.892     15.056     15.754
REMARK INTER + INTRA:          -3.892
REMARK INTER:                  -3.892
REMARK INTRA:                   0.000
REMARK UNBOUND:                 0.000
REMARK SMILES CC1=CC[C@@H]2[C@@H](C1)C2(C)C
REMARK SMILES IDX 1 1 2 2 3 3 4 4 5 5 6 6 7 7 8 8 9 9 10 10
REMARK H PARENT
REMARK Flexibility Score: inf
ROOT
ATOM      1  C   UNL     1      14.685  17.195  36.831  1.00  0.00     0.039 C 
ATOM      2  C   UNL     1      13.610  16.294  37.369  1.00  0.00    -0.077 C 
ATOM      3  C   UNL     1      13.705  14.945  37.175  1.00  0.00    -0.028 C 
ATOM      4  C   UNL     1      12.635  13.979  37.675  1.00  0.00     0.031 C 
ATOM      5  C   UNL     1      11.328  14.766  37.834  1.00  0.00     0.003 C 
ATOM      6  C   UNL     1      11.738  15.818  38.930  1.00  0.00     0.003 C 
ATOM      7  C   UNL     1      12.392  16.907  38.071  1.00  0.00     0.034 C 
ATOM      8  C   UNL     1      10.398  15.119  38.972  1.00  0.00    -0.029 C 
ATOM      9  C   UNL     1       9.185  15.991  38.634  1.00  0.00     0.012 C 
ATOM     10  C   UNL     1      10.215  14.035  40.038  1.00  0.00     0.012 C 
ENDROOT
TORSDOF 0
ENDMDL
