MODEL 1
REMARK VINA RESULT:    -4.185      0.000      0.000
REMARK INTER + INTRA:          -5.534
REMARK INTER:                  -5.652
REMARK INTRA:                   0.118
REMARK UNBOUND:                 0.118
REMARK SMILES C=C1CCC=C(C)CC[C@@H]2[C@H]1CC2(C)C
REMARK SMILES IDX 11 1 12 2 13 3 10 4 14 5 15 6 9 7 8 8 6 9 7 10 5 11 2 13
REMARK SMILES IDX 1 14 3 15 4 16
REMARK H PARENT
REMARK Flexibility Score: 70.00
ROOT
ATOM      1  C   UNL     1       4.903   6.899  16.060  1.00  0.00     0.018 C 
ATOM      2  C   UNL     1       4.393   7.669  17.278  1.00  0.00     0.015 C 
ATOM      3  C   UNL     1       5.826   8.141  17.586  1.00  0.00    -0.031 C 
ATOM      4  C   UNL     1       6.329   7.459  16.279  1.00  0.00     0.002 C 
ATOM      5  C   UNL     1       5.932   9.677  17.693  1.00  0.00     0.011 C 
ATOM      6  C   UNL     1       6.403   7.464  18.844  1.00  0.00     0.011 C 
ENDROOT
BRANCH   4   7
ATOM      7  C   UNL     1       6.975   8.395  15.234  1.00  0.00     0.009 C 
BRANCH   7   8
ATOM      8  C   UNL     1       8.097   7.732  14.416  1.00  0.00     0.030 C 
BRANCH   8   9
ATOM      9  C   UNL     1       7.712   7.733  12.952  1.00  0.00    -0.077 C 
ATOM     10  C   UNL     1       8.471   8.624  12.003  1.00  0.00     0.039 C 
ATOM     11  C   UNL     1       6.626   7.072  12.490  1.00  0.00    -0.028 CG0
ATOM     12  G   UNL     1       5.830   6.055  13.274  1.00  0.00     0.000 G0
ENDBRANCH   8   9
ENDBRANCH   7   8
ENDBRANCH   4   7
BRANCH   1  13
ATOM     13  C   UNL     1       4.096   7.123  14.779  1.00  0.00    -0.074 C 
ATOM     14  C   UNL     1       3.217   8.144  14.765  1.00  0.00     0.008 C 
BRANCH  13  15
ATOM     15  C   UNL     1       4.336   6.384  13.473  1.00  0.00     0.035 C 
BRANCH  15  16
ATOM     16  C   UNL     1       5.834   6.047  13.263  1.00  0.00     0.032 CG0
ATOM     17  G   UNL     1       6.614   7.070  12.472  1.00  0.00     0.000 G0
ENDBRANCH  15  16
ENDBRANCH  13  15
ENDBRANCH   1  13
TORSDOF 0
ENDMDL
MODEL 2
REMARK VINA RESULT:    -4.149      1.860      4.995
REMARK INTER + INTRA:          -5.487
REMARK INTER:                  -5.467
REMARK INTRA:                  -0.020
REMARK UNBOUND:                 0.118
REMARK SMILES C=C1CCC=C(C)CC[C@@H]2[C@H]1CC2(C)C
REMARK SMILES IDX 11 1 12 2 13 3 10 4 14 5 15 6 9 7 8 8 6 9 7 10 5 11 2 13
REMARK SMILES IDX 1 14 3 15 4 16
REMARK H PARENT
REMARK Flexibility Score: 70.00
ROOT
ATOM      1  C   UNL     1       7.211   7.023  14.256  1.00  0.00     0.018 C 
ATOM      2  C   UNL     1       7.885   7.173  12.892  1.00  0.00     0.015 C 
ATOM      3  C   UNL     1       6.724   6.412  12.228  1.00  0.00    -0.031 C 
ATOM      4  C   UNL     1       5.977   6.364  13.594  1.00  0.00     0.002 C 
ATOM      5  C   UNL     1       6.079   7.208  11.073  1.00  0.00     0.011 C 
ATOM      6  C   UNL     1       7.145   5.007  11.755  1.00  0.00     0.011 C 
ENDROOT
BRANCH   4   7
ATOM      7  C   UNL     1       4.598   7.057  13.635  1.00  0.00     0.009 C 
BRANCH   7   8
ATOM      8  C   UNL     1       3.728   6.641  14.833  1.00  0.00     0.030 C 
BRANCH   8   9
ATOM      9  C   UNL     1       3.435   7.859  15.683  1.00  0.00    -0.077 C 
ATOM     10  C   UNL     1       2.164   8.628  15.434  1.00  0.00     0.039 C 
ATOM     11  C   UNL     1       4.334   8.362  16.559  1.00  0.00    -0.028 CG0
ATOM     12  G   UNL     1       5.595   7.661  17.007  1.00  0.00     0.000 G0
ENDBRANCH   8   9
ENDBRANCH   7   8
ENDBRANCH   4   7
BRANCH   1  13
ATOM     13  C   UNL     1       7.139   8.312  15.078  1.00  0.00    -0.074 C 
ATOM     14  C   UNL     1       7.113   9.480  14.408  1.00  0.00     0.008 C 
BRANCH  13  15
ATOM     15  C   UNL     1       6.928   8.360  16.582  1.00  0.00     0.035 C 
BRANCH  15  16
ATOM     16  C   UNL     1       5.605   7.672  17.005  1.00  0.00     0.032 CG0
ATOM     17  G   UNL     1       4.347   8.369  16.543  1.00  0.00     0.000 G0
ENDBRANCH  15  16
ENDBRANCH  13  15
ENDBRANCH   1  13
TORSDOF 0
ENDMDL
MODEL 3
REMARK VINA RESULT:    -4.051     11.657     13.379
REMARK INTER + INTRA:          -5.354
REMARK INTER:                  -5.452
REMARK INTRA:                   0.098
REMARK UNBOUND:                 0.118
REMARK SMILES C=C1CCC=C(C)CC[C@@H]2[C@H]1CC2(C)C
REMARK SMILES IDX 11 1 12 2 13 3 10 4 14 5 15 6 9 7 8 8 6 9 7 10 5 11 2 13
REMARK SMILES IDX 1 14 3 15 4 16
REMARK H PARENT
REMARK Flexibility Score: 70.00
ROOT
ATOM      1  C   UNL     1      10.136   6.456  26.662  1.00  0.00     0.018 C 
ATOM      2  C   UNL     1       9.343   6.157  27.934  1.00  0.00     0.015 C 
ATOM      3  C   UNL     1      10.255   4.953  28.226  1.00  0.00    -0.031 C 
ATOM      4  C   UNL     1      11.138   5.326  26.999  1.00  0.00     0.002 C 
ATOM      5  C   UNL     1      10.893   5.021  29.631  1.00  0.00     0.011 C 
ATOM      6  C   UNL     1       9.528   3.609  28.022  1.00  0.00     0.011 C 
ENDROOT
BRANCH   4   7
ATOM      7  C   UNL     1      12.617   5.651  27.304  1.00  0.00     0.009 C 
BRANCH   7   8
ATOM      8  C   UNL     1      13.510   5.716  26.054  1.00  0.00     0.030 C 
BRANCH   8   9
ATOM      9  C   UNL     1      14.095   7.106  25.932  1.00  0.00    -0.077 C 
ATOM     10  C   UNL     1      15.403   7.405  26.617  1.00  0.00     0.039 C 
ATOM     11  C   UNL     1      13.423   8.125  25.349  1.00  0.00    -0.028 CG0
ATOM     12  G   UNL     1      12.166   7.976  24.524  1.00  0.00     0.000 G0
ENDBRANCH   8   9
ENDBRANCH   7   8
ENDBRANCH   4   7
BRANCH   1  13
ATOM     13  C   UNL     1      10.544   7.922  26.493  1.00  0.00    -0.074 C 
ATOM     14  C   UNL     1      10.767   8.641  27.610  1.00  0.00     0.008 C 
BRANCH  13  15
ATOM     15  C   UNL     1      10.873   8.572  25.160  1.00  0.00     0.035 C 
BRANCH  15  16
ATOM     16  C   UNL     1      12.158   7.978  24.526  1.00  0.00     0.032 CG0
ATOM     17  G   UNL     1      13.411   8.133  25.356  1.00  0.00     0.000 G0
ENDBRANCH  15  16
ENDBRANCH  13  15
ENDBRANCH   1  13
TORSDOF 0
ENDMDL
MODEL 4
REMARK VINA RESULT:    -3.918     10.203     12.798
REMARK INTER + INTRA:          -5.175
REMARK INTER:                  -5.293
REMARK INTRA:                   0.118
REMARK UNBOUND:                 0.118
REMARK SMILES C=C1CCC=C(C)CC[C@@H]2[C@H]1CC2(C)C
REMARK SMILES IDX 11 1 12 2 13 3 10 4 14 5 15 6 9 7 8 8 6 9 7 10 5 11 2 13
REMARK SMILES IDX 1 14 3 15 4 16
REMARK H PARENT
REMARK Flexibility Score: 70.00
ROOT
ATOM      1  C   UNL     1      13.360   8.980  23.680  1.00  0.00     0.018 C 
ATOM      2  C   UNL     1      14.627   8.924  22.827  1.00  0.00     0.015 C 
ATOM      3  C   UNL     1      15.441   8.481  24.055  1.00  0.00    -0.031 C 
ATOM      4  C   UNL     1      14.133   8.419  24.898  1.00  0.00     0.002 C 
ATOM      5  C   UNL     1      16.212   7.166  23.811  1.00  0.00     0.011 C 
ATOM      6  C   UNL     1      16.392   9.587  24.553  1.00  0.00     0.011 C 
ENDROOT
BRANCH   4   7
ATOM      7  C   UNL     1      13.774   7.039  25.489  1.00  0.00     0.009 C 
BRANCH   7   8
ATOM      8  C   UNL     1      13.057   7.111  26.848  1.00  0.00     0.030 C 
BRANCH   8   9
ATOM      9  C   UNL     1      11.682   6.492  26.719  1.00  0.00    -0.077 C 
ATOM     10  C   UNL     1      11.409   5.181  27.410  1.00  0.00     0.039 C 
ATOM     11  C   UNL     1      10.735   6.999  25.896  1.00  0.00    -0.028 CG0
ATOM     12  G   UNL     1      10.802   8.351  25.225  1.00  0.00     0.000 G0
ENDBRANCH   8   9
ENDBRANCH   7   8
ENDBRANCH   4   7
BRANCH   1  13
ATOM     13  C   UNL     1      12.143   8.288  23.062  1.00  0.00    -0.074 C 
ATOM     14  C   UNL     1      12.350   7.497  21.992  1.00  0.00     0.008 C 
BRANCH  13  15
ATOM     15  C   UNL     1      10.749   8.300  23.668  1.00  0.00     0.035 C 
BRANCH  15  16
ATOM     16  C   UNL     1      10.791   8.352  25.217  1.00  0.00     0.032 CG0
ATOM     17  G   UNL     1      10.735   7.007  25.903  1.00  0.00     0.000 G0
ENDBRANCH  15  16
ENDBRANCH  13  15
ENDBRANCH   1  13
TORSDOF 0
ENDMDL
MODEL 5
REMARK VINA RESULT:    -3.915      2.250      4.782
REMARK INTER + INTRA:          -5.170
REMARK INTER:                  -5.183
REMARK INTRA:                   0.013
REMARK UNBOUND:                 0.118
REMARK SMILES C=C1CCC=C(C)CC[C@@H]2[C@H]1CC2(C)C
REMARK SMILES IDX 11 1 12 2 13 3 10 4 14 5 15 6 9 7 8 8 6 9 7 10 5 11 2 13
REMARK SMILES IDX 1 14 3 15 4 16
REMARK H PARENT
REMARK Flexibility Score: 70.00
ROOT
ATOM      1  C   UNL     1       4.867   7.719  14.657  1.00  0.00     0.018 C 
ATOM      2  C   UNL     1       5.281   6.727  13.570  1.00  0.00     0.015 C 
ATOM      3  C   UNL     1       6.764   7.011  13.868  1.00  0.00    -0.031 C 
ATOM      4  C   UNL     1       6.348   7.928  15.056  1.00  0.00     0.002 C 
ATOM      5  C   UNL     1       7.559   5.726  14.183  1.00  0.00     0.011 C 
ATOM      6  C   UNL     1       7.442   7.809  12.737  1.00  0.00     0.011 C 
ENDROOT
BRANCH   4   7
ATOM      7  C   UNL     1       6.855   7.499  16.450  1.00  0.00     0.009 C 
BRANCH   7   8
ATOM      8  C   UNL     1       6.749   8.602  17.517  1.00  0.00     0.030 C 
BRANCH   8   9
ATOM      9  C   UNL     1       5.833   8.135  18.627  1.00  0.00    -0.077 C 
ATOM     10  C   UNL     1       6.436   7.439  19.819  1.00  0.00     0.039 C 
ATOM     11  C   UNL     1       4.486   8.193  18.526  1.00  0.00    -0.028 CG0
ATOM     12  G   UNL     1       3.728   8.953  17.462  1.00  0.00     0.000 G0
ENDBRANCH   8   9
ENDBRANCH   7   8
ENDBRANCH   4   7
BRANCH   1  13
ATOM     13  C   UNL     1       3.799   7.200  15.623  1.00  0.00    -0.074 C 
ATOM     14  C   UNL     1       3.749   5.872  15.843  1.00  0.00     0.008 C 
BRANCH  13  15
ATOM     15  C   UNL     1       2.906   8.088  16.472  1.00  0.00     0.035 C 
BRANCH  15  16
ATOM     16  C   UNL     1       3.724   8.963  17.456  1.00  0.00     0.032 CG0
ATOM     17  G   UNL     1       4.483   8.196  18.514  1.00  0.00     0.000 G0
ENDBRANCH  15  16
ENDBRANCH  13  15
ENDBRANCH   1  13
TORSDOF 0
ENDMDL
MODEL 6
REMARK VINA RESULT:    -3.914     10.089     12.556
REMARK INTER + INTRA:          -5.169
REMARK INTER:                  -5.844
REMARK INTRA:                   0.675
REMARK UNBOUND:                 0.118
REMARK SMILES C=C1CCC=C(C)CC[C@@H]2[C@H]1CC2(C)C
REMARK SMILES IDX 11 1 12 2 13 3 10 4 14 5 15 6 9 7 8 8 6 9 7 10 5 11 2 13
REMARK SMILES IDX 1 14 3 15 4 16
REMARK H PARENT
REMARK Flexibility Score: 70.00
ROOT
ATOM      1  C   UNL     1      14.784   7.338  25.326  1.00  0.00     0.018 C 
ATOM      2  C   UNL     1      15.824   8.056  26.186  1.00  0.00     0.015 C 
ATOM      3  C   UNL     1      16.526   8.571  24.917  1.00  0.00    -0.031 C 
ATOM      4  C   UNL     1      15.401   7.943  24.042  1.00  0.00     0.002 C 
ATOM      5  C   UNL     1      16.683  10.107  24.910  1.00  0.00     0.011 C 
ATOM      6  C   UNL     1      17.885   7.882  24.684  1.00  0.00     0.011 C 
ENDROOT
BRANCH   4   7
ATOM      7  C   UNL     1      14.594   8.930  23.170  1.00  0.00     0.009 C 
BRANCH   7   8
ATOM      8  C   UNL     1      13.766   8.250  22.066  1.00  0.00     0.030 C 
BRANCH   8   9
ATOM      9  C   UNL     1      12.466   9.003  21.883  1.00  0.00    -0.077 C 
ATOM     10  C   UNL     1      12.276   9.831  20.639  1.00  0.00     0.039 C 
ATOM     11  C   UNL     1      11.528   9.071  22.855  1.00  0.00    -0.028 CG0
ATOM     12  G   UNL     1      11.509   8.221  24.104  1.00  0.00     0.000 G0
ENDBRANCH   8   9
ENDBRANCH   7   8
ENDBRANCH   4   7
BRANCH   1  13
ATOM     13  C   UNL     1      13.333   7.568  25.752  1.00  0.00    -0.074 C 
ATOM     14  C   UNL     1      12.849   6.810  26.756  1.00  0.00     0.008 C 
BRANCH  13  15
ATOM     15  C   UNL     1      12.455   8.697  25.238  1.00  0.00     0.035 C 
BRANCH  15  16
ATOM     16  C   UNL     1      11.495   8.221  24.118  1.00  0.00     0.032 CG0
ATOM     17  G   UNL     1      11.516   9.058  22.860  1.00  0.00     0.000 G0
ENDBRANCH  15  16
ENDBRANCH  13  15
ENDBRANCH   1  13
TORSDOF 0
ENDMDL
MODEL 7
REMARK VINA RESULT:    -3.907     11.075     14.394
REMARK INTER + INTRA:          -5.159
REMARK INTER:                  -5.409
REMARK INTRA:                   0.250
REMARK UNBOUND:                 0.118
REMARK SMILES C=C1CCC=C(C)CC[C@@H]2[C@H]1CC2(C)C
REMARK SMILES IDX 11 1 12 2 13 3 10 4 14 5 15 6 9 7 8 8 6 9 7 10 5 11 2 13
REMARK SMILES IDX 1 14 3 15 4 16
REMARK H PARENT
REMARK Flexibility Score: 70.00
ROOT
ATOM      1  C   UNL     1      12.039   6.434  25.965  1.00  0.00     0.018 C 
ATOM      2  C   UNL     1      12.659   7.482  25.041  1.00  0.00     0.015 C 
ATOM      3  C   UNL     1      11.365   8.312  25.106  1.00  0.00    -0.031 C 
ATOM      4  C   UNL     1      10.776   7.310  26.142  1.00  0.00     0.002 C 
ATOM      5  C   UNL     1      11.618   9.766  25.560  1.00  0.00     0.011 C 
ATOM      6  C   UNL     1      10.588   8.283  23.775  1.00  0.00     0.011 C 
ENDROOT
BRANCH   4   7
ATOM      7  C   UNL     1      10.416   7.900  27.523  1.00  0.00     0.009 C 
BRANCH   7   8
ATOM      8  C   UNL     1       9.151   7.288  28.150  1.00  0.00     0.030 C 
BRANCH   8   9
ATOM      9  C   UNL     1       9.517   6.620  29.458  1.00  0.00    -0.077 C 
ATOM     10  C   UNL     1       8.968   7.188  30.741  1.00  0.00     0.039 C 
ATOM     11  C   UNL     1      10.426   5.621  29.529  1.00  0.00    -0.028 CG0
ATOM     12  G   UNL     1      10.981   4.866  28.344  1.00  0.00     0.000 G0
ENDBRANCH   8   9
ENDBRANCH   7   8
ENDBRANCH   4   7
BRANCH   1  13
ATOM     13  C   UNL     1      12.933   5.999  27.129  1.00  0.00    -0.074 C 
ATOM     14  C   UNL     1      14.084   6.672  27.317  1.00  0.00     0.008 C 
BRANCH  13  15
ATOM     15  C   UNL     1      12.537   4.975  28.179  1.00  0.00     0.035 C 
BRANCH  15  16
ATOM     16  C   UNL     1      10.999   4.874  28.341  1.00  0.00     0.032 CG0
ATOM     17  G   UNL     1      10.430   5.619  29.526  1.00  0.00     0.000 G0
ENDBRANCH  15  16
ENDBRANCH  13  15
ENDBRANCH   1  13
TORSDOF 0
ENDMDL
MODEL 8
REMARK VINA RESULT:    -3.809      9.956     12.887
REMARK INTER + INTRA:          -5.028
REMARK INTER:                  -5.037
REMARK INTRA:                   0.009
REMARK UNBOUND:                 0.118
REMARK SMILES C=C1CCC=C(C)CC[C@@H]2[C@H]1CC2(C)C
REMARK SMILES IDX 11 1 12 2 13 3 10 4 14 5 15 6 9 7 8 8 6 9 7 10 5 11 2 13
REMARK SMILES IDX 1 14 3 15 4 16
REMARK H PARENT
REMARK Flexibility Score: 70.00
ROOT
ATOM      1  C   UNL     1      12.412   6.594  27.386  1.00  0.00     0.018 C 
ATOM      2  C   UNL     1      11.900   5.426  28.229  1.00  0.00     0.015 C 
ATOM      3  C   UNL     1      10.449   5.845  27.937  1.00  0.00    -0.031 C 
ATOM      4  C   UNL     1      10.964   6.960  26.980  1.00  0.00     0.002 C 
ATOM      5  C   UNL     1       9.613   4.696  27.333  1.00  0.00     0.011 C 
ATOM      6  C   UNL     1       9.752   6.433  29.179  1.00  0.00     0.011 C 
ENDROOT
BRANCH   4   7
ATOM      7  C   UNL     1      10.509   6.851  25.508  1.00  0.00     0.009 C 
BRANCH   7   8
ATOM      8  C   UNL     1      10.718   8.141  24.696  1.00  0.00     0.030 C 
BRANCH   8   9
ATOM      9  C   UNL     1      11.671   7.861  23.554  1.00  0.00    -0.077 C 
ATOM     10  C   UNL     1      11.104   7.454  22.219  1.00  0.00     0.039 C 
ATOM     11  C   UNL     1      13.012   7.827  23.725  1.00  0.00    -0.028 CG0
ATOM     12  G   UNL     1      13.744   8.314  24.954  1.00  0.00     0.000 G0
ENDBRANCH   8   9
ENDBRANCH   7   8
ENDBRANCH   4   7
BRANCH   1  13
ATOM     13  C   UNL     1      13.503   6.224  26.377  1.00  0.00    -0.074 C 
ATOM     14  C   UNL     1      13.501   4.969  25.888  1.00  0.00     0.008 C 
BRANCH  13  15
ATOM     15  C   UNL     1      14.480   7.215  25.768  1.00  0.00     0.035 C 
BRANCH  15  16
ATOM     16  C   UNL     1      13.757   8.316  24.951  1.00  0.00     0.032 CG0
ATOM     17  G   UNL     1      13.010   7.823  23.734  1.00  0.00     0.000 G0
ENDBRANCH  15  16
ENDBRANCH  13  15
ENDBRANCH   1  13
TORSDOF 0
ENDMDL
MODEL 9
REMARK VINA RESULT:    -3.674      9.689     12.757
REMARK INTER + INTRA:          -4.844
REMARK INTER:                  -4.830
REMARK INTRA:                  -0.014
REMARK UNBOUND:                 0.118
REMARK SMILES C=C1CCC=C(C)CC[C@@H]2[C@H]1CC2(C)C
REMARK SMILES IDX 11 1 12 2 13 3 10 4 14 5 15 6 9 7 8 8 6 9 7 10 5 11 2 13
REMARK SMILES IDX 1 14 3 15 4 16
REMARK H PARENT
REMARK Flexibility Score: 70.00
ROOT
ATOM      1  C   UNL     1      13.837   7.882  23.099  1.00  0.00     0.018 C 
ATOM      2  C   UNL     1      13.608   8.702  21.830  1.00  0.00     0.015 C 
ATOM      3  C   UNL     1      12.183   8.135  21.713  1.00  0.00    -0.031 C 
ATOM      4  C   UNL     1      12.368   7.393  23.070  1.00  0.00     0.002 C 
ATOM      5  C   UNL     1      11.111   9.242  21.629  1.00  0.00     0.011 C 
ATOM      6  C   UNL     1      12.044   7.150  20.536  1.00  0.00     0.011 C 
ENDROOT
BRANCH   4   7
ATOM      7  C   UNL     1      11.386   7.786  24.194  1.00  0.00     0.009 C 
BRANCH   7   8
ATOM      8  C   UNL     1      11.134   6.666  25.219  1.00  0.00     0.030 C 
BRANCH   8   9
ATOM      9  C   UNL     1      11.585   7.132  26.586  1.00  0.00    -0.077 C 
ATOM     10  C   UNL     1      10.542   7.529  27.598  1.00  0.00     0.039 C 
ATOM     11  C   UNL     1      12.888   7.337  26.886  1.00  0.00    -0.028 CG0
ATOM     12  G   UNL     1      14.055   6.890  26.037  1.00  0.00     0.000 G0
ENDBRANCH   8   9
ENDBRANCH   7   8
ENDBRANCH   4   7
BRANCH   1  13
ATOM     13  C   UNL     1      14.441   8.665  24.267  1.00  0.00    -0.074 C 
ATOM     14  C   UNL     1      14.351  10.009  24.230  1.00  0.00     0.008 C 
BRANCH  13  15
ATOM     15  C   UNL     1      14.984   8.032  25.537  1.00  0.00     0.035 C 
BRANCH  15  16
ATOM     16  C   UNL     1      14.074   6.886  26.049  1.00  0.00     0.032 CG0
ATOM     17  G   UNL     1      12.894   7.330  26.881  1.00  0.00     0.000 G0
ENDBRANCH  15  16
ENDBRANCH  13  15
ENDBRANCH   1  13
TORSDOF 0
ENDMDL
