MODEL 1
REMARK VINA RESULT:    23.134      0.000      0.000
REMARK INTER + INTRA:          31.407
REMARK INTER:                  28.543
REMARK INTRA:                   2.864
REMARK UNBOUND:                 2.864
REMARK SMILES C=C1CC[C@H]2[C@@H]([C@H]3[C@@H](C)CC[C@@H]13)C2(C)C
REMARK SMILES IDX 3 1 2 2 1 3 12 4 9 5 8 6 10 7 7 8 11 9 4 11 5 12 6 13 13 14
REMARK SMILES IDX 14 16 15 17
REMARK H PARENT
REMARK Flexibility Score: 80.00
ROOT
ATOM      1  C   UNL     1     152.180 135.120 162.072  1.00  0.00     0.031 C 
ENDROOT
BRANCH   1   2
ATOM      2  C   UNL     1     151.535 136.066 163.086  1.00  0.00    -0.074 C 
ATOM      3  C   UNL     1     151.724 135.774 164.389  1.00  0.00     0.008 C 
BRANCH   2   4
ATOM      4  C   UNL     1     151.002 137.453 162.687  1.00  0.00     0.018 C 
ATOM      5  C   UNL     1     148.233 139.012 160.575  1.00  0.00     0.008 C 
ATOM      6  C   UNL     1     149.459 138.860 161.488  1.00  0.00    -0.010 C 
ATOM      7  C   UNL     1     149.129 139.037 162.969  1.00  0.00     0.004 C 
ATOM      8  C   UNL     1     150.189 137.513 161.382  1.00  0.00     0.003 CG0
ATOM      9  C   UNL     1     150.079 138.112 163.731  1.00  0.00     0.008 C 
ATOM     10  G   UNL     1     149.191 136.318 161.306  1.00  0.00     0.000 G0
ENDBRANCH   2   4
ENDBRANCH   1   2
BRANCH   1  11
ATOM     11  C   UNL     1     151.418 134.902 160.754  1.00  0.00     0.009 C 
BRANCH  11  12
ATOM     12  C   UNL     1     149.892 134.882 160.965  1.00  0.00    -0.001 C 
ATOM     13  C   UNL     1     149.243 136.237 161.295  1.00  0.00     0.002 CG0
ATOM     14  C   UNL     1     148.958 135.553 159.944  1.00  0.00    -0.029 C 
ATOM     15  G   UNL     1     150.208 137.454 161.419  1.00  0.00     0.000 G0
ATOM     16  C   UNL     1     147.581 134.887 159.833  1.00  0.00     0.011 C 
ATOM     17  C   UNL     1     149.553 136.059 158.616  1.00  0.00     0.011 C 
ENDBRANCH  11  12
ENDBRANCH   1  11
TORSDOF 0
ENDMDL
MODEL 2
REMARK VINA RESULT:    23.598      8.713     10.553
REMARK INTER + INTRA:          31.980
REMARK INTER:                  28.856
REMARK INTRA:                   3.123
REMARK UNBOUND:                 2.864
REMARK SMILES C=C1CC[C@H]2[C@@H]([C@H]3[C@@H](C)CC[C@@H]13)C2(C)C
REMARK SMILES IDX 3 1 2 2 1 3 12 4 9 5 8 6 10 7 7 8 11 9 4 11 5 12 6 13 13 14
REMARK SMILES IDX 14 16 15 17
REMARK H PARENT
REMARK Flexibility Score: 80.00
ROOT
ATOM      1  C   UNL     1     145.965 143.683 162.207  1.00  0.00     0.031 C 
ENDROOT
BRANCH   1   2
ATOM      2  C   UNL     1     145.384 144.900 162.930  1.00  0.00    -0.074 C 
ATOM      3  C   UNL     1     144.806 144.672 164.127  1.00  0.00     0.008 C 
BRANCH   2   4
ATOM      4  C   UNL     1     145.731 146.341 162.516  1.00  0.00     0.018 C 
ATOM      5  C   UNL     1     145.310 148.697 159.545  1.00  0.00     0.008 C 
ATOM      6  C   UNL     1     145.722 148.141 160.917  1.00  0.00    -0.010 C 
ATOM      7  C   UNL     1     144.786 148.573 162.044  1.00  0.00     0.004 C 
ATOM      8  C   UNL     1     145.798 146.609 161.003  1.00  0.00     0.003 CG0
ATOM      9  C   UNL     1     144.756 147.413 163.041  1.00  0.00     0.008 C 
ATOM     10  G   UNL     1     144.600 145.928 160.274  1.00  0.00     0.000 G0
ENDBRANCH   2   4
ENDBRANCH   1   2
BRANCH   1  11
ATOM     11  C   UNL     1     146.001 143.751 160.671  1.00  0.00     0.009 C 
BRANCH  11  12
ATOM     12  C   UNL     1     144.727 144.390 160.090  1.00  0.00    -0.001 C 
ATOM     13  C   UNL     1     144.612 145.916 160.243  1.00  0.00     0.002 CG0
ATOM     14  C   UNL     1     144.808 145.294 158.847  1.00  0.00    -0.029 C 
ATOM     15  G   UNL     1     145.773 146.624 161.004  1.00  0.00     0.000 G0
ATOM     16  C   UNL     1     143.550 145.257 157.972  1.00  0.00     0.011 C 
ATOM     17  C   UNL     1     146.142 145.380 158.080  1.00  0.00     0.011 C 
ENDBRANCH  11  12
ENDBRANCH   1  11
TORSDOF 0
ENDMDL
MODEL 3
REMARK VINA RESULT:    23.924      7.465      9.964
REMARK INTER + INTRA:          32.383
REMARK INTER:                  29.363
REMARK INTRA:                   3.020
REMARK UNBOUND:                 2.864
REMARK SMILES C=C1CC[C@H]2[C@@H]([C@H]3[C@@H](C)CC[C@@H]13)C2(C)C
REMARK SMILES IDX 3 1 2 2 1 3 12 4 9 5 8 6 10 7 7 8 11 9 4 11 5 12 6 13 13 14
REMARK SMILES IDX 14 16 15 17
REMARK H PARENT
REMARK Flexibility Score: 80.00
ROOT
ATOM      1  C   UNL     1     144.649 147.222 162.204  1.00  0.00     0.031 C 
ENDROOT
BRANCH   1   2
ATOM      2  C   UNL     1     145.297 146.096 163.011  1.00  0.00    -0.074 C 
ATOM      3  C   UNL     1     145.843 146.439 164.196  1.00  0.00     0.008 C 
BRANCH   2   4
ATOM      4  C   UNL     1     145.050 144.612 162.689  1.00  0.00     0.018 C 
ATOM      5  C   UNL     1     145.671 142.097 159.889  1.00  0.00     0.008 C 
ATOM      6  C   UNL     1     145.201 142.715 161.214  1.00  0.00    -0.010 C 
ATOM      7  C   UNL     1     146.143 142.419 162.380  1.00  0.00     0.004 C 
ATOM      8  C   UNL     1     145.026 144.241 161.197  1.00  0.00     0.003 CG0
ATOM      9  C   UNL     1     146.082 143.642 163.298  1.00  0.00     0.008 C 
ATOM     10  G   UNL     1     146.191 144.949 160.440  1.00  0.00     0.000 G0
ENDBRANCH   2   4
ENDBRANCH   1   2
BRANCH   1  11
ATOM     11  C   UNL     1     144.679 147.075 160.674  1.00  0.00     0.009 C 
BRANCH  11  12
ATOM     12  C   UNL     1     146.006 146.473 160.177  1.00  0.00    -0.001 C 
ATOM     13  C   UNL     1     146.193 144.966 160.420  1.00  0.00     0.002 CG0
ATOM     14  C   UNL     1     146.020 145.500 158.985  1.00  0.00    -0.029 C 
ATOM     15  G   UNL     1     145.040 144.240 161.178  1.00  0.00     0.000 G0
ATOM     16  C   UNL     1     147.308 145.555 158.156  1.00  0.00     0.011 C 
ATOM     17  C   UNL     1     144.723 145.301 158.176  1.00  0.00     0.011 C 
ENDBRANCH  11  12
ENDBRANCH   1  11
TORSDOF 0
ENDMDL
MODEL 4
REMARK VINA RESULT:    24.720      9.795     11.599
REMARK INTER + INTRA:          33.364
REMARK INTER:                  30.305
REMARK INTRA:                   3.059
REMARK UNBOUND:                 2.864
REMARK SMILES C=C1CC[C@H]2[C@@H]([C@H]3[C@@H](C)CC[C@@H]13)C2(C)C
REMARK SMILES IDX 3 1 2 2 1 3 12 4 9 5 8 6 10 7 7 8 11 9 4 11 5 12 6 13 13 14
REMARK SMILES IDX 14 16 15 17
REMARK H PARENT
REMARK Flexibility Score: 80.00
ROOT
ATOM      1  C   UNL     1     146.178 145.493 163.592  1.00  0.00     0.031 C 
ENDROOT
BRANCH   1   2
ATOM      2  C   UNL     1     145.411 146.782 163.895  1.00  0.00    -0.074 C 
ATOM      3  C   UNL     1     144.802 146.853 165.097  1.00  0.00     0.008 C 
BRANCH   2   4
ATOM      4  C   UNL     1     145.597 148.060 163.060  1.00  0.00     0.018 C 
ATOM      5  C   UNL     1     145.018 149.327 159.508  1.00  0.00     0.008 C 
ATOM      6  C   UNL     1     145.436 149.272 160.985  1.00  0.00    -0.010 C 
ATOM      7  C   UNL     1     144.408 149.902 161.923  1.00  0.00     0.004 C 
ATOM      8  C   UNL     1     145.695 147.862 161.538  1.00  0.00     0.003 CG0
ATOM      9  C   UNL     1     144.477 149.106 163.228  1.00  0.00     0.008 C 
ATOM     10  G   UNL     1     144.621 146.843 161.050  1.00  0.00     0.000 G0
ENDBRANCH   2   4
ENDBRANCH   1   2
BRANCH   1  11
ATOM     11  C   UNL     1     146.278 145.086 162.113  1.00  0.00     0.009 C 
BRANCH  11  12
ATOM     12  C   UNL     1     144.965 145.345 161.351  1.00  0.00    -0.001 C 
ATOM     13  C   UNL     1     144.661 146.815 161.017  1.00  0.00     0.002 CG0
ATOM     14  C   UNL     1     144.996 145.821 159.889  1.00  0.00    -0.029 C 
ATOM     15  G   UNL     1     145.692 147.867 161.525  1.00  0.00     0.000 G0
ATOM     16  C   UNL     1     143.793 145.353 159.060  1.00  0.00     0.011 C 
ATOM     17  C   UNL     1     146.344 145.835 159.142  1.00  0.00     0.011 C 
ENDBRANCH  11  12
ENDBRANCH   1  11
TORSDOF 0
ENDMDL
MODEL 5
REMARK VINA RESULT:    24.962      8.512     11.010
REMARK INTER + INTRA:          33.663
REMARK INTER:                  30.582
REMARK INTRA:                   3.081
REMARK UNBOUND:                 2.864
REMARK SMILES C=C1CC[C@H]2[C@@H]([C@H]3[C@@H](C)CC[C@@H]13)C2(C)C
REMARK SMILES IDX 3 1 2 2 1 3 12 4 9 5 8 6 10 7 7 8 11 9 4 11 5 12 6 13 13 14
REMARK SMILES IDX 14 16 15 17
REMARK H PARENT
REMARK Flexibility Score: 80.00
ROOT
ATOM      1  C   UNL     1     145.844 147.555 165.895  1.00  0.00     0.031 C 
ENDROOT
BRANCH   1   2
ATOM      2  C   UNL     1     145.289 147.775 164.487  1.00  0.00    -0.074 C 
ATOM      3  C   UNL     1     144.664 148.949 164.260  1.00  0.00     0.008 C 
BRANCH   2   4
ATOM      4  C   UNL     1     145.706 146.894 163.296  1.00  0.00     0.018 C 
ATOM      5  C   UNL     1     145.479 143.265 162.140  1.00  0.00     0.008 C 
ATOM      6  C   UNL     1     145.821 144.762 162.183  1.00  0.00    -0.010 C 
ATOM      7  C   UNL     1     144.864 145.619 161.356  1.00  0.00     0.004 C 
ATOM      8  C   UNL     1     145.835 145.389 163.585  1.00  0.00     0.003 CG0
ATOM      9  C   UNL     1     144.755 146.960 162.084  1.00  0.00     0.008 C 
ATOM     10  G   UNL     1     144.638 144.894 164.452  1.00  0.00     0.000 G0
ENDBRANCH   2   4
ENDBRANCH   1   2
BRANCH   1  11
ATOM     11  C   UNL     1     145.862 146.106 166.407  1.00  0.00     0.009 C 
BRANCH  11  12
ATOM     12  C   UNL     1     144.630 145.311 165.937  1.00  0.00    -0.001 C 
ATOM     13  C   UNL     1     144.620 144.901 164.455  1.00  0.00     0.002 CG0
ATOM     14  C   UNL     1     144.763 143.828 165.551  1.00  0.00    -0.029 C 
ATOM     15  G   UNL     1     145.833 145.376 163.598  1.00  0.00     0.000 G0
ATOM     16  C   UNL     1     143.498 143.003 165.817  1.00  0.00     0.011 C 
ATOM     17  C   UNL     1     146.093 143.104 165.836  1.00  0.00     0.011 C 
ENDBRANCH  11  12
ENDBRANCH   1  11
TORSDOF 0
ENDMDL
MODEL 6
REMARK VINA RESULT:    25.134      9.449     11.786
REMARK INTER + INTRA:          33.875
REMARK INTER:                  30.869
REMARK INTRA:                   3.007
REMARK UNBOUND:                 2.864
REMARK SMILES C=C1CC[C@H]2[C@@H]([C@H]3[C@@H](C)CC[C@@H]13)C2(C)C
REMARK SMILES IDX 3 1 2 2 1 3 12 4 9 5 8 6 10 7 7 8 11 9 4 11 5 12 6 13 13 14
REMARK SMILES IDX 14 16 15 17
REMARK H PARENT
REMARK Flexibility Score: 80.00
ROOT
ATOM      1  C   UNL     1     144.328 149.127 163.564  1.00  0.00     0.031 C 
ENDROOT
BRANCH   1   2
ATOM      2  C   UNL     1     145.054 148.795 164.869  1.00  0.00    -0.074 C 
ATOM      3  C   UNL     1     145.653 149.823 165.505  1.00  0.00     0.008 C 
BRANCH   2   4
ATOM      4  C   UNL     1     144.836 147.465 165.611  1.00  0.00     0.018 C 
ATOM      5  C   UNL     1     145.357 143.722 165.092  1.00  0.00     0.008 C 
ATOM      6  C   UNL     1     144.955 145.063 165.723  1.00  0.00    -0.010 C 
ATOM      7  C   UNL     1     145.980 145.584 166.729  1.00  0.00     0.004 C 
ATOM      8  C   UNL     1     144.728 146.211 164.728  1.00  0.00     0.003 CG0
ATOM      9  C   UNL     1     145.938 147.110 166.629  1.00  0.00     0.008 C 
ATOM     10  G   UNL     1     145.816 146.233 163.612  1.00  0.00     0.000 G0
ENDBRANCH   2   4
ENDBRANCH   1   2
BRANCH   1  11
ATOM     11  C   UNL     1     144.244 148.002 162.520  1.00  0.00     0.009 C 
BRANCH  11  12
ATOM     12  C   UNL     1     145.554 147.198 162.429  1.00  0.00    -0.001 C 
ATOM     13  C   UNL     1     145.817 146.209 163.577  1.00  0.00     0.002 CG0
ATOM     14  C   UNL     1     145.520 145.684 162.160  1.00  0.00    -0.029 C 
ATOM     15  G   UNL     1     144.751 146.172 164.714  1.00  0.00     0.000 G0
ATOM     16  C   UNL     1     146.742 145.163 161.394  1.00  0.00     0.011 C 
ATOM     17  C   UNL     1     144.177 145.028 161.782  1.00  0.00     0.011 C 
ENDBRANCH  11  12
ENDBRANCH   1  11
TORSDOF 0
ENDMDL
MODEL 7
REMARK VINA RESULT:    25.277      8.366     10.418
REMARK INTER + INTRA:          34.051
REMARK INTER:                  31.172
REMARK INTRA:                   2.879
REMARK UNBOUND:                 2.864
REMARK SMILES C=C1CC[C@H]2[C@@H]([C@H]3[C@@H](C)CC[C@@H]13)C2(C)C
REMARK SMILES IDX 3 1 2 2 1 3 12 4 9 5 8 6 10 7 7 8 11 9 4 11 5 12 6 13 13 14
REMARK SMILES IDX 14 16 15 17
REMARK H PARENT
REMARK Flexibility Score: 80.00
ROOT
ATOM      1  C   UNL     1     145.074 145.594 163.064  1.00  0.00     0.031 C 
ENDROOT
BRANCH   1   2
ATOM      2  C   UNL     1     145.383 146.852 162.251  1.00  0.00    -0.074 C 
ATOM      3  C   UNL     1     144.977 148.026 162.778  1.00  0.00     0.008 C 
BRANCH   2   4
ATOM      4  C   UNL     1     146.394 146.849 161.091  1.00  0.00     0.018 C 
ATOM      5  C   UNL     1     146.852 145.299 157.635  1.00  0.00     0.008 C 
ATOM      6  C   UNL     1     147.111 146.106 158.915  1.00  0.00    -0.010 C 
ATOM      7  C   UNL     1     146.777 147.590 158.766  1.00  0.00     0.004 C 
ATOM      8  C   UNL     1     146.341 145.629 160.156  1.00  0.00     0.003 CG0
ATOM      9  C   UNL     1     146.280 148.054 160.136  1.00  0.00     0.008 C 
ATOM     10  G   UNL     1     144.864 145.265 159.815  1.00  0.00     0.000 G0
ENDBRANCH   2   4
ENDBRANCH   1   2
BRANCH   1  11
ATOM     11  C   UNL     1     144.801 144.310 162.263  1.00  0.00     0.009 C 
BRANCH  11  12
ATOM     12  C   UNL     1     144.023 144.593 160.965  1.00  0.00    -0.001 C 
ATOM     13  C   UNL     1     144.827 145.253 159.831  1.00  0.00     0.002 CG0
ATOM     14  C   UNL     1     144.336 143.800 159.684  1.00  0.00    -0.029 C 
ATOM     15  G   UNL     1     146.314 145.596 160.147  1.00  0.00     0.000 G0
ATOM     16  C   UNL     1     143.126 143.617 158.759  1.00  0.00     0.011 C 
ATOM     17  C   UNL     1     145.285 142.590 159.775  1.00  0.00     0.011 C 
ENDBRANCH  11  12
ENDBRANCH   1  11
TORSDOF 0
ENDMDL
MODEL 8
REMARK VINA RESULT:    25.396      8.304     10.517
REMARK INTER + INTRA:          34.198
REMARK INTER:                  31.172
REMARK INTRA:                   3.026
REMARK UNBOUND:                 2.864
REMARK SMILES C=C1CC[C@H]2[C@@H]([C@H]3[C@@H](C)CC[C@@H]13)C2(C)C
REMARK SMILES IDX 3 1 2 2 1 3 12 4 9 5 8 6 10 7 7 8 11 9 4 11 5 12 6 13 13 14
REMARK SMILES IDX 14 16 15 17
REMARK H PARENT
REMARK Flexibility Score: 80.00
ROOT
ATOM      1  C   UNL     1     145.803 145.359 162.905  1.00  0.00     0.031 C 
ENDROOT
BRANCH   1   2
ATOM      2  C   UNL     1     145.374 144.128 162.106  1.00  0.00    -0.074 C 
ATOM      3  C   UNL     1     145.683 142.926 162.636  1.00  0.00     0.008 C 
BRANCH   2   4
ATOM      4  C   UNL     1     144.354 144.212 160.958  1.00  0.00     0.018 C 
ATOM      5  C   UNL     1     143.996 145.760 157.489  1.00  0.00     0.008 C 
ATOM      6  C   UNL     1     143.680 144.994 158.782  1.00  0.00    -0.010 C 
ATOM      7  C   UNL     1     143.873 143.484 158.647  1.00  0.00     0.004 C 
ATOM      8  C   UNL     1     144.507 145.412 160.007  1.00  0.00     0.003 CG0
ATOM      9  C   UNL     1     144.343 142.991 160.017  1.00  0.00     0.008 C 
ATOM     10  G   UNL     1     146.007 145.632 159.645  1.00  0.00     0.000 G0
ENDBRANCH   2   4
ENDBRANCH   1   2
BRANCH   1  11
ATOM     11  C   UNL     1     146.157 146.615 162.092  1.00  0.00     0.009 C 
BRANCH  11  12
ATOM     12  C   UNL     1     146.886 146.269 160.780  1.00  0.00    -0.001 C 
ATOM     13  C   UNL     1     146.014 145.659 159.670  1.00  0.00     0.002 CG0
ATOM     14  C   UNL     1     146.602 147.072 159.499  1.00  0.00    -0.029 C 
ATOM     15  G   UNL     1     144.514 145.423 160.019  1.00  0.00     0.000 G0
ATOM     16  C   UNL     1     147.801 147.164 158.548  1.00  0.00     0.011 C 
ATOM     17  C   UNL     1     145.741 148.347 159.599  1.00  0.00     0.011 C 
ENDBRANCH  11  12
ENDBRANCH   1  11
TORSDOF 0
ENDMDL
