MODEL 1
REMARK VINA RESULT:    -4.038      0.000      0.000
REMARK INTER + INTRA:          -9.529
REMARK INTER:                  -7.461
REMARK INTRA:                  -2.067
REMARK UNBOUND:                -2.067
REMARK SMILES CCCCCCCCCCCCCCCCO
REMARK SMILES IDX 9 1 8 2 7 3 6 4 5 5 4 6 3 7 2 8 1 9 10 10 11 11 12 12 13 13
REMARK SMILES IDX 14 14 15 15 16 16 17 17
REMARK H PARENT 17 18
REMARK Flexibility Score: inf
ROOT
ATOM      1  C   UNL     1     174.925 174.000 181.875  1.00  0.00     0.000 C 
ENDROOT
BRANCH   1   2
ATOM      2  C   UNL     1     175.778 174.590 183.019  1.00  0.00    -0.000 C 
BRANCH   2   3
ATOM      3  C   UNL     1     176.924 175.513 182.568  1.00  0.00    -0.000 C 
BRANCH   3   4
ATOM      4  C   UNL     1     176.736 176.968 183.028  1.00  0.00    -0.000 C 
BRANCH   4   5
ATOM      5  C   UNL     1     177.238 177.987 181.993  1.00  0.00    -0.000 C 
BRANCH   5   6
ATOM      6  C   UNL     1     177.196 177.436 180.556  1.00  0.00    -0.000 C 
BRANCH   6   7
ATOM      7  C   UNL     1     175.824 177.630 179.890  1.00  0.00    -0.000 C 
BRANCH   7   8
ATOM      8  C   UNL     1     175.627 176.729 178.662  1.00  0.00    -0.003 C 
ATOM      9  C   UNL     1     176.423 175.435 178.798  1.00  0.00     0.004 C 
ENDBRANCH   7   8
ENDBRANCH   6   7
ENDBRANCH   5   6
ENDBRANCH   4   5
ENDBRANCH   3   4
ENDBRANCH   2   3
ENDBRANCH   1   2
BRANCH   1  10
ATOM     10  C   UNL     1     173.755 174.886 181.408  1.00  0.00     0.000 C 
BRANCH  10  11
ATOM     11  C   UNL     1     173.069 175.688 182.529  1.00  0.00     0.000 C 
BRANCH  11  12
ATOM     12  C   UNL     1     173.080 177.215 182.291  1.00  0.00     0.000 C 
BRANCH  12  13
ATOM     13  C   UNL     1     171.682 177.856 182.337  1.00  0.00     0.000 C 
BRANCH  13  14
ATOM     14  C   UNL     1     170.667 176.987 183.100  1.00  0.00     0.002 C 
BRANCH  14  15
ATOM     15  C   UNL     1     169.252 177.057 182.502  1.00  0.00     0.028 C 
BRANCH  15  16
ATOM     16  C   UNL     1     169.214 176.813 180.987  1.00  0.00     0.156 C 
BRANCH  16  17
ATOM     17  O   UNL     1     168.540 177.849 180.324  1.00  0.00    -0.396 OA
ATOM     18  H   UNL     1     168.781 177.778 179.363  1.00  0.00     0.210 HD
ENDBRANCH  16  17
ENDBRANCH  15  16
ENDBRANCH  14  15
ENDBRANCH  13  14
ENDBRANCH  12  13
ENDBRANCH  11  12
ENDBRANCH  10  11
ENDBRANCH   1  10
TORSDOF 15
ENDMDL
MODEL 2
REMARK VINA RESULT:    -4.036      2.571      5.891
REMARK INTER + INTRA:          -9.525
REMARK INTER:                  -7.497
REMARK INTRA:                  -2.028
REMARK UNBOUND:                -2.067
REMARK SMILES CCCCCCCCCCCCCCCCO
REMARK SMILES IDX 9 1 8 2 7 3 6 4 5 5 4 6 3 7 2 8 1 9 10 10 11 11 12 12 13 13
REMARK SMILES IDX 14 14 15 15 16 16 17 17
REMARK H PARENT 17 18
REMARK Flexibility Score: inf
ROOT
ATOM      1  C   UNL     1     176.934 177.738 179.882  1.00  0.00     0.000 C 
ENDROOT
BRANCH   1   2
ATOM      2  C   UNL     1     175.456 177.700 179.437  1.00  0.00    -0.000 C 
BRANCH   2   3
ATOM      3  C   UNL     1     174.762 176.336 179.595  1.00  0.00    -0.000 C 
BRANCH   3   4
ATOM      4  C   UNL     1     173.324 176.456 180.126  1.00  0.00    -0.000 C 
BRANCH   4   5
ATOM      5  C   UNL     1     173.253 177.148 181.496  1.00  0.00    -0.000 C 
BRANCH   5   6
ATOM      6  C   UNL     1     172.226 176.490 182.436  1.00  0.00    -0.000 C 
BRANCH   6   7
ATOM      7  C   UNL     1     170.922 177.297 182.542  1.00  0.00    -0.000 C 
BRANCH   7   8
ATOM      8  C   UNL     1     169.746 176.459 183.063  1.00  0.00    -0.003 C 
ATOM      9  C   UNL     1     170.230 175.128 183.631  1.00  0.00     0.004 C 
ENDBRANCH   7   8
ENDBRANCH   6   7
ENDBRANCH   5   6
ENDBRANCH   4   5
ENDBRANCH   3   4
ENDBRANCH   2   3
ENDBRANCH   1   2
BRANCH   1  10
ATOM     10  C   UNL     1     177.280 176.833 181.079  1.00  0.00     0.000 C 
BRANCH  10  11
ATOM     11  C   UNL     1     176.869 177.398 182.451  1.00  0.00     0.000 C 
BRANCH  11  12
ATOM     12  C   UNL     1     176.148 176.369 183.352  1.00  0.00     0.000 C 
BRANCH  12  13
ATOM     13  C   UNL     1     176.416 174.908 182.953  1.00  0.00     0.000 C 
BRANCH  13  14
ATOM     14  C   UNL     1     175.123 174.156 182.589  1.00  0.00     0.002 C 
BRANCH  14  15
ATOM     15  C   UNL     1     175.350 173.047 181.548  1.00  0.00     0.028 C 
BRANCH  15  16
ATOM     16  C   UNL     1     176.736 173.097 180.890  1.00  0.00     0.156 C 
BRANCH  16  17
ATOM     17  O   UNL     1     176.633 173.098 179.491  1.00  0.00    -0.396 OA
ATOM     18  H   UNL     1     176.941 172.206 179.181  1.00  0.00     0.210 HD
ENDBRANCH  16  17
ENDBRANCH  15  16
ENDBRANCH  14  15
ENDBRANCH  13  14
ENDBRANCH  12  13
ENDBRANCH  11  12
ENDBRANCH  10  11
ENDBRANCH   1  10
TORSDOF 15
ENDMDL
MODEL 3
REMARK VINA RESULT:    -4.011      2.636      6.179
REMARK INTER + INTRA:          -9.478
REMARK INTER:                  -7.668
REMARK INTRA:                  -1.810
REMARK UNBOUND:                -2.067
REMARK SMILES CCCCCCCCCCCCCCCCO
REMARK SMILES IDX 9 1 8 2 7 3 6 4 5 5 4 6 3 7 2 8 1 9 10 10 11 11 12 12 13 13
REMARK SMILES IDX 14 14 15 15 16 16 17 17
REMARK H PARENT 17 18
REMARK Flexibility Score: inf
ROOT
ATOM      1  C   UNL     1     174.177 175.329 182.538  1.00  0.00     0.000 C 
ENDROOT
BRANCH   1   2
ATOM      2  C   UNL     1     173.526 176.727 182.476  1.00  0.00    -0.000 C 
BRANCH   2   3
ATOM      3  C   UNL     1     172.735 177.021 181.189  1.00  0.00    -0.000 C 
BRANCH   3   4
ATOM      4  C   UNL     1     171.266 177.387 181.460  1.00  0.00    -0.000 C 
BRANCH   4   5
ATOM      5  C   UNL     1     171.009 177.751 182.931  1.00  0.00    -0.000 C 
BRANCH   5   6
ATOM      6  C   UNL     1     169.852 176.941 183.544  1.00  0.00    -0.000 C 
BRANCH   6   7
ATOM      7  C   UNL     1     169.771 175.512 182.985  1.00  0.00    -0.000 C 
BRANCH   7   8
ATOM      8  C   UNL     1     170.531 174.494 183.848  1.00  0.00    -0.003 C 
ATOM      9  C   UNL     1     171.020 173.319 183.007  1.00  0.00     0.004 C 
ENDBRANCH   7   8
ENDBRANCH   6   7
ENDBRANCH   5   6
ENDBRANCH   4   5
ENDBRANCH   3   4
ENDBRANCH   2   3
ENDBRANCH   1   2
BRANCH   1  10
ATOM     10  C   UNL     1     175.673 175.320 182.903  1.00  0.00     0.000 C 
BRANCH  10  11
ATOM     11  C   UNL     1     176.180 176.614 183.569  1.00  0.00     0.000 C 
BRANCH  11  12
ATOM     12  C   UNL     1     177.001 177.515 182.620  1.00  0.00     0.000 C 
BRANCH  12  13
ATOM     13  C   UNL     1     177.342 176.847 181.277  1.00  0.00     0.000 C 
BRANCH  13  14
ATOM     14  C   UNL     1     176.885 177.688 180.072  1.00  0.00     0.002 C 
BRANCH  14  15
ATOM     15  C   UNL     1     175.841 176.969 179.203  1.00  0.00     0.028 C 
BRANCH  15  16
ATOM     16  C   UNL     1     176.439 176.290 177.962  1.00  0.00     0.156 C 
BRANCH  16  17
ATOM     17  O   UNL     1     177.302 175.245 178.323  1.00  0.00    -0.396 OA
ATOM     18  H   UNL     1     176.835 174.398 178.097  1.00  0.00     0.210 HD
ENDBRANCH  16  17
ENDBRANCH  15  16
ENDBRANCH  14  15
ENDBRANCH  13  14
ENDBRANCH  12  13
ENDBRANCH  11  12
ENDBRANCH  10  11
ENDBRANCH   1  10
TORSDOF 15
ENDMDL
MODEL 4
REMARK VINA RESULT:    -3.973      2.651      5.847
REMARK INTER + INTRA:          -9.408
REMARK INTER:                  -7.435
REMARK INTRA:                  -1.972
REMARK UNBOUND:                -2.067
REMARK SMILES CCCCCCCCCCCCCCCCO
REMARK SMILES IDX 9 1 8 2 7 3 6 4 5 5 4 6 3 7 2 8 1 9 10 10 11 11 12 12 13 13
REMARK SMILES IDX 14 14 15 15 16 16 17 17
REMARK H PARENT 17 18
REMARK Flexibility Score: inf
ROOT
ATOM      1  C   UNL     1     173.944 173.697 182.102  1.00  0.00     0.000 C 
ENDROOT
BRANCH   1   2
ATOM      2  C   UNL     1     172.451 173.425 182.387  1.00  0.00    -0.000 C 
BRANCH   2   3
ATOM      3  C   UNL     1     171.962 173.869 183.777  1.00  0.00    -0.000 C 
BRANCH   3   4
ATOM      4  C   UNL     1     170.487 174.304 183.779  1.00  0.00    -0.000 C 
BRANCH   4   5
ATOM      5  C   UNL     1     170.195 175.415 182.758  1.00  0.00    -0.000 C 
BRANCH   5   6
ATOM      6  C   UNL     1     170.309 176.823 183.370  1.00  0.00    -0.000 C 
BRANCH   6   7
ATOM      7  C   UNL     1     171.183 177.764 182.526  1.00  0.00    -0.000 C 
BRANCH   7   8
ATOM      8  C   UNL     1     172.620 177.251 182.360  1.00  0.00    -0.003 C 
ATOM      9  C   UNL     1     172.949 177.003 180.891  1.00  0.00     0.004 C 
ENDBRANCH   7   8
ENDBRANCH   6   7
ENDBRANCH   5   6
ENDBRANCH   4   5
ENDBRANCH   3   4
ENDBRANCH   2   3
ENDBRANCH   1   2
BRANCH   1  10
ATOM     10  C   UNL     1     174.689 174.477 183.202  1.00  0.00     0.000 C 
BRANCH  10  11
ATOM     11  C   UNL     1     176.144 174.845 182.855  1.00  0.00     0.000 C 
BRANCH  11  12
ATOM     12  C   UNL     1     176.496 176.320 183.154  1.00  0.00     0.000 C 
BRANCH  12  13
ATOM     13  C   UNL     1     176.466 177.224 181.909  1.00  0.00     0.000 C 
BRANCH  13  14
ATOM     14  C   UNL     1     176.879 176.474 180.631  1.00  0.00     0.002 C 
BRANCH  14  15
ATOM     15  C   UNL     1     176.413 177.179 179.347  1.00  0.00     0.028 C 
BRANCH  15  16
ATOM     16  C   UNL     1     176.619 176.340 178.077  1.00  0.00     0.156 C 
BRANCH  16  17
ATOM     17  O   UNL     1     177.294 175.145 178.364  1.00  0.00    -0.396 OA
ATOM     18  H   UNL     1     176.878 174.771 179.185  1.00  0.00     0.210 HD
ENDBRANCH  16  17
ENDBRANCH  15  16
ENDBRANCH  14  15
ENDBRANCH  13  14
ENDBRANCH  12  13
ENDBRANCH  11  12
ENDBRANCH  10  11
ENDBRANCH   1  10
TORSDOF 15
ENDMDL
MODEL 5
REMARK VINA RESULT:    -3.961      2.688      5.613
REMARK INTER + INTRA:          -9.386
REMARK INTER:                  -7.314
REMARK INTRA:                  -2.072
REMARK UNBOUND:                -2.067
REMARK SMILES CCCCCCCCCCCCCCCCO
REMARK SMILES IDX 9 1 8 2 7 3 6 4 5 5 4 6 3 7 2 8 1 9 10 10 11 11 12 12 13 13
REMARK SMILES IDX 14 14 15 15 16 16 17 17
REMARK H PARENT 17 18
REMARK Flexibility Score: inf
ROOT
ATOM      1  C   UNL     1     173.444 175.512 182.335  1.00  0.00     0.000 C 
ENDROOT
BRANCH   1   2
ATOM      2  C   UNL     1     173.491 177.046 182.502  1.00  0.00    -0.000 C 
BRANCH   2   3
ATOM      3  C   UNL     1     172.118 177.734 182.594  1.00  0.00    -0.000 C 
BRANCH   3   4
ATOM      4  C   UNL     1     170.951 176.734 182.646  1.00  0.00    -0.000 C 
BRANCH   4   5
ATOM      5  C   UNL     1     170.036 176.827 181.415  1.00  0.00    -0.000 C 
BRANCH   5   6
ATOM      6  C   UNL     1     170.554 177.832 180.370  1.00  0.00    -0.000 C 
BRANCH   6   7
ATOM      7  C   UNL     1     170.923 177.160 179.038  1.00  0.00    -0.000 C 
BRANCH   7   8
ATOM      8  C   UNL     1     172.436 176.956 178.875  1.00  0.00    -0.003 C 
ATOM      9  C   UNL     1     172.779 175.476 178.737  1.00  0.00     0.004 C 
ENDBRANCH   7   8
ENDBRANCH   6   7
ENDBRANCH   5   6
ENDBRANCH   4   5
ENDBRANCH   3   4
ENDBRANCH   2   3
ENDBRANCH   1   2
BRANCH   1  10
ATOM     10  C   UNL     1     174.729 174.769 182.745  1.00  0.00     0.000 C 
BRANCH  10  11
ATOM     11  C   UNL     1     175.873 175.681 183.225  1.00  0.00     0.000 C 
BRANCH  11  12
ATOM     12  C   UNL     1     176.950 175.941 182.147  1.00  0.00     0.000 C 
BRANCH  12  13
ATOM     13  C   UNL     1     177.155 177.432 181.827  1.00  0.00     0.000 C 
BRANCH  13  14
ATOM     14  C   UNL     1     177.112 177.717 180.316  1.00  0.00     0.002 C 
BRANCH  14  15
ATOM     15  C   UNL     1     176.045 176.889 179.581  1.00  0.00     0.028 C 
BRANCH  15  16
ATOM     16  C   UNL     1     176.555 176.241 178.286  1.00  0.00     0.156 C 
BRANCH  16  17
ATOM     17  O   UNL     1     177.278 175.070 178.556  1.00  0.00    -0.396 OA
ATOM     18  H   UNL     1     177.587 175.136 179.498  1.00  0.00     0.210 HD
ENDBRANCH  16  17
ENDBRANCH  15  16
ENDBRANCH  14  15
ENDBRANCH  13  14
ENDBRANCH  12  13
ENDBRANCH  11  12
ENDBRANCH  10  11
ENDBRANCH   1  10
TORSDOF 15
ENDMDL
MODEL 6
REMARK VINA RESULT:    -3.930      0.897      2.648
REMARK INTER + INTRA:          -9.328
REMARK INTER:                  -7.282
REMARK INTRA:                  -2.046
REMARK UNBOUND:                -2.067
REMARK SMILES CCCCCCCCCCCCCCCCO
REMARK SMILES IDX 9 1 8 2 7 3 6 4 5 5 4 6 3 7 2 8 1 9 10 10 11 11 12 12 13 13
REMARK SMILES IDX 14 14 15 15 16 16 17 17
REMARK H PARENT 17 18
REMARK Flexibility Score: inf
ROOT
ATOM      1  C   UNL     1     173.658 175.901 179.869  1.00  0.00     0.000 C 
ENDROOT
BRANCH   1   2
ATOM      2  C   UNL     1     174.912 176.323 179.073  1.00  0.00    -0.000 C 
BRANCH   2   3
ATOM      3  C   UNL     1     175.739 177.452 179.713  1.00  0.00    -0.000 C 
BRANCH   3   4
ATOM      4  C   UNL     1     176.968 176.931 180.478  1.00  0.00    -0.000 C 
BRANCH   4   5
ATOM      5  C   UNL     1     177.090 177.537 181.885  1.00  0.00    -0.000 C 
BRANCH   5   6
ATOM      6  C   UNL     1     176.219 176.802 182.921  1.00  0.00    -0.000 C 
BRANCH   6   7
ATOM      7  C   UNL     1     176.601 175.320 183.067  1.00  0.00    -0.000 C 
BRANCH   7   8
ATOM      8  C   UNL     1     175.423 174.374 182.793  1.00  0.00    -0.003 C 
ATOM      9  C   UNL     1     175.742 173.417 181.649  1.00  0.00     0.004 C 
ENDBRANCH   7   8
ENDBRANCH   6   7
ENDBRANCH   5   6
ENDBRANCH   4   5
ENDBRANCH   3   4
ENDBRANCH   2   3
ENDBRANCH   1   2
BRANCH   1  10
ATOM     10  C   UNL     1     172.950 177.038 180.628  1.00  0.00     0.000 C 
BRANCH  10  11
ATOM     11  C   UNL     1     172.777 176.792 182.139  1.00  0.00     0.000 C 
BRANCH  11  12
ATOM     12  C   UNL     1     172.239 178.019 182.907  1.00  0.00     0.000 C 
BRANCH  12  13
ATOM     13  C   UNL     1     170.783 177.860 183.378  1.00  0.00     0.000 C 
BRANCH  13  14
ATOM     14  C   UNL     1     170.235 176.446 183.117  1.00  0.00     0.002 C 
BRANCH  14  15
ATOM     15  C   UNL     1     168.972 176.446 182.240  1.00  0.00     0.028 C 
BRANCH  15  16
ATOM     16  C   UNL     1     169.193 177.050 180.846  1.00  0.00     0.156 C 
BRANCH  16  17
ATOM     17  O   UNL     1     168.112 177.859 180.467  1.00  0.00    -0.396 OA
ATOM     18  H   UNL     1     167.575 178.020 181.287  1.00  0.00     0.210 HD
ENDBRANCH  16  17
ENDBRANCH  15  16
ENDBRANCH  14  15
ENDBRANCH  13  14
ENDBRANCH  12  13
ENDBRANCH  11  12
ENDBRANCH  10  11
ENDBRANCH   1  10
TORSDOF 15
ENDMDL
MODEL 7
REMARK VINA RESULT:    -3.925      2.430      5.687
REMARK INTER + INTRA:          -9.320
REMARK INTER:                  -7.052
REMARK INTRA:                  -2.268
REMARK UNBOUND:                -2.067
REMARK SMILES CCCCCCCCCCCCCCCCO
REMARK SMILES IDX 9 1 8 2 7 3 6 4 5 5 4 6 3 7 2 8 1 9 10 10 11 11 12 12 13 13
REMARK SMILES IDX 14 14 15 15 16 16 17 17
REMARK H PARENT 17 18
REMARK Flexibility Score: inf
ROOT
ATOM      1  C   UNL     1     174.459 173.897 182.583  1.00  0.00     0.000 C 
ENDROOT
BRANCH   1   2
ATOM      2  C   UNL     1     173.235 174.407 181.791  1.00  0.00    -0.000 C 
BRANCH   2   3
ATOM      3  C   UNL     1     173.567 175.302 180.584  1.00  0.00    -0.000 C 
BRANCH   3   4
ATOM      4  C   UNL     1     173.107 176.757 180.776  1.00  0.00    -0.000 C 
BRANCH   4   5
ATOM      5  C   UNL     1     173.037 177.167 182.256  1.00  0.00    -0.000 C 
BRANCH   5   6
ATOM      6  C   UNL     1     171.674 177.773 182.635  1.00  0.00    -0.000 C 
BRANCH   6   7
ATOM      7  C   UNL     1     170.550 177.344 181.679  1.00  0.00    -0.000 C 
BRANCH   7   8
ATOM      8  C   UNL     1     169.816 176.081 182.154  1.00  0.00    -0.003 C 
ATOM      9  C   UNL     1     170.061 175.831 183.639  1.00  0.00     0.004 C 
ENDBRANCH   7   8
ENDBRANCH   6   7
ENDBRANCH   5   6
ENDBRANCH   4   5
ENDBRANCH   3   4
ENDBRANCH   2   3
ENDBRANCH   1   2
BRANCH   1  10
ATOM     10  C   UNL     1     175.740 173.699 181.751  1.00  0.00     0.000 C 
BRANCH  10  11
ATOM     11  C   UNL     1     176.906 174.629 182.137  1.00  0.00     0.000 C 
BRANCH  11  12
ATOM     12  C   UNL     1     176.458 175.901 182.891  1.00  0.00     0.000 C 
BRANCH  12  13
ATOM     13  C   UNL     1     176.640 177.195 182.078  1.00  0.00     0.000 C 
BRANCH  13  14
ATOM     14  C   UNL     1     177.293 176.937 180.709  1.00  0.00     0.002 C 
BRANCH  14  15
ATOM     15  C   UNL     1     176.398 177.356 179.531  1.00  0.00     0.028 C 
BRANCH  15  16
ATOM     16  C   UNL     1     176.423 176.364 178.359  1.00  0.00     0.156 C 
BRANCH  16  17
ATOM     17  O   UNL     1     177.162 175.217 178.681  1.00  0.00    -0.396 OA
ATOM     18  H   UNL     1     177.263 175.211 179.670  1.00  0.00     0.210 HD
ENDBRANCH  16  17
ENDBRANCH  15  16
ENDBRANCH  14  15
ENDBRANCH  13  14
ENDBRANCH  12  13
ENDBRANCH  11  12
ENDBRANCH  10  11
ENDBRANCH   1  10
TORSDOF 15
ENDMDL
MODEL 8
REMARK VINA RESULT:    -3.924      1.278      2.098
REMARK INTER + INTRA:          -9.317
REMARK INTER:                  -7.306
REMARK INTRA:                  -2.012
REMARK UNBOUND:                -2.067
REMARK SMILES CCCCCCCCCCCCCCCCO
REMARK SMILES IDX 9 1 8 2 7 3 6 4 5 5 4 6 3 7 2 8 1 9 10 10 11 11 12 12 13 13
REMARK SMILES IDX 14 14 15 15 16 16 17 17
REMARK H PARENT 17 18
REMARK Flexibility Score: inf
ROOT
ATOM      1  C   UNL     1     175.738 175.698 183.243  1.00  0.00     0.000 C 
ENDROOT
BRANCH   1   2
ATOM      2  C   UNL     1     176.941 175.948 182.309  1.00  0.00    -0.000 C 
BRANCH   2   3
ATOM      3  C   UNL     1     177.090 177.397 181.812  1.00  0.00    -0.000 C 
BRANCH   3   4
ATOM      4  C   UNL     1     176.860 177.535 180.298  1.00  0.00    -0.000 C 
BRANCH   4   5
ATOM      5  C   UNL     1     176.646 176.180 179.605  1.00  0.00    -0.000 C 
BRANCH   5   6
ATOM      6  C   UNL     1     175.293 176.099 178.874  1.00  0.00    -0.000 C 
BRANCH   6   7
ATOM      7  C   UNL     1     174.431 177.353 179.090  1.00  0.00    -0.000 C 
BRANCH   7   8
ATOM      8  C   UNL     1     173.011 177.202 178.523  1.00  0.00    -0.003 C 
ATOM      9  C   UNL     1     172.937 177.708 177.086  1.00  0.00     0.004 C 
ENDBRANCH   7   8
ENDBRANCH   6   7
ENDBRANCH   5   6
ENDBRANCH   4   5
ENDBRANCH   3   4
ENDBRANCH   2   3
ENDBRANCH   1   2
BRANCH   1  10
ATOM     10  C   UNL     1     174.575 174.906 182.616  1.00  0.00     0.000 C 
BRANCH  10  11
ATOM     11  C   UNL     1     173.343 175.755 182.251  1.00  0.00     0.000 C 
BRANCH  11  12
ATOM     12  C   UNL     1     173.461 177.233 182.687  1.00  0.00     0.000 C 
BRANCH  12  13
ATOM     13  C   UNL     1     172.127 177.999 182.634  1.00  0.00     0.000 C 
BRANCH  13  14
ATOM     14  C   UNL     1     171.138 177.380 181.632  1.00  0.00     0.002 C 
BRANCH  14  15
ATOM     15  C   UNL     1     169.777 177.043 182.265  1.00  0.00     0.028 C 
BRANCH  15  16
ATOM     16  C   UNL     1     168.681 176.733 181.235  1.00  0.00     0.156 C 
BRANCH  16  17
ATOM     17  O   UNL     1     168.299 177.889 180.539  1.00  0.00    -0.396 OA
ATOM     18  H   UNL     1     168.184 177.625 179.588  1.00  0.00     0.210 HD
ENDBRANCH  16  17
ENDBRANCH  15  16
ENDBRANCH  14  15
ENDBRANCH  13  14
ENDBRANCH  12  13
ENDBRANCH  11  12
ENDBRANCH  10  11
ENDBRANCH   1  10
TORSDOF 15
ENDMDL
MODEL 9
REMARK VINA RESULT:    -3.831      2.697      5.494
REMARK INTER + INTRA:          -9.146
REMARK INTER:                  -6.980
REMARK INTRA:                  -2.166
REMARK UNBOUND:                -2.067
REMARK SMILES CCCCCCCCCCCCCCCCO
REMARK SMILES IDX 9 1 8 2 7 3 6 4 5 5 4 6 3 7 2 8 1 9 10 10 11 11 12 12 13 13
REMARK SMILES IDX 14 14 15 15 16 16 17 17
REMARK H PARENT 17 18
REMARK Flexibility Score: inf
ROOT
ATOM      1  C   UNL     1     177.018 176.013 182.241  1.00  0.00     0.000 C 
ENDROOT
BRANCH   1   2
ATOM      2  C   UNL     1     175.876 175.900 183.273  1.00  0.00    -0.000 C 
BRANCH   2   3
ATOM      3  C   UNL     1     174.737 174.941 182.883  1.00  0.00    -0.000 C 
BRANCH   3   4
ATOM      4  C   UNL     1     173.421 175.673 182.574  1.00  0.00    -0.000 C 
BRANCH   4   5
ATOM      5  C   UNL     1     173.559 177.201 182.653  1.00  0.00    -0.000 C 
BRANCH   5   6
ATOM      6  C   UNL     1     172.200 177.921 182.569  1.00  0.00    -0.000 C 
BRANCH   6   7
ATOM      7  C   UNL     1     171.012 176.955 182.707  1.00  0.00    -0.000 C 
BRANCH   7   8
ATOM      8  C   UNL     1     169.996 177.098 181.565  1.00  0.00    -0.003 C 
ATOM      9  C   UNL     1     170.666 177.614 180.295  1.00  0.00     0.004 C 
ENDBRANCH   7   8
ENDBRANCH   6   7
ENDBRANCH   5   6
ENDBRANCH   4   5
ENDBRANCH   3   4
ENDBRANCH   2   3
ENDBRANCH   1   2
BRANCH   1  10
ATOM     10  C   UNL     1     177.070 177.342 181.464  1.00  0.00     0.000 C 
BRANCH  10  11
ATOM     11  C   UNL     1     176.886 177.203 179.942  1.00  0.00     0.000 C 
BRANCH  11  12
ATOM     12  C   UNL     1     175.447 177.502 179.463  1.00  0.00     0.000 C 
BRANCH  12  13
ATOM     13  C   UNL     1     174.631 176.238 179.140  1.00  0.00     0.000 C 
BRANCH  13  14
ATOM     14  C   UNL     1     175.509 174.977 179.074  1.00  0.00     0.002 C 
BRANCH  14  15
ATOM     15  C   UNL     1     174.741 173.694 179.434  1.00  0.00     0.028 C 
BRANCH  15  16
ATOM     16  C   UNL     1     175.625 172.439 179.470  1.00  0.00     0.156 C 
BRANCH  16  17
ATOM     17  O   UNL     1     176.886 172.724 180.012  1.00  0.00    -0.396 OA
ATOM     18  H   UNL     1     176.730 173.266 180.830  1.00  0.00     0.210 HD
ENDBRANCH  16  17
ENDBRANCH  15  16
ENDBRANCH  14  15
ENDBRANCH  13  14
ENDBRANCH  12  13
ENDBRANCH  11  12
ENDBRANCH  10  11
ENDBRANCH   1  10
TORSDOF 15
ENDMDL
