MODEL 1
REMARK VINA RESULT:    -5.827      0.000      0.000
REMARK INTER + INTRA:          -6.972
REMARK INTER:                  -6.849
REMARK INTRA:                  -0.124
REMARK UNBOUND:                -0.124
REMARK SMILES O=C([O-])C=Cc1ccc(O)c(O)c1
REMARK SMILES IDX 6 1 13 2 7 3 11 4 8 5 9 6 5 7 4 8 2 9 1 10 3 11 12 12 10 14
REMARK H PARENT 12 13 10 15
REMARK Flexibility Score: inf
ROOT
ATOM      1  C   UNL     1     -23.886 -16.903 -13.754  1.00  0.00    -0.022 A 
ATOM      2  C   UNL     1     -22.919 -15.878 -13.759  1.00  0.00     0.058 A 
ATOM      3  C   UNL     1     -24.846 -16.934 -14.778  1.00  0.00     0.012 A 
ATOM      4  C   UNL     1     -22.932 -14.891 -14.755  1.00  0.00     0.157 A 
ATOM      5  C   UNL     1     -24.860 -15.949 -15.769  1.00  0.00     0.051 A 
ATOM      6  C   UNL     1     -23.907 -14.925 -15.760  1.00  0.00     0.157 A 
ENDROOT
BRANCH   1   7
ATOM      7  C   UNL     1     -23.907 -17.977 -12.728  1.00  0.00     0.010 C 
ATOM      8  C   UNL     1     -23.853 -17.747 -11.409  1.00  0.00     0.025 C 
BRANCH   8   9
ATOM      9  C   UNL     1     -23.889 -18.842 -10.427  1.00  0.00     0.064 C 
ATOM     10  O   UNL     1     -24.944 -19.513 -10.284  1.00  0.00    -0.545 OA
ATOM     11  O   UNL     1     -22.775 -19.148  -9.653  1.00  0.00    -0.545 OA
ENDBRANCH   8   9
ENDBRANCH   1   7
BRANCH   4  12
ATOM     12  O   UNL     1     -21.976 -13.875 -14.756  1.00  0.00    -0.504 OA
ATOM     13  H   UNL     1     -21.923 -13.198 -15.507  1.00  0.00     0.293 HD
ENDBRANCH   4  12
BRANCH   6  14
ATOM     14  O   UNL     1     -23.917 -13.940 -16.746  1.00  0.00    -0.504 OA
ATOM     15  H   UNL     1     -24.692 -13.294 -16.840  1.00  0.00     0.293 HD
ENDBRANCH   6  14
TORSDOF 4
ENDMDL
MODEL 2
REMARK VINA RESULT:    -5.324      0.840      2.045
REMARK INTER + INTRA:          -6.381
REMARK INTER:                  -6.234
REMARK INTRA:                  -0.147
REMARK UNBOUND:                -0.124
REMARK SMILES O=C([O-])C=Cc1ccc(O)c(O)c1
REMARK SMILES IDX 6 1 13 2 7 3 11 4 8 5 9 6 5 7 4 8 2 9 1 10 3 11 12 12 10 14
REMARK H PARENT 12 13 10 15
REMARK Flexibility Score: inf
ROOT
ATOM      1  C   UNL     1     -23.523 -16.851 -13.552  1.00  0.00    -0.022 A 
ATOM      2  C   UNL     1     -24.273 -16.629 -14.725  1.00  0.00     0.058 A 
ATOM      3  C   UNL     1     -22.398 -16.047 -13.305  1.00  0.00     0.012 A 
ATOM      4  C   UNL     1     -23.886 -15.639 -15.640  1.00  0.00     0.157 A 
ATOM      5  C   UNL     1     -22.013 -15.063 -14.218  1.00  0.00     0.051 A 
ATOM      6  C   UNL     1     -22.753 -14.857 -15.388  1.00  0.00     0.157 A 
ENDROOT
BRANCH   1   7
ATOM      7  C   UNL     1     -23.897 -17.878 -12.547  1.00  0.00     0.010 C 
ATOM      8  C   UNL     1     -23.585 -17.795 -11.247  1.00  0.00     0.025 C 
BRANCH   8   9
ATOM      9  C   UNL     1     -23.987 -18.832 -10.284  1.00  0.00     0.064 C 
ATOM     10  O   UNL     1     -23.106 -19.442  -9.623  1.00  0.00    -0.545 OA
ATOM     11  O   UNL     1     -25.327 -19.151 -10.090  1.00  0.00    -0.545 OA
ENDBRANCH   8   9
ENDBRANCH   1   7
BRANCH   4  12
ATOM     12  O   UNL     1     -24.628 -15.423 -16.802  1.00  0.00    -0.504 OA
ATOM     13  H   UNL     1     -25.060 -16.189 -17.305  1.00  0.00     0.293 HD
ENDBRANCH   4  12
BRANCH   6  14
ATOM     14  O   UNL     1     -22.372 -13.877 -16.303  1.00  0.00    -0.504 OA
ATOM     15  H   UNL     1     -21.401 -13.741 -16.559  1.00  0.00     0.293 HD
ENDBRANCH   6  14
TORSDOF 4
ENDMDL
MODEL 3
REMARK VINA RESULT:    -4.815      2.946      4.834
REMARK INTER + INTRA:          -5.783
REMARK INTER:                  -5.656
REMARK INTRA:                  -0.127
REMARK UNBOUND:                -0.124
REMARK SMILES O=C([O-])C=Cc1ccc(O)c(O)c1
REMARK SMILES IDX 6 1 13 2 7 3 11 4 8 5 9 6 5 7 4 8 2 9 1 10 3 11 12 12 10 14
REMARK H PARENT 12 13 10 15
REMARK Flexibility Score: inf
ROOT
ATOM      1  C   UNL     1     -22.242 -15.099 -14.231  1.00  0.00    -0.022 A 
ATOM      2  C   UNL     1     -22.676 -16.430 -14.063  1.00  0.00     0.058 A 
ATOM      3  C   UNL     1     -23.058 -14.206 -14.944  1.00  0.00     0.012 A 
ATOM      4  C   UNL     1     -23.890 -16.859 -14.619  1.00  0.00     0.157 A 
ATOM      5  C   UNL     1     -24.266 -14.634 -15.499  1.00  0.00     0.051 A 
ATOM      6  C   UNL     1     -24.685 -15.960 -15.341  1.00  0.00     0.157 A 
ENDROOT
BRANCH   1   7
ATOM      7  C   UNL     1     -20.972 -14.594 -13.653  1.00  0.00     0.010 C 
ATOM      8  C   UNL     1     -19.789 -15.204 -13.809  1.00  0.00     0.025 C 
BRANCH   8   9
ATOM      9  C   UNL     1     -18.552 -14.660 -13.227  1.00  0.00     0.064 C 
ATOM     10  O   UNL     1     -18.620 -13.875 -12.245  1.00  0.00    -0.545 OA
ATOM     11  O   UNL     1     -17.306 -14.998 -13.745  1.00  0.00    -0.545 OA
ENDBRANCH   8   9
ENDBRANCH   1   7
BRANCH   4  12
ATOM     12  O   UNL     1     -24.317 -18.176 -14.453  1.00  0.00    -0.504 OA
ATOM     13  H   UNL     1     -23.909 -18.781 -13.751  1.00  0.00     0.293 HD
ENDBRANCH   4  12
BRANCH   6  14
ATOM     14  O   UNL     1     -25.889 -16.392 -15.894  1.00  0.00    -0.504 OA
ATOM     15  H   UNL     1     -26.781 -16.062 -15.545  1.00  0.00     0.293 HD
ENDBRANCH   6  14
TORSDOF 4
ENDMDL
MODEL 4
REMARK VINA RESULT:    -4.637      1.197      6.039
REMARK INTER + INTRA:          -5.574
REMARK INTER:                  -5.450
REMARK INTRA:                  -0.124
REMARK UNBOUND:                -0.124
REMARK SMILES O=C([O-])C=Cc1ccc(O)c(O)c1
REMARK SMILES IDX 6 1 13 2 7 3 11 4 8 5 9 6 5 7 4 8 2 9 1 10 3 11 12 12 10 14
REMARK H PARENT 12 13 10 15
REMARK Flexibility Score: inf
ROOT
ATOM      1  C   UNL     1     -23.512 -17.066 -13.152  1.00  0.00    -0.022 A 
ATOM      2  C   UNL     1     -24.586 -17.976 -13.077  1.00  0.00     0.058 A 
ATOM      3  C   UNL     1     -22.758 -16.812 -11.996  1.00  0.00     0.012 A 
ATOM      4  C   UNL     1     -24.911 -18.596 -11.862  1.00  0.00     0.157 A 
ATOM      5  C   UNL     1     -23.082 -17.429 -10.785  1.00  0.00     0.051 A 
ATOM      6  C   UNL     1     -24.159 -18.320 -10.714  1.00  0.00     0.157 A 
ENDROOT
BRANCH   1   7
ATOM      7  C   UNL     1     -23.123 -16.393 -14.417  1.00  0.00     0.010 C 
ATOM      8  C   UNL     1     -23.922 -15.555 -15.091  1.00  0.00     0.025 C 
BRANCH   8   9
ATOM      9  C   UNL     1     -23.489 -14.900 -16.335  1.00  0.00     0.064 C 
ATOM     10  O   UNL     1     -22.518 -14.100 -16.311  1.00  0.00    -0.545 OA
ATOM     11  O   UNL     1     -24.137 -15.148 -17.540  1.00  0.00    -0.545 OA
ENDBRANCH   8   9
ENDBRANCH   1   7
BRANCH   4  12
ATOM     12  O   UNL     1     -25.976 -19.494 -11.789  1.00  0.00    -0.504 OA
ATOM     13  H   UNL     1     -26.222 -20.089 -12.571  1.00  0.00     0.293 HD
ENDBRANCH   4  12
BRANCH   6  14
ATOM     14  O   UNL     1     -24.487 -18.937  -9.508  1.00  0.00    -0.504 OA
ATOM     15  H   UNL     1     -23.774 -19.205  -8.839  1.00  0.00     0.293 HD
ENDBRANCH   6  14
TORSDOF 4
ENDMDL
MODEL 5
REMARK VINA RESULT:    -3.987      2.753      4.891
REMARK INTER + INTRA:          -4.809
REMARK INTER:                  -4.673
REMARK INTRA:                  -0.136
REMARK UNBOUND:                -0.124
REMARK SMILES O=C([O-])C=Cc1ccc(O)c(O)c1
REMARK SMILES IDX 6 1 13 2 7 3 11 4 8 5 9 6 5 7 4 8 2 9 1 10 3 11 12 12 10 14
REMARK H PARENT 12 13 10 15
REMARK Flexibility Score: inf
ROOT
ATOM      1  C   UNL     1     -22.595 -16.169 -14.484  1.00  0.00    -0.022 A 
ATOM      2  C   UNL     1     -23.665 -15.744 -15.297  1.00  0.00     0.058 A 
ATOM      3  C   UNL     1     -22.756 -17.322 -13.700  1.00  0.00     0.012 A 
ATOM      4  C   UNL     1     -24.879 -16.448 -15.301  1.00  0.00     0.157 A 
ATOM      5  C   UNL     1     -23.965 -18.022 -13.703  1.00  0.00     0.051 A 
ATOM      6  C   UNL     1     -25.029 -17.587 -14.501  1.00  0.00     0.157 A 
ENDROOT
BRANCH   1   7
ATOM      7  C   UNL     1     -21.288 -15.466 -14.453  1.00  0.00     0.010 C 
ATOM      8  C   UNL     1     -20.796 -14.856 -13.365  1.00  0.00     0.025 C 
BRANCH   8   9
ATOM      9  C   UNL     1     -19.489 -14.181 -13.377  1.00  0.00     0.064 C 
ATOM     10  O   UNL     1     -18.957 -13.875 -14.476  1.00  0.00    -0.545 OA
ATOM     11  O   UNL     1     -18.828 -13.875 -12.192  1.00  0.00    -0.545 OA
ENDBRANCH   8   9
ENDBRANCH   1   7
BRANCH   4  12
ATOM     12  O   UNL     1     -25.938 -16.024 -16.103  1.00  0.00    -0.504 OA
ATOM     13  H   UNL     1     -25.785 -15.675 -17.042  1.00  0.00     0.293 HD
ENDBRANCH   4  12
BRANCH   6  14
ATOM     14  O   UNL     1     -26.238 -18.280 -14.507  1.00  0.00    -0.504 OA
ATOM     15  H   UNL     1     -26.748 -18.463 -13.650  1.00  0.00     0.293 HD
ENDBRANCH   6  14
TORSDOF 4
ENDMDL
