MODEL 1
REMARK VINA RESULT:    -4.151      0.000      0.000
REMARK INTER + INTRA:          -4.590
REMARK INTER:                  -4.515
REMARK INTRA:                  -0.076
REMARK UNBOUND:                -0.076
REMARK SMILES O=C([O-])c1ccccc1O
REMARK SMILES IDX 4 1 9 2 5 3 8 4 6 5 7 6 2 7 1 8 3 9 10 10
REMARK H PARENT 10 11
REMARK Flexibility Score: inf
ROOT
ATOM      1  C   UNL     1       2.768 -12.389 -30.227  1.00  0.00     0.039 A 
ATOM      2  C   UNL     1       2.983 -13.246 -31.338  1.00  0.00     0.124 A 
ATOM      3  C   UNL     1       3.625 -11.289 -30.039  1.00  0.00     0.014 A 
ATOM      4  C   UNL     1       3.998 -12.948 -32.255  1.00  0.00     0.047 A 
ATOM      5  C   UNL     1       4.647 -11.018 -30.954  1.00  0.00     0.001 A 
ATOM      6  C   UNL     1       4.827 -11.841 -32.064  1.00  0.00     0.004 A 
ENDROOT
BRANCH   1   7
ATOM      7  C   UNL     1       1.655 -12.580 -29.269  1.00  0.00     0.075 C 
ATOM      8  O   UNL     1       0.504 -12.133 -29.516  1.00  0.00    -0.545 OA
ATOM      9  O   UNL     1       1.889 -13.202 -28.048  1.00  0.00    -0.545 OA
ENDBRANCH   1   7
BRANCH   2  10
ATOM     10  O   UNL     1       2.241 -14.410 -31.547  1.00  0.00    -0.507 OA
ATOM     11  H   UNL     1       2.148 -14.858 -32.447  1.00  0.00     0.293 HD
ENDBRANCH   2  10
TORSDOF 2
ENDMDL
MODEL 2
REMARK VINA RESULT:    -4.091      1.640      3.465
REMARK INTER + INTRA:          -4.526
REMARK INTER:                  -4.294
REMARK INTRA:                  -0.232
REMARK UNBOUND:                -0.076
REMARK SMILES O=C([O-])c1ccccc1O
REMARK SMILES IDX 4 1 9 2 5 3 8 4 6 5 7 6 2 7 1 8 3 9 10 10
REMARK H PARENT 10 11
REMARK Flexibility Score: inf
ROOT
ATOM      1  C   UNL     1       3.396 -12.267 -31.076  1.00  0.00     0.039 A 
ATOM      2  C   UNL     1       2.291 -12.998 -30.567  1.00  0.00     0.124 A 
ATOM      3  C   UNL     1       3.934 -11.220 -30.305  1.00  0.00     0.014 A 
ATOM      4  C   UNL     1       1.801 -12.708 -29.287  1.00  0.00     0.047 A 
ATOM      5  C   UNL     1       3.419 -10.931 -29.039  1.00  0.00     0.001 A 
ATOM      6  C   UNL     1       2.360 -11.679 -28.528  1.00  0.00     0.004 A 
ENDROOT
BRANCH   1   7
ATOM      7  C   UNL     1       4.034 -12.578 -32.376  1.00  0.00     0.075 C 
ATOM      8  O   UNL     1       5.277 -12.763 -32.458  1.00  0.00    -0.545 OA
ATOM      9  O   UNL     1       3.270 -12.603 -33.537  1.00  0.00    -0.545 OA
ENDBRANCH   1   7
BRANCH   2  10
ATOM     10  O   UNL     1       1.637 -13.988 -31.303  1.00  0.00    -0.507 OA
ATOM     11  H   UNL     1       0.868 -14.535 -30.943  1.00  0.00     0.293 HD
ENDBRANCH   2  10
TORSDOF 2
ENDMDL
MODEL 3
REMARK VINA RESULT:    -3.911      2.811      4.362
REMARK INTER + INTRA:          -4.330
REMARK INTER:                  -4.077
REMARK INTRA:                  -0.253
REMARK UNBOUND:                -0.076
REMARK SMILES O=C([O-])c1ccccc1O
REMARK SMILES IDX 4 1 9 2 5 3 8 4 6 5 7 6 2 7 1 8 3 9 10 10
REMARK H PARENT 10 11
REMARK Flexibility Score: inf
ROOT
ATOM      1  C   UNL     1       2.682 -12.354 -33.437  1.00  0.00     0.039 A 
ATOM      2  C   UNL     1       1.426 -12.558 -32.809  1.00  0.00     0.124 A 
ATOM      3  C   UNL     1       3.836 -12.254 -32.637  1.00  0.00     0.014 A 
ATOM      4  C   UNL     1       1.366 -12.718 -31.419  1.00  0.00     0.047 A 
ATOM      5  C   UNL     1       3.755 -12.395 -31.250  1.00  0.00     0.001 A 
ATOM      6  C   UNL     1       2.523 -12.636 -30.643  1.00  0.00     0.004 A 
ENDROOT
BRANCH   1   7
ATOM      7  C   UNL     1       2.841 -12.274 -34.907  1.00  0.00     0.075 C 
ATOM      8  O   UNL     1       3.597 -11.413 -35.430  1.00  0.00    -0.545 OA
ATOM      9  O   UNL     1       2.099 -13.110 -35.734  1.00  0.00    -0.545 OA
ENDBRANCH   1   7
BRANCH   2  10
ATOM     10  O   UNL     1       0.223 -12.575 -33.517  1.00  0.00    -0.507 OA
ATOM     11  H   UNL     1       0.131 -12.255 -34.470  1.00  0.00     0.293 HD
ENDBRANCH   2  10
TORSDOF 2
ENDMDL
MODEL 4
REMARK VINA RESULT:    -3.909      1.621      2.742
REMARK INTER + INTRA:          -4.328
REMARK INTER:                  -4.079
REMARK INTRA:                  -0.249
REMARK UNBOUND:                -0.076
REMARK SMILES O=C([O-])c1ccccc1O
REMARK SMILES IDX 4 1 9 2 5 3 8 4 6 5 7 6 2 7 1 8 3 9 10 10
REMARK H PARENT 10 11
REMARK Flexibility Score: inf
ROOT
ATOM      1  C   UNL     1       3.317 -12.380 -31.004  1.00  0.00     0.039 A 
ATOM      2  C   UNL     1       4.449 -11.866 -31.687  1.00  0.00     0.124 A 
ATOM      3  C   UNL     1       2.924 -11.784 -29.791  1.00  0.00     0.014 A 
ATOM      4  C   UNL     1       5.113 -10.742 -31.178  1.00  0.00     0.047 A 
ATOM      5  C   UNL     1       3.611 -10.676 -29.287  1.00  0.00     0.001 A 
ATOM      6  C   UNL     1       4.698 -10.151 -29.984  1.00  0.00     0.004 A 
ENDROOT
BRANCH   1   7
ATOM      7  C   UNL     1       2.504 -13.502 -31.527  1.00  0.00     0.075 C 
ATOM      8  O   UNL     1       3.053 -14.517 -32.031  1.00  0.00    -0.545 OA
ATOM      9  O   UNL     1       1.117 -13.414 -31.529  1.00  0.00    -0.545 OA
ENDBRANCH   1   7
BRANCH   2  10
ATOM     10  O   UNL     1       4.964 -12.455 -32.844  1.00  0.00    -0.507 OA
ATOM     11  H   UNL     1       4.393 -12.926 -33.531  1.00  0.00     0.293 HD
ENDBRANCH   2  10
TORSDOF 2
ENDMDL
MODEL 5
REMARK VINA RESULT:    -3.836      2.783      3.533
REMARK INTER + INTRA:          -4.248
REMARK INTER:                  -4.011
REMARK INTRA:                  -0.237
REMARK UNBOUND:                -0.076
REMARK SMILES O=C([O-])c1ccccc1O
REMARK SMILES IDX 4 1 9 2 5 3 8 4 6 5 7 6 2 7 1 8 3 9 10 10
REMARK H PARENT 10 11
REMARK Flexibility Score: inf
ROOT
ATOM      1  C   UNL     1       4.053 -11.403 -30.604  1.00  0.00     0.039 A 
ATOM      2  C   UNL     1       4.173 -12.194 -31.776  1.00  0.00     0.124 A 
ATOM      3  C   UNL     1       2.987 -11.654 -29.720  1.00  0.00     0.014 A 
ATOM      4  C   UNL     1       3.272 -13.243 -31.999  1.00  0.00     0.047 A 
ATOM      5  C   UNL     1       2.084 -12.691 -29.969  1.00  0.00     0.001 A 
ATOM      6  C   UNL     1       2.232 -13.490 -31.102  1.00  0.00     0.004 A 
ENDROOT
BRANCH   1   7
ATOM      7  C   UNL     1       5.022 -10.342 -30.248  1.00  0.00     0.075 C 
ATOM      8  O   UNL     1       5.188  -9.993 -29.050  1.00  0.00    -0.545 OA
ATOM      9  O   UNL     1       5.713  -9.668 -31.249  1.00  0.00    -0.545 OA
ENDBRANCH   1   7
BRANCH   2  10
ATOM     10  O   UNL     1       5.142 -11.953 -32.752  1.00  0.00    -0.507 OA
ATOM     11  H   UNL     1       5.124 -11.156 -33.373  1.00  0.00     0.293 HD
ENDBRANCH   2  10
TORSDOF 2
ENDMDL
MODEL 6
REMARK VINA RESULT:    -3.830      2.950      4.110
REMARK INTER + INTRA:          -4.241
REMARK INTER:                  -4.012
REMARK INTRA:                  -0.229
REMARK UNBOUND:                -0.076
REMARK SMILES O=C([O-])c1ccccc1O
REMARK SMILES IDX 4 1 9 2 5 3 8 4 6 5 7 6 2 7 1 8 3 9 10 10
REMARK H PARENT 10 11
REMARK Flexibility Score: inf
ROOT
ATOM      1  C   UNL     1       2.469 -12.539 -32.784  1.00  0.00     0.039 A 
ATOM      2  C   UNL     1       3.677 -12.003 -32.265  1.00  0.00     0.124 A 
ATOM      3  C   UNL     1       1.508 -13.044 -31.888  1.00  0.00     0.014 A 
ATOM      4  C   UNL     1       3.862 -11.929 -30.879  1.00  0.00     0.047 A 
ATOM      5  C   UNL     1       1.718 -12.981 -30.508  1.00  0.00     0.001 A 
ATOM      6  C   UNL     1       2.889 -12.416 -30.004  1.00  0.00     0.004 A 
ENDROOT
BRANCH   1   7
ATOM      7  C   UNL     1       2.157 -12.562 -34.231  1.00  0.00     0.075 C 
ATOM      8  O   UNL     1       3.077 -12.534 -35.091  1.00  0.00    -0.545 OA
ATOM      9  O   UNL     1       0.834 -12.546 -34.658  1.00  0.00    -0.545 OA
ENDBRANCH   1   7
BRANCH   2  10
ATOM     10  O   UNL     1       4.722 -11.569 -33.083  1.00  0.00    -0.507 OA
ATOM     11  H   UNL     1       5.273 -10.744 -32.893  1.00  0.00     0.293 HD
ENDBRANCH   2  10
TORSDOF 2
ENDMDL
MODEL 7
REMARK VINA RESULT:    -3.828      3.011      4.709
REMARK INTER + INTRA:          -4.240
REMARK INTER:                  -3.988
REMARK INTRA:                  -0.252
REMARK UNBOUND:                -0.076
REMARK SMILES O=C([O-])c1ccccc1O
REMARK SMILES IDX 4 1 9 2 5 3 8 4 6 5 7 6 2 7 1 8 3 9 10 10
REMARK H PARENT 10 11
REMARK Flexibility Score: inf
ROOT
ATOM      1  C   UNL     1       3.076 -12.407 -33.632  1.00  0.00     0.039 A 
ATOM      2  C   UNL     1       3.695 -12.775 -32.409  1.00  0.00     0.124 A 
ATOM      3  C   UNL     1       1.671 -12.388 -33.705  1.00  0.00     0.014 A 
ATOM      4  C   UNL     1       2.902 -13.049 -31.287  1.00  0.00     0.047 A 
ATOM      5  C   UNL     1       0.895 -12.685 -32.581  1.00  0.00     0.001 A 
ATOM      6  C   UNL     1       1.510 -13.006 -31.372  1.00  0.00     0.004 A 
ENDROOT
BRANCH   1   7
ATOM      7  C   UNL     1       3.844 -12.008 -34.832  1.00  0.00     0.075 C 
ATOM      8  O   UNL     1       3.465 -12.346 -35.985  1.00  0.00    -0.545 OA
ATOM      9  O   UNL     1       5.038 -11.309 -34.694  1.00  0.00    -0.545 OA
ENDBRANCH   1   7
BRANCH   2  10
ATOM     10  O   UNL     1       5.078 -12.912 -32.275  1.00  0.00    -0.507 OA
ATOM     11  H   UNL     1       5.722 -12.134 -32.308  1.00  0.00     0.293 HD
ENDBRANCH   2  10
TORSDOF 2
ENDMDL
MODEL 8
REMARK VINA RESULT:    -3.790      2.569      3.713
REMARK INTER + INTRA:          -4.198
REMARK INTER:                  -3.962
REMARK INTRA:                  -0.236
REMARK UNBOUND:                -0.076
REMARK SMILES O=C([O-])c1ccccc1O
REMARK SMILES IDX 4 1 9 2 5 3 8 4 6 5 7 6 2 7 1 8 3 9 10 10
REMARK H PARENT 10 11
REMARK Flexibility Score: inf
ROOT
ATOM      1  C   UNL     1       4.045 -11.438 -30.528  1.00  0.00     0.039 A 
ATOM      2  C   UNL     1       2.920 -11.752 -29.721  1.00  0.00     0.124 A 
ATOM      3  C   UNL     1       4.271 -12.185 -31.699  1.00  0.00     0.014 A 
ATOM      4  C   UNL     1       2.027 -12.749 -30.135  1.00  0.00     0.047 A 
ATOM      5  C   UNL     1       3.382 -13.190 -32.086  1.00  0.00     0.001 A 
ATOM      6  C   UNL     1       2.257 -13.465 -31.310  1.00  0.00     0.004 A 
ENDROOT
BRANCH   1   7
ATOM      7  C   UNL     1       4.978 -10.334 -30.209  1.00  0.00     0.075 C 
ATOM      8  O   UNL     1       5.161  -9.965 -29.019  1.00  0.00    -0.545 OA
ATOM      9  O   UNL     1       5.615  -9.644 -31.234  1.00  0.00    -0.545 OA
ENDBRANCH   1   7
BRANCH   2  10
ATOM     10  O   UNL     1       2.672 -11.127 -28.497  1.00  0.00    -0.507 OA
ATOM     11  H   UNL     1       1.814 -11.241 -27.976  1.00  0.00     0.293 HD
ENDBRANCH   2  10
TORSDOF 2
ENDMDL
MODEL 9
REMARK VINA RESULT:    -3.787      1.375      2.226
REMARK INTER + INTRA:          -4.195
REMARK INTER:                  -4.113
REMARK INTRA:                  -0.082
REMARK UNBOUND:                -0.076
REMARK SMILES O=C([O-])c1ccccc1O
REMARK SMILES IDX 4 1 9 2 5 3 8 4 6 5 7 6 2 7 1 8 3 9 10 10
REMARK H PARENT 10 11
REMARK Flexibility Score: inf
ROOT
ATOM      1  C   UNL     1       2.473 -12.516 -29.951  1.00  0.00     0.039 A 
ATOM      2  C   UNL     1       3.486 -11.523 -29.977  1.00  0.00     0.124 A 
ATOM      3  C   UNL     1       2.370 -13.412 -31.031  1.00  0.00     0.014 A 
ATOM      4  C   UNL     1       4.399 -11.493 -31.038  1.00  0.00     0.047 A 
ATOM      5  C   UNL     1       3.277 -13.355 -32.092  1.00  0.00     0.001 A 
ATOM      6  C   UNL     1       4.295 -12.403 -32.092  1.00  0.00     0.004 A 
ENDROOT
BRANCH   1   7
ATOM      7  C   UNL     1       1.533 -12.674 -28.818  1.00  0.00     0.075 C 
ATOM      8  O   UNL     1       0.401 -12.123 -28.835  1.00  0.00    -0.545 OA
ATOM      9  O   UNL     1       1.921 -13.382 -27.686  1.00  0.00    -0.545 OA
ENDBRANCH   1   7
BRANCH   2  10
ATOM     10  O   UNL     1       3.600 -10.536 -28.995  1.00  0.00    -0.507 OA
ATOM     11  H   UNL     1       4.483 -10.232 -28.609  1.00  0.00     0.293 HD
ENDBRANCH   2  10
TORSDOF 2
ENDMDL
