MODEL 1
REMARK VINA RESULT:    -5.789      0.000      0.000
REMARK INTER + INTRA:          -5.789
REMARK INTER:                  -5.789
REMARK INTRA:                   0.000
REMARK UNBOUND:                 0.000
REMARK SMILES O=c1ccc2ccccc2o1
REMARK SMILES IDX 7 1 8 2 9 3 10 4 5 5 6 6 4 7 3 8 2 9 1 10 11 11
REMARK H PARENT
REMARK Flexibility Score: inf
ROOT
ATOM      1  C   UNL     1     -41.170  -8.514 -13.377  1.00  0.00     0.001 A 
ATOM      2  C   UNL     1     -41.351  -7.169 -13.034  1.00  0.00     0.004 A 
ATOM      3  C   UNL     1     -40.246  -6.319 -12.919  1.00  0.00     0.048 A 
ATOM      4  C   UNL     1     -38.956  -6.811 -13.145  1.00  0.00     0.138 A 
ATOM      5  C   UNL     1     -38.774  -8.169 -13.492  1.00  0.00     0.018 A 
ATOM      6  C   UNL     1     -39.885  -9.017 -13.606  1.00  0.00     0.012 A 
ATOM      7  C   UNL     1     -37.473  -8.632 -13.713  1.00  0.00     0.019 A 
ATOM      8  C   UNL     1     -36.402  -7.748 -13.587  1.00  0.00     0.094 A 
ATOM      9  C   UNL     1     -36.658  -6.417 -13.240  1.00  0.00     0.336 A 
ATOM     10  O   UNL     1     -35.704  -5.604 -13.122  1.00  0.00    -0.246 OA
ATOM     11  O   UNL     1     -37.905  -6.002 -13.036  1.00  0.00    -0.423 OA
ENDROOT
TORSDOF 0
ENDMDL
MODEL 2
REMARK VINA RESULT:    -5.683      0.766      1.026
REMARK INTER + INTRA:          -5.683
REMARK INTER:                  -5.683
REMARK INTRA:                   0.000
REMARK UNBOUND:                 0.000
REMARK SMILES O=c1ccc2ccccc2o1
REMARK SMILES IDX 7 1 8 2 9 3 10 4 5 5 6 6 4 7 3 8 2 9 1 10 11 11
REMARK H PARENT
REMARK Flexibility Score: inf
ROOT
ATOM      1  C   UNL     1     -40.097  -9.038 -13.498  1.00  0.00     0.001 A 
ATOM      2  C   UNL     1     -40.803  -7.876 -13.168  1.00  0.00     0.004 A 
ATOM      3  C   UNL     1     -40.123  -6.668 -12.983  1.00  0.00     0.048 A 
ATOM      4  C   UNL     1     -38.732  -6.618 -13.125  1.00  0.00     0.138 A 
ATOM      5  C   UNL     1     -38.018  -7.792 -13.458  1.00  0.00     0.018 A 
ATOM      6  C   UNL     1     -38.706  -9.000 -13.643  1.00  0.00     0.012 A 
ATOM      7  C   UNL     1     -36.629  -7.711 -13.594  1.00  0.00     0.019 A 
ATOM      8  C   UNL     1     -35.993  -6.485 -13.400  1.00  0.00     0.094 A 
ATOM      9  C   UNL     1     -36.764  -5.365 -13.072  1.00  0.00     0.336 A 
ATOM     10  O   UNL     1     -36.208  -4.250 -12.893  1.00  0.00    -0.246 OA
ATOM     11  O   UNL     1     -38.085  -5.469 -12.949  1.00  0.00    -0.423 OA
ENDROOT
TORSDOF 0
ENDMDL
MODEL 3
REMARK VINA RESULT:    -5.669      1.781      3.760
REMARK INTER + INTRA:          -5.669
REMARK INTER:                  -5.669
REMARK INTRA:                   0.000
REMARK UNBOUND:                 0.000
REMARK SMILES O=c1ccc2ccccc2o1
REMARK SMILES IDX 7 1 8 2 9 3 10 4 5 5 6 6 4 7 3 8 2 9 1 10 11 11
REMARK H PARENT
REMARK Flexibility Score: inf
ROOT
ATOM      1  C   UNL     1     -35.994  -5.164 -13.138  1.00  0.00     0.001 A 
ATOM      2  C   UNL     1     -37.173  -4.441 -12.923  1.00  0.00     0.004 A 
ATOM      3  C   UNL     1     -38.410  -5.096 -12.927  1.00  0.00     0.048 A 
ATOM      4  C   UNL     1     -38.472  -6.475 -13.147  1.00  0.00     0.138 A 
ATOM      5  C   UNL     1     -37.281  -7.206 -13.364  1.00  0.00     0.018 A 
ATOM      6  C   UNL     1     -36.045  -6.545 -13.359  1.00  0.00     0.012 A 
ATOM      7  C   UNL     1     -37.374  -8.584 -13.580  1.00  0.00     0.019 A 
ATOM      8  C   UNL     1     -38.629  -9.194 -13.575  1.00  0.00     0.094 A 
ATOM      9  C   UNL     1     -39.764  -8.407 -13.354  1.00  0.00     0.336 A 
ATOM     10  O   UNL     1     -40.905  -8.940 -13.346  1.00  0.00    -0.246 OA
ATOM     11  O   UNL     1     -39.648  -7.098 -13.150  1.00  0.00    -0.423 OA
ENDROOT
TORSDOF 0
ENDMDL
MODEL 4
REMARK VINA RESULT:    -5.659      1.804      4.352
REMARK INTER + INTRA:          -5.659
REMARK INTER:                  -5.659
REMARK INTRA:                   0.000
REMARK UNBOUND:                 0.000
REMARK SMILES O=c1ccc2ccccc2o1
REMARK SMILES IDX 7 1 8 2 9 3 10 4 5 5 6 6 4 7 3 8 2 9 1 10 11 11
REMARK H PARENT
REMARK Flexibility Score: inf
ROOT
ATOM      1  C   UNL     1     -36.309  -5.082 -13.147  1.00  0.00     0.001 A 
ATOM      2  C   UNL     1     -35.860  -6.359 -13.503  1.00  0.00     0.004 A 
ATOM      3  C   UNL     1     -36.768  -7.420 -13.605  1.00  0.00     0.048 A 
ATOM      4  C   UNL     1     -38.126  -7.206 -13.351  1.00  0.00     0.138 A 
ATOM      5  C   UNL     1     -38.579  -5.916 -12.991  1.00  0.00     0.018 A 
ATOM      6  C   UNL     1     -37.665  -4.858 -12.890  1.00  0.00     0.012 A 
ATOM      7  C   UNL     1     -39.943  -5.733 -12.743  1.00  0.00     0.019 A 
ATOM      8  C   UNL     1     -40.810  -6.820 -12.857  1.00  0.00     0.094 A 
ATOM      9  C   UNL     1     -40.291  -8.068 -13.217  1.00  0.00     0.336 A 
ATOM     10  O   UNL     1     -41.059  -9.060 -13.325  1.00  0.00    -0.246 OA
ATOM     11  O   UNL     1     -38.989  -8.215 -13.448  1.00  0.00    -0.423 OA
ENDROOT
TORSDOF 0
ENDMDL
MODEL 5
REMARK VINA RESULT:    -5.435      1.539      3.664
REMARK INTER + INTRA:          -5.435
REMARK INTER:                  -5.435
REMARK INTRA:                   0.000
REMARK UNBOUND:                 0.000
REMARK SMILES O=c1ccc2ccccc2o1
REMARK SMILES IDX 7 1 8 2 9 3 10 4 5 5 6 6 4 7 3 8 2 9 1 10 11 11
REMARK H PARENT
REMARK Flexibility Score: inf
ROOT
ATOM      1  C   UNL     1     -36.385  -7.992 -15.609  1.00  0.00     0.001 A 
ATOM      2  C   UNL     1     -36.082  -6.734 -15.077  1.00  0.00     0.004 A 
ATOM      3  C   UNL     1     -36.965  -6.119 -14.182  1.00  0.00     0.048 A 
ATOM      4  C   UNL     1     -38.154  -6.759 -13.818  1.00  0.00     0.138 A 
ATOM      5  C   UNL     1     -38.460  -8.030 -14.356  1.00  0.00     0.018 A 
ATOM      6  C   UNL     1     -37.571  -8.642 -15.252  1.00  0.00     0.012 A 
ATOM      7  C   UNL     1     -39.655  -8.647 -13.973  1.00  0.00     0.019 A 
ATOM      8  C   UNL     1     -40.504  -7.995 -13.079  1.00  0.00     0.094 A 
ATOM      9  C   UNL     1     -40.136  -6.739 -12.587  1.00  0.00     0.336 A 
ATOM     10  O   UNL     1     -40.890  -6.136 -11.778  1.00  0.00    -0.246 OA
ATOM     11  O   UNL     1     -38.993  -6.174 -12.967  1.00  0.00    -0.423 OA
ENDROOT
TORSDOF 0
ENDMDL
MODEL 6
REMARK VINA RESULT:    -5.430      1.719      2.738
REMARK INTER + INTRA:          -5.430
REMARK INTER:                  -5.430
REMARK INTRA:                   0.000
REMARK UNBOUND:                 0.000
REMARK SMILES O=c1ccc2ccccc2o1
REMARK SMILES IDX 7 1 8 2 9 3 10 4 5 5 6 6 4 7 3 8 2 9 1 10 11 11
REMARK H PARENT
REMARK Flexibility Score: inf
ROOT
ATOM      1  C   UNL     1     -40.207  -5.039 -11.955  1.00  0.00     0.001 A 
ATOM      2  C   UNL     1     -39.002  -4.417 -12.299  1.00  0.00     0.004 A 
ATOM      3  C   UNL     1     -38.014  -5.130 -12.988  1.00  0.00     0.048 A 
ATOM      4  C   UNL     1     -38.229  -6.468 -13.334  1.00  0.00     0.138 A 
ATOM      5  C   UNL     1     -39.446  -7.097 -12.986  1.00  0.00     0.018 A 
ATOM      6  C   UNL     1     -40.432  -6.377 -12.296  1.00  0.00     0.012 A 
ATOM      7  C   UNL     1     -39.633  -8.435 -13.346  1.00  0.00     0.019 A 
ATOM      8  C   UNL     1     -38.620  -9.106 -14.032  1.00  0.00     0.094 A 
ATOM      9  C   UNL     1     -37.442  -8.420 -14.342  1.00  0.00     0.336 A 
ATOM     10  O   UNL     1     -36.517  -9.009 -14.961  1.00  0.00    -0.246 OA
ATOM     11  O   UNL     1     -37.290  -7.146 -13.989  1.00  0.00    -0.423 OA
ENDROOT
TORSDOF 0
ENDMDL
MODEL 7
REMARK VINA RESULT:    -5.420      1.776      2.648
REMARK INTER + INTRA:          -5.420
REMARK INTER:                  -5.420
REMARK INTRA:                   0.000
REMARK UNBOUND:                 0.000
REMARK SMILES O=c1ccc2ccccc2o1
REMARK SMILES IDX 7 1 8 2 9 3 10 4 5 5 6 6 4 7 3 8 2 9 1 10 11 11
REMARK H PARENT
REMARK Flexibility Score: inf
ROOT
ATOM      1  C   UNL     1     -40.097  -5.181 -12.119  1.00  0.00     0.001 A 
ATOM      2  C   UNL     1     -40.735  -6.412 -12.308  1.00  0.00     0.004 A 
ATOM      3  C   UNL     1     -40.067  -7.459 -12.953  1.00  0.00     0.048 A 
ATOM      4  C   UNL     1     -38.759  -7.277 -13.412  1.00  0.00     0.138 A 
ATOM      5  C   UNL     1     -38.114  -6.034 -13.221  1.00  0.00     0.018 A 
ATOM      6  C   UNL     1     -38.788  -4.989 -12.574  1.00  0.00     0.012 A 
ATOM      7  C   UNL     1     -36.805  -5.882 -13.690  1.00  0.00     0.019 A 
ATOM      8  C   UNL     1     -36.179  -6.954 -14.327  1.00  0.00     0.094 A 
ATOM      9  C   UNL     1     -36.879  -8.155 -14.481  1.00  0.00     0.336 A 
ATOM     10  O   UNL     1     -36.330  -9.133 -15.053  1.00  0.00    -0.246 OA
ATOM     11  O   UNL     1     -38.123  -8.273 -14.025  1.00  0.00    -0.423 OA
ENDROOT
TORSDOF 0
ENDMDL
MODEL 8
REMARK VINA RESULT:    -5.398      8.132      9.752
REMARK INTER + INTRA:          -5.398
REMARK INTER:                  -5.398
REMARK INTRA:                   0.000
REMARK UNBOUND:                 0.000
REMARK SMILES O=c1ccc2ccccc2o1
REMARK SMILES IDX 7 1 8 2 9 3 10 4 5 5 6 6 4 7 3 8 2 9 1 10 11 11
REMARK H PARENT
REMARK Flexibility Score: inf
ROOT
ATOM      1  C   UNL     1     -33.652  -4.104 -16.741  1.00  0.00     0.001 A 
ATOM      2  C   UNL     1     -34.500  -3.698 -17.777  1.00  0.00     0.004 A 
ATOM      3  C   UNL     1     -33.967  -3.162 -18.954  1.00  0.00     0.048 A 
ATOM      4  C   UNL     1     -32.582  -3.028 -19.098  1.00  0.00     0.138 A 
ATOM      5  C   UNL     1     -31.724  -3.438 -18.052  1.00  0.00     0.018 A 
ATOM      6  C   UNL     1     -32.265  -3.975 -16.875  1.00  0.00     0.012 A 
ATOM      7  C   UNL     1     -30.344  -3.293 -18.224  1.00  0.00     0.019 A 
ATOM      8  C   UNL     1     -29.857  -2.753 -19.415  1.00  0.00     0.094 A 
ATOM      9  C   UNL     1     -30.766  -2.369 -20.407  1.00  0.00     0.336 A 
ATOM     10  O   UNL     1     -30.345  -1.880 -21.488  1.00  0.00    -0.246 OA
ATOM     11  O   UNL     1     -32.074  -2.518 -20.218  1.00  0.00    -0.423 OA
ENDROOT
TORSDOF 0
ENDMDL
MODEL 9
REMARK VINA RESULT:    -5.312      1.130      2.331
REMARK INTER + INTRA:          -5.312
REMARK INTER:                  -5.312
REMARK INTRA:                   0.000
REMARK UNBOUND:                 0.000
REMARK SMILES O=c1ccc2ccccc2o1
REMARK SMILES IDX 7 1 8 2 9 3 10 4 5 5 6 6 4 7 3 8 2 9 1 10 11 11
REMARK H PARENT
REMARK Flexibility Score: inf
ROOT
ATOM      1  C   UNL     1     -40.586  -8.652 -13.343  1.00  0.00     0.001 A 
ATOM      2  C   UNL     1     -39.401  -9.310 -13.691  1.00  0.00     0.004 A 
ATOM      3  C   UNL     1     -38.186  -8.617 -13.694  1.00  0.00     0.048 A 
ATOM      4  C   UNL     1     -38.151  -7.262 -13.350  1.00  0.00     0.138 A 
ATOM      5  C   UNL     1     -39.348  -6.596 -12.998  1.00  0.00     0.018 A 
ATOM      6  C   UNL     1     -40.563  -7.296 -12.997  1.00  0.00     0.012 A 
ATOM      7  C   UNL     1     -39.282  -5.242 -12.658  1.00  0.00     0.019 A 
ATOM      8  C   UNL     1     -38.048  -4.592 -12.675  1.00  0.00     0.094 A 
ATOM      9  C   UNL     1     -36.906  -5.314 -13.033  1.00  0.00     0.336 A 
ATOM     10  O   UNL     1     -35.783  -4.745 -13.054  1.00  0.00    -0.246 OA
ATOM     11  O   UNL     1     -36.995  -6.603 -13.352  1.00  0.00    -0.423 OA
ENDROOT
TORSDOF 0
ENDMDL
