MODEL 1
REMARK VINA RESULT:    -5.019      0.000      0.000
REMARK INTER + INTRA:         -10.449
REMARK INTER:                  -9.421
REMARK INTRA:                  -1.028
REMARK UNBOUND:                -1.028
REMARK SMILES O=C([O-])CCCCCCCCCCCCCCC(=O)[O-]
REMARK SMILES IDX 10 1 9 2 8 3 7 4 6 5 5 6 4 7 2 8 1 9 3 10 11 11 12 12 13 13
REMARK SMILES IDX 14 14 15 15 16 16 17 17 18 18 19 19 20 20
REMARK H PARENT
REMARK Flexibility Score: inf
ROOT
ATOM      1  C   UNL     1      57.247  -2.074  21.366  1.00  0.00     0.000 C 
ENDROOT
BRANCH   1   2
ATOM      2  C   UNL     1      57.346  -3.504  20.810  1.00  0.00     0.000 C 
BRANCH   2   3
ATOM      3  C   UNL     1      58.654  -4.204  21.214  1.00  0.00     0.000 C 
BRANCH   3   4
ATOM      4  C   UNL     1      59.714  -4.182  20.098  1.00  0.00     0.000 C 
BRANCH   4   5
ATOM      5  C   UNL     1      61.163  -3.946  20.570  1.00  0.00     0.000 C 
BRANCH   5   6
ATOM      6  C   UNL     1      61.389  -4.093  22.086  1.00  0.00     0.006 C 
BRANCH   6   7
ATOM      7  C   UNL     1      62.668  -3.398  22.568  1.00  0.00     0.053 C 
BRANCH   7   8
ATOM      8  C   UNL     1      63.876  -4.097  22.032  1.00  0.00     0.041 C 
ATOM      9  O   UNL     1      64.196  -5.234  22.469  1.00  0.00    -0.550 OA
ATOM     10  O   UNL     1      64.678  -3.473  21.085  1.00  0.00    -0.550 OA
ENDBRANCH   7   8
ENDBRANCH   6   7
ENDBRANCH   5   6
ENDBRANCH   4   5
ENDBRANCH   3   4
ENDBRANCH   2   3
ENDBRANCH   1   2
BRANCH   1  11
ATOM     11  C   UNL     1      56.014  -1.316  20.839  1.00  0.00     0.000 C 
BRANCH  11  12
ATOM     12  C   UNL     1      56.230  -0.743  19.429  1.00  0.00     0.000 C 
BRANCH  12  13
ATOM     13  C   UNL     1      57.719  -0.538  19.097  1.00  0.00     0.000 C 
BRANCH  13  14
ATOM     14  C   UNL     1      58.120  -1.196  17.766  1.00  0.00     0.000 C 
BRANCH  14  15
ATOM     15  C   UNL     1      57.248  -0.723  16.590  1.00  0.00     0.000 C 
BRANCH  15  16
ATOM     16  C   UNL     1      57.325  -1.658  15.369  1.00  0.00     0.006 C 
BRANCH  16  17
ATOM     17  C   UNL     1      55.956  -1.991  14.749  1.00  0.00     0.053 C 
BRANCH  17  18
ATOM     18  C   UNL     1      56.015  -3.163  13.817  1.00  0.00     0.041 C 
ATOM     19  O   UNL     1      57.119  -3.707  13.553  1.00  0.00    -0.550 OA
ATOM     20  O   UNL     1      54.846  -3.680  13.268  1.00  0.00    -0.550 OA
ENDBRANCH  17  18
ENDBRANCH  16  17
ENDBRANCH  15  16
ENDBRANCH  14  15
ENDBRANCH  13  14
ENDBRANCH  12  13
ENDBRANCH  11  12
ENDBRANCH   1  11
TORSDOF 15
ENDMDL
MODEL 2
REMARK VINA RESULT:    -4.954      0.842      8.085
REMARK INTER + INTRA:         -10.327
REMARK INTER:                  -8.926
REMARK INTRA:                  -1.400
REMARK UNBOUND:                -1.028
REMARK SMILES O=C([O-])CCCCCCCCCCCCCCC(=O)[O-]
REMARK SMILES IDX 10 1 9 2 8 3 7 4 6 5 5 6 4 7 2 8 1 9 3 10 11 11 12 12 13 13
REMARK SMILES IDX 14 14 15 15 16 16 17 17 18 18 19 19 20 20
REMARK H PARENT
REMARK Flexibility Score: inf
ROOT
ATOM      1  C   UNL     1      57.018  -1.549  21.597  1.00  0.00     0.000 C 
ENDROOT
BRANCH   1   2
ATOM      2  C   UNL     1      56.973  -0.260  20.761  1.00  0.00     0.000 C 
BRANCH   2   3
ATOM      3  C   UNL     1      58.162  -0.144  19.792  1.00  0.00     0.000 C 
BRANCH   3   4
ATOM      4  C   UNL     1      57.726   0.090  18.335  1.00  0.00     0.000 C 
BRANCH   4   5
ATOM      5  C   UNL     1      57.725  -1.165  17.437  1.00  0.00     0.000 C 
BRANCH   5   6
ATOM      6  C   UNL     1      56.860  -1.059  16.168  1.00  0.00     0.006 C 
BRANCH   6   7
ATOM      7  C   UNL     1      57.549  -1.641  14.928  1.00  0.00     0.053 C 
BRANCH   7   8
ATOM      8  C   UNL     1      56.689  -2.688  14.296  1.00  0.00     0.041 C 
ATOM      9  O   UNL     1      55.434  -2.599  14.358  1.00  0.00    -0.550 OA
ATOM     10  O   UNL     1      57.272  -3.789  13.681  1.00  0.00    -0.550 OA
ENDBRANCH   7   8
ENDBRANCH   6   7
ENDBRANCH   5   6
ENDBRANCH   4   5
ENDBRANCH   3   4
ENDBRANCH   2   3
ENDBRANCH   1   2
BRANCH   1  11
ATOM     11  C   UNL     1      56.694  -2.806  20.769  1.00  0.00     0.000 C 
BRANCH  11  12
ATOM     12  C   UNL     1      57.735  -3.921  20.955  1.00  0.00     0.000 C 
BRANCH  12  13
ATOM     13  C   UNL     1      58.813  -3.912  19.856  1.00  0.00     0.000 C 
BRANCH  13  14
ATOM     14  C   UNL     1      60.111  -3.223  20.311  1.00  0.00     0.000 C 
BRANCH  14  15
ATOM     15  C   UNL     1      61.103  -4.204  20.956  1.00  0.00     0.000 C 
BRANCH  15  16
ATOM     16  C   UNL     1      61.385  -3.891  22.437  1.00  0.00     0.006 C 
BRANCH  16  17
ATOM     17  C   UNL     1      62.729  -3.182  22.682  1.00  0.00     0.053 C 
BRANCH  17  18
ATOM     18  C   UNL     1      63.897  -3.972  22.175  1.00  0.00     0.041 C 
ATOM     19  O   UNL     1      64.269  -5.013  22.780  1.00  0.00    -0.550 OA
ATOM     20  O   UNL     1      64.555  -3.582  21.014  1.00  0.00    -0.550 OA
ENDBRANCH  17  18
ENDBRANCH  16  17
ENDBRANCH  15  16
ENDBRANCH  14  15
ENDBRANCH  13  14
ENDBRANCH  12  13
ENDBRANCH  11  12
ENDBRANCH   1  11
TORSDOF 15
ENDMDL
MODEL 3
REMARK VINA RESULT:    -4.913      1.953      7.414
REMARK INTER + INTRA:         -10.249
REMARK INTER:                  -8.086
REMARK INTRA:                  -2.163
REMARK UNBOUND:                -1.028
REMARK SMILES O=C([O-])CCCCCCCCCCCCCCC(=O)[O-]
REMARK SMILES IDX 10 1 9 2 8 3 7 4 6 5 5 6 4 7 2 8 1 9 3 10 11 11 12 12 13 13
REMARK SMILES IDX 14 14 15 15 16 16 17 17 18 18 19 19 20 20
REMARK H PARENT
REMARK Flexibility Score: inf
ROOT
ATOM      1  C   UNL     1      57.119   0.674  21.588  1.00  0.00     0.000 C 
ENDROOT
BRANCH   1   2
ATOM      2  C   UNL     1      58.576   0.613  21.102  1.00  0.00     0.000 C 
BRANCH   2   3
ATOM      3  C   UNL     1      58.692   0.720  19.572  1.00  0.00     0.000 C 
BRANCH   3   4
ATOM      4  C   UNL     1      58.698  -0.653  18.876  1.00  0.00     0.000 C 
BRANCH   4   5
ATOM      5  C   UNL     1      57.634  -0.839  17.775  1.00  0.00     0.000 C 
BRANCH   5   6
ATOM      6  C   UNL     1      56.250  -0.248  18.098  1.00  0.00     0.006 C 
BRANCH   6   7
ATOM      7  C   UNL     1      55.107  -0.983  17.388  1.00  0.00     0.053 C 
BRANCH   7   8
ATOM      8  C   UNL     1      55.240  -0.845  15.905  1.00  0.00     0.041 C 
ATOM      9  O   UNL     1      54.966   0.248  15.343  1.00  0.00    -0.550 OA
ATOM     10  O   UNL     1      55.619  -1.939  15.136  1.00  0.00    -0.550 OA
ENDBRANCH   7   8
ENDBRANCH   6   7
ENDBRANCH   5   6
ENDBRANCH   4   5
ENDBRANCH   3   4
ENDBRANCH   2   3
ENDBRANCH   1   2
BRANCH   1  11
ATOM     11  C   UNL     1      56.739  -0.527  22.474  1.00  0.00     0.000 C 
BRANCH  11  12
ATOM     12  C   UNL     1      55.622  -1.386  21.858  1.00  0.00     0.000 C 
BRANCH  12  13
ATOM     13  C   UNL     1      56.166  -2.476  20.918  1.00  0.00     0.000 C 
BRANCH  13  14
ATOM     14  C   UNL     1      57.574  -2.949  21.320  1.00  0.00     0.000 C 
BRANCH  14  15
ATOM     15  C   UNL     1      57.952  -4.290  20.669  1.00  0.00     0.000 C 
BRANCH  15  16
ATOM     16  C   UNL     1      59.325  -4.256  19.973  1.00  0.00     0.006 C 
BRANCH  16  17
ATOM     17  C   UNL     1      60.371  -3.389  20.696  1.00  0.00     0.053 C 
BRANCH  17  18
ATOM     18  C   UNL     1      61.576  -4.174  21.119  1.00  0.00     0.041 C 
ATOM     19  O   UNL     1      61.752  -4.459  22.333  1.00  0.00    -0.550 OA
ATOM     20  O   UNL     1      62.489  -4.622  20.170  1.00  0.00    -0.550 OA
ENDBRANCH  17  18
ENDBRANCH  16  17
ENDBRANCH  15  16
ENDBRANCH  14  15
ENDBRANCH  13  14
ENDBRANCH  12  13
ENDBRANCH  11  12
ENDBRANCH   1  11
TORSDOF 15
ENDMDL
MODEL 4
REMARK VINA RESULT:    -4.905      2.158      9.319
REMARK INTER + INTRA:         -10.235
REMARK INTER:                  -9.310
REMARK INTRA:                  -0.925
REMARK UNBOUND:                -1.028
REMARK SMILES O=C([O-])CCCCCCCCCCCCCCC(=O)[O-]
REMARK SMILES IDX 10 1 9 2 8 3 7 4 6 5 5 6 4 7 2 8 1 9 3 10 11 11 12 12 13 13
REMARK SMILES IDX 14 14 15 15 16 16 17 17 18 18 19 19 20 20
REMARK H PARENT
REMARK Flexibility Score: inf
ROOT
ATOM      1  C   UNL     1      57.172   0.055  16.360  1.00  0.00     0.000 C 
ENDROOT
BRANCH   1   2
ATOM      2  C   UNL     1      56.990  -0.491  14.934  1.00  0.00     0.000 C 
BRANCH   2   3
ATOM      3  C   UNL     1      57.094  -2.024  14.872  1.00  0.00     0.000 C 
BRANCH   3   4
ATOM      4  C   UNL     1      55.850  -2.683  14.250  1.00  0.00     0.000 C 
BRANCH   4   5
ATOM      5  C   UNL     1      54.686  -1.723  13.932  1.00  0.00     0.000 C 
BRANCH   5   6
ATOM      6  C   UNL     1      53.679  -2.239  12.888  1.00  0.00     0.006 C 
BRANCH   6   7
ATOM      7  C   UNL     1      53.441  -3.751  12.987  1.00  0.00     0.053 C 
BRANCH   7   8
ATOM      8  C   UNL     1      52.275  -4.152  12.141  1.00  0.00     0.041 C 
ATOM      9  O   UNL     1      51.100  -3.925  12.532  1.00  0.00    -0.550 OA
ATOM     10  O   UNL     1      52.484  -4.825  10.944  1.00  0.00    -0.550 OA
ENDBRANCH   7   8
ENDBRANCH   6   7
ENDBRANCH   5   6
ENDBRANCH   4   5
ENDBRANCH   3   4
ENDBRANCH   2   3
ENDBRANCH   1   2
BRANCH   1  11
ATOM     11  C   UNL     1      57.303  -1.062  17.411  1.00  0.00     0.000 C 
BRANCH  11  12
ATOM     12  C   UNL     1      56.305  -0.904  18.570  1.00  0.00     0.000 C 
BRANCH  12  13
ATOM     13  C   UNL     1      56.982  -1.008  19.949  1.00  0.00     0.000 C 
BRANCH  13  14
ATOM     14  C   UNL     1      56.451  -2.191  20.776  1.00  0.00     0.000 C 
BRANCH  14  15
ATOM     15  C   UNL     1      57.428  -3.379  20.798  1.00  0.00     0.000 C 
BRANCH  15  16
ATOM     16  C   UNL     1      58.740  -3.095  20.045  1.00  0.00     0.006 C 
BRANCH  16  17
ATOM     17  C   UNL     1      59.737  -4.267  20.061  1.00  0.00     0.053 C 
BRANCH  17  18
ATOM     18  C   UNL     1      60.982  -3.954  20.836  1.00  0.00     0.041 C 
ATOM     19  O   UNL     1      60.913  -3.285  21.901  1.00  0.00    -0.550 OA
ATOM     20  O   UNL     1      62.214  -4.430  20.403  1.00  0.00    -0.550 OA
ENDBRANCH  17  18
ENDBRANCH  16  17
ENDBRANCH  15  16
ENDBRANCH  14  15
ENDBRANCH  13  14
ENDBRANCH  12  13
ENDBRANCH  11  12
ENDBRANCH   1  11
TORSDOF 15
ENDMDL
MODEL 5
REMARK VINA RESULT:    -4.889      1.857      3.496
REMARK INTER + INTRA:         -10.204
REMARK INTER:                  -9.382
REMARK INTRA:                  -0.822
REMARK UNBOUND:                -1.028
REMARK SMILES O=C([O-])CCCCCCCCCCCCCCC(=O)[O-]
REMARK SMILES IDX 10 1 9 2 8 3 7 4 6 5 5 6 4 7 2 8 1 9 3 10 11 11 12 12 13 13
REMARK SMILES IDX 14 14 15 15 16 16 17 17 18 18 19 19 20 20
REMARK H PARENT
REMARK Flexibility Score: inf
ROOT
ATOM      1  C   UNL     1      57.098  -0.692  18.304  1.00  0.00     0.000 C 
ENDROOT
BRANCH   1   2
ATOM      2  C   UNL     1      58.273  -1.365  19.032  1.00  0.00     0.000 C 
BRANCH   2   3
ATOM      3  C   UNL     1      58.021  -1.517  20.542  1.00  0.00     0.000 C 
BRANCH   3   4
ATOM      4  C   UNL     1      57.333  -2.846  20.902  1.00  0.00     0.000 C 
BRANCH   4   5
ATOM      5  C   UNL     1      58.220  -4.102  20.780  1.00  0.00     0.000 C 
BRANCH   5   6
ATOM      6  C   UNL     1      59.587  -4.007  21.483  1.00  0.00     0.006 C 
BRANCH   6   7
ATOM      7  C   UNL     1      60.754  -3.862  20.500  1.00  0.00     0.053 C 
BRANCH   7   8
ATOM      8  C   UNL     1      62.049  -4.183  21.175  1.00  0.00     0.041 C 
ATOM      9  O   UNL     1      62.061  -4.554  22.379  1.00  0.00    -0.550 OA
ATOM     10  O   UNL     1      63.248  -4.023  20.492  1.00  0.00    -0.550 OA
ENDBRANCH   7   8
ENDBRANCH   6   7
ENDBRANCH   5   6
ENDBRANCH   4   5
ENDBRANCH   3   4
ENDBRANCH   2   3
ENDBRANCH   1   2
BRANCH   1  11
ATOM     11  C   UNL     1      57.064  -1.023  16.801  1.00  0.00     0.000 C 
BRANCH  11  12
ATOM     12  C   UNL     1      55.761  -0.568  16.124  1.00  0.00     0.000 C 
BRANCH  12  13
ATOM     13  C   UNL     1      55.537  -1.246  14.760  1.00  0.00     0.000 C 
BRANCH  13  14
ATOM     14  C   UNL     1      56.538  -2.383  14.498  1.00  0.00     0.000 C 
BRANCH  14  15
ATOM     15  C   UNL     1      55.875  -3.614  13.856  1.00  0.00     0.000 C 
BRANCH  15  16
ATOM     16  C   UNL     1      54.790  -3.247  12.828  1.00  0.00     0.006 C 
BRANCH  16  17
ATOM     17  C   UNL     1      53.445  -3.960  13.055  1.00  0.00     0.053 C 
BRANCH  17  18
ATOM     18  C   UNL     1      52.273  -3.127  12.634  1.00  0.00     0.041 C 
ATOM     19  O   UNL     1      51.115  -3.622  12.624  1.00  0.00    -0.550 OA
ATOM     20  O   UNL     1      52.451  -1.792  12.286  1.00  0.00    -0.550 OA
ENDBRANCH  17  18
ENDBRANCH  16  17
ENDBRANCH  15  16
ENDBRANCH  14  15
ENDBRANCH  13  14
ENDBRANCH  12  13
ENDBRANCH  11  12
ENDBRANCH   1  11
TORSDOF 15
ENDMDL
MODEL 6
REMARK VINA RESULT:    -4.835      1.546      9.214
REMARK INTER + INTRA:         -10.102
REMARK INTER:                  -9.241
REMARK INTRA:                  -0.861
REMARK UNBOUND:                -1.028
REMARK SMILES O=C([O-])CCCCCCCCCCCCCCC(=O)[O-]
REMARK SMILES IDX 10 1 9 2 8 3 7 4 6 5 5 6 4 7 2 8 1 9 3 10 11 11 12 12 13 13
REMARK SMILES IDX 14 14 15 15 16 16 17 17 18 18 19 19 20 20
REMARK H PARENT
REMARK Flexibility Score: inf
ROOT
ATOM      1  C   UNL     1      56.878  -1.075  18.417  1.00  0.00     0.000 C 
ENDROOT
BRANCH   1   2
ATOM      2  C   UNL     1      56.371  -0.756  17.002  1.00  0.00     0.000 C 
BRANCH   2   3
ATOM      3  C   UNL     1      57.498  -0.766  15.955  1.00  0.00     0.000 C 
BRANCH   3   4
ATOM      4  C   UNL     1      57.329  -1.881  14.907  1.00  0.00     0.000 C 
BRANCH   4   5
ATOM      5  C   UNL     1      55.871  -2.249  14.565  1.00  0.00     0.000 C 
BRANCH   5   6
ATOM      6  C   UNL     1      55.706  -3.445  13.609  1.00  0.00     0.006 C 
BRANCH   6   7
ATOM      7  C   UNL     1      54.238  -3.780  13.323  1.00  0.00     0.053 C 
BRANCH   7   8
ATOM      8  C   UNL     1      53.713  -2.926  12.214  1.00  0.00     0.041 C 
ATOM      9  O   UNL     1      53.847  -3.290  11.016  1.00  0.00    -0.550 OA
ATOM     10  O   UNL     1      53.121  -1.702  12.499  1.00  0.00    -0.550 OA
ENDBRANCH   7   8
ENDBRANCH   6   7
ENDBRANCH   5   6
ENDBRANCH   4   5
ENDBRANCH   3   4
ENDBRANCH   2   3
ENDBRANCH   1   2
BRANCH   1  11
ATOM     11  C   UNL     1      58.358  -1.499  18.436  1.00  0.00     0.000 C 
BRANCH  11  12
ATOM     12  C   UNL     1      58.832  -1.931  19.833  1.00  0.00     0.000 C 
BRANCH  12  13
ATOM     13  C   UNL     1      57.965  -3.055  20.429  1.00  0.00     0.000 C 
BRANCH  13  14
ATOM     14  C   UNL     1      58.794  -4.288  20.825  1.00  0.00     0.000 C 
BRANCH  14  15
ATOM     15  C   UNL     1      59.301  -4.216  22.275  1.00  0.00     0.000 C 
BRANCH  15  16
ATOM     16  C   UNL     1      60.800  -3.878  22.374  1.00  0.00     0.006 C 
BRANCH  16  17
ATOM     17  C   UNL     1      61.603  -4.218  21.106  1.00  0.00     0.053 C 
BRANCH  17  18
ATOM     18  C   UNL     1      63.058  -4.442  21.387  1.00  0.00     0.041 C 
ATOM     19  O   UNL     1      63.777  -3.492  21.796  1.00  0.00    -0.550 OA
ATOM     20  O   UNL     1      63.614  -5.707  21.234  1.00  0.00    -0.550 OA
ENDBRANCH  17  18
ENDBRANCH  16  17
ENDBRANCH  15  16
ENDBRANCH  14  15
ENDBRANCH  13  14
ENDBRANCH  12  13
ENDBRANCH  11  12
ENDBRANCH   1  11
TORSDOF 15
ENDMDL
MODEL 7
REMARK VINA RESULT:    -4.803      2.555      4.643
REMARK INTER + INTRA:         -10.043
REMARK INTER:                  -8.968
REMARK INTRA:                  -1.075
REMARK UNBOUND:                -1.028
REMARK SMILES O=C([O-])CCCCCCCCCCCCCCC(=O)[O-]
REMARK SMILES IDX 10 1 9 2 8 3 7 4 6 5 5 6 4 7 2 8 1 9 3 10 11 11 12 12 13 13
REMARK SMILES IDX 14 14 15 15 16 16 17 17 18 18 19 19 20 20
REMARK H PARENT
REMARK Flexibility Score: inf
ROOT
ATOM      1  C   UNL     1      54.920  -0.930  16.562  1.00  0.00     0.000 C 
ENDROOT
BRANCH   1   2
ATOM      2  C   UNL     1      55.449  -0.233  17.826  1.00  0.00     0.000 C 
BRANCH   2   3
ATOM      3  C   UNL     1      56.424  -1.116  18.623  1.00  0.00     0.000 C 
BRANCH   3   4
ATOM      4  C   UNL     1      56.050  -1.226  20.111  1.00  0.00     0.000 C 
BRANCH   4   5
ATOM      5  C   UNL     1      56.518  -2.516  20.815  1.00  0.00     0.000 C 
BRANCH   5   6
ATOM      6  C   UNL     1      58.025  -2.813  20.700  1.00  0.00     0.006 C 
BRANCH   6   7
ATOM      7  C   UNL     1      58.379  -4.255  21.079  1.00  0.00     0.053 C 
BRANCH   7   8
ATOM      8  C   UNL     1      59.534  -4.278  22.028  1.00  0.00     0.041 C 
ATOM      9  O   UNL     1      59.505  -5.024  23.043  1.00  0.00    -0.550 OA
ATOM     10  O   UNL     1      60.620  -3.438  21.822  1.00  0.00    -0.550 OA
ENDBRANCH   7   8
ENDBRANCH   6   7
ENDBRANCH   5   6
ENDBRANCH   4   5
ENDBRANCH   3   4
ENDBRANCH   2   3
ENDBRANCH   1   2
BRANCH   1  11
ATOM     11  C   UNL     1      55.264  -0.163  15.272  1.00  0.00     0.000 C 
BRANCH  11  12
ATOM     12  C   UNL     1      56.550  -0.674  14.604  1.00  0.00     0.000 C 
BRANCH  12  13
ATOM     13  C   UNL     1      56.897  -2.115  15.020  1.00  0.00     0.000 C 
BRANCH  13  14
ATOM     14  C   UNL     1      56.846  -3.097  13.837  1.00  0.00     0.000 C 
BRANCH  14  15
ATOM     15  C   UNL     1      55.516  -3.867  13.768  1.00  0.00     0.000 C 
BRANCH  15  16
ATOM     16  C   UNL     1      54.453  -3.160  12.908  1.00  0.00     0.006 C 
BRANCH  16  17
ATOM     17  C   UNL     1      53.004  -3.491  13.308  1.00  0.00     0.053 C 
BRANCH  17  18
ATOM     18  C   UNL     1      52.098  -3.632  12.122  1.00  0.00     0.041 C 
ATOM     19  O   UNL     1      51.086  -2.891  12.006  1.00  0.00    -0.550 OA
ATOM     20  O   UNL     1      52.388  -4.558  11.125  1.00  0.00    -0.550 OA
ENDBRANCH  17  18
ENDBRANCH  16  17
ENDBRANCH  15  16
ENDBRANCH  14  15
ENDBRANCH  13  14
ENDBRANCH  12  13
ENDBRANCH  11  12
ENDBRANCH   1  11
TORSDOF 15
ENDMDL
MODEL 8
REMARK VINA RESULT:    -4.771      3.145      5.564
REMARK INTER + INTRA:          -9.983
REMARK INTER:                  -9.171
REMARK INTRA:                  -0.812
REMARK UNBOUND:                -1.028
REMARK SMILES O=C([O-])CCCCCCCCCCCCCCC(=O)[O-]
REMARK SMILES IDX 10 1 9 2 8 3 7 4 6 5 5 6 4 7 2 8 1 9 3 10 11 11 12 12 13 13
REMARK SMILES IDX 14 14 15 15 16 16 17 17 18 18 19 19 20 20
REMARK H PARENT
REMARK Flexibility Score: inf
ROOT
ATOM      1  C   UNL     1      57.123  -0.622  15.383  1.00  0.00     0.000 C 
ENDROOT
BRANCH   1   2
ATOM      2  C   UNL     1      56.759  -0.692  16.875  1.00  0.00     0.000 C 
BRANCH   2   3
ATOM      3  C   UNL     1      57.938  -1.152  17.749  1.00  0.00     0.000 C 
BRANCH   3   4
ATOM      4  C   UNL     1      57.680  -0.953  19.253  1.00  0.00     0.000 C 
BRANCH   4   5
ATOM      5  C   UNL     1      56.394  -1.611  19.794  1.00  0.00     0.000 C 
BRANCH   5   6
ATOM      6  C   UNL     1      56.615  -2.687  20.873  1.00  0.00     0.006 C 
BRANCH   6   7
ATOM      7  C   UNL     1      58.048  -2.696  21.420  1.00  0.00     0.053 C 
BRANCH   7   8
ATOM      8  C   UNL     1      58.720  -3.993  21.102  1.00  0.00     0.041 C 
ATOM      9  O   UNL     1      58.967  -4.820  22.018  1.00  0.00    -0.550 OA
ATOM     10  O   UNL     1      59.121  -4.268  19.800  1.00  0.00    -0.550 OA
ENDBRANCH   7   8
ENDBRANCH   6   7
ENDBRANCH   5   6
ENDBRANCH   4   5
ENDBRANCH   3   4
ENDBRANCH   2   3
ENDBRANCH   1   2
BRANCH   1  11
ATOM     11  C   UNL     1      56.108  -1.356  14.488  1.00  0.00     0.000 C 
BRANCH  11  12
ATOM     12  C   UNL     1      56.413  -2.856  14.355  1.00  0.00     0.000 C 
BRANCH  12  13
ATOM     13  C   UNL     1      55.297  -3.623  13.622  1.00  0.00     0.000 C 
BRANCH  13  14
ATOM     14  C   UNL     1      54.064  -2.745  13.350  1.00  0.00     0.000 C 
BRANCH  14  15
ATOM     15  C   UNL     1      52.804  -3.577  13.055  1.00  0.00     0.000 C 
BRANCH  15  16
ATOM     16  C   UNL     1      52.889  -4.348  11.725  1.00  0.00     0.006 C 
BRANCH  16  17
ATOM     17  C   UNL     1      53.393  -3.502  10.542  1.00  0.00     0.053 C 
BRANCH  17  18
ATOM     18  C   UNL     1      53.269  -4.215   9.229  1.00  0.00     0.041 C 
ATOM     19  O   UNL     1      54.275  -4.354   8.486  1.00  0.00    -0.550 OA
ATOM     20  O   UNL     1      52.049  -4.760   8.842  1.00  0.00    -0.550 OA
ENDBRANCH  17  18
ENDBRANCH  16  17
ENDBRANCH  15  16
ENDBRANCH  14  15
ENDBRANCH  13  14
ENDBRANCH  12  13
ENDBRANCH  11  12
ENDBRANCH   1  11
TORSDOF 15
ENDMDL
MODEL 9
REMARK VINA RESULT:    -4.757      4.086     10.796
REMARK INTER + INTRA:          -9.956
REMARK INTER:                  -9.074
REMARK INTRA:                  -0.882
REMARK UNBOUND:                -1.028
REMARK SMILES O=C([O-])CCCCCCCCCCCCCCC(=O)[O-]
REMARK SMILES IDX 10 1 9 2 8 3 7 4 6 5 5 6 4 7 2 8 1 9 3 10 11 11 12 12 13 13
REMARK SMILES IDX 14 14 15 15 16 16 17 17 18 18 19 19 20 20
REMARK H PARENT
REMARK Flexibility Score: inf
ROOT
ATOM      1  C   UNL     1      55.325  -3.874  13.679  1.00  0.00     0.000 C 
ENDROOT
BRANCH   1   2
ATOM      2  C   UNL     1      54.344  -3.129  12.759  1.00  0.00     0.000 C 
BRANCH   2   3
ATOM      3  C   UNL     1      52.881  -3.282  13.209  1.00  0.00     0.000 C 
BRANCH   3   4
ATOM      4  C   UNL     1      51.978  -3.876  12.114  1.00  0.00     0.000 C 
BRANCH   4   5
ATOM      5  C   UNL     1      52.706  -4.707  11.038  1.00  0.00     0.000 C 
BRANCH   5   6
ATOM      6  C   UNL     1      52.481  -4.241   9.588  1.00  0.00     0.006 C 
BRANCH   6   7
ATOM      7  C   UNL     1      53.790  -3.937   8.850  1.00  0.00     0.053 C 
BRANCH   7   8
ATOM      8  C   UNL     1      53.654  -4.254   7.395  1.00  0.00     0.041 C 
ATOM      9  O   UNL     1      52.600  -4.786   6.958  1.00  0.00    -0.550 OA
ATOM     10  O   UNL     1      54.712  -4.008   6.528  1.00  0.00    -0.550 OA
ENDBRANCH   7   8
ENDBRANCH   6   7
ENDBRANCH   5   6
ENDBRANCH   4   5
ENDBRANCH   3   4
ENDBRANCH   2   3
ENDBRANCH   1   2
BRANCH   1  11
ATOM     11  C   UNL     1      56.520  -3.001  14.104  1.00  0.00     0.000 C 
BRANCH  11  12
ATOM     12  C   UNL     1      56.085  -1.703  14.802  1.00  0.00     0.000 C 
BRANCH  12  13
ATOM     13  C   UNL     1      57.235  -0.686  14.925  1.00  0.00     0.000 C 
BRANCH  13  14
ATOM     14  C   UNL     1      57.232   0.043  16.279  1.00  0.00     0.000 C 
BRANCH  14  15
ATOM     15  C   UNL     1      56.663  -0.825  17.414  1.00  0.00     0.000 C 
BRANCH  15  16
ATOM     16  C   UNL     1      57.530  -0.800  18.686  1.00  0.00     0.006 C 
BRANCH  16  17
ATOM     17  C   UNL     1      58.768  -1.712  18.617  1.00  0.00     0.053 C 
BRANCH  17  18
ATOM     18  C   UNL     1      58.931  -2.556  19.846  1.00  0.00     0.041 C 
ATOM     19  O   UNL     1      59.036  -3.807  19.746  1.00  0.00    -0.550 OA
ATOM     20  O   UNL     1      59.003  -1.959  21.100  1.00  0.00    -0.550 OA
ENDBRANCH  17  18
ENDBRANCH  16  17
ENDBRANCH  15  16
ENDBRANCH  14  15
ENDBRANCH  13  14
ENDBRANCH  12  13
ENDBRANCH  11  12
ENDBRANCH   1  11
TORSDOF 15
ENDMDL
