MODEL 1
REMARK VINA RESULT:    -0.548      0.000      0.000
REMARK INTER + INTRA:          -3.021
REMARK INTER:                  -1.254
REMARK INTRA:                  -1.768
REMARK UNBOUND:                -1.768
REMARK SMILES CCCCCCCCCCCCCCCCCCCCCCCC(=O)[O-]
REMARK SMILES IDX 13 1 14 2 15 3 16 4 17 5 18 6 19 7 20 8 21 9 22 10 23 11
REMARK SMILES IDX 24 12 25 13 26 14 12 15 11 16 10 17 9 18 8 19 7 20 6 21 5 22
REMARK SMILES IDX 4 23 3 24 2 25 1 26
REMARK H PARENT
REMARK Flexibility Score: inf
ROOT
ATOM      1  C   UNL     1      -5.092  36.968  25.272  1.00  0.00     0.000 C 
ENDROOT
BRANCH   1   2
ATOM      2  C   UNL     1      -6.102  36.688  24.144  1.00  0.00     0.000 C 
BRANCH   2   3
ATOM      3  C   UNL     1      -5.943  35.320  23.447  1.00  0.00     0.000 C 
BRANCH   3   4
ATOM      4  C   UNL     1      -5.240  35.361  22.079  1.00  0.00     0.000 C 
BRANCH   4   5
ATOM      5  C   UNL     1      -6.081  34.724  20.958  1.00  0.00     0.000 C 
BRANCH   5   6
ATOM      6  C   UNL     1      -6.125  35.595  19.688  1.00  0.00     0.000 C 
BRANCH   6   7
ATOM      7  C   UNL     1      -5.611  34.869  18.431  1.00  0.00     0.000 C 
BRANCH   7   8
ATOM      8  C   UNL     1      -4.122  35.169  18.139  1.00  0.00     0.000 C 
BRANCH   8   9
ATOM      9  C   UNL     1      -3.922  36.398  17.239  1.00  0.00     0.000 C 
BRANCH   9  10
ATOM     10  C   UNL     1      -2.876  36.151  16.139  1.00  0.00     0.006 C 
BRANCH  10  11
ATOM     11  C   UNL     1      -2.504  37.458  15.432  1.00  0.00     0.053 C 
BRANCH  11  12
ATOM     12  C   UNL     1      -3.616  37.910  14.536  1.00  0.00     0.041 C 
ATOM     13  O   UNL     1      -4.280  37.066  13.876  1.00  0.00    -0.550 OA
ATOM     14  O   UNL     1      -3.912  39.262  14.426  1.00  0.00    -0.550 OA
ENDBRANCH  11  12
ENDBRANCH  10  11
ENDBRANCH   9  10
ENDBRANCH   8   9
ENDBRANCH   7   8
ENDBRANCH   6   7
ENDBRANCH   5   6
ENDBRANCH   4   5
ENDBRANCH   3   4
ENDBRANCH   2   3
ENDBRANCH   1   2
BRANCH   1  15
ATOM     15  C   UNL     1      -4.582  38.420  25.345  1.00  0.00     0.000 C 
BRANCH  15  16
ATOM     16  C   UNL     1      -5.625  39.470  24.905  1.00  0.00     0.000 C 
BRANCH  16  17
ATOM     17  C   UNL     1      -4.977  40.703  24.252  1.00  0.00     0.000 C 
BRANCH  17  18
ATOM     18  C   UNL     1      -5.514  40.980  22.840  1.00  0.00    -0.000 C 
BRANCH  18  19
ATOM     19  C   UNL     1      -5.871  39.690  22.081  1.00  0.00    -0.000 C 
BRANCH  19  20
ATOM     20  C   UNL     1      -5.823  39.879  20.554  1.00  0.00    -0.000 C 
BRANCH  20  21
ATOM     21  C   UNL     1      -5.194  38.675  19.832  1.00  0.00    -0.000 C 
BRANCH  21  22
ATOM     22  C   UNL     1      -3.891  38.204  20.500  1.00  0.00    -0.000 C 
BRANCH  22  23
ATOM     23  C   UNL     1      -2.853  37.703  19.483  1.00  0.00    -0.000 C 
BRANCH  23  24
ATOM     24  C   UNL     1      -1.436  38.147  19.879  1.00  0.00    -0.000 C 
BRANCH  24  25
ATOM     25  C   UNL     1      -0.681  38.813  18.718  1.00  0.00    -0.003 C 
ATOM     26  C   UNL     1       0.315  37.870  18.044  1.00  0.00     0.004 C 
ENDBRANCH  24  25
ENDBRANCH  23  24
ENDBRANCH  22  23
ENDBRANCH  21  22
ENDBRANCH  20  21
ENDBRANCH  19  20
ENDBRANCH  18  19
ENDBRANCH  17  18
ENDBRANCH  16  17
ENDBRANCH  15  16
ENDBRANCH   1  15
TORSDOF 22
ENDMDL
MODEL 2
REMARK VINA RESULT:    -0.093      2.871      6.937
REMARK INTER + INTRA:          -1.980
REMARK INTER:                  -0.715
REMARK INTRA:                  -1.264
REMARK UNBOUND:                -1.768
REMARK SMILES CCCCCCCCCCCCCCCCCCCCCCCC(=O)[O-]
REMARK SMILES IDX 13 1 14 2 15 3 16 4 17 5 18 6 19 7 20 8 21 9 22 10 23 11
REMARK SMILES IDX 24 12 25 13 26 14 12 15 11 16 10 17 9 18 8 19 7 20 6 21 5 22
REMARK SMILES IDX 4 23 3 24 2 25 1 26
REMARK H PARENT
REMARK Flexibility Score: inf
ROOT
ATOM      1  C   UNL     1      -0.948  37.453  20.274  1.00  0.00     0.000 C 
ENDROOT
BRANCH   1   2
ATOM      2  C   UNL     1      -2.444  37.115  20.416  1.00  0.00     0.000 C 
BRANCH   2   3
ATOM      3  C   UNL     1      -2.758  35.896  21.309  1.00  0.00     0.000 C 
BRANCH   3   4
ATOM      4  C   UNL     1      -3.987  36.052  22.221  1.00  0.00     0.000 C 
BRANCH   4   5
ATOM      5  C   UNL     1      -4.541  34.702  22.709  1.00  0.00     0.000 C 
BRANCH   5   6
ATOM      6  C   UNL     1      -5.853  34.858  23.503  1.00  0.00     0.000 C 
BRANCH   6   7
ATOM      7  C   UNL     1      -6.085  36.288  24.025  1.00  0.00     0.000 C 
BRANCH   7   8
ATOM      8  C   UNL     1      -5.163  36.644  25.213  1.00  0.00     0.000 C 
BRANCH   8   9
ATOM      9  C   UNL     1      -4.999  38.159  25.414  1.00  0.00     0.000 C 
BRANCH   9  10
ATOM     10  C   UNL     1      -5.762  38.973  24.356  1.00  0.00     0.006 C 
BRANCH  10  11
ATOM     11  C   UNL     1      -4.849  40.014  23.701  1.00  0.00     0.053 C 
BRANCH  11  12
ATOM     12  C   UNL     1      -5.556  41.328  23.570  1.00  0.00     0.041 C 
ATOM     13  O   UNL     1      -5.906  41.965  24.600  1.00  0.00    -0.550 OA
ATOM     14  O   UNL     1      -5.833  41.845  22.311  1.00  0.00    -0.550 OA
ENDBRANCH  11  12
ENDBRANCH  10  11
ENDBRANCH   9  10
ENDBRANCH   8   9
ENDBRANCH   7   8
ENDBRANCH   6   7
ENDBRANCH   5   6
ENDBRANCH   4   5
ENDBRANCH   3   4
ENDBRANCH   2   3
ENDBRANCH   1   2
BRANCH   1  15
ATOM     15  C   UNL     1      -0.570  38.204  18.982  1.00  0.00     0.000 C 
BRANCH  15  16
ATOM     16  C   UNL     1      -1.691  38.222  17.921  1.00  0.00     0.000 C 
BRANCH  16  17
ATOM     17  C   UNL     1      -1.196  37.771  16.536  1.00  0.00     0.000 C 
BRANCH  17  18
ATOM     18  C   UNL     1      -1.648  36.347  16.177  1.00  0.00    -0.000 C 
BRANCH  18  19
ATOM     19  C   UNL     1      -3.131  36.283  15.771  1.00  0.00    -0.000 C 
BRANCH  19  20
ATOM     20  C   UNL     1      -4.073  36.402  16.983  1.00  0.00    -0.000 C 
BRANCH  20  21
ATOM     21  C   UNL     1      -3.954  35.204  17.940  1.00  0.00    -0.000 C 
BRANCH  21  22
ATOM     22  C   UNL     1      -5.325  34.657  18.371  1.00  0.00    -0.000 C 
BRANCH  22  23
ATOM     23  C   UNL     1      -5.975  35.500  19.479  1.00  0.00    -0.000 C 
BRANCH  23  24
ATOM     24  C   UNL     1      -5.736  37.000  19.241  1.00  0.00    -0.000 C 
BRANCH  24  25
ATOM     25  C   UNL     1      -5.612  37.792  20.552  1.00  0.00    -0.003 C 
ATOM     26  C   UNL     1      -5.232  39.254  20.325  1.00  0.00     0.004 C 
ENDBRANCH  24  25
ENDBRANCH  23  24
ENDBRANCH  22  23
ENDBRANCH  21  22
ENDBRANCH  20  21
ENDBRANCH  19  20
ENDBRANCH  18  19
ENDBRANCH  17  18
ENDBRANCH  16  17
ENDBRANCH  15  16
ENDBRANCH   1  15
TORSDOF 22
ENDMDL
MODEL 3
REMARK VINA RESULT:    -0.064      2.133      5.144
REMARK INTER + INTRA:          -1.914
REMARK INTER:                   0.121
REMARK INTRA:                  -2.035
REMARK UNBOUND:                -1.768
REMARK SMILES CCCCCCCCCCCCCCCCCCCCCCCC(=O)[O-]
REMARK SMILES IDX 13 1 14 2 15 3 16 4 17 5 18 6 19 7 20 8 21 9 22 10 23 11
REMARK SMILES IDX 24 12 25 13 26 14 12 15 11 16 10 17 9 18 8 19 7 20 6 21 5 22
REMARK SMILES IDX 4 23 3 24 2 25 1 26
REMARK H PARENT
REMARK Flexibility Score: inf
ROOT
ATOM      1  C   UNL     1      -3.923  35.937  21.305  1.00  0.00     0.000 C 
ENDROOT
BRANCH   1   2
ATOM      2  C   UNL     1      -5.359  36.406  21.005  1.00  0.00     0.000 C 
BRANCH   2   3
ATOM      3  C   UNL     1      -5.805  36.255  19.536  1.00  0.00     0.000 C 
BRANCH   3   4
ATOM      4  C   UNL     1      -5.880  34.807  19.021  1.00  0.00     0.000 C 
BRANCH   4   5
ATOM      5  C   UNL     1      -4.839  34.509  17.929  1.00  0.00     0.000 C 
BRANCH   5   6
ATOM      6  C   UNL     1      -4.074  35.770  17.484  1.00  0.00     0.000 C 
BRANCH   6   7
ATOM      7  C   UNL     1      -3.272  35.572  16.185  1.00  0.00     0.000 C 
BRANCH   7   8
ATOM      8  C   UNL     1      -2.679  36.895  15.646  1.00  0.00     0.000 C 
BRANCH   8   9
ATOM      9  C   UNL     1      -2.349  37.902  16.758  1.00  0.00     0.000 C 
BRANCH   9  10
ATOM     10  C   UNL     1      -0.994  37.612  17.424  1.00  0.00     0.006 C 
BRANCH  10  11
ATOM     11  C   UNL     1      -0.717  38.601  18.561  1.00  0.00     0.053 C 
BRANCH  11  12
ATOM     12  C   UNL     1      -1.507  38.239  19.780  1.00  0.00     0.041 C 
ATOM     13  O   UNL     1      -2.536  38.899  20.089  1.00  0.00    -0.550 OA
ATOM     14  O   UNL     1      -1.102  37.178  20.580  1.00  0.00    -0.550 OA
ENDBRANCH  11  12
ENDBRANCH  10  11
ENDBRANCH   9  10
ENDBRANCH   8   9
ENDBRANCH   7   8
ENDBRANCH   6   7
ENDBRANCH   5   6
ENDBRANCH   4   5
ENDBRANCH   3   4
ENDBRANCH   2   3
ENDBRANCH   1   2
BRANCH   1  15
ATOM     15  C   UNL     1      -3.770  35.075  22.573  1.00  0.00     0.000 C 
BRANCH  15  16
ATOM     16  C   UNL     1      -4.981  34.159  22.854  1.00  0.00     0.000 C 
BRANCH  16  17
ATOM     17  C   UNL     1      -5.753  34.577  24.117  1.00  0.00     0.000 C 
BRANCH  17  18
ATOM     18  C   UNL     1      -6.125  36.068  24.122  1.00  0.00    -0.000 C 
BRANCH  18  19
ATOM     19  C   UNL     1      -6.006  36.701  25.519  1.00  0.00    -0.000 C 
BRANCH  19  20
ATOM     20  C   UNL     1      -4.586  37.222  25.804  1.00  0.00    -0.000 C 
BRANCH  20  21
ATOM     21  C   UNL     1      -4.510  38.759  25.791  1.00  0.00    -0.000 C 
BRANCH  21  22
ATOM     22  C   UNL     1      -5.456  39.386  24.753  1.00  0.00    -0.000 C 
BRANCH  22  23
ATOM     23  C   UNL     1      -4.781  39.592  23.388  1.00  0.00    -0.000 C 
BRANCH  23  24
ATOM     24  C   UNL     1      -5.433  40.755  22.623  1.00  0.00    -0.000 C 
BRANCH  24  25
ATOM     25  C   UNL     1      -6.125  41.760  23.557  1.00  0.00    -0.003 C 
ATOM     26  C   UNL     1      -5.306  43.034  23.763  1.00  0.00     0.004 C 
ENDBRANCH  24  25
ENDBRANCH  23  24
ENDBRANCH  22  23
ENDBRANCH  21  22
ENDBRANCH  20  21
ENDBRANCH  19  20
ENDBRANCH  18  19
ENDBRANCH  17  18
ENDBRANCH  16  17
ENDBRANCH  15  16
ENDBRANCH   1  15
TORSDOF 22
ENDMDL
MODEL 4
REMARK VINA RESULT:    -0.063      3.349      7.482
REMARK INTER + INTRA:          -1.912
REMARK INTER:                  -0.206
REMARK INTRA:                  -1.706
REMARK UNBOUND:                -1.768
REMARK SMILES CCCCCCCCCCCCCCCCCCCCCCCC(=O)[O-]
REMARK SMILES IDX 13 1 14 2 15 3 16 4 17 5 18 6 19 7 20 8 21 9 22 10 23 11
REMARK SMILES IDX 24 12 25 13 26 14 12 15 11 16 10 17 9 18 8 19 7 20 6 21 5 22
REMARK SMILES IDX 4 23 3 24 2 25 1 26
REMARK H PARENT
REMARK Flexibility Score: inf
ROOT
ATOM      1  C   UNL     1      -1.043  37.660  19.852  1.00  0.00     0.000 C 
ENDROOT
BRANCH   1   2
ATOM      2  C   UNL     1      -2.486  37.548  20.378  1.00  0.00     0.000 C 
BRANCH   2   3
ATOM      3  C   UNL     1      -3.372  38.787  20.132  1.00  0.00     0.000 C 
BRANCH   3   4
ATOM      4  C   UNL     1      -4.819  38.484  19.704  1.00  0.00     0.000 C 
BRANCH   4   5
ATOM      5  C   UNL     1      -5.758  39.688  19.885  1.00  0.00     0.000 C 
BRANCH   5   6
ATOM      6  C   UNL     1      -5.984  40.041  21.367  1.00  0.00     0.000 C 
BRANCH   6   7
ATOM      7  C   UNL     1      -6.047  41.557  21.631  1.00  0.00     0.000 C 
BRANCH   7   8
ATOM      8  C   UNL     1      -5.388  41.955  22.972  1.00  0.00     0.000 C 
BRANCH   8   9
ATOM      9  C   UNL     1      -5.843  41.077  24.149  1.00  0.00     0.000 C 
BRANCH   9  10
ATOM     10  C   UNL     1      -4.909  39.878  24.377  1.00  0.00     0.006 C 
BRANCH  10  11
ATOM     11  C   UNL     1      -5.680  38.556  24.296  1.00  0.00     0.053 C 
BRANCH  11  12
ATOM     12  C   UNL     1      -5.147  37.571  25.290  1.00  0.00     0.041 C 
ATOM     13  O   UNL     1      -4.376  37.954  26.211  1.00  0.00    -0.550 OA
ATOM     14  O   UNL     1      -5.494  36.230  25.193  1.00  0.00    -0.550 OA
ENDBRANCH  11  12
ENDBRANCH  10  11
ENDBRANCH   9  10
ENDBRANCH   8   9
ENDBRANCH   7   8
ENDBRANCH   6   7
ENDBRANCH   5   6
ENDBRANCH   4   5
ENDBRANCH   3   4
ENDBRANCH   2   3
ENDBRANCH   1   2
BRANCH   1  15
ATOM     15  C   UNL     1      -0.886  38.470  18.550  1.00  0.00     0.000 C 
BRANCH  15  16
ATOM     16  C   UNL     1      -0.713  37.596  17.289  1.00  0.00     0.000 C 
BRANCH  16  17
ATOM     17  C   UNL     1      -1.956  37.618  16.383  1.00  0.00     0.000 C 
BRANCH  17  18
ATOM     18  C   UNL     1      -2.595  36.231  16.215  1.00  0.00    -0.000 C 
BRANCH  18  19
ATOM     19  C   UNL     1      -3.974  36.131  16.892  1.00  0.00    -0.000 C 
BRANCH  19  20
ATOM     20  C   UNL     1      -3.882  35.566  18.320  1.00  0.00    -0.000 C 
BRANCH  20  21
ATOM     21  C   UNL     1      -5.161  34.821  18.740  1.00  0.00    -0.000 C 
BRANCH  21  22
ATOM     22  C   UNL     1      -6.124  35.712  19.543  1.00  0.00    -0.000 C 
BRANCH  22  23
ATOM     23  C   UNL     1      -6.122  35.383  21.044  1.00  0.00    -0.000 C 
BRANCH  23  24
ATOM     24  C   UNL     1      -4.898  35.999  21.740  1.00  0.00    -0.000 C 
BRANCH  24  25
ATOM     25  C   UNL     1      -4.070  34.956  22.507  1.00  0.00    -0.003 C 
ATOM     26  C   UNL     1      -2.785  34.568  21.776  1.00  0.00     0.004 C 
ENDBRANCH  24  25
ENDBRANCH  23  24
ENDBRANCH  22  23
ENDBRANCH  21  22
ENDBRANCH  20  21
ENDBRANCH  19  20
ENDBRANCH  18  19
ENDBRANCH  17  18
ENDBRANCH  16  17
ENDBRANCH  15  16
ENDBRANCH   1  15
TORSDOF 22
ENDMDL
MODEL 5
REMARK VINA RESULT:     0.192      2.126      5.998
REMARK INTER + INTRA:          -1.328
REMARK INTER:                  -1.797
REMARK INTRA:                   0.469
REMARK UNBOUND:                -1.768
REMARK SMILES CCCCCCCCCCCCCCCCCCCCCCCC(=O)[O-]
REMARK SMILES IDX 13 1 14 2 15 3 16 4 17 5 18 6 19 7 20 8 21 9 22 10 23 11
REMARK SMILES IDX 24 12 25 13 26 14 12 15 11 16 10 17 9 18 8 19 7 20 6 21 5 22
REMARK SMILES IDX 4 23 3 24 2 25 1 26
REMARK H PARENT
REMARK Flexibility Score: inf
ROOT
ATOM      1  C   UNL     1      -0.620  37.597  19.951  1.00  0.00     0.000 C 
ENDROOT
BRANCH   1   2
ATOM      2  C   UNL     1      -1.304  38.701  19.123  1.00  0.00     0.000 C 
BRANCH   2   3
ATOM      3  C   UNL     1      -2.086  38.204  17.889  1.00  0.00     0.000 C 
BRANCH   3   4
ATOM      4  C   UNL     1      -1.261  37.396  16.873  1.00  0.00     0.000 C 
BRANCH   4   5
ATOM      5  C   UNL     1      -2.111  36.855  15.710  1.00  0.00     0.000 C 
BRANCH   5   6
ATOM      6  C   UNL     1      -3.060  35.725  16.152  1.00  0.00     0.000 C 
BRANCH   6   7
ATOM      7  C   UNL     1      -3.931  36.097  17.366  1.00  0.00     0.000 C 
BRANCH   7   8
ATOM      8  C   UNL     1      -4.601  34.865  18.017  1.00  0.00     0.000 C 
BRANCH   8   9
ATOM      9  C   UNL     1      -5.926  35.202  18.717  1.00  0.00     0.000 C 
BRANCH   9  10
ATOM     10  C   UNL     1      -5.740  36.202  19.870  1.00  0.00     0.006 C 
BRANCH  10  11
ATOM     11  C   UNL     1      -5.235  37.552  19.351  1.00  0.00     0.053 C 
BRANCH  11  12
ATOM     12  C   UNL     1      -5.461  38.627  20.369  1.00  0.00     0.041 C 
ATOM     13  O   UNL     1      -5.374  38.364  21.599  1.00  0.00    -0.550 OA
ATOM     14  O   UNL     1      -5.775  39.916  19.959  1.00  0.00    -0.550 OA
ENDBRANCH  11  12
ENDBRANCH  10  11
ENDBRANCH   9  10
ENDBRANCH   8   9
ENDBRANCH   7   8
ENDBRANCH   6   7
ENDBRANCH   5   6
ENDBRANCH   4   5
ENDBRANCH   3   4
ENDBRANCH   2   3
ENDBRANCH   1   2
BRANCH   1  15
ATOM     15  C   UNL     1      -1.462  37.041  21.116  1.00  0.00     0.000 C 
BRANCH  15  16
ATOM     16  C   UNL     1      -2.676  36.201  20.663  1.00  0.00     0.000 C 
BRANCH  16  17
ATOM     17  C   UNL     1      -3.074  35.138  21.701  1.00  0.00     0.000 C 
BRANCH  17  18
ATOM     18  C   UNL     1      -4.171  35.624  22.661  1.00  0.00    -0.000 C 
BRANCH  18  19
ATOM     19  C   UNL     1      -5.095  34.485  23.127  1.00  0.00    -0.000 C 
BRANCH  19  20
ATOM     20  C   UNL     1      -6.121  34.957  24.173  1.00  0.00    -0.000 C 
BRANCH  20  21
ATOM     21  C   UNL     1      -6.098  36.483  24.371  1.00  0.00    -0.000 C 
BRANCH  21  22
ATOM     22  C   UNL     1      -5.104  36.920  25.460  1.00  0.00    -0.000 C 
BRANCH  22  23
ATOM     23  C   UNL     1      -5.032  38.447  25.616  1.00  0.00    -0.000 C 
BRANCH  23  24
ATOM     24  C   UNL     1      -5.407  39.152  24.303  1.00  0.00    -0.000 C 
BRANCH  24  25
ATOM     25  C   UNL     1      -5.223  40.676  24.380  1.00  0.00    -0.003 C 
ATOM     26  C   UNL     1      -5.803  41.402  23.167  1.00  0.00     0.004 C 
ENDBRANCH  24  25
ENDBRANCH  23  24
ENDBRANCH  22  23
ENDBRANCH  21  22
ENDBRANCH  20  21
ENDBRANCH  19  20
ENDBRANCH  18  19
ENDBRANCH  17  18
ENDBRANCH  16  17
ENDBRANCH  15  16
ENDBRANCH   1  15
TORSDOF 22
ENDMDL
MODEL 6
REMARK VINA RESULT:     0.205      2.311      5.947
REMARK INTER + INTRA:          -1.298
REMARK INTER:                   1.025
REMARK INTRA:                  -2.323
REMARK UNBOUND:                -1.768
REMARK SMILES CCCCCCCCCCCCCCCCCCCCCCCC(=O)[O-]
REMARK SMILES IDX 13 1 14 2 15 3 16 4 17 5 18 6 19 7 20 8 21 9 22 10 23 11
REMARK SMILES IDX 24 12 25 13 26 14 12 15 11 16 10 17 9 18 8 19 7 20 6 21 5 22
REMARK SMILES IDX 4 23 3 24 2 25 1 26
REMARK H PARENT
REMARK Flexibility Score: inf
ROOT
ATOM      1  C   UNL     1      -3.205  36.096  21.087  1.00  0.00     0.000 C 
ENDROOT
BRANCH   1   2
ATOM      2  C   UNL     1      -3.730  35.692  22.478  1.00  0.00     0.000 C 
BRANCH   2   3
ATOM      3  C   UNL     1      -4.710  34.499  22.487  1.00  0.00     0.000 C 
BRANCH   3   4
ATOM      4  C   UNL     1      -5.851  34.599  23.514  1.00  0.00     0.000 C 
BRANCH   4   5
ATOM      5  C   UNL     1      -6.124  36.044  23.964  1.00  0.00     0.000 C 
BRANCH   5   6
ATOM      6  C   UNL     1      -5.988  36.221  25.488  1.00  0.00     0.000 C 
BRANCH   6   7
ATOM      7  C   UNL     1      -5.398  37.584  25.895  1.00  0.00     0.000 C 
BRANCH   7   8
ATOM      8  C   UNL     1      -4.965  38.432  24.676  1.00  0.00     0.000 C 
BRANCH   8   9
ATOM      9  C   UNL     1      -4.770  39.918  25.017  1.00  0.00     0.000 C 
BRANCH   9  10
ATOM     10  C   UNL     1      -5.521  40.842  24.044  1.00  0.00     0.006 C 
BRANCH  10  11
ATOM     11  C   UNL     1      -5.948  40.084  22.784  1.00  0.00     0.053 C 
BRANCH  11  12
ATOM     12  C   UNL     1      -6.010  41.009  21.607  1.00  0.00     0.041 C 
ATOM     13  O   UNL     1      -6.122  42.252  21.782  1.00  0.00    -0.550 OA
ATOM     14  O   UNL     1      -5.950  40.496  20.318  1.00  0.00    -0.550 OA
ENDBRANCH  11  12
ENDBRANCH  10  11
ENDBRANCH   9  10
ENDBRANCH   8   9
ENDBRANCH   7   8
ENDBRANCH   6   7
ENDBRANCH   5   6
ENDBRANCH   4   5
ENDBRANCH   3   4
ENDBRANCH   2   3
ENDBRANCH   1   2
BRANCH   1  15
ATOM     15  C   UNL     1      -3.852  37.359  20.488  1.00  0.00     0.000 C 
BRANCH  15  16
ATOM     16  C   UNL     1      -5.395  37.312  20.451  1.00  0.00     0.000 C 
BRANCH  16  17
ATOM     17  C   UNL     1      -5.932  36.687  19.151  1.00  0.00     0.000 C 
BRANCH  17  18
ATOM     18  C   UNL     1      -5.762  35.161  19.109  1.00  0.00    -0.000 C 
BRANCH  18  19
ATOM     19  C   UNL     1      -4.740  34.711  18.051  1.00  0.00    -0.000 C 
BRANCH  19  20
ATOM     20  C   UNL     1      -3.967  35.896  17.445  1.00  0.00    -0.000 C 
BRANCH  20  21
ATOM     21  C   UNL     1      -2.813  35.441  16.535  1.00  0.00    -0.000 C 
BRANCH  21  22
ATOM     22  C   UNL     1      -1.928  36.613  16.076  1.00  0.00    -0.000 C 
BRANCH  22  23
ATOM     23  C   UNL     1      -2.613  37.977  16.258  1.00  0.00    -0.000 C 
BRANCH  23  24
ATOM     24  C   UNL     1      -2.039  38.723  17.472  1.00  0.00    -0.000 C 
BRANCH  24  25
ATOM     25  C   UNL     1      -1.330  37.784  18.460  1.00  0.00    -0.003 C 
ATOM     26  C   UNL     1       0.182  38.000  18.499  1.00  0.00     0.004 C 
ENDBRANCH  24  25
ENDBRANCH  23  24
ENDBRANCH  22  23
ENDBRANCH  21  22
ENDBRANCH  20  21
ENDBRANCH  19  20
ENDBRANCH  18  19
ENDBRANCH  17  18
ENDBRANCH  16  17
ENDBRANCH  15  16
ENDBRANCH   1  15
TORSDOF 22
ENDMDL
MODEL 7
REMARK VINA RESULT:     0.300      2.638      6.592
REMARK INTER + INTRA:          -1.081
REMARK INTER:                   0.226
REMARK INTRA:                  -1.307
REMARK UNBOUND:                -1.768
REMARK SMILES CCCCCCCCCCCCCCCCCCCCCCCC(=O)[O-]
REMARK SMILES IDX 13 1 14 2 15 3 16 4 17 5 18 6 19 7 20 8 21 9 22 10 23 11
REMARK SMILES IDX 24 12 25 13 26 14 12 15 11 16 10 17 9 18 8 19 7 20 6 21 5 22
REMARK SMILES IDX 4 23 3 24 2 25 1 26
REMARK H PARENT
REMARK Flexibility Score: inf
ROOT
ATOM      1  C   UNL     1      -4.406  36.485  21.330  1.00  0.00     0.000 C 
ENDROOT
BRANCH   1   2
ATOM      2  C   UNL     1      -4.851  35.052  21.677  1.00  0.00     0.000 C 
BRANCH   2   3
ATOM      3  C   UNL     1      -6.072  34.954  22.616  1.00  0.00     0.000 C 
BRANCH   3   4
ATOM      4  C   UNL     1      -5.811  34.251  23.959  1.00  0.00     0.000 C 
BRANCH   4   5
ATOM      5  C   UNL     1      -6.075  35.163  25.170  1.00  0.00     0.000 C 
BRANCH   5   6
ATOM      6  C   UNL     1      -6.125  36.654  24.784  1.00  0.00     0.000 C 
BRANCH   6   7
ATOM      7  C   UNL     1      -5.710  37.595  25.929  1.00  0.00     0.000 C 
BRANCH   7   8
ATOM      8  C   UNL     1      -4.247  38.080  25.800  1.00  0.00     0.000 C 
BRANCH   8   9
ATOM      9  C   UNL     1      -4.060  39.137  24.700  1.00  0.00     0.000 C 
BRANCH   9  10
ATOM     10  C   UNL     1      -5.350  39.928  24.426  1.00  0.00     0.006 C 
BRANCH  10  11
ATOM     11  C   UNL     1      -5.766  39.809  22.956  1.00  0.00     0.053 C 
BRANCH  11  12
ATOM     12  C   UNL     1      -5.828  41.160  22.314  1.00  0.00     0.041 C 
ATOM     13  O   UNL     1      -5.787  42.202  23.023  1.00  0.00    -0.550 OA
ATOM     14  O   UNL     1      -5.941  41.269  20.934  1.00  0.00    -0.550 OA
ENDBRANCH  11  12
ENDBRANCH  10  11
ENDBRANCH   9  10
ENDBRANCH   8   9
ENDBRANCH   7   8
ENDBRANCH   6   7
ENDBRANCH   5   6
ENDBRANCH   4   5
ENDBRANCH   3   4
ENDBRANCH   2   3
ENDBRANCH   1   2
BRANCH   1  15
ATOM     15  C   UNL     1      -4.757  36.948  19.902  1.00  0.00     0.000 C 
BRANCH  15  16
ATOM     16  C   UNL     1      -4.206  38.346  19.547  1.00  0.00     0.000 C 
BRANCH  16  17
ATOM     17  C   UNL     1      -2.668  38.383  19.526  1.00  0.00     0.000 C 
BRANCH  17  18
ATOM     18  C   UNL     1      -2.082  37.994  18.160  1.00  0.00    -0.000 C 
BRANCH  18  19
ATOM     19  C   UNL     1      -3.170  37.707  17.111  1.00  0.00    -0.000 C 
BRANCH  19  20
ATOM     20  C   UNL     1      -3.077  36.277  16.550  1.00  0.00    -0.000 C 
BRANCH  20  21
ATOM     21  C   UNL     1      -1.912  36.109  15.560  1.00  0.00    -0.000 C 
BRANCH  21  22
ATOM     22  C   UNL     1      -2.040  37.033  14.337  1.00  0.00    -0.000 C 
BRANCH  22  23
ATOM     23  C   UNL     1      -3.488  37.477  14.082  1.00  0.00    -0.000 C 
BRANCH  23  24
ATOM     24  C   UNL     1      -3.589  39.009  14.013  1.00  0.00    -0.000 C 
BRANCH  24  25
ATOM     25  C   UNL     1      -5.040  39.509  14.110  1.00  0.00    -0.003 C 
ATOM     26  C   UNL     1      -5.163  41.014  13.875  1.00  0.00     0.004 C 
ENDBRANCH  24  25
ENDBRANCH  23  24
ENDBRANCH  22  23
ENDBRANCH  21  22
ENDBRANCH  20  21
ENDBRANCH  19  20
ENDBRANCH  18  19
ENDBRANCH  17  18
ENDBRANCH  16  17
ENDBRANCH  15  16
ENDBRANCH   1  15
TORSDOF 22
ENDMDL
MODEL 8
REMARK VINA RESULT:     0.361      2.837      6.841
REMARK INTER + INTRA:          -0.942
REMARK INTER:                   0.146
REMARK INTRA:                  -1.088
REMARK UNBOUND:                -1.768
REMARK SMILES CCCCCCCCCCCCCCCCCCCCCCCC(=O)[O-]
REMARK SMILES IDX 13 1 14 2 15 3 16 4 17 5 18 6 19 7 20 8 21 9 22 10 23 11
REMARK SMILES IDX 24 12 25 13 26 14 12 15 11 16 10 17 9 18 8 19 7 20 6 21 5 22
REMARK SMILES IDX 4 23 3 24 2 25 1 26
REMARK H PARENT
REMARK Flexibility Score: inf
ROOT
ATOM      1  C   UNL     1      -1.885  37.601  20.806  1.00  0.00     0.000 C 
ENDROOT
BRANCH   1   2
ATOM      2  C   UNL     1      -2.672  36.280  20.719  1.00  0.00     0.000 C 
BRANCH   2   3
ATOM      3  C   UNL     1      -4.025  36.371  19.981  1.00  0.00     0.000 C 
BRANCH   3   4
ATOM      4  C   UNL     1      -5.181  36.966  20.803  1.00  0.00     0.000 C 
BRANCH   4   5
ATOM      5  C   UNL     1      -6.092  35.888  21.416  1.00  0.00     0.000 C 
BRANCH   5   6
ATOM      6  C   UNL     1      -5.326  34.933  22.351  1.00  0.00     0.000 C 
BRANCH   6   7
ATOM      7  C   UNL     1      -4.705  35.639  23.571  1.00  0.00     0.000 C 
BRANCH   7   8
ATOM      8  C   UNL     1      -5.733  36.492  24.349  1.00  0.00     0.000 C 
BRANCH   8   9
ATOM      9  C   UNL     1      -5.177  37.860  24.776  1.00  0.00     0.000 C 
BRANCH   9  10
ATOM     10  C   UNL     1      -6.031  39.026  24.251  1.00  0.00     0.006 C 
BRANCH  10  11
ATOM     11  C   UNL     1      -5.173  40.273  24.013  1.00  0.00     0.053 C 
BRANCH  11  12
ATOM     12  C   UNL     1      -5.589  40.967  22.753  1.00  0.00     0.041 C 
ATOM     13  O   UNL     1      -5.777  42.214  22.749  1.00  0.00    -0.550 OA
ATOM     14  O   UNL     1      -5.775  40.237  21.587  1.00  0.00    -0.550 OA
ENDBRANCH  11  12
ENDBRANCH  10  11
ENDBRANCH   9  10
ENDBRANCH   8   9
ENDBRANCH   7   8
ENDBRANCH   6   7
ENDBRANCH   5   6
ENDBRANCH   4   5
ENDBRANCH   3   4
ENDBRANCH   2   3
ENDBRANCH   1   2
BRANCH   1  15
ATOM     15  C   UNL     1      -0.525  37.597  20.083  1.00  0.00     0.000 C 
BRANCH  15  16
ATOM     16  C   UNL     1      -0.569  38.210  18.667  1.00  0.00     0.000 C 
BRANCH  16  17
ATOM     17  C   UNL     1      -1.964  38.745  18.302  1.00  0.00     0.000 C 
BRANCH  17  18
ATOM     18  C   UNL     1      -2.458  38.239  16.937  1.00  0.00    -0.000 C 
BRANCH  18  19
ATOM     19  C   UNL     1      -1.921  36.836  16.599  1.00  0.00    -0.000 C 
BRANCH  19  20
ATOM     20  C   UNL     1      -1.654  36.662  15.094  1.00  0.00    -0.000 C 
BRANCH  20  21
ATOM     21  C   UNL     1      -2.944  36.713  14.258  1.00  0.00    -0.000 C 
BRANCH  21  22
ATOM     22  C   UNL     1      -4.012  37.628  14.879  1.00  0.00    -0.000 C 
BRANCH  22  23
ATOM     23  C   UNL     1      -4.572  38.649  13.876  1.00  0.00    -0.000 C 
BRANCH  23  24
ATOM     24  C   UNL     1      -4.202  40.083  14.287  1.00  0.00    -0.000 C 
BRANCH  24  25
ATOM     25  C   UNL     1      -5.415  41.027  14.284  1.00  0.00    -0.003 C 
ATOM     26  C   UNL     1      -5.018  42.498  14.171  1.00  0.00     0.004 C 
ENDBRANCH  24  25
ENDBRANCH  23  24
ENDBRANCH  22  23
ENDBRANCH  21  22
ENDBRANCH  20  21
ENDBRANCH  19  20
ENDBRANCH  18  19
ENDBRANCH  17  18
ENDBRANCH  16  17
ENDBRANCH  15  16
ENDBRANCH   1  15
TORSDOF 22
ENDMDL
MODEL 9
REMARK VINA RESULT:     0.734      2.242      6.211
REMARK INTER + INTRA:          -0.090
REMARK INTER:                  -1.444
REMARK INTRA:                   1.354
REMARK UNBOUND:                -1.768
REMARK SMILES CCCCCCCCCCCCCCCCCCCCCCCC(=O)[O-]
REMARK SMILES IDX 13 1 14 2 15 3 16 4 17 5 18 6 19 7 20 8 21 9 22 10 23 11
REMARK SMILES IDX 24 12 25 13 26 14 12 15 11 16 10 17 9 18 8 19 7 20 6 21 5 22
REMARK SMILES IDX 4 23 3 24 2 25 1 26
REMARK H PARENT
REMARK Flexibility Score: inf
ROOT
ATOM      1  C   UNL     1      -6.124  35.550  20.959  1.00  0.00     0.000 C 
ENDROOT
BRANCH   1   2
ATOM      2  C   UNL     1      -4.882  35.436  21.863  1.00  0.00     0.000 C 
BRANCH   2   3
ATOM      3  C   UNL     1      -5.132  34.787  23.241  1.00  0.00     0.000 C 
BRANCH   3   4
ATOM      4  C   UNL     1      -6.016  35.605  24.198  1.00  0.00     0.000 C 
BRANCH   4   5
ATOM      5  C   UNL     1      -5.676  37.105  24.187  1.00  0.00     0.000 C 
BRANCH   5   6
ATOM      6  C   UNL     1      -4.993  37.563  25.490  1.00  0.00     0.000 C 
BRANCH   6   7
ATOM      7  C   UNL     1      -5.005  39.091  25.682  1.00  0.00     0.000 C 
BRANCH   7   8
ATOM      8  C   UNL     1      -5.630  39.836  24.480  1.00  0.00     0.000 C 
BRANCH   8   9
ATOM      9  C   UNL     1      -5.047  41.242  24.276  1.00  0.00     0.000 C 
BRANCH   9  10
ATOM     10  C   UNL     1      -5.573  41.912  22.995  1.00  0.00     0.006 C 
BRANCH  10  11
ATOM     11  C   UNL     1      -6.124  40.870  22.016  1.00  0.00     0.053 C 
BRANCH  11  12
ATOM     12  C   UNL     1      -5.070  39.864  21.668  1.00  0.00     0.041 C 
ATOM     13  O   UNL     1      -5.392  38.767  21.135  1.00  0.00    -0.550 OA
ATOM     14  O   UNL     1      -3.735  40.134  21.938  1.00  0.00    -0.550 OA
ENDBRANCH  11  12
ENDBRANCH  10  11
ENDBRANCH   9  10
ENDBRANCH   8   9
ENDBRANCH   7   8
ENDBRANCH   6   7
ENDBRANCH   5   6
ENDBRANCH   4   5
ENDBRANCH   3   4
ENDBRANCH   2   3
ENDBRANCH   1   2
BRANCH   1  15
ATOM     15  C   UNL     1      -5.935  35.021  19.524  1.00  0.00     0.000 C 
BRANCH  15  16
ATOM     16  C   UNL     1      -4.802  35.724  18.744  1.00  0.00     0.000 C 
BRANCH  16  17
ATOM     17  C   UNL     1      -4.648  37.203  19.139  1.00  0.00     0.000 C 
BRANCH  17  18
ATOM     18  C   UNL     1      -3.460  37.884  18.442  1.00  0.00    -0.000 C 
BRANCH  18  19
ATOM     19  C   UNL     1      -2.284  38.146  19.400  1.00  0.00    -0.000 C 
BRANCH  19  20
ATOM     20  C   UNL     1      -1.059  38.729  18.674  1.00  0.00    -0.000 C 
BRANCH  20  21
ATOM     21  C   UNL     1      -0.164  37.637  18.062  1.00  0.00    -0.000 C 
BRANCH  21  22
ATOM     22  C   UNL     1      -0.910  36.775  17.030  1.00  0.00    -0.000 C 
BRANCH  22  23
ATOM     23  C   UNL     1      -1.861  37.599  16.148  1.00  0.00    -0.000 C 
BRANCH  23  24
ATOM     24  C   UNL     1      -1.963  36.998  14.737  1.00  0.00    -0.000 C 
BRANCH  24  25
ATOM     25  C   UNL     1      -3.338  37.237  14.093  1.00  0.00    -0.003 C 
ATOM     26  C   UNL     1      -4.011  38.513  14.596  1.00  0.00     0.004 C 
ENDBRANCH  24  25
ENDBRANCH  23  24
ENDBRANCH  22  23
ENDBRANCH  21  22
ENDBRANCH  20  21
ENDBRANCH  19  20
ENDBRANCH  18  19
ENDBRANCH  17  18
ENDBRANCH  16  17
ENDBRANCH  15  16
ENDBRANCH   1  15
TORSDOF 22
ENDMDL
