MODEL 1
REMARK VINA RESULT:    -2.581      0.000      0.000
REMARK INTER + INTRA:          -3.160
REMARK INTER:                  -3.034
REMARK INTRA:                  -0.126
REMARK UNBOUND:                -0.126
REMARK SMILES O=C([O-])CCC(=O)[O-]
REMARK SMILES IDX 4 1 2 2 1 3 3 4 5 5 6 6 7 7 8 8
REMARK H PARENT
REMARK Flexibility Score: inf
ROOT
ATOM      1  C   UNL     1      22.315  17.668  44.133  1.00  0.00     0.059 C 
ENDROOT
BRANCH   1   2
ATOM      2  C   UNL     1      22.635  16.672  43.060  1.00  0.00     0.042 C 
ATOM      3  O   UNL     1      22.610  15.440  43.311  1.00  0.00    -0.550 OA
ATOM      4  O   UNL     1      22.923  17.107  41.772  1.00  0.00    -0.550 OA
ENDBRANCH   1   2
BRANCH   1   5
ATOM      5  C   UNL     1      23.002  19.013  43.876  1.00  0.00     0.059 C 
BRANCH   5   6
ATOM      6  C   UNL     1      24.435  18.994  44.315  1.00  0.00     0.042 C 
ATOM      7  O   UNL     1      25.327  19.505  43.587  1.00  0.00    -0.550 OA
ATOM      8  O   UNL     1      24.789  18.376  45.507  1.00  0.00    -0.550 OA
ENDBRANCH   5   6
ENDBRANCH   1   5
TORSDOF 3
ENDMDL
MODEL 2
REMARK VINA RESULT:    -2.558      1.697      2.436
REMARK INTER + INTRA:          -3.133
REMARK INTER:                  -3.012
REMARK INTRA:                  -0.120
REMARK UNBOUND:                -0.126
REMARK SMILES O=C([O-])CCC(=O)[O-]
REMARK SMILES IDX 4 1 2 2 1 3 3 4 5 5 6 6 7 7 8 8
REMARK H PARENT
REMARK Flexibility Score: inf
ROOT
ATOM      1  C   UNL     1      22.926  17.456  41.908  1.00  0.00     0.059 C 
ENDROOT
BRANCH   1   2
ATOM      2  C   UNL     1      22.583  16.825  43.223  1.00  0.00     0.042 C 
ATOM      3  O   UNL     1      22.280  17.543  44.211  1.00  0.00    -0.550 OA
ATOM      4  O   UNL     1      22.562  15.442  43.345  1.00  0.00    -0.550 OA
ENDBRANCH   1   2
BRANCH   1   5
ATOM      5  C   UNL     1      23.040  18.979  42.025  1.00  0.00     0.059 C 
BRANCH   5   6
ATOM      6  C   UNL     1      24.468  19.421  42.117  1.00  0.00     0.042 C 
ATOM      7  O   UNL     1      25.028  19.526  43.241  1.00  0.00    -0.550 OA
ATOM      8  O   UNL     1      25.167  19.759  40.965  1.00  0.00    -0.550 OA
ENDBRANCH   5   6
ENDBRANCH   1   5
TORSDOF 3
ENDMDL
MODEL 3
REMARK VINA RESULT:    -2.545      1.727      3.570
REMARK INTER + INTRA:          -3.117
REMARK INTER:                  -2.997
REMARK INTRA:                  -0.121
REMARK UNBOUND:                -0.126
REMARK SMILES O=C([O-])CCC(=O)[O-]
REMARK SMILES IDX 4 1 2 2 1 3 3 4 5 5 6 6 7 7 8 8
REMARK H PARENT
REMARK Flexibility Score: inf
ROOT
ATOM      1  C   UNL     1      23.095  19.088  42.047  1.00  0.00     0.059 C 
ENDROOT
BRANCH   1   2
ATOM      2  C   UNL     1      24.540  19.480  42.118  1.00  0.00     0.042 C 
ATOM      3  O   UNL     1      25.110  19.602  43.233  1.00  0.00    -0.550 OA
ATOM      4  O   UNL     1      25.265  19.673  40.949  1.00  0.00    -0.550 OA
ENDBRANCH   1   2
BRANCH   1   5
ATOM      5  C   UNL     1      22.931  17.578  41.849  1.00  0.00     0.059 C 
BRANCH   5   6
ATOM      6  C   UNL     1      22.615  16.882  43.138  1.00  0.00     0.042 C 
ATOM      7  O   UNL     1      22.553  15.624  43.180  1.00  0.00    -0.550 OA
ATOM      8  O   UNL     1      22.349  17.623  44.282  1.00  0.00    -0.550 OA
ENDBRANCH   5   6
ENDBRANCH   1   5
TORSDOF 3
ENDMDL
MODEL 4
REMARK VINA RESULT:    -2.477      0.395      3.540
REMARK INTER + INTRA:          -3.037
REMARK INTER:                  -2.906
REMARK INTRA:                  -0.131
REMARK UNBOUND:                -0.126
REMARK SMILES O=C([O-])CCC(=O)[O-]
REMARK SMILES IDX 4 1 2 2 1 3 3 4 5 5 6 6 7 7 8 8
REMARK H PARENT
REMARK Flexibility Score: inf
ROOT
ATOM      1  C   UNL     1      23.257  19.268  44.187  1.00  0.00     0.059 C 
ENDROOT
BRANCH   1   2
ATOM      2  C   UNL     1      24.676  18.963  44.559  1.00  0.00     0.042 C 
ATOM      3  O   UNL     1      25.625  19.427  43.875  1.00  0.00    -0.550 OA
ATOM      4  O   UNL     1      24.950  18.199  45.686  1.00  0.00    -0.550 OA
ENDBRANCH   1   2
BRANCH   1   5
ATOM      5  C   UNL     1      22.364  18.029  44.308  1.00  0.00     0.059 C 
BRANCH   5   6
ATOM      6  C   UNL     1      22.606  17.063  43.189  1.00  0.00     0.042 C 
ATOM      7  O   UNL     1      22.784  17.484  42.015  1.00  0.00    -0.550 OA
ATOM      8  O   UNL     1      22.591  15.696  43.435  1.00  0.00    -0.550 OA
ENDBRANCH   5   6
ENDBRANCH   1   5
TORSDOF 3
ENDMDL
MODEL 5
REMARK VINA RESULT:    -2.476     16.596     17.362
REMARK INTER + INTRA:          -3.036
REMARK INTER:                  -2.917
REMARK INTRA:                  -0.119
REMARK UNBOUND:                -0.126
REMARK SMILES O=C([O-])CCC(=O)[O-]
REMARK SMILES IDX 4 1 2 2 1 3 3 4 5 5 6 6 7 7 8 8
REMARK H PARENT
REMARK Flexibility Score: inf
ROOT
ATOM      1  C   UNL     1      17.315  29.052  55.318  1.00  0.00     0.059 C 
ENDROOT
BRANCH   1   2
ATOM      2  C   UNL     1      18.263  29.902  54.528  1.00  0.00     0.042 C 
ATOM      3  O   UNL     1      17.859  30.533  53.518  1.00  0.00    -0.550 OA
ATOM      4  O   UNL     1      19.586  30.028  54.934  1.00  0.00    -0.550 OA
ENDBRANCH   1   2
BRANCH   1   5
ATOM      5  C   UNL     1      15.856  29.403  55.012  1.00  0.00     0.059 C 
BRANCH   5   6
ATOM      6  C   UNL     1      15.184  28.327  54.214  1.00  0.00     0.042 C 
ATOM      7  O   UNL     1      14.420  27.502  54.781  1.00  0.00    -0.550 OA
ATOM      8  O   UNL     1      15.435  28.212  52.853  1.00  0.00    -0.550 OA
ENDBRANCH   5   6
ENDBRANCH   1   5
TORSDOF 3
ENDMDL
MODEL 6
REMARK VINA RESULT:    -2.469     16.462     16.989
REMARK INTER + INTRA:          -3.028
REMARK INTER:                  -2.905
REMARK INTRA:                  -0.123
REMARK UNBOUND:                -0.126
REMARK SMILES O=C([O-])CCC(=O)[O-]
REMARK SMILES IDX 4 1 2 2 1 3 3 4 5 5 6 6 7 7 8 8
REMARK H PARENT
REMARK Flexibility Score: inf
ROOT
ATOM      1  C   UNL     1      15.862  29.399  54.932  1.00  0.00     0.059 C 
ENDROOT
BRANCH   1   2
ATOM      2  C   UNL     1      15.209  28.344  54.092  1.00  0.00     0.042 C 
ATOM      3  O   UNL     1      14.229  27.695  54.539  1.00  0.00    -0.550 OA
ATOM      4  O   UNL     1      15.660  28.107  52.799  1.00  0.00    -0.550 OA
ENDBRANCH   1   2
BRANCH   1   5
ATOM      5  C   UNL     1      17.311  29.034  55.268  1.00  0.00     0.059 C 
BRANCH   5   6
ATOM      6  C   UNL     1      18.285  29.903  54.532  1.00  0.00     0.042 C 
ATOM      7  O   UNL     1      19.483  29.975  54.915  1.00  0.00    -0.550 OA
ATOM      8  O   UNL     1      17.860  30.664  53.451  1.00  0.00    -0.550 OA
ENDBRANCH   5   6
ENDBRANCH   1   5
TORSDOF 3
ENDMDL
MODEL 7
REMARK VINA RESULT:    -2.449     10.339     11.395
REMARK INTER + INTRA:          -3.005
REMARK INTER:                  -2.895
REMARK INTRA:                  -0.110
REMARK UNBOUND:                -0.126
REMARK SMILES O=C([O-])CCC(=O)[O-]
REMARK SMILES IDX 4 1 2 2 1 3 3 4 5 5 6 6 7 7 8 8
REMARK H PARENT
REMARK Flexibility Score: inf
ROOT
ATOM      1  C   UNL     1      16.583  17.458  53.071  1.00  0.00     0.059 C 
ENDROOT
BRANCH   1   2
ATOM      2  C   UNL     1      16.566  18.417  54.222  1.00  0.00     0.042 C 
ATOM      3  O   UNL     1      17.641  18.752  54.784  1.00  0.00    -0.550 OA
ATOM      4  O   UNL     1      15.365  18.971  54.648  1.00  0.00    -0.550 OA
ENDBRANCH   1   2
BRANCH   1   5
ATOM      5  C   UNL     1      16.499  18.189  51.728  1.00  0.00     0.059 C 
BRANCH   5   6
ATOM      6  C   UNL     1      17.781  18.084  50.959  1.00  0.00     0.042 C 
ATOM      7  O   UNL     1      18.850  17.779  51.552  1.00  0.00    -0.550 OA
ATOM      8  O   UNL     1      17.802  18.364  49.599  1.00  0.00    -0.550 OA
ENDBRANCH   5   6
ENDBRANCH   1   5
TORSDOF 3
ENDMDL
MODEL 8
REMARK VINA RESULT:    -2.426      9.841     11.472
REMARK INTER + INTRA:          -2.977
REMARK INTER:                  -2.942
REMARK INTRA:                  -0.035
REMARK UNBOUND:                -0.126
REMARK SMILES O=C([O-])CCC(=O)[O-]
REMARK SMILES IDX 4 1 2 2 1 3 3 4 5 5 6 6 7 7 8 8
REMARK H PARENT
REMARK Flexibility Score: inf
ROOT
ATOM      1  C   UNL     1      31.336  16.626  52.592  1.00  0.00     0.059 C 
ENDROOT
BRANCH   1   2
ATOM      2  C   UNL     1      32.456  15.774  52.077  1.00  0.00     0.042 C 
ATOM      3  O   UNL     1      32.990  14.911  52.821  1.00  0.00    -0.550 OA
ATOM      4  O   UNL     1      32.882  15.908  50.762  1.00  0.00    -0.550 OA
ENDBRANCH   1   2
BRANCH   1   5
ATOM      5  C   UNL     1      30.613  17.354  51.455  1.00  0.00     0.059 C 
BRANCH   5   6
ATOM      6  C   UNL     1      29.171  17.598  51.783  1.00  0.00     0.042 C 
ATOM      7  O   UNL     1      28.298  16.747  51.468  1.00  0.00    -0.550 OA
ATOM      8  O   UNL     1      28.789  18.782  52.398  1.00  0.00    -0.550 OA
ENDBRANCH   5   6
ENDBRANCH   1   5
TORSDOF 3
ENDMDL
MODEL 9
REMARK VINA RESULT:    -2.396      9.973     11.551
REMARK INTER + INTRA:          -2.942
REMARK INTER:                  -2.913
REMARK INTRA:                  -0.029
REMARK UNBOUND:                -0.126
REMARK SMILES O=C([O-])CCC(=O)[O-]
REMARK SMILES IDX 4 1 2 2 1 3 3 4 5 5 6 6 7 7 8 8
REMARK H PARENT
REMARK Flexibility Score: inf
ROOT
ATOM      1  C   UNL     1      30.608  17.155  51.449  1.00  0.00     0.059 C 
ENDROOT
BRANCH   1   2
ATOM      2  C   UNL     1      29.215  17.528  51.856  1.00  0.00     0.042 C 
ATOM      3  O   UNL     1      28.237  16.827  51.488  1.00  0.00    -0.550 OA
ATOM      4  O   UNL     1      29.002  18.630  52.676  1.00  0.00    -0.550 OA
ENDBRANCH   1   2
BRANCH   1   5
ATOM      5  C   UNL     1      31.425  16.645  52.640  1.00  0.00     0.059 C 
BRANCH   5   6
ATOM      6  C   UNL     1      32.530  15.732  52.202  1.00  0.00     0.042 C 
ATOM      7  O   UNL     1      32.997  14.876  52.999  1.00  0.00    -0.550 OA
ATOM      8  O   UNL     1      33.071  15.856  50.929  1.00  0.00    -0.550 OA
ENDBRANCH   5   6
ENDBRANCH   1   5
TORSDOF 3
ENDMDL
