MODEL 1
REMARK VINA RESULT:    -4.432      0.000      0.000
REMARK INTER + INTRA:          -5.052
REMARK INTER:                  -4.950
REMARK INTRA:                  -0.103
REMARK UNBOUND:                -0.103
REMARK SMILES CCc1ccc(O)cc1O
REMARK SMILES IDX 3 1 9 2 8 3 6 4 5 5 4 6 2 7 1 8 10 9 7 11
REMARK H PARENT 10 10 7 12
REMARK Flexibility Score: inf
ROOT
ATOM      1  C   UNL     1      28.574  -3.030  35.520  1.00  0.00    -0.006 A 
ATOM      2  C   UNL     1      27.847  -3.779  34.561  1.00  0.00     0.122 A 
ATOM      3  C   UNL     1      28.440  -4.897  33.961  1.00  0.00     0.092 A 
ATOM      4  C   UNL     1      29.749  -5.273  34.286  1.00  0.00     0.119 A 
ATOM      5  C   UNL     1      30.473  -4.525  35.217  1.00  0.00     0.047 A 
ATOM      6  C   UNL     1      29.894  -3.410  35.826  1.00  0.00     0.011 A 
ENDROOT
BRANCH   1   7
ATOM      7  C   UNL     1      27.995  -1.808  36.194  1.00  0.00     0.036 C 
ATOM      8  C   UNL     1      27.378  -2.169  37.542  1.00  0.00     0.009 C 
ENDBRANCH   1   7
BRANCH   2   9
ATOM      9  O   UNL     1      26.547  -3.444  34.178  1.00  0.00    -0.508 OA
ATOM     10  H   UNL     1      26.019  -3.953  33.482  1.00  0.00     0.293 HD
ENDBRANCH   2   9
BRANCH   4  11
ATOM     11  O   UNL     1      30.339  -6.384  33.689  1.00  0.00    -0.508 OA
ATOM     12  H   UNL     1      30.651  -7.177  34.237  1.00  0.00     0.293 HD
ENDBRANCH   4  11
TORSDOF 3
ENDMDL
MODEL 2
REMARK VINA RESULT:    -4.405      2.452      3.107
REMARK INTER + INTRA:          -5.023
REMARK INTER:                  -4.939
REMARK INTRA:                  -0.084
REMARK UNBOUND:                -0.103
REMARK SMILES CCc1ccc(O)cc1O
REMARK SMILES IDX 3 1 9 2 8 3 6 4 5 5 4 6 2 7 1 8 10 9 7 11
REMARK H PARENT 10 10 7 12
REMARK Flexibility Score: inf
ROOT
ATOM      1  C   UNL     1      30.364  -3.827  34.924  1.00  0.00    -0.006 A 
ATOM      2  C   UNL     1      31.200  -2.901  34.250  1.00  0.00     0.122 A 
ATOM      3  C   UNL     1      31.958  -3.323  33.151  1.00  0.00     0.092 A 
ATOM      4  C   UNL     1      31.913  -4.655  32.721  1.00  0.00     0.119 A 
ATOM      5  C   UNL     1      31.105  -5.573  33.395  1.00  0.00     0.047 A 
ATOM      6  C   UNL     1      30.340  -5.165  34.490  1.00  0.00     0.011 A 
ENDROOT
BRANCH   1   7
ATOM      7  C   UNL     1      29.530  -3.437  36.121  1.00  0.00     0.036 C 
ATOM      8  C   UNL     1      28.231  -2.765  35.687  1.00  0.00     0.009 C 
ENDBRANCH   1   7
BRANCH   2   9
ATOM      9  O   UNL     1      31.305  -1.565  34.643  1.00  0.00    -0.508 OA
ATOM     10  H   UNL     1      32.170  -1.136  34.941  1.00  0.00     0.293 HD
ENDBRANCH   2   9
BRANCH   4  11
ATOM     11  O   UNL     1      32.668  -5.076  31.629  1.00  0.00    -0.508 OA
ATOM     12  H   UNL     1      32.732  -4.520  30.784  1.00  0.00     0.293 HD
ENDBRANCH   4  11
TORSDOF 3
ENDMDL
MODEL 3
REMARK VINA RESULT:    -4.292      1.694      4.048
REMARK INTER + INTRA:          -4.896
REMARK INTER:                  -4.804
REMARK INTRA:                  -0.092
REMARK UNBOUND:                -0.103
REMARK SMILES CCc1ccc(O)cc1O
REMARK SMILES IDX 3 1 9 2 8 3 6 4 5 5 4 6 2 7 1 8 10 9 7 11
REMARK H PARENT 10 10 7 12
REMARK Flexibility Score: inf
ROOT
ATOM      1  C   UNL     1      31.068  -4.546  34.196  1.00  0.00    -0.006 A 
ATOM      2  C   UNL     1      29.892  -4.801  33.446  1.00  0.00     0.122 A 
ATOM      3  C   UNL     1      28.663  -4.298  33.890  1.00  0.00     0.092 A 
ATOM      4  C   UNL     1      28.580  -3.560  35.077  1.00  0.00     0.119 A 
ATOM      5  C   UNL     1      29.734  -3.323  35.828  1.00  0.00     0.047 A 
ATOM      6  C   UNL     1      30.967  -3.815  35.395  1.00  0.00     0.011 A 
ENDROOT
BRANCH   1   7
ATOM      7  C   UNL     1      32.421  -5.069  33.777  1.00  0.00     0.036 C 
ATOM      8  C   UNL     1      33.069  -4.145  32.750  1.00  0.00     0.009 C 
ENDBRANCH   1   7
BRANCH   2   9
ATOM      9  O   UNL     1      29.905  -5.548  32.266  1.00  0.00    -0.508 OA
ATOM     10  H   UNL     1      29.361  -5.311  31.448  1.00  0.00     0.293 HD
ENDBRANCH   2   9
BRANCH   4  11
ATOM     11  O   UNL     1      27.358  -3.061  35.520  1.00  0.00    -0.508 OA
ATOM     12  H   UNL     1      26.792  -2.453  34.939  1.00  0.00     0.293 HD
ENDBRANCH   4  11
TORSDOF 3
ENDMDL
MODEL 4
REMARK VINA RESULT:    -4.260      4.929      6.041
REMARK INTER + INTRA:          -4.861
REMARK INTER:                  -4.771
REMARK INTRA:                  -0.090
REMARK UNBOUND:                -0.103
REMARK SMILES CCc1ccc(O)cc1O
REMARK SMILES IDX 3 1 9 2 8 3 6 4 5 5 4 6 2 7 1 8 10 9 7 11
REMARK H PARENT 10 10 7 12
REMARK Flexibility Score: inf
ROOT
ATOM      1  C   UNL     1      23.306  -0.191  34.251  1.00  0.00    -0.006 A 
ATOM      2  C   UNL     1      23.132  -1.582  34.456  1.00  0.00     0.122 A 
ATOM      3  C   UNL     1      24.181  -2.463  34.162  1.00  0.00     0.092 A 
ATOM      4  C   UNL     1      25.394  -1.985  33.651  1.00  0.00     0.119 A 
ATOM      5  C   UNL     1      25.561  -0.616  33.431  1.00  0.00     0.047 A 
ATOM      6  C   UNL     1      24.526   0.274  33.723  1.00  0.00     0.011 A 
ENDROOT
BRANCH   1   7
ATOM      7  C   UNL     1      22.212   0.809  34.538  1.00  0.00     0.036 C 
ATOM      8  C   UNL     1      21.916   1.663  33.308  1.00  0.00     0.009 C 
ENDBRANCH   1   7
BRANCH   2   9
ATOM      9  O   UNL     1      21.941  -2.124  34.942  1.00  0.00    -0.508 OA
ATOM     10  H   UNL     1      21.421  -1.731  35.714  1.00  0.00     0.293 HD
ENDBRANCH   2   9
BRANCH   4  11
ATOM     11  O   UNL     1      26.436  -2.861  33.358  1.00  0.00    -0.508 OA
ATOM     12  H   UNL     1      26.276  -3.855  33.239  1.00  0.00     0.293 HD
ENDBRANCH   4  11
TORSDOF 3
ENDMDL
MODEL 5
REMARK VINA RESULT:    -4.159      3.246      5.365
REMARK INTER + INTRA:          -4.748
REMARK INTER:                  -4.649
REMARK INTRA:                  -0.098
REMARK UNBOUND:                -0.103
REMARK SMILES CCc1ccc(O)cc1O
REMARK SMILES IDX 3 1 9 2 8 3 6 4 5 5 4 6 2 7 1 8 10 9 7 11
REMARK H PARENT 10 10 7 12
REMARK Flexibility Score: inf
ROOT
ATOM      1  C   UNL     1      25.997  -1.333  35.602  1.00  0.00    -0.006 A 
ATOM      2  C   UNL     1      25.557  -2.023  34.445  1.00  0.00     0.122 A 
ATOM      3  C   UNL     1      24.186  -2.155  34.194  1.00  0.00     0.092 A 
ATOM      4  C   UNL     1      23.243  -1.625  35.084  1.00  0.00     0.119 A 
ATOM      5  C   UNL     1      23.674  -0.960  36.235  1.00  0.00     0.047 A 
ATOM      6  C   UNL     1      25.039  -0.819  36.495  1.00  0.00     0.011 A 
ENDROOT
BRANCH   1   7
ATOM      7  C   UNL     1      27.461  -1.167  35.933  1.00  0.00     0.036 C 
ATOM      8  C   UNL     1      27.993  -2.386  36.680  1.00  0.00     0.009 C 
ENDBRANCH   1   7
BRANCH   2   9
ATOM      9  O   UNL     1      26.446  -2.592  33.530  1.00  0.00    -0.508 OA
ATOM     10  H   UNL     1      26.264  -2.656  32.538  1.00  0.00     0.293 HD
ENDBRANCH   2   9
BRANCH   4  11
ATOM     11  O   UNL     1      21.879  -1.756  34.836  1.00  0.00    -0.508 OA
ATOM     12  H   UNL     1      21.524  -1.923  33.902  1.00  0.00     0.293 HD
ENDBRANCH   4  11
TORSDOF 3
ENDMDL
MODEL 6
REMARK VINA RESULT:    -4.155      1.834      2.234
REMARK INTER + INTRA:          -4.744
REMARK INTER:                  -4.786
REMARK INTRA:                   0.042
REMARK UNBOUND:                -0.103
REMARK SMILES CCc1ccc(O)cc1O
REMARK SMILES IDX 3 1 9 2 8 3 6 4 5 5 4 6 2 7 1 8 10 9 7 11
REMARK H PARENT 10 10 7 12
REMARK Flexibility Score: inf
ROOT
ATOM      1  C   UNL     1      30.098  -3.884  35.020  1.00  0.00    -0.006 A 
ATOM      2  C   UNL     1      29.554  -4.256  33.764  1.00  0.00     0.122 A 
ATOM      3  C   UNL     1      30.411  -4.622  32.719  1.00  0.00     0.092 A 
ATOM      4  C   UNL     1      31.800  -4.609  32.895  1.00  0.00     0.119 A 
ATOM      5  C   UNL     1      32.338  -4.225  34.125  1.00  0.00     0.047 A 
ATOM      6  C   UNL     1      31.496  -3.861  35.178  1.00  0.00     0.011 A 
ENDROOT
BRANCH   1   7
ATOM      7  C   UNL     1      29.228  -3.468  36.182  1.00  0.00     0.036 C 
ATOM      8  C   UNL     1      28.523  -2.147  35.891  1.00  0.00     0.009 C 
ENDBRANCH   1   7
BRANCH   2   9
ATOM      9  O   UNL     1      28.180  -4.269  33.518  1.00  0.00    -0.508 OA
ATOM     10  H   UNL     1      27.687  -3.520  33.053  1.00  0.00     0.293 HD
ENDBRANCH   2   9
BRANCH   4  11
ATOM     11  O   UNL     1      32.652  -4.973  31.855  1.00  0.00    -0.508 OA
ATOM     12  H   UNL     1      33.561  -4.540  31.740  1.00  0.00     0.293 HD
ENDBRANCH   4  11
TORSDOF 3
ENDMDL
MODEL 7
REMARK VINA RESULT:    -4.111      2.379      4.372
REMARK INTER + INTRA:          -4.694
REMARK INTER:                  -4.610
REMARK INTRA:                  -0.084
REMARK UNBOUND:                -0.103
REMARK SMILES CCc1ccc(O)cc1O
REMARK SMILES IDX 3 1 9 2 8 3 6 4 5 5 4 6 2 7 1 8 10 9 7 11
REMARK H PARENT 10 10 7 12
REMARK Flexibility Score: inf
ROOT
ATOM      1  C   UNL     1      32.266  -4.243  34.256  1.00  0.00    -0.006 A 
ATOM      2  C   UNL     1      31.750  -4.614  32.989  1.00  0.00     0.122 A 
ATOM      3  C   UNL     1      30.369  -4.577  32.764  1.00  0.00     0.092 A 
ATOM      4  C   UNL     1      29.489  -4.193  33.783  1.00  0.00     0.119 A 
ATOM      5  C   UNL     1      29.993  -3.845  35.039  1.00  0.00     0.047 A 
ATOM      6  C   UNL     1      31.369  -3.873  35.275  1.00  0.00     0.011 A 
ENDROOT
BRANCH   1   7
ATOM      7  C   UNL     1      33.744  -4.272  34.564  1.00  0.00     0.036 C 
ATOM      8  C   UNL     1      34.116  -3.175  35.557  1.00  0.00     0.009 C 
ENDBRANCH   1   7
BRANCH   2   9
ATOM      9  O   UNL     1      32.573  -5.026  31.938  1.00  0.00    -0.508 OA
ATOM     10  H   UNL     1      32.321  -5.752  31.282  1.00  0.00     0.293 HD
ENDBRANCH   2   9
BRANCH   4  11
ATOM     11  O   UNL     1      28.115  -4.158  33.561  1.00  0.00    -0.508 OA
ATOM     12  H   UNL     1      27.478  -4.750  34.081  1.00  0.00     0.293 HD
ENDBRANCH   4  11
TORSDOF 3
ENDMDL
MODEL 8
REMARK VINA RESULT:    -4.046      4.853      6.911
REMARK INTER + INTRA:          -4.621
REMARK INTER:                  -4.535
REMARK INTRA:                  -0.086
REMARK UNBOUND:                -0.103
REMARK SMILES CCc1ccc(O)cc1O
REMARK SMILES IDX 3 1 9 2 8 3 6 4 5 5 4 6 2 7 1 8 10 9 7 11
REMARK H PARENT 10 10 7 12
REMARK Flexibility Score: inf
ROOT
ATOM      1  C   UNL     1      24.560  -0.545  34.140  1.00  0.00    -0.006 A 
ATOM      2  C   UNL     1      24.935  -1.268  35.300  1.00  0.00     0.122 A 
ATOM      3  C   UNL     1      24.124  -1.217  36.442  1.00  0.00     0.092 A 
ATOM      4  C   UNL     1      22.956  -0.446  36.454  1.00  0.00     0.119 A 
ATOM      5  C   UNL     1      22.594   0.282  35.318  1.00  0.00     0.047 A 
ATOM      6  C   UNL     1      23.391   0.238  34.172  1.00  0.00     0.011 A 
ENDROOT
BRANCH   1   7
ATOM      7  C   UNL     1      25.396  -0.550  32.883  1.00  0.00     0.036 C 
ATOM      8  C   UNL     1      25.411   0.830  32.232  1.00  0.00     0.009 C 
ENDBRANCH   1   7
BRANCH   2   9
ATOM      9  O   UNL     1      26.098  -2.038  35.359  1.00  0.00    -0.508 OA
ATOM     10  H   UNL     1      27.016  -1.654  35.537  1.00  0.00     0.293 HD
ENDBRANCH   2   9
BRANCH   4  11
ATOM     11  O   UNL     1      22.150  -0.394  37.589  1.00  0.00    -0.508 OA
ATOM     12  H   UNL     1      22.544  -0.257  38.512  1.00  0.00     0.293 HD
ENDBRANCH   4  11
TORSDOF 3
ENDMDL
MODEL 9
REMARK VINA RESULT:    -4.042      3.997      5.696
REMARK INTER + INTRA:          -4.618
REMARK INTER:                  -4.530
REMARK INTRA:                  -0.088
REMARK UNBOUND:                -0.103
REMARK SMILES CCc1ccc(O)cc1O
REMARK SMILES IDX 3 1 9 2 8 3 6 4 5 5 4 6 2 7 1 8 10 9 7 11
REMARK H PARENT 10 10 7 12
REMARK Flexibility Score: inf
ROOT
ATOM      1  C   UNL     1      25.964  -1.208  35.718  1.00  0.00    -0.006 A 
ATOM      2  C   UNL     1      24.958  -0.585  36.499  1.00  0.00     0.122 A 
ATOM      3  C   UNL     1      23.609  -0.807  36.198  1.00  0.00     0.092 A 
ATOM      4  C   UNL     1      23.242  -1.624  35.122  1.00  0.00     0.119 A 
ATOM      5  C   UNL     1      24.231  -2.224  34.339  1.00  0.00     0.047 A 
ATOM      6  C   UNL     1      25.581  -2.015  34.631  1.00  0.00     0.011 A 
ENDROOT
BRANCH   1   7
ATOM      7  C   UNL     1      27.436  -1.000  35.985  1.00  0.00     0.036 C 
ATOM      8  C   UNL     1      28.153  -2.335  36.160  1.00  0.00     0.009 C 
ENDBRANCH   1   7
BRANCH   2   9
ATOM      9  O   UNL     1      25.259   0.258  37.572  1.00  0.00    -0.508 OA
ATOM     10  H   UNL     1      26.082   0.842  37.611  1.00  0.00     0.293 HD
ENDBRANCH   2   9
BRANCH   4  11
ATOM     11  O   UNL     1      21.900  -1.845  34.822  1.00  0.00    -0.508 OA
ATOM     12  H   UNL     1      21.314  -1.109  34.444  1.00  0.00     0.293 HD
ENDBRANCH   4  11
TORSDOF 3
ENDMDL
