MODEL 1
REMARK VINA RESULT:    -2.171      0.000      0.000
REMARK INTER + INTRA:          -5.595
REMARK INTER:                  -4.074
REMARK INTRA:                  -1.521
REMARK UNBOUND:                -1.521
REMARK SMILES O=C([O-])CCCCCCCCCCCCCCC(=O)[O-]
REMARK SMILES IDX 10 1 9 2 8 3 7 4 6 5 5 6 4 7 2 8 1 9 3 10 11 11 12 12 13 13
REMARK SMILES IDX 14 14 15 15 16 16 17 17 18 18 19 19 20 20
REMARK H PARENT
REMARK Flexibility Score: inf
ROOT
ATOM      1  C   UNL     1      17.454 -17.896  13.059  1.00  0.00     0.000 C 
ENDROOT
BRANCH   1   2
ATOM      2  C   UNL     1      16.190 -17.622  12.229  1.00  0.00     0.000 C 
BRANCH   2   3
ATOM      3  C   UNL     1      16.393 -17.908  10.731  1.00  0.00     0.000 C 
BRANCH   3   4
ATOM      4  C   UNL     1      17.871 -18.125  10.359  1.00  0.00     0.000 C 
BRANCH   4   5
ATOM      5  C   UNL     1      18.600 -16.868   9.848  1.00  0.00     0.000 C 
BRANCH   5   6
ATOM      6  C   UNL     1      19.898 -16.572  10.621  1.00  0.00     0.006 C 
BRANCH   6   7
ATOM      7  C   UNL     1      20.618 -17.855  11.053  1.00  0.00     0.053 C 
BRANCH   7   8
ATOM      8  C   UNL     1      22.064 -17.835  10.664  1.00  0.00     0.041 C 
ATOM      9  O   UNL     1      22.394 -17.783   9.450  1.00  0.00    -0.550 OA
ATOM     10  O   UNL     1      23.048 -17.837  11.646  1.00  0.00    -0.550 OA
ENDBRANCH   7   8
ENDBRANCH   6   7
ENDBRANCH   5   6
ENDBRANCH   4   5
ENDBRANCH   3   4
ENDBRANCH   2   3
ENDBRANCH   1   2
BRANCH   1  11
ATOM     11  C   UNL     1      17.144 -18.121  14.546  1.00  0.00     0.000 C 
BRANCH  11  12
ATOM     12  C   UNL     1      17.095 -16.785  15.305  1.00  0.00     0.000 C 
BRANCH  12  13
ATOM     13  C   UNL     1      17.653 -16.895  16.733  1.00  0.00     0.000 C 
BRANCH  13  14
ATOM     14  C   UNL     1      18.877 -15.996  16.962  1.00  0.00     0.000 C 
BRANCH  14  15
ATOM     15  C   UNL     1      20.167 -16.827  17.024  1.00  0.00     0.000 C 
BRANCH  15  16
ATOM     16  C   UNL     1      20.750 -17.144  15.635  1.00  0.00     0.006 C 
BRANCH  16  17
ATOM     17  C   UNL     1      22.061 -16.402  15.323  1.00  0.00     0.053 C 
BRANCH  17  18
ATOM     18  C   UNL     1      21.899 -15.377  14.241  1.00  0.00     0.041 C 
ATOM     19  O   UNL     1      20.749 -15.050  13.846  1.00  0.00    -0.550 OA
ATOM     20  O   UNL     1      23.014 -14.754  13.694  1.00  0.00    -0.550 OA
ENDBRANCH  17  18
ENDBRANCH  16  17
ENDBRANCH  15  16
ENDBRANCH  14  15
ENDBRANCH  13  14
ENDBRANCH  12  13
ENDBRANCH  11  12
ENDBRANCH   1  11
TORSDOF 15
ENDMDL
MODEL 2
REMARK VINA RESULT:    -2.079      5.061      6.901
REMARK INTER + INTRA:          -5.423
REMARK INTER:                  -4.475
REMARK INTRA:                  -0.948
REMARK UNBOUND:                -1.521
REMARK SMILES O=C([O-])CCCCCCCCCCCCCCC(=O)[O-]
REMARK SMILES IDX 10 1 9 2 8 3 7 4 6 5 5 6 4 7 2 8 1 9 3 10 11 11 12 12 13 13
REMARK SMILES IDX 14 14 15 15 16 16 17 17 18 18 19 19 20 20
REMARK H PARENT
REMARK Flexibility Score: inf
ROOT
ATOM      1  C   UNL     1      16.225 -18.106  12.578  1.00  0.00     0.000 C 
ENDROOT
BRANCH   1   2
ATOM      2  C   UNL     1      17.352 -17.658  11.636  1.00  0.00     0.000 C 
BRANCH   2   3
ATOM      3  C   UNL     1      18.679 -17.416  12.376  1.00  0.00     0.000 C 
BRANCH   3   4
ATOM      4  C   UNL     1      19.245 -16.003  12.142  1.00  0.00     0.000 C 
BRANCH   4   5
ATOM      5  C   UNL     1      19.060 -15.029  13.320  1.00  0.00     0.000 C 
BRANCH   5   6
ATOM      6  C   UNL     1      19.909 -15.403  14.548  1.00  0.00     0.006 C 
BRANCH   6   7
ATOM      7  C   UNL     1      21.395 -15.555  14.197  1.00  0.00     0.053 C 
BRANCH   7   8
ATOM      8  C   UNL     1      22.034 -16.669  14.968  1.00  0.00     0.041 C 
ATOM      9  O   UNL     1      22.034 -17.841  14.507  1.00  0.00    -0.550 OA
ATOM     10  O   UNL     1      22.660 -16.406  16.180  1.00  0.00    -0.550 OA
ENDBRANCH   7   8
ENDBRANCH   6   7
ENDBRANCH   5   6
ENDBRANCH   4   5
ENDBRANCH   3   4
ENDBRANCH   2   3
ENDBRANCH   1   2
BRANCH   1  11
ATOM     11  C   UNL     1      16.305 -17.431  13.955  1.00  0.00     0.000 C 
BRANCH  11  12
ATOM     12  C   UNL     1      15.374 -18.125  14.962  1.00  0.00     0.000 C 
BRANCH  12  13
ATOM     13  C   UNL     1      15.656 -17.708  16.414  1.00  0.00     0.000 C 
BRANCH  13  14
ATOM     14  C   UNL     1      14.454 -17.018  17.077  1.00  0.00     0.000 C 
BRANCH  14  15
ATOM     15  C   UNL     1      13.225 -17.939  17.080  1.00  0.00     0.000 C 
BRANCH  15  16
ATOM     16  C   UNL     1      11.892 -17.168  17.082  1.00  0.00     0.006 C 
BRANCH  16  17
ATOM     17  C   UNL     1      10.906 -17.619  15.990  1.00  0.00     0.053 C 
BRANCH  17  18
ATOM     18  C   UNL     1       9.490 -17.237  16.299  1.00  0.00     0.041 C 
ATOM     19  O   UNL     1       8.599 -18.122  16.383  1.00  0.00    -0.550 OA
ATOM     20  O   UNL     1       9.160 -15.907  16.533  1.00  0.00    -0.550 OA
ENDBRANCH  17  18
ENDBRANCH  16  17
ENDBRANCH  15  16
ENDBRANCH  14  15
ENDBRANCH  13  14
ENDBRANCH  12  13
ENDBRANCH  11  12
ENDBRANCH   1  11
TORSDOF 15
ENDMDL
MODEL 3
REMARK VINA RESULT:    -1.954      1.039      5.146
REMARK INTER + INTRA:          -5.189
REMARK INTER:                  -3.640
REMARK INTRA:                  -1.550
REMARK UNBOUND:                -1.521
REMARK SMILES O=C([O-])CCCCCCCCCCCCCCC(=O)[O-]
REMARK SMILES IDX 10 1 9 2 8 3 7 4 6 5 5 6 4 7 2 8 1 9 3 10 11 11 12 12 13 13
REMARK SMILES IDX 14 14 15 15 16 16 17 17 18 18 19 19 20 20
REMARK H PARENT
REMARK Flexibility Score: inf
ROOT
ATOM      1  C   UNL     1      17.915 -18.125  13.716  1.00  0.00     0.000 C 
ENDROOT
BRANCH   1   2
ATOM      2  C   UNL     1      17.942 -18.125  15.252  1.00  0.00     0.000 C 
BRANCH   2   3
ATOM      3  C   UNL     1      18.049 -16.708  15.841  1.00  0.00     0.000 C 
BRANCH   3   4
ATOM      4  C   UNL     1      18.946 -16.646  17.090  1.00  0.00     0.000 C 
BRANCH   4   5
ATOM      5  C   UNL     1      20.091 -17.676  17.116  1.00  0.00     0.000 C 
BRANCH   5   6
ATOM      6  C   UNL     1      21.337 -17.206  16.345  1.00  0.00     0.006 C 
BRANCH   6   7
ATOM      7  C   UNL     1      21.633 -15.719  16.576  1.00  0.00     0.053 C 
BRANCH   7   8
ATOM      8  C   UNL     1      21.697 -14.961  15.285  1.00  0.00     0.041 C 
ATOM      9  O   UNL     1      20.720 -14.979  14.491  1.00  0.00    -0.550 OA
ATOM     10  O   UNL     1      22.823 -14.208  14.977  1.00  0.00    -0.550 OA
ENDBRANCH   7   8
ENDBRANCH   6   7
ENDBRANCH   5   6
ENDBRANCH   4   5
ENDBRANCH   3   4
ENDBRANCH   2   3
ENDBRANCH   1   2
BRANCH   1  11
ATOM     11  C   UNL     1      17.008 -17.026  13.143  1.00  0.00     0.000 C 
BRANCH  11  12
ATOM     12  C   UNL     1      16.436 -17.441  11.779  1.00  0.00     0.000 C 
BRANCH  12  13
ATOM     13  C   UNL     1      17.482 -18.120  10.880  1.00  0.00     0.000 C 
BRANCH  13  14
ATOM     14  C   UNL     1      18.167 -17.136   9.919  1.00  0.00     0.000 C 
BRANCH  14  15
ATOM     15  C   UNL     1      19.694 -17.198  10.065  1.00  0.00     0.000 C 
BRANCH  15  16
ATOM     16  C   UNL     1      20.154 -18.074  11.245  1.00  0.00     0.006 C 
BRANCH  16  17
ATOM     17  C   UNL     1      20.926 -17.304  12.331  1.00  0.00     0.053 C 
BRANCH  17  18
ATOM     18  C   UNL     1      22.411 -17.455  12.198  1.00  0.00     0.041 C 
ATOM     19  O   UNL     1      23.125 -17.623  13.222  1.00  0.00    -0.550 OA
ATOM     20  O   UNL     1      23.005 -17.448  10.942  1.00  0.00    -0.550 OA
ENDBRANCH  17  18
ENDBRANCH  16  17
ENDBRANCH  15  16
ENDBRANCH  14  15
ENDBRANCH  13  14
ENDBRANCH  12  13
ENDBRANCH  11  12
ENDBRANCH   1  11
TORSDOF 15
ENDMDL
MODEL 4
REMARK VINA RESULT:    -1.552     15.514     16.964
REMARK INTER + INTRA:          -4.433
REMARK INTER:                  -3.245
REMARK INTRA:                  -1.188
REMARK UNBOUND:                -1.521
REMARK SMILES O=C([O-])CCCCCCCCCCCCCCC(=O)[O-]
REMARK SMILES IDX 10 1 9 2 8 3 7 4 6 5 5 6 4 7 2 8 1 9 3 10 11 11 12 12 13 13
REMARK SMILES IDX 14 14 15 15 16 16 17 17 18 18 19 19 20 20
REMARK H PARENT
REMARK Flexibility Score: inf
ROOT
ATOM      1  C   UNL     1      19.729 -10.977  -1.141  1.00  0.00     0.000 C 
ENDROOT
BRANCH   1   2
ATOM      2  C   UNL     1      21.017 -10.281  -1.609  1.00  0.00     0.000 C 
BRANCH   2   3
ATOM      3  C   UNL     1      22.239 -10.668  -0.758  1.00  0.00     0.000 C 
BRANCH   3   4
ATOM      4  C   UNL     1      22.682 -12.125  -0.977  1.00  0.00     0.000 C 
BRANCH   4   5
ATOM      5  C   UNL     1      22.841 -12.540  -2.451  1.00  0.00     0.000 C 
BRANCH   5   6
ATOM      6  C   UNL     1      22.882 -14.066  -2.644  1.00  0.00     0.006 C 
BRANCH   6   7
ATOM      7  C   UNL     1      21.477 -14.676  -2.726  1.00  0.00     0.053 C 
BRANCH   7   8
ATOM      8  C   UNL     1      21.455 -16.085  -2.219  1.00  0.00     0.041 C 
ATOM      9  O   UNL     1      20.434 -16.534  -1.636  1.00  0.00    -0.550 OA
ATOM     10  O   UNL     1      22.552 -16.913  -2.423  1.00  0.00    -0.550 OA
ENDBRANCH   7   8
ENDBRANCH   6   7
ENDBRANCH   5   6
ENDBRANCH   4   5
ENDBRANCH   3   4
ENDBRANCH   2   3
ENDBRANCH   1   2
BRANCH   1  11
ATOM     11  C   UNL     1      18.688 -11.104  -2.264  1.00  0.00     0.000 C 
BRANCH  11  12
ATOM     12  C   UNL     1      18.958 -12.348  -3.125  1.00  0.00     0.000 C 
BRANCH  12  13
ATOM     13  C   UNL     1      17.823 -13.381  -3.046  1.00  0.00     0.000 C 
BRANCH  13  14
ATOM     14  C   UNL     1      16.438 -12.731  -2.907  1.00  0.00     0.000 C 
BRANCH  14  15
ATOM     15  C   UNL     1      15.448 -13.686  -2.225  1.00  0.00     0.000 C 
BRANCH  15  16
ATOM     16  C   UNL     1      15.371 -15.064  -2.907  1.00  0.00     0.006 C 
BRANCH  16  17
ATOM     17  C   UNL     1      13.941 -15.620  -3.034  1.00  0.00     0.053 C 
BRANCH  17  18
ATOM     18  C   UNL     1      13.875 -17.098  -2.793  1.00  0.00     0.041 C 
ATOM     19  O   UNL     1      14.903 -17.810  -2.936  1.00  0.00    -0.550 OA
ATOM     20  O   UNL     1      12.687 -17.686  -2.373  1.00  0.00    -0.550 OA
ENDBRANCH  17  18
ENDBRANCH  16  17
ENDBRANCH  15  16
ENDBRANCH  14  15
ENDBRANCH  13  14
ENDBRANCH  12  13
ENDBRANCH  11  12
ENDBRANCH   1  11
TORSDOF 15
ENDMDL
MODEL 5
REMARK VINA RESULT:    -1.548     15.561     16.934
REMARK INTER + INTRA:          -4.426
REMARK INTER:                  -3.807
REMARK INTRA:                  -0.619
REMARK UNBOUND:                -1.521
REMARK SMILES O=C([O-])CCCCCCCCCCCCCCC(=O)[O-]
REMARK SMILES IDX 10 1 9 2 8 3 7 4 6 5 5 6 4 7 2 8 1 9 3 10 11 11 12 12 13 13
REMARK SMILES IDX 14 14 15 15 16 16 17 17 18 18 19 19 20 20
REMARK H PARENT
REMARK Flexibility Score: inf
ROOT
ATOM      1  C   UNL     1      19.428  -9.832  -2.028  1.00  0.00     0.000 C 
ENDROOT
BRANCH   1   2
ATOM      2  C   UNL     1      18.292 -10.775  -2.451  1.00  0.00     0.000 C 
BRANCH   2   3
ATOM      3  C   UNL     1      18.801 -12.169  -2.857  1.00  0.00     0.000 C 
BRANCH   3   4
ATOM      4  C   UNL     1      17.680 -13.224  -2.904  1.00  0.00     0.000 C 
BRANCH   4   5
ATOM      5  C   UNL     1      16.254 -12.660  -2.768  1.00  0.00     0.000 C 
BRANCH   5   6
ATOM      6  C   UNL     1      15.284 -13.639  -2.083  1.00  0.00     0.006 C 
BRANCH   6   7
ATOM      7  C   UNL     1      14.482 -14.463  -3.098  1.00  0.00     0.053 C 
BRANCH   7   8
ATOM      8  C   UNL     1      14.927 -15.893  -3.125  1.00  0.00     0.041 C 
ATOM      9  O   UNL     1      16.154 -16.176  -3.124  1.00  0.00    -0.550 OA
ATOM     10  O   UNL     1      13.985 -16.914  -3.116  1.00  0.00    -0.550 OA
ENDBRANCH   7   8
ENDBRANCH   6   7
ENDBRANCH   5   6
ENDBRANCH   4   5
ENDBRANCH   3   4
ENDBRANCH   2   3
ENDBRANCH   1   2
BRANCH   1  11
ATOM     11  C   UNL     1      20.646  -9.922  -2.961  1.00  0.00     0.000 C 
BRANCH  11  12
ATOM     12  C   UNL     1      21.945 -10.069  -2.155  1.00  0.00     0.000 C 
BRANCH  12  13
ATOM     13  C   UNL     1      21.963 -11.337  -1.285  1.00  0.00     0.000 C 
BRANCH  13  14
ATOM     14  C   UNL     1      22.470 -12.571  -2.047  1.00  0.00     0.000 C 
BRANCH  14  15
ATOM     15  C   UNL     1      21.302 -13.466  -2.484  1.00  0.00     0.000 C 
BRANCH  15  16
ATOM     16  C   UNL     1      21.760 -14.793  -3.116  1.00  0.00     0.006 C 
BRANCH  16  17
ATOM     17  C   UNL     1      22.431 -15.759  -2.124  1.00  0.00     0.053 C 
BRANCH  17  18
ATOM     18  C   UNL     1      21.812 -17.125  -2.144  1.00  0.00     0.041 C 
ATOM     19  O   UNL     1      22.133 -17.979  -1.276  1.00  0.00    -0.550 OA
ATOM     20  O   UNL     1      20.854 -17.445  -3.098  1.00  0.00    -0.550 OA
ENDBRANCH  17  18
ENDBRANCH  16  17
ENDBRANCH  15  16
ENDBRANCH  14  15
ENDBRANCH  13  14
ENDBRANCH  12  13
ENDBRANCH  11  12
ENDBRANCH   1  11
TORSDOF 15
ENDMDL
MODEL 6
REMARK VINA RESULT:    -1.411      2.856      5.770
REMARK INTER + INTRA:          -4.170
REMARK INTER:                  -2.991
REMARK INTRA:                  -1.178
REMARK UNBOUND:                -1.521
REMARK SMILES O=C([O-])CCCCCCCCCCCCCCC(=O)[O-]
REMARK SMILES IDX 10 1 9 2 8 3 7 4 6 5 5 6 4 7 2 8 1 9 3 10 11 11 12 12 13 13
REMARK SMILES IDX 14 14 15 15 16 16 17 17 18 18 19 19 20 20
REMARK H PARENT
REMARK Flexibility Score: inf
ROOT
ATOM      1  C   UNL     1      18.088 -17.984  12.029  1.00  0.00     0.000 C 
ENDROOT
BRANCH   1   2
ATOM      2  C   UNL     1      17.562 -18.052  13.471  1.00  0.00     0.000 C 
BRANCH   2   3
ATOM      3  C   UNL     1      18.198 -16.989  14.382  1.00  0.00     0.000 C 
BRANCH   3   4
ATOM      4  C   UNL     1      18.499 -17.517  15.797  1.00  0.00     0.000 C 
BRANCH   4   5
ATOM      5  C   UNL     1      17.802 -16.750  16.936  1.00  0.00     0.000 C 
BRANCH   5   6
ATOM      6  C   UNL     1      16.270 -16.727  16.794  1.00  0.00     0.006 C 
BRANCH   6   7
ATOM      7  C   UNL     1      15.704 -18.103  16.421  1.00  0.00     0.053 C 
BRANCH   7   8
ATOM      8  C   UNL     1      14.470 -17.984  15.580  1.00  0.00     0.041 C 
ATOM      9  O   UNL     1      14.539 -18.120  14.330  1.00  0.00    -0.550 OA
ATOM     10  O   UNL     1      13.238 -17.758  16.182  1.00  0.00    -0.550 OA
ENDBRANCH   7   8
ENDBRANCH   6   7
ENDBRANCH   5   6
ENDBRANCH   4   5
ENDBRANCH   3   4
ENDBRANCH   2   3
ENDBRANCH   1   2
BRANCH   1  11
ATOM     11  C   UNL     1      18.526 -16.567  11.628  1.00  0.00     0.000 C 
BRANCH  11  12
ATOM     12  C   UNL     1      20.021 -16.534  11.275  1.00  0.00     0.000 C 
BRANCH  12  13
ATOM     13  C   UNL     1      20.622 -17.940  11.113  1.00  0.00     0.000 C 
BRANCH  13  14
ATOM     14  C   UNL     1      21.921 -18.125  11.912  1.00  0.00     0.000 C 
BRANCH  14  15
ATOM     15  C   UNL     1      22.660 -16.788  12.079  1.00  0.00     0.000 C 
BRANCH  15  16
ATOM     16  C   UNL     1      22.892 -16.405  13.552  1.00  0.00     0.006 C 
BRANCH  16  17
ATOM     17  C   UNL     1      21.595 -16.204  14.357  1.00  0.00     0.053 C 
BRANCH  17  18
ATOM     18  C   UNL     1      21.801 -15.355  15.576  1.00  0.00     0.041 C 
ATOM     19  O   UNL     1      21.103 -15.546  16.606  1.00  0.00    -0.550 OA
ATOM     20  O   UNL     1      22.788 -14.377  15.588  1.00  0.00    -0.550 OA
ENDBRANCH  17  18
ENDBRANCH  16  17
ENDBRANCH  15  16
ENDBRANCH  14  15
ENDBRANCH  13  14
ENDBRANCH  12  13
ENDBRANCH  11  12
ENDBRANCH   1  11
TORSDOF 15
ENDMDL
