MODEL 1
REMARK VINA RESULT:    -5.031      0.000      0.000
REMARK INTER + INTRA:          -5.670
REMARK INTER:                  -5.472
REMARK INTRA:                  -0.199
REMARK UNBOUND:                -0.199
REMARK SMILES O=C([O-])c1ccccc1O
REMARK SMILES IDX 4 1 9 2 5 3 8 4 6 5 7 6 2 7 1 8 3 9 10 10
REMARK H PARENT 10 11
REMARK Flexibility Score: inf
ROOT
ATOM      1  C   UNL     1      22.210  33.174  52.313  1.00  0.00     0.039 A 
ATOM      2  C   UNL     1      22.760  32.784  51.066  1.00  0.00     0.124 A 
ATOM      3  C   UNL     1      22.741  34.302  52.968  1.00  0.00     0.014 A 
ATOM      4  C   UNL     1      23.855  33.484  50.541  1.00  0.00     0.047 A 
ATOM      5  C   UNL     1      23.818  35.001  52.421  1.00  0.00     0.001 A 
ATOM      6  C   UNL     1      24.381  34.588  51.214  1.00  0.00     0.004 A 
ENDROOT
BRANCH   1   7
ATOM      7  C   UNL     1      21.123  32.417  52.973  1.00  0.00     0.075 C 
ATOM      8  O   UNL     1      21.347  31.799  54.048  1.00  0.00    -0.545 OA
ATOM      9  O   UNL     1      19.867  32.320  52.388  1.00  0.00    -0.545 OA
ENDBRANCH   1   7
BRANCH   2  10
ATOM     10  O   UNL     1      22.231  31.739  50.305  1.00  0.00    -0.507 OA
ATOM     11  H   UNL     1      21.296  31.377  50.430  1.00  0.00     0.293 HD
ENDBRANCH   2  10
TORSDOF 2
ENDMDL
MODEL 2
REMARK VINA RESULT:    -4.854      1.761      2.797
REMARK INTER + INTRA:          -5.478
REMARK INTER:                  -5.238
REMARK INTRA:                  -0.241
REMARK UNBOUND:                -0.199
REMARK SMILES O=C([O-])c1ccccc1O
REMARK SMILES IDX 4 1 9 2 5 3 8 4 6 5 7 6 2 7 1 8 3 9 10 10
REMARK H PARENT 10 11
REMARK Flexibility Score: inf
ROOT
ATOM      1  C   UNL     1      23.162  33.743  52.970  1.00  0.00     0.039 A 
ATOM      2  C   UNL     1      24.131  33.266  53.888  1.00  0.00     0.124 A 
ATOM      3  C   UNL     1      23.081  35.127  52.724  1.00  0.00     0.014 A 
ATOM      4  C   UNL     1      24.943  34.177  54.576  1.00  0.00     0.047 A 
ATOM      5  C   UNL     1      23.911  36.021  53.403  1.00  0.00     0.001 A 
ATOM      6  C   UNL     1      24.834  35.548  54.335  1.00  0.00     0.004 A 
ENDROOT
BRANCH   1   7
ATOM      7  C   UNL     1      22.204  32.845  52.288  1.00  0.00     0.075 C 
ATOM      8  O   UNL     1      21.976  32.982  51.057  1.00  0.00    -0.545 OA
ATOM      9  O   UNL     1      21.496  31.887  53.002  1.00  0.00    -0.545 OA
ENDBRANCH   1   7
BRANCH   2  10
ATOM     10  O   UNL     1      24.344  31.905  54.115  1.00  0.00    -0.507 OA
ATOM     11  H   UNL     1      23.755  31.341  54.712  1.00  0.00     0.293 HD
ENDBRANCH   2  10
TORSDOF 2
ENDMDL
MODEL 3
REMARK VINA RESULT:    -4.712      2.919      3.496
REMARK INTER + INTRA:          -5.324
REMARK INTER:                  -5.136
REMARK INTRA:                  -0.188
REMARK UNBOUND:                -0.199
REMARK SMILES O=C([O-])c1ccccc1O
REMARK SMILES IDX 4 1 9 2 5 3 8 4 6 5 7 6 2 7 1 8 3 9 10 10
REMARK H PARENT 10 11
REMARK Flexibility Score: inf
ROOT
ATOM      1  C   UNL     1      24.106  32.508  53.020  1.00  0.00     0.039 A 
ATOM      2  C   UNL     1      24.466  32.652  51.657  1.00  0.00     0.124 A 
ATOM      3  C   UNL     1      22.740  32.449  53.361  1.00  0.00     0.014 A 
ATOM      4  C   UNL     1      23.465  32.795  50.686  1.00  0.00     0.047 A 
ATOM      5  C   UNL     1      21.756  32.573  52.379  1.00  0.00     0.001 A 
ATOM      6  C   UNL     1      22.117  32.755  51.045  1.00  0.00     0.004 A 
ENDROOT
BRANCH   1   7
ATOM      7  C   UNL     1      25.110  32.457  54.106  1.00  0.00     0.075 C 
ATOM      8  O   UNL     1      25.209  33.412  54.920  1.00  0.00    -0.545 OA
ATOM      9  O   UNL     1      25.997  31.392  54.203  1.00  0.00    -0.545 OA
ENDBRANCH   1   7
BRANCH   2  10
ATOM     10  O   UNL     1      25.793  32.621  51.222  1.00  0.00    -0.507 OA
ATOM     11  H   UNL     1      26.417  31.846  51.396  1.00  0.00     0.293 HD
ENDBRANCH   2  10
TORSDOF 2
ENDMDL
MODEL 4
REMARK VINA RESULT:    -4.687      1.585      2.209
REMARK INTER + INTRA:          -5.297
REMARK INTER:                  -5.086
REMARK INTRA:                  -0.211
REMARK UNBOUND:                -0.199
REMARK SMILES O=C([O-])c1ccccc1O
REMARK SMILES IDX 4 1 9 2 5 3 8 4 6 5 7 6 2 7 1 8 3 9 10 10
REMARK H PARENT 10 11
REMARK Flexibility Score: inf
ROOT
ATOM      1  C   UNL     1      22.662  32.512  52.310  1.00  0.00     0.039 A 
ATOM      2  C   UNL     1      23.894  32.373  52.996  1.00  0.00     0.124 A 
ATOM      3  C   UNL     1      22.678  32.838  50.940  1.00  0.00     0.014 A 
ATOM      4  C   UNL     1      25.096  32.620  52.320  1.00  0.00     0.047 A 
ATOM      5  C   UNL     1      23.885  33.061  50.276  1.00  0.00     0.001 A 
ATOM      6  C   UNL     1      25.092  32.962  50.966  1.00  0.00     0.004 A 
ENDROOT
BRANCH   1   7
ATOM      7  C   UNL     1      21.354  32.368  52.989  1.00  0.00     0.075 C 
ATOM      8  O   UNL     1      21.280  31.772  54.096  1.00  0.00    -0.545 OA
ATOM      9  O   UNL     1      20.188  32.824  52.388  1.00  0.00    -0.545 OA
ENDBRANCH   1   7
BRANCH   2  10
ATOM     10  O   UNL     1      23.971  31.957  54.327  1.00  0.00    -0.507 OA
ATOM     11  H   UNL     1      23.732  31.025  54.634  1.00  0.00     0.293 HD
ENDBRANCH   2  10
TORSDOF 2
ENDMDL
MODEL 5
REMARK VINA RESULT:    -4.654      2.531      3.596
REMARK INTER + INTRA:          -5.261
REMARK INTER:                  -5.055
REMARK INTRA:                  -0.206
REMARK UNBOUND:                -0.199
REMARK SMILES O=C([O-])c1ccccc1O
REMARK SMILES IDX 4 1 9 2 5 3 8 4 6 5 7 6 2 7 1 8 3 9 10 10
REMARK H PARENT 10 11
REMARK Flexibility Score: inf
ROOT
ATOM      1  C   UNL     1      24.320  33.591  53.248  1.00  0.00     0.039 A 
ATOM      2  C   UNL     1      23.386  32.532  53.122  1.00  0.00     0.124 A 
ATOM      3  C   UNL     1      24.653  34.344  52.105  1.00  0.00     0.014 A 
ATOM      4  C   UNL     1      22.862  32.215  51.861  1.00  0.00     0.047 A 
ATOM      5  C   UNL     1      24.106  34.028  50.860  1.00  0.00     0.001 A 
ATOM      6  C   UNL     1      23.219  32.960  50.736  1.00  0.00     0.004 A 
ENDROOT
BRANCH   1   7
ATOM      7  C   UNL     1      24.989  33.912  54.528  1.00  0.00     0.075 C 
ATOM      8  O   UNL     1      24.952  35.086  54.983  1.00  0.00    -0.545 OA
ATOM      9  O   UNL     1      25.720  32.946  55.209  1.00  0.00    -0.545 OA
ENDBRANCH   1   7
BRANCH   2  10
ATOM     10  O   UNL     1      22.927  31.800  54.219  1.00  0.00    -0.507 OA
ATOM     11  H   UNL     1      23.245  31.956  55.165  1.00  0.00     0.293 HD
ENDBRANCH   2  10
TORSDOF 2
ENDMDL
MODEL 6
REMARK VINA RESULT:    -4.606      2.440      3.646
REMARK INTER + INTRA:          -5.209
REMARK INTER:                  -4.959
REMARK INTRA:                  -0.250
REMARK UNBOUND:                -0.199
REMARK SMILES O=C([O-])c1ccccc1O
REMARK SMILES IDX 4 1 9 2 5 3 8 4 6 5 7 6 2 7 1 8 3 9 10 10
REMARK H PARENT 10 11
REMARK Flexibility Score: inf
ROOT
ATOM      1  C   UNL     1      23.639  34.092  51.573  1.00  0.00     0.039 A 
ATOM      2  C   UNL     1      23.228  33.005  50.762  1.00  0.00     0.124 A 
ATOM      3  C   UNL     1      22.937  34.356  52.765  1.00  0.00     0.014 A 
ATOM      4  C   UNL     1      22.101  32.255  51.126  1.00  0.00     0.047 A 
ATOM      5  C   UNL     1      21.829  33.587  53.124  1.00  0.00     0.001 A 
ATOM      6  C   UNL     1      21.405  32.544  52.301  1.00  0.00     0.004 A 
ENDROOT
BRANCH   1   7
ATOM      7  C   UNL     1      24.756  34.987  51.195  1.00  0.00     0.075 C 
ATOM      8  O   UNL     1      25.428  35.569  52.086  1.00  0.00    -0.545 OA
ATOM      9  O   UNL     1      25.034  35.250  49.859  1.00  0.00    -0.545 OA
ENDBRANCH   1   7
BRANCH   2  10
ATOM     10  O   UNL     1      23.927  32.614  49.618  1.00  0.00    -0.507 OA
ATOM     11  H   UNL     1      24.044  33.206  48.808  1.00  0.00     0.293 HD
ENDBRANCH   2  10
TORSDOF 2
ENDMDL
MODEL 7
REMARK VINA RESULT:    -4.585      2.555      3.377
REMARK INTER + INTRA:          -5.186
REMARK INTER:                  -4.936
REMARK INTRA:                  -0.249
REMARK UNBOUND:                -0.199
REMARK SMILES O=C([O-])c1ccccc1O
REMARK SMILES IDX 4 1 9 2 5 3 8 4 6 5 7 6 2 7 1 8 3 9 10 10
REMARK H PARENT 10 11
REMARK Flexibility Score: inf
ROOT
ATOM      1  C   UNL     1      23.518  35.411  52.363  1.00  0.00     0.039 A 
ATOM      2  C   UNL     1      24.359  36.085  51.443  1.00  0.00     0.124 A 
ATOM      3  C   UNL     1      22.805  36.168  53.314  1.00  0.00     0.014 A 
ATOM      4  C   UNL     1      24.515  37.475  51.534  1.00  0.00     0.047 A 
ATOM      5  C   UNL     1      22.955  37.554  53.378  1.00  0.00     0.001 A 
ATOM      6  C   UNL     1      23.815  38.206  52.496  1.00  0.00     0.004 A 
ENDROOT
BRANCH   1   7
ATOM      7  C   UNL     1      23.389  33.937  52.390  1.00  0.00     0.075 C 
ATOM      8  O   UNL     1      23.573  33.307  53.464  1.00  0.00    -0.545 OA
ATOM      9  O   UNL     1      23.132  33.225  51.225  1.00  0.00    -0.545 OA
ENDBRANCH   1   7
BRANCH   2  10
ATOM     10  O   UNL     1      25.024  35.423  50.409  1.00  0.00    -0.507 OA
ATOM     11  H   UNL     1      24.728  34.532  50.038  1.00  0.00     0.293 HD
ENDBRANCH   2  10
TORSDOF 2
ENDMDL
MODEL 8
REMARK VINA RESULT:    -4.550      2.560      4.064
REMARK INTER + INTRA:          -5.148
REMARK INTER:                  -4.928
REMARK INTRA:                  -0.221
REMARK UNBOUND:                -0.199
REMARK SMILES O=C([O-])c1ccccc1O
REMARK SMILES IDX 4 1 9 2 5 3 8 4 6 5 7 6 2 7 1 8 3 9 10 10
REMARK H PARENT 10 11
REMARK Flexibility Score: inf
ROOT
ATOM      1  C   UNL     1      23.862  32.799  51.936  1.00  0.00     0.039 A 
ATOM      2  C   UNL     1      23.386  32.488  53.234  1.00  0.00     0.124 A 
ATOM      3  C   UNL     1      22.938  32.895  50.877  1.00  0.00     0.014 A 
ATOM      4  C   UNL     1      22.024  32.222  53.429  1.00  0.00     0.047 A 
ATOM      5  C   UNL     1      21.581  32.647  51.092  1.00  0.00     0.001 A 
ATOM      6  C   UNL     1      21.125  32.302  52.363  1.00  0.00     0.004 A 
ENDROOT
BRANCH   1   7
ATOM      7  C   UNL     1      25.299  32.988  51.640  1.00  0.00     0.075 C 
ATOM      8  O   UNL     1      26.123  32.070  51.896  1.00  0.00    -0.545 OA
ATOM      9  O   UNL     1      25.769  34.197  51.143  1.00  0.00    -0.545 OA
ENDBRANCH   1   7
BRANCH   2  10
ATOM     10  O   UNL     1      24.218  32.470  54.355  1.00  0.00    -0.507 OA
ATOM     11  H   UNL     1      24.243  31.707  55.017  1.00  0.00     0.293 HD
ENDBRANCH   2  10
TORSDOF 2
ENDMDL
MODEL 9
REMARK VINA RESULT:    -4.426      2.590      4.241
REMARK INTER + INTRA:          -5.013
REMARK INTER:                  -4.760
REMARK INTRA:                  -0.253
REMARK UNBOUND:                -0.199
REMARK SMILES O=C([O-])c1ccccc1O
REMARK SMILES IDX 4 1 9 2 5 3 8 4 6 5 7 6 2 7 1 8 3 9 10 10
REMARK H PARENT 10 11
REMARK Flexibility Score: inf
ROOT
ATOM      1  C   UNL     1      24.350  35.449  51.675  1.00  0.00     0.039 A 
ATOM      2  C   UNL     1      23.431  35.234  52.732  1.00  0.00     0.124 A 
ATOM      3  C   UNL     1      24.670  36.771  51.309  1.00  0.00     0.014 A 
ATOM      4  C   UNL     1      22.814  36.331  53.349  1.00  0.00     0.047 A 
ATOM      5  C   UNL     1      24.062  37.854  51.948  1.00  0.00     0.001 A 
ATOM      6  C   UNL     1      23.129  37.634  52.960  1.00  0.00     0.004 A 
ENDROOT
BRANCH   1   7
ATOM      7  C   UNL     1      24.959  34.337  50.912  1.00  0.00     0.075 C 
ATOM      8  O   UNL     1      25.027  34.395  49.656  1.00  0.00    -0.545 OA
ATOM      9  O   UNL     1      25.399  33.189  51.559  1.00  0.00    -0.545 OA
ENDBRANCH   1   7
BRANCH   2  10
ATOM     10  O   UNL     1      23.134  33.961  53.222  1.00  0.00    -0.507 OA
ATOM     11  H   UNL     1      23.214  33.707  54.197  1.00  0.00     0.293 HD
ENDBRANCH   2  10
TORSDOF 2
ENDMDL
