MODEL 1
REMARK VINA RESULT:    -3.854      0.000      0.000
REMARK INTER + INTRA:          -4.206
REMARK INTER:                  -4.192
REMARK INTRA:                  -0.014
REMARK UNBOUND:                -0.014
REMARK SMILES OCc1ccco1
REMARK SMILES IDX 2 1 3 2 5 3 6 4 4 5 7 6 1 7
REMARK H PARENT 1 8
REMARK Flexibility Score: inf
ROOT
ATOM      1  C   UNL     1      24.612  12.798  15.864  1.00  0.00     0.231 C 
ENDROOT
BRANCH   1   2
ATOM      2  C   UNL     1      25.378  12.935  17.142  1.00  0.00     0.129 A 
ATOM      3  C   UNL     1      26.407  13.767  18.895  1.00  0.00     0.042 A 
ATOM      4  C   UNL     1      26.377  12.387  18.943  1.00  0.00     0.195 A 
ATOM      5  C   UNL     1      25.758  14.123  17.732  1.00  0.00     0.048 A 
ATOM      6  O   UNL     1      25.753  11.920  17.886  1.00  0.00    -0.467 OA
ENDBRANCH   1   2
BRANCH   1   7
ATOM      7  O   UNL     1      23.345  13.379  15.998  1.00  0.00    -0.388 OA
ATOM      8  H   UNL     1      23.071  13.674  15.090  1.00  0.00     0.211 HD
ENDBRANCH   1   7
TORSDOF 2
ENDMDL
MODEL 2
REMARK VINA RESULT:    -3.667      1.316      3.053
REMARK INTER + INTRA:          -4.002
REMARK INTER:                  -3.984
REMARK INTRA:                  -0.018
REMARK UNBOUND:                -0.014
REMARK SMILES OCc1ccco1
REMARK SMILES IDX 2 1 3 2 5 3 6 4 4 5 7 6 1 7
REMARK H PARENT 1 8
REMARK Flexibility Score: inf
ROOT
ATOM      1  C   UNL     1      26.338  13.657  18.850  1.00  0.00     0.231 C 
ENDROOT
BRANCH   1   2
ATOM      2  C   UNL     1      25.575  13.322  17.609  1.00  0.00     0.129 A 
ATOM      3  C   UNL     1      24.220  13.429  15.884  1.00  0.00     0.042 A 
ATOM      4  C   UNL     1      24.941  12.252  15.878  1.00  0.00     0.195 A 
ATOM      5  C   UNL     1      24.631  14.125  17.000  1.00  0.00     0.048 A 
ATOM      6  O   UNL     1      25.743  12.218  16.917  1.00  0.00    -0.467 OA
ENDBRANCH   1   2
BRANCH   1   7
ATOM      7  O   UNL     1      26.485  12.515  19.647  1.00  0.00    -0.388 OA
ATOM      8  H   UNL     1      26.287  12.792  20.580  1.00  0.00     0.211 HD
ENDBRANCH   1   7
TORSDOF 2
ENDMDL
MODEL 3
REMARK VINA RESULT:    -3.499     17.466     18.165
REMARK INTER + INTRA:          -3.820
REMARK INTER:                  -3.804
REMARK INTRA:                  -0.016
REMARK UNBOUND:                -0.014
REMARK SMILES OCc1ccco1
REMARK SMILES IDX 2 1 3 2 5 3 6 4 4 5 7 6 1 7
REMARK H PARENT 1 8
REMARK Flexibility Score: inf
ROOT
ATOM      1  C   UNL     1      17.875  -4.816  14.343  1.00  0.00     0.231 C 
ENDROOT
BRANCH   1   2
ATOM      2  C   UNL     1      18.844  -3.806  14.868  1.00  0.00     0.129 A 
ATOM      3  C   UNL     1      20.244  -2.712  16.159  1.00  0.00     0.042 A 
ATOM      4  C   UNL     1      20.162  -2.131  14.909  1.00  0.00     0.195 A 
ATOM      5  C   UNL     1      19.396  -3.798  16.134  1.00  0.00     0.048 A 
ATOM      6  O   UNL     1      19.322  -2.808  14.160  1.00  0.00    -0.467 OA
ENDBRANCH   1   2
BRANCH   1   7
ATOM      7  O   UNL     1      17.910  -5.973  15.132  1.00  0.00    -0.388 OA
ATOM      8  H   UNL     1      18.803  -5.993  15.567  1.00  0.00     0.211 HD
ENDBRANCH   1   7
TORSDOF 2
ENDMDL
MODEL 4
REMARK VINA RESULT:    -3.374     17.532     18.411
REMARK INTER + INTRA:          -3.684
REMARK INTER:                  -3.670
REMARK INTRA:                  -0.014
REMARK UNBOUND:                -0.014
REMARK SMILES OCc1ccco1
REMARK SMILES IDX 2 1 3 2 5 3 6 4 4 5 7 6 1 7
REMARK H PARENT 1 8
REMARK Flexibility Score: inf
ROOT
ATOM      1  C   UNL     1      20.048  -2.722  16.192  1.00  0.00     0.231 C 
ENDROOT
BRANCH   1   2
ATOM      2  C   UNL     1      19.185  -3.572  15.316  1.00  0.00     0.129 A 
ATOM      3  C   UNL     1      18.005  -5.243  14.516  1.00  0.00     0.042 A 
ATOM      4  C   UNL     1      17.921  -4.136  13.695  1.00  0.00     0.195 A 
ATOM      5  C   UNL     1      18.819  -4.879  15.567  1.00  0.00     0.048 A 
ATOM      6  O   UNL     1      18.633  -3.154  14.200  1.00  0.00    -0.467 OA
ENDBRANCH   1   2
BRANCH   1   7
ATOM      7  O   UNL     1      19.389  -2.448  17.397  1.00  0.00    -0.388 OA
ATOM      8  H   UNL     1      19.969  -1.818  17.901  1.00  0.00     0.211 HD
ENDBRANCH   1   7
TORSDOF 2
ENDMDL
MODEL 5
REMARK VINA RESULT:    -3.352     16.536     17.233
REMARK INTER + INTRA:          -3.660
REMARK INTER:                  -3.642
REMARK INTRA:                  -0.018
REMARK UNBOUND:                -0.014
REMARK SMILES OCc1ccco1
REMARK SMILES IDX 2 1 3 2 5 3 6 4 4 5 7 6 1 7
REMARK H PARENT 1 8
REMARK Flexibility Score: inf
ROOT
ATOM      1  C   UNL     1      19.872  -1.373  13.022  1.00  0.00     0.231 C 
ENDROOT
BRANCH   1   2
ATOM      2  C   UNL     1      19.605  -2.386  14.090  1.00  0.00     0.129 A 
ATOM      3  C   UNL     1      19.676  -3.531  15.962  1.00  0.00     0.042 A 
ATOM      4  C   UNL     1      18.678  -3.999  15.129  1.00  0.00     0.195 A 
ATOM      5  C   UNL     1      20.274  -2.485  15.293  1.00  0.00     0.048 A 
ATOM      6  O   UNL     1      18.659  -3.294  14.021  1.00  0.00    -0.467 OA
ENDBRANCH   1   2
BRANCH   1   7
ATOM      7  O   UNL     1      19.880  -1.990  11.765  1.00  0.00    -0.388 OA
ATOM      8  H   UNL     1      19.309  -1.435  11.172  1.00  0.00     0.211 HD
ENDBRANCH   1   7
TORSDOF 2
ENDMDL
MODEL 6
REMARK VINA RESULT:    -3.332      1.593      2.827
REMARK INTER + INTRA:          -3.638
REMARK INTER:                  -3.622
REMARK INTRA:                  -0.015
REMARK UNBOUND:                -0.014
REMARK SMILES OCc1ccco1
REMARK SMILES IDX 2 1 3 2 5 3 6 4 4 5 7 6 1 7
REMARK H PARENT 1 8
REMARK Flexibility Score: inf
ROOT
ATOM      1  C   UNL     1      25.766  10.747  17.751  1.00  0.00     0.231 C 
ENDROOT
BRANCH   1   2
ATOM      2  C   UNL     1      25.368  12.012  17.060  1.00  0.00     0.129 A 
ATOM      3  C   UNL     1      24.965  14.125  16.617  1.00  0.00     0.042 A 
ATOM      4  C   UNL     1      24.739  13.331  15.509  1.00  0.00     0.195 A 
ATOM      5  C   UNL     1      25.375  13.274  17.620  1.00  0.00     0.048 A 
ATOM      6  O   UNL     1      24.991  12.077  15.804  1.00  0.00    -0.467 OA
ENDBRANCH   1   2
BRANCH   1   7
ATOM      7  O   UNL     1      24.675   9.873  17.822  1.00  0.00    -0.388 OA
ATOM      8  H   UNL     1      23.857  10.434  17.759  1.00  0.00     0.211 HD
ENDBRANCH   1   7
TORSDOF 2
ENDMDL
MODEL 7
REMARK VINA RESULT:    -3.292     17.723     18.567
REMARK INTER + INTRA:          -3.594
REMARK INTER:                  -3.581
REMARK INTRA:                  -0.013
REMARK UNBOUND:                -0.014
REMARK SMILES OCc1ccco1
REMARK SMILES IDX 2 1 3 2 5 3 6 4 4 5 7 6 1 7
REMARK H PARENT 1 8
REMARK Flexibility Score: inf
ROOT
ATOM      1  C   UNL     1      20.068  -2.868  16.267  1.00  0.00     0.231 C 
ENDROOT
BRANCH   1   2
ATOM      2  C   UNL     1      19.203  -3.823  15.506  1.00  0.00     0.129 A 
ATOM      3  C   UNL     1      17.875  -4.708  13.997  1.00  0.00     0.042 A 
ATOM      4  C   UNL     1      18.248  -5.643  14.943  1.00  0.00     0.195 A 
ATOM      5  C   UNL     1      18.495  -3.531  14.357  1.00  0.00     0.048 A 
ATOM      6  O   UNL     1      19.043  -5.086  15.827  1.00  0.00    -0.467 OA
ENDBRANCH   1   2
BRANCH   1   7
ATOM      7  O   UNL     1      19.376  -2.375  17.379  1.00  0.00    -0.388 OA
ATOM      8  H   UNL     1      19.161  -1.425  17.182  1.00  0.00     0.211 HD
ENDBRANCH   1   7
TORSDOF 2
ENDMDL
MODEL 8
REMARK VINA RESULT:    -2.807     10.759     11.628
REMARK INTER + INTRA:          -3.067
REMARK INTER:                  -3.054
REMARK INTRA:                  -0.014
REMARK UNBOUND:                -0.014
REMARK SMILES OCc1ccco1
REMARK SMILES IDX 2 1 3 2 5 3 6 4 4 5 7 6 1 7
REMARK H PARENT 1 8
REMARK Flexibility Score: inf
ROOT
ATOM      1  C   UNL     1      18.118   4.416  12.365  1.00  0.00     0.231 C 
ENDROOT
BRANCH   1   2
ATOM      2  C   UNL     1      18.778   5.556  11.656  1.00  0.00     0.129 A 
ATOM      3  C   UNL     1      19.878   7.407  11.227  1.00  0.00     0.042 A 
ATOM      4  C   UNL     1      19.538   6.749  10.062  1.00  0.00     0.195 A 
ATOM      5  C   UNL     1      19.391   6.636  12.260  1.00  0.00     0.048 A 
ATOM      6  O   UNL     1      18.885   5.646  10.351  1.00  0.00    -0.467 OA
ENDBRANCH   1   2
BRANCH   1   7
ATOM      7  O   UNL     1      19.085   3.548  12.885  1.00  0.00    -0.388 OA
ATOM      8  H   UNL     1      19.583   3.179  12.109  1.00  0.00     0.211 HD
ENDBRANCH   1   7
TORSDOF 2
ENDMDL
