MODEL 1
REMARK VINA RESULT:     3.364      0.000      0.000
REMARK INTER + INTRA:           3.989
REMARK INTER:                   4.052
REMARK INTRA:                  -0.063
REMARK UNBOUND:                -0.063
REMARK SMILES CC[C@@H](C)[C@H]([NH3+])C(=O)[O-]
REMARK SMILES IDX 3 1 4 2 5 3 6 4 7 8 8 9 9 10 2 11 1 12
REMARK H PARENT 6 5 6 6 6 7
REMARK Flexibility Score: inf
ROOT
ATOM      1  C   UNL     1       1.218  -1.131  -9.347  1.00  0.00     0.050 C 
ATOM      2  C   UNL     1       1.737  -1.280 -10.791  1.00  0.00     0.014 C 
ENDROOT
BRANCH   1   3
ATOM      3  C   UNL     1       1.754   0.189  -8.709  1.00  0.00     0.230 C 
BRANCH   3   4
ATOM      4  N   UNL     1       3.114   0.512  -9.167  1.00  0.00    -0.350 N 
ATOM      5  H   UNL     1       3.223   1.546  -9.266  1.00  0.00     0.345 HD
ATOM      6  H   UNL     1       3.334   0.054 -10.080  1.00  0.00     0.345 HD
ATOM      7  H   UNL     1       3.807   0.180  -8.457  1.00  0.00     0.345 HD
ENDBRANCH   3   4
BRANCH   3   8
ATOM      8  C   UNL     1       1.682   0.174  -7.200  1.00  0.00     0.099 C 
ATOM      9  O   UNL     1       0.768   0.793  -6.593  1.00  0.00    -0.544 OA
ATOM     10  O   UNL     1       2.652  -0.499  -6.469  1.00  0.00    -0.544 OA
ENDBRANCH   3   8
ENDBRANCH   1   3
BRANCH   1  11
ATOM     11  C   UNL     1      -0.329  -1.250  -9.295  1.00  0.00     0.006 C 
ATOM     12  C   UNL     1      -0.867  -2.396 -10.154  1.00  0.00     0.004 C 
ENDBRANCH   1  11
TORSDOF 4
ENDMDL
MODEL 2
REMARK VINA RESULT:     5.015      5.737      6.947
REMARK INTER + INTRA:           5.978
REMARK INTER:                   5.832
REMARK INTRA:                   0.145
REMARK UNBOUND:                -0.063
REMARK SMILES CC[C@@H](C)[C@H]([NH3+])C(=O)[O-]
REMARK SMILES IDX 3 1 4 2 5 3 6 4 7 8 8 9 9 10 2 11 1 12
REMARK H PARENT 6 5 6 6 6 7
REMARK Flexibility Score: inf
ROOT
ATOM      1  C   UNL     1      -1.614  -4.099 -11.139  1.00  0.00     0.050 C 
ATOM      2  C   UNL     1      -2.733  -5.043 -10.658  1.00  0.00     0.014 C 
ENDROOT
BRANCH   1   3
ATOM      3  C   UNL     1      -1.639  -3.973 -12.695  1.00  0.00     0.230 C 
BRANCH   3   4
ATOM      4  N   UNL     1      -3.005  -3.814 -13.215  1.00  0.00    -0.350 N 
ATOM      5  H   UNL     1      -3.665  -3.603 -12.432  1.00  0.00     0.345 HD
ATOM      6  H   UNL     1      -3.331  -4.669 -13.719  1.00  0.00     0.345 HD
ATOM      7  H   UNL     1      -3.030  -3.009 -13.884  1.00  0.00     0.345 HD
ENDBRANCH   3   4
BRANCH   3   8
ATOM      8  C   UNL     1      -0.930  -5.119 -13.381  1.00  0.00     0.099 C 
ATOM      9  O   UNL     1      -1.155  -6.311 -13.041  1.00  0.00    -0.544 OA
ATOM     10  O   UNL     1       0.005  -4.856 -14.373  1.00  0.00    -0.544 OA
ENDBRANCH   3   8
ENDBRANCH   1   3
BRANCH   1  11
ATOM     11  C   UNL     1      -1.689  -2.728 -10.415  1.00  0.00     0.006 C 
ATOM     12  C   UNL     1      -0.316  -2.085 -10.215  1.00  0.00     0.004 C 
ENDBRANCH   1  11
TORSDOF 4
ENDMDL
MODEL 3
REMARK VINA RESULT:     5.256      5.882      7.066
REMARK INTER + INTRA:           6.268
REMARK INTER:                   5.241
REMARK INTRA:                   1.027
REMARK UNBOUND:                -0.063
REMARK SMILES CC[C@@H](C)[C@H]([NH3+])C(=O)[O-]
REMARK SMILES IDX 3 1 4 2 5 3 6 4 7 8 8 9 9 10 2 11 1 12
REMARK H PARENT 6 5 6 6 6 7
REMARK Flexibility Score: inf
ROOT
ATOM      1  C   UNL     1      -2.043  -4.035 -11.983  1.00  0.00     0.050 C 
ATOM      2  C   UNL     1      -1.638  -4.216 -13.458  1.00  0.00     0.014 C 
ENDROOT
BRANCH   1   3
ATOM      3  C   UNL     1      -2.557  -5.385 -11.390  1.00  0.00     0.230 C 
BRANCH   3   4
ATOM      4  N   UNL     1      -2.747  -5.312  -9.934  1.00  0.00    -0.350 N 
ATOM      5  H   UNL     1      -3.484  -5.990  -9.633  1.00  0.00     0.345 HD
ATOM      6  H   UNL     1      -3.019  -4.351  -9.625  1.00  0.00     0.345 HD
ATOM      7  H   UNL     1      -1.855  -5.571  -9.454  1.00  0.00     0.345 HD
ENDBRANCH   3   4
BRANCH   3   8
ATOM      8  C   UNL     1      -1.675  -6.554 -11.761  1.00  0.00     0.099 C 
ATOM      9  O   UNL     1      -1.234  -6.681 -12.935  1.00  0.00    -0.544 OA
ATOM     10  O   UNL     1      -1.373  -7.521 -10.811  1.00  0.00    -0.544 OA
ENDBRANCH   3   8
ENDBRANCH   1   3
BRANCH   1  11
ATOM     11  C   UNL     1      -0.888  -3.406 -11.159  1.00  0.00     0.006 C 
ATOM     12  C   UNL     1      -1.380  -2.396 -10.120  1.00  0.00     0.004 C 
ENDBRANCH   1  11
TORSDOF 4
ENDMDL
MODEL 4
REMARK VINA RESULT:     5.279      1.838      2.293
REMARK INTER + INTRA:           6.296
REMARK INTER:                   6.146
REMARK INTRA:                   0.150
REMARK UNBOUND:                -0.063
REMARK SMILES CC[C@@H](C)[C@H]([NH3+])C(=O)[O-]
REMARK SMILES IDX 3 1 4 2 5 3 6 4 7 8 8 9 9 10 2 11 1 12
REMARK H PARENT 6 5 6 6 6 7
REMARK Flexibility Score: inf
ROOT
ATOM      1  C   UNL     1       2.153  -0.420  -8.288  1.00  0.00     0.050 C 
ATOM      2  C   UNL     1       2.978   0.702  -8.947  1.00  0.00     0.014 C 
ENDROOT
BRANCH   1   3
ATOM      3  C   UNL     1       1.790  -0.038  -6.818  1.00  0.00     0.230 C 
BRANCH   3   4
ATOM      4  N   UNL     1       0.935   1.157  -6.754  1.00  0.00    -0.350 N 
ATOM      5  H   UNL     1       0.387   1.255  -7.638  1.00  0.00     0.345 HD
ATOM      6  H   UNL     1       1.494   2.026  -6.598  1.00  0.00     0.345 HD
ATOM      7  H   UNL     1       0.258   1.057  -5.963  1.00  0.00     0.345 HD
ENDBRANCH   3   4
BRANCH   3   8
ATOM      8  C   UNL     1       3.010   0.123  -5.942  1.00  0.00     0.099 C 
ATOM      9  O   UNL     1       2.953   0.787  -4.873  1.00  0.00    -0.544 OA
ATOM     10  O   UNL     1       4.219  -0.437  -6.334  1.00  0.00    -0.544 OA
ENDBRANCH   3   8
ENDBRANCH   1   3
BRANCH   1  11
ATOM     11  C   UNL     1       0.914  -0.782  -9.149  1.00  0.00     0.006 C 
ATOM     12  C   UNL     1       1.285  -1.288 -10.544  1.00  0.00     0.004 C 
ENDBRANCH   1  11
TORSDOF 4
ENDMDL
MODEL 5
REMARK VINA RESULT:     5.359      6.122      7.222
REMARK INTER + INTRA:           6.392
REMARK INTER:                   6.514
REMARK INTRA:                  -0.122
REMARK UNBOUND:                -0.063
REMARK SMILES CC[C@@H](C)[C@H]([NH3+])C(=O)[O-]
REMARK SMILES IDX 3 1 4 2 5 3 6 4 7 8 8 9 9 10 2 11 1 12
REMARK H PARENT 6 5 6 6 6 7
REMARK Flexibility Score: inf
ROOT
ATOM      1  C   UNL     1      -1.792  -3.966 -12.127  1.00  0.00     0.050 C 
ATOM      2  C   UNL     1      -1.360  -2.969 -11.034  1.00  0.00     0.014 C 
ENDROOT
BRANCH   1   3
ATOM      3  C   UNL     1      -2.384  -5.259 -11.482  1.00  0.00     0.230 C 
BRANCH   3   4
ATOM      4  N   UNL     1      -2.480  -5.152 -10.018  1.00  0.00    -0.350 N 
ATOM      5  H   UNL     1      -2.943  -6.002  -9.625  1.00  0.00     0.345 HD
ATOM      6  H   UNL     1      -3.015  -4.303  -9.725  1.00  0.00     0.345 HD
ATOM      7  H   UNL     1      -1.518  -5.090  -9.612  1.00  0.00     0.345 HD
ENDBRANCH   3   4
BRANCH   3   8
ATOM      8  C   UNL     1      -1.632  -6.505 -11.885  1.00  0.00     0.099 C 
ATOM      9  O   UNL     1      -1.172  -6.631 -13.051  1.00  0.00    -0.544 OA
ATOM     10  O   UNL     1      -1.472  -7.541 -10.972  1.00  0.00    -0.544 OA
ENDBRANCH   3   8
ENDBRANCH   1   3
BRANCH   1  11
ATOM     11  C   UNL     1      -2.753  -3.297 -13.145  1.00  0.00     0.006 C 
ATOM     12  C   UNL     1      -2.405  -3.627 -14.598  1.00  0.00     0.004 C 
ENDBRANCH   1  11
TORSDOF 4
ENDMDL
MODEL 6
REMARK VINA RESULT:     5.367      5.789      7.110
REMARK INTER + INTRA:           6.401
REMARK INTER:                   6.316
REMARK INTRA:                   0.085
REMARK UNBOUND:                -0.063
REMARK SMILES CC[C@@H](C)[C@H]([NH3+])C(=O)[O-]
REMARK SMILES IDX 3 1 4 2 5 3 6 4 7 8 8 9 9 10 2 11 1 12
REMARK H PARENT 6 5 6 6 6 7
REMARK Flexibility Score: inf
ROOT
ATOM      1  C   UNL     1      -1.799  -4.536 -10.857  1.00  0.00     0.050 C 
ATOM      2  C   UNL     1      -2.821  -4.924  -9.771  1.00  0.00     0.014 C 
ENDROOT
BRANCH   1   3
ATOM      3  C   UNL     1      -2.108  -5.289 -12.189  1.00  0.00     0.230 C 
BRANCH   3   4
ATOM      4  N   UNL     1      -1.555  -6.651 -12.195  1.00  0.00    -0.350 N 
ATOM      5  H   UNL     1      -2.316  -7.349 -12.036  1.00  0.00     0.345 HD
ATOM      6  H   UNL     1      -0.818  -6.774 -11.465  1.00  0.00     0.345 HD
ATOM      7  H   UNL     1      -1.127  -6.847 -13.130  1.00  0.00     0.345 HD
ENDBRANCH   3   4
BRANCH   3   8
ATOM      8  C   UNL     1      -1.660  -4.518 -13.409  1.00  0.00     0.099 C 
ATOM      9  O   UNL     1      -0.489  -4.645 -13.857  1.00  0.00    -0.544 OA
ATOM     10  O   UNL     1      -2.534  -3.631 -14.024  1.00  0.00    -0.544 OA
ENDBRANCH   3   8
ENDBRANCH   1   3
BRANCH   1  11
ATOM     11  C   UNL     1      -1.725  -2.995 -11.030  1.00  0.00     0.006 C 
ATOM     12  C   UNL     1      -1.012  -2.300  -9.869  1.00  0.00     0.004 C 
ENDBRANCH   1  11
TORSDOF 4
ENDMDL
MODEL 7
REMARK VINA RESULT:     5.376      4.578      5.742
REMARK INTER + INTRA:           6.413
REMARK INTER:                   6.089
REMARK INTRA:                   0.324
REMARK UNBOUND:                -0.063
REMARK SMILES CC[C@@H](C)[C@H]([NH3+])C(=O)[O-]
REMARK SMILES IDX 3 1 4 2 5 3 6 4 7 8 8 9 9 10 2 11 1 12
REMARK H PARENT 6 5 6 6 6 7
REMARK Flexibility Score: inf
ROOT
ATOM      1  C   UNL     1      -1.475  -4.167 -12.468  1.00  0.00     0.050 C 
ATOM      2  C   UNL     1      -2.748  -3.543 -13.071  1.00  0.00     0.014 C 
ENDROOT
BRANCH   1   3
ATOM      3  C   UNL     1      -1.556  -4.168 -10.908  1.00  0.00     0.230 C 
BRANCH   3   4
ATOM      4  N   UNL     1      -2.879  -4.590 -10.424  1.00  0.00    -0.350 N 
ATOM      5  H   UNL     1      -3.009  -4.296  -9.430  1.00  0.00     0.345 HD
ATOM      6  H   UNL     1      -3.006  -5.625 -10.495  1.00  0.00     0.345 HD
ATOM      7  H   UNL     1      -3.622  -4.128 -10.997  1.00  0.00     0.345 HD
ENDBRANCH   3   4
BRANCH   3   8
ATOM      8  C   UNL     1      -1.159  -2.840 -10.306  1.00  0.00     0.099 C 
ATOM      9  O   UNL     1      -0.190  -2.185 -10.774  1.00  0.00    -0.544 OA
ATOM     10  O   UNL     1      -1.845  -2.350  -9.202  1.00  0.00    -0.544 OA
ENDBRANCH   3   8
ENDBRANCH   1   3
BRANCH   1  11
ATOM     11  C   UNL     1      -1.204  -5.573 -13.065  1.00  0.00     0.006 C 
ATOM     12  C   UNL     1      -1.587  -6.708 -12.113  1.00  0.00     0.004 C 
ENDBRANCH   1  11
TORSDOF 4
ENDMDL
MODEL 8
REMARK VINA RESULT:     5.627      2.461      4.036
REMARK INTER + INTRA:           6.715
REMARK INTER:                   6.776
REMARK INTRA:                  -0.060
REMARK UNBOUND:                -0.063
REMARK SMILES CC[C@@H](C)[C@H]([NH3+])C(=O)[O-]
REMARK SMILES IDX 3 1 4 2 5 3 6 4 7 8 8 9 9 10 2 11 1 12
REMARK H PARENT 6 5 6 6 6 7
REMARK Flexibility Score: inf
ROOT
ATOM      1  C   UNL     1       1.338   1.237  -6.318  1.00  0.00     0.050 C 
ATOM      2  C   UNL     1       2.064   1.571  -5.000  1.00  0.00     0.014 C 
ENDROOT
BRANCH   1   3
ATOM      3  C   UNL     1       1.875  -0.104  -6.911  1.00  0.00     0.230 C 
BRANCH   3   4
ATOM      4  N   UNL     1       3.260  -0.375  -6.499  1.00  0.00    -0.350 N 
ATOM      5  H   UNL     1       3.286  -1.174  -5.825  1.00  0.00     0.345 HD
ATOM      6  H   UNL     1       3.705   0.461  -6.056  1.00  0.00     0.345 HD
ATOM      7  H   UNL     1       3.826  -0.642  -7.337  1.00  0.00     0.345 HD
ENDBRANCH   3   4
BRANCH   3   8
ATOM      8  C   UNL     1       1.735  -0.172  -8.414  1.00  0.00     0.099 C 
ATOM      9  O   UNL     1       0.750  -0.750  -8.944  1.00  0.00    -0.544 OA
ATOM     10  O   UNL     1       2.720   0.379  -9.224  1.00  0.00    -0.544 OA
ENDBRANCH   3   8
ENDBRANCH   1   3
BRANCH   1  11
ATOM     11  C   UNL     1      -0.201   1.246  -6.127  1.00  0.00     0.006 C 
ATOM     12  C   UNL     1      -0.746   2.626  -5.750  1.00  0.00     0.004 C 
ENDBRANCH   1  11
TORSDOF 4
ENDMDL
MODEL 9
REMARK VINA RESULT:     5.639      2.212      3.901
REMARK INTER + INTRA:           6.730
REMARK INTER:                   6.545
REMARK INTRA:                   0.184
REMARK UNBOUND:                -0.063
REMARK SMILES CC[C@@H](C)[C@H]([NH3+])C(=O)[O-]
REMARK SMILES IDX 3 1 4 2 5 3 6 4 7 8 8 9 9 10 2 11 1 12
REMARK H PARENT 6 5 6 6 6 7
REMARK Flexibility Score: inf
ROOT
ATOM      1  C   UNL     1       1.856  -0.297  -7.183  1.00  0.00     0.050 C 
ATOM      2  C   UNL     1       0.814   0.831  -7.053  1.00  0.00     0.014 C 
ENDROOT
BRANCH   1   3
ATOM      3  C   UNL     1       2.420  -0.350  -8.639  1.00  0.00     0.230 C 
BRANCH   3   4
ATOM      4  N   UNL     1       2.886   0.966  -9.099  1.00  0.00    -0.350 N 
ATOM      5  H   UNL     1       3.374   1.467  -8.323  1.00  0.00     0.345 HD
ATOM      6  H   UNL     1       2.097   1.557  -9.448  1.00  0.00     0.345 HD
ATOM      7  H   UNL     1       3.570   0.838  -9.880  1.00  0.00     0.345 HD
ENDBRANCH   3   4
BRANCH   3   8
ATOM      8  C   UNL     1       1.439  -0.950  -9.619  1.00  0.00     0.099 C 
ATOM      9  O   UNL     1       0.258  -1.212  -9.269  1.00  0.00    -0.544 OA
ATOM     10  O   UNL     1       1.851  -1.249 -10.911  1.00  0.00    -0.544 OA
ENDBRANCH   3   8
ENDBRANCH   1   3
BRANCH   1  11
ATOM     11  C   UNL     1       2.963  -0.162  -6.105  1.00  0.00     0.006 C 
ATOM     12  C   UNL     1       2.631   0.885  -5.039  1.00  0.00     0.004 C 
ENDBRANCH   1  11
TORSDOF 4
ENDMDL
