MODEL 1
REMARK VINA RESULT:    -6.844      0.000      0.000
REMARK INTER + INTRA:          -7.478
REMARK INTER:                  -7.244
REMARK INTRA:                  -0.233
REMARK UNBOUND:                -0.233
REMARK SMILES CC1=CC[C@@H]2[C@H]3[C@@H](C(C)C)CC[C@]2(C)[C@@H]13
REMARK SMILES IDX 1 1 2 2 3 3 4 4 5 5 6 6 15 7 13 8 12 9 11 10 7 11 14 12 8 13
REMARK SMILES IDX 9 14 10 15
REMARK H PARENT
REMARK Flexibility Score: inf
ROOT
ATOM      1  C   UNL     1     109.494 110.172 113.427  1.00  0.00     0.039 C 
ATOM      2  C   UNL     1     109.824 111.109 112.305  1.00  0.00    -0.073 C 
ATOM      3  C   UNL     1     109.508 112.428 112.375  1.00  0.00    -0.027 C 
ATOM      4  C   UNL     1     109.898 113.345 111.211  1.00  0.00     0.031 C 
ATOM      5  C   UNL     1     110.600 112.525 110.081  1.00  0.00     0.003 C 
ATOM      6  C   UNL     1     109.755 111.245 109.840  1.00  0.00     0.004 C 
ATOM      7  C   UNL     1     110.524 110.628 111.030  1.00  0.00     0.024 C 
ATOM      8  C   UNL     1     111.685 111.579 110.656  1.00  0.00    -0.022 C 
ATOM      9  C   UNL     1     112.518 110.939 109.501  1.00  0.00     0.008 C 
ATOM     10  C   UNL     1     111.675 110.705 108.218  1.00  0.00     0.005 C 
ATOM     11  C   UNL     1     110.161 110.503 108.527  1.00  0.00    -0.005 C 
ATOM     12  C   UNL     1     112.610 112.094 111.784  1.00  0.00     0.012 C 
ENDROOT
BRANCH  11  13
ATOM     13  C   UNL     1     109.254 110.842 107.304  1.00  0.00    -0.014 C 
ATOM     14  C   UNL     1     109.264 109.765 106.206  1.00  0.00     0.007 C 
ATOM     15  C   UNL     1     109.619 112.207 106.699  1.00  0.00     0.007 C 
ENDBRANCH  11  13
TORSDOF 1
ENDMDL
MODEL 2
REMARK VINA RESULT:    -6.829      3.222      5.663
REMARK INTER + INTRA:          -7.461
REMARK INTER:                  -7.221
REMARK INTRA:                  -0.240
REMARK UNBOUND:                -0.233
REMARK SMILES CC1=CC[C@@H]2[C@H]3[C@@H](C(C)C)CC[C@]2(C)[C@@H]13
REMARK SMILES IDX 1 1 2 2 3 3 4 4 5 5 6 6 15 7 13 8 12 9 11 10 7 11 14 12 8 13
REMARK SMILES IDX 9 14 10 15
REMARK H PARENT
REMARK Flexibility Score: inf
ROOT
ATOM      1  C   UNL     1     112.862 112.107 118.063  1.00  0.00     0.039 C 
ATOM      2  C   UNL     1     112.425 111.218 116.938  1.00  0.00    -0.073 C 
ATOM      3  C   UNL     1     112.602 109.873 116.995  1.00  0.00    -0.027 C 
ATOM      4  C   UNL     1     112.108 109.012 115.829  1.00  0.00     0.031 C 
ATOM      5  C   UNL     1     111.487 109.910 114.711  1.00  0.00     0.003 C 
ATOM      6  C   UNL     1     112.459 111.097 114.472  1.00  0.00     0.004 C 
ATOM      7  C   UNL     1     111.769 111.781 115.673  1.00  0.00     0.024 C 
ATOM      8  C   UNL     1     110.511 110.960 115.303  1.00  0.00    -0.022 C 
ATOM      9  C   UNL     1     109.740 111.693 114.161  1.00  0.00     0.008 C 
ATOM     10  C   UNL     1     110.592 111.848 112.872  1.00  0.00     0.005 C 
ATOM     11  C   UNL     1     112.121 111.888 113.168  1.00  0.00    -0.005 C 
ATOM     12  C   UNL     1     109.548 110.535 116.436  1.00  0.00     0.012 C 
ENDROOT
BRANCH  11  13
ATOM     13  C   UNL     1     112.977 111.466 111.934  1.00  0.00    -0.014 C 
ATOM     14  C   UNL     1     113.105 112.561 110.862  1.00  0.00     0.007 C 
ATOM     15  C   UNL     1     112.441 110.173 111.297  1.00  0.00     0.007 C 
ENDBRANCH  11  13
TORSDOF 1
ENDMDL
MODEL 3
REMARK VINA RESULT:    -6.826      1.641      3.269
REMARK INTER + INTRA:          -7.459
REMARK INTER:                  -7.200
REMARK INTRA:                  -0.258
REMARK UNBOUND:                -0.233
REMARK SMILES CC1=CC[C@@H]2[C@H]3[C@@H](C(C)C)CC[C@]2(C)[C@@H]13
REMARK SMILES IDX 1 1 2 2 3 3 4 4 5 5 6 6 15 7 13 8 12 9 11 10 7 11 14 12 8 13
REMARK SMILES IDX 9 14 10 15
REMARK H PARENT
REMARK Flexibility Score: inf
ROOT
ATOM      1  C   UNL     1     112.855 112.116 113.079  1.00  0.00     0.039 C 
ATOM      2  C   UNL     1     112.431 111.212 111.961  1.00  0.00    -0.073 C 
ATOM      3  C   UNL     1     112.640 109.872 112.022  1.00  0.00    -0.027 C 
ATOM      4  C   UNL     1     112.159 108.995 110.862  1.00  0.00     0.031 C 
ATOM      5  C   UNL     1     111.507 109.873 109.746  1.00  0.00     0.003 C 
ATOM      6  C   UNL     1     112.449 111.082 109.495  1.00  0.00     0.004 C 
ATOM      7  C   UNL     1     111.752 111.754 110.699  1.00  0.00     0.024 C 
ATOM      8  C   UNL     1     110.512 110.901 110.342  1.00  0.00    -0.022 C 
ATOM      9  C   UNL     1     109.714 111.611 109.202  1.00  0.00     0.008 C 
ATOM     10  C   UNL     1     110.552 111.781 107.907  1.00  0.00     0.005 C 
ATOM     11  C   UNL     1     112.082 111.859 108.191  1.00  0.00    -0.005 C 
ATOM     12  C   UNL     1     109.567 110.458 111.484  1.00  0.00     0.012 C 
ENDROOT
BRANCH  11  13
ATOM     13  C   UNL     1     112.939 111.453 106.952  1.00  0.00    -0.014 C 
ATOM     14  C   UNL     1     113.135 112.588 105.933  1.00  0.00     0.007 C 
ATOM     15  C   UNL     1     112.355 110.217 106.249  1.00  0.00     0.007 C 
ENDBRANCH  11  13
TORSDOF 1
ENDMDL
MODEL 4
REMARK VINA RESULT:    -6.783      2.947      4.644
REMARK INTER + INTRA:          -7.413
REMARK INTER:                  -7.198
REMARK INTRA:                  -0.215
REMARK UNBOUND:                -0.233
REMARK SMILES CC1=CC[C@@H]2[C@H]3[C@@H](C(C)C)CC[C@]2(C)[C@@H]13
REMARK SMILES IDX 1 1 2 2 3 3 4 4 5 5 6 6 15 7 13 8 12 9 11 10 7 11 14 12 8 13
REMARK SMILES IDX 9 14 10 15
REMARK H PARENT
REMARK Flexibility Score: inf
ROOT
ATOM      1  C   UNL     1     109.497 110.249 118.107  1.00  0.00     0.039 C 
ATOM      2  C   UNL     1     109.918 111.100 116.946  1.00  0.00    -0.073 C 
ATOM      3  C   UNL     1     109.737 112.446 116.959  1.00  0.00    -0.027 C 
ATOM      4  C   UNL     1     110.215 113.268 115.758  1.00  0.00     0.031 C 
ATOM      5  C   UNL     1     110.829 112.334 114.667  1.00  0.00     0.003 C 
ATOM      6  C   UNL     1     109.859 111.136 114.478  1.00  0.00     0.004 C 
ATOM      7  C   UNL     1     110.564 110.497 115.696  1.00  0.00     0.024 C 
ATOM      8  C   UNL     1     111.814 111.309 115.284  1.00  0.00    -0.022 C 
ATOM      9  C   UNL     1     112.577 110.539 114.160  1.00  0.00     0.008 C 
ATOM     10  C   UNL     1     111.713 110.337 112.886  1.00  0.00     0.005 C 
ATOM     11  C   UNL     1     110.187 110.302 113.199  1.00  0.00    -0.005 C 
ATOM     12  C   UNL     1     112.788 111.776 116.392  1.00  0.00     0.012 C 
ENDROOT
BRANCH  11  13
ATOM     13  C   UNL     1     109.317 110.678 111.960  1.00  0.00    -0.014 C 
ATOM     14  C   UNL     1     109.297 109.598 110.864  1.00  0.00     0.007 C 
ATOM     15  C   UNL     1     109.752 112.023 111.358  1.00  0.00     0.007 C 
ENDBRANCH  11  13
TORSDOF 1
ENDMDL
MODEL 5
REMARK VINA RESULT:    -6.720      1.343      4.599
REMARK INTER + INTRA:          -7.347
REMARK INTER:                  -6.931
REMARK INTRA:                  -0.415
REMARK UNBOUND:                -0.233
REMARK SMILES CC1=CC[C@@H]2[C@H]3[C@@H](C(C)C)CC[C@]2(C)[C@@H]13
REMARK SMILES IDX 1 1 2 2 3 3 4 4 5 5 6 6 15 7 13 8 12 9 11 10 7 11 14 12 8 13
REMARK SMILES IDX 9 14 10 15
REMARK H PARENT
REMARK Flexibility Score: inf
ROOT
ATOM      1  C   UNL     1     109.157 112.894 107.861  1.00  0.00     0.039 C 
ATOM      2  C   UNL     1     109.644 111.866 108.837  1.00  0.00    -0.073 C 
ATOM      3  C   UNL     1     109.165 110.596 108.818  1.00  0.00    -0.027 C 
ATOM      4  C   UNL     1     109.722 109.580 109.820  1.00  0.00     0.031 C 
ATOM      5  C   UNL     1     110.779 110.255 110.752  1.00  0.00     0.003 C 
ATOM      6  C   UNL     1     110.182 111.605 111.233  1.00  0.00     0.004 C 
ATOM      7  C   UNL     1     110.695 112.197 109.901  1.00  0.00     0.024 C 
ATOM      8  C   UNL     1     111.790 111.106 109.941  1.00  0.00    -0.022 C 
ATOM      9  C   UNL     1     112.957 111.586 110.860  1.00  0.00     0.008 C 
ATOM     10  C   UNL     1     112.499 111.841 112.321  1.00  0.00     0.005 C 
ATOM     11  C   UNL     1     110.992 112.225 112.416  1.00  0.00    -0.005 C 
ATOM     12  C   UNL     1     112.331 110.555 108.601  1.00  0.00     0.012 C 
ENDROOT
BRANCH  11  13
ATOM     13  C   UNL     1     110.389 111.921 113.822  1.00  0.00    -0.014 C 
ATOM     14  C   UNL     1     111.045 110.727 114.536  1.00  0.00     0.007 C 
ATOM     15  C   UNL     1     108.868 111.711 113.745  1.00  0.00     0.007 C 
ENDBRANCH  11  13
TORSDOF 1
ENDMDL
MODEL 6
REMARK VINA RESULT:    -6.678      1.582      2.453
REMARK INTER + INTRA:          -7.301
REMARK INTER:                  -6.899
REMARK INTRA:                  -0.402
REMARK UNBOUND:                -0.233
REMARK SMILES CC1=CC[C@@H]2[C@H]3[C@@H](C(C)C)CC[C@]2(C)[C@@H]13
REMARK SMILES IDX 1 1 2 2 3 3 4 4 5 5 6 6 15 7 13 8 12 9 11 10 7 11 14 12 8 13
REMARK SMILES IDX 9 14 10 15
REMARK H PARENT
REMARK Flexibility Score: inf
ROOT
ATOM      1  C   UNL     1     109.129 109.505 115.073  1.00  0.00     0.039 C 
ATOM      2  C   UNL     1     109.579 110.545 114.092  1.00  0.00    -0.073 C 
ATOM      3  C   UNL     1     108.958 111.750 114.011  1.00  0.00    -0.027 C 
ATOM      4  C   UNL     1     109.481 112.785 113.011  1.00  0.00     0.031 C 
ATOM      5  C   UNL     1     110.685 112.204 112.202  1.00  0.00     0.003 C 
ATOM      6  C   UNL     1     110.290 110.776 111.739  1.00  0.00     0.004 C 
ATOM      7  C   UNL     1     110.749 110.299 113.135  1.00  0.00     0.024 C 
ATOM      8  C   UNL     1     111.712 111.510 113.132  1.00  0.00    -0.022 C 
ATOM      9  C   UNL     1     113.002 111.135 112.337  1.00  0.00     0.008 C 
ATOM     10  C   UNL     1     112.705 110.772 110.857  1.00  0.00     0.005 C 
ATOM     11  C   UNL     1     111.265 110.211 110.657  1.00  0.00    -0.005 C 
ATOM     12  C   UNL     1     112.069 112.171 114.484  1.00  0.00     0.012 C 
ENDROOT
BRANCH  11  13
ATOM     13  C   UNL     1     110.755 110.388 109.194  1.00  0.00    -0.014 C 
ATOM     14  C   UNL     1     111.558 111.413 108.375  1.00  0.00     0.007 C 
ATOM     15  C   UNL     1     109.262 110.749 109.161  1.00  0.00     0.007 C 
ENDBRANCH  11  13
TORSDOF 1
ENDMDL
MODEL 7
REMARK VINA RESULT:    -6.654      1.850      5.257
REMARK INTER + INTRA:          -7.277
REMARK INTER:                  -7.095
REMARK INTRA:                  -0.182
REMARK UNBOUND:                -0.233
REMARK SMILES CC1=CC[C@@H]2[C@H]3[C@@H](C(C)C)CC[C@]2(C)[C@@H]13
REMARK SMILES IDX 1 1 2 2 3 3 4 4 5 5 6 6 15 7 13 8 12 9 11 10 7 11 14 12 8 13
REMARK SMILES IDX 9 14 10 15
REMARK H PARENT
REMARK Flexibility Score: inf
ROOT
ATOM      1  C   UNL     1     112.879 109.497 108.112  1.00  0.00     0.039 C 
ATOM      2  C   UNL     1     112.658 110.505 109.199  1.00  0.00    -0.073 C 
ATOM      3  C   UNL     1     113.227 111.736 109.141  1.00  0.00    -0.027 C 
ATOM      4  C   UNL     1     112.942 112.736 110.266  1.00  0.00     0.031 C 
ATOM      5  C   UNL     1     112.019 112.092 111.349  1.00  0.00     0.003 C 
ATOM      6  C   UNL     1     112.581 110.679 111.661  1.00  0.00     0.004 C 
ATOM      7  C   UNL     1     111.792 110.195 110.423  1.00  0.00     0.024 C 
ATOM      8  C   UNL     1     110.814 111.360 110.705  1.00  0.00    -0.022 C 
ATOM      9  C   UNL     1     109.794 110.918 111.802  1.00  0.00     0.008 C 
ATOM     10  C   UNL     1     110.484 110.554 113.144  1.00  0.00     0.005 C 
ATOM     11  C   UNL     1     111.949 110.058 112.947  1.00  0.00    -0.005 C 
ATOM     12  C   UNL     1     110.087 112.018 109.508  1.00  0.00     0.012 C 
ENDROOT
BRANCH  11  13
ATOM     13  C   UNL     1     112.816 110.243 114.230  1.00  0.00    -0.014 C 
ATOM     14  C   UNL     1     112.344 109.401 115.427  1.00  0.00     0.007 C 
ATOM     15  C   UNL     1     112.906 111.723 114.636  1.00  0.00     0.007 C 
ENDBRANCH  11  13
TORSDOF 1
ENDMDL
MODEL 8
REMARK VINA RESULT:    -6.639      4.041      7.378
REMARK INTER + INTRA:          -7.260
REMARK INTER:                  -6.844
REMARK INTRA:                  -0.416
REMARK UNBOUND:                -0.233
REMARK SMILES CC1=CC[C@@H]2[C@H]3[C@@H](C(C)C)CC[C@]2(C)[C@@H]13
REMARK SMILES IDX 1 1 2 2 3 3 4 4 5 5 6 6 15 7 13 8 12 9 11 10 7 11 14 12 8 13
REMARK SMILES IDX 9 14 10 15
REMARK H PARENT
REMARK Flexibility Score: inf
ROOT
ATOM      1  C   UNL     1     109.182 112.920 112.742  1.00  0.00     0.039 C 
ATOM      2  C   UNL     1     109.631 111.880 113.724  1.00  0.00    -0.073 C 
ATOM      3  C   UNL     1     109.110 110.627 113.707  1.00  0.00    -0.027 C 
ATOM      4  C   UNL     1     109.629 109.597 114.715  1.00  0.00     0.031 C 
ATOM      5  C   UNL     1     110.703 110.241 115.650  1.00  0.00     0.003 C 
ATOM      6  C   UNL     1     110.149 111.611 116.123  1.00  0.00     0.004 C 
ATOM      7  C   UNL     1     110.687 112.181 114.792  1.00  0.00     0.024 C 
ATOM      8  C   UNL     1     111.745 111.055 114.841  1.00  0.00    -0.022 C 
ATOM      9  C   UNL     1     112.924 111.500 115.764  1.00  0.00     0.008 C 
ATOM     10  C   UNL     1     112.467 111.776 117.222  1.00  0.00     0.005 C 
ATOM     11  C   UNL     1     110.972 112.209 117.308  1.00  0.00    -0.005 C 
ATOM     12  C   UNL     1     112.275 110.481 113.506  1.00  0.00     0.012 C 
ENDROOT
BRANCH  11  13
ATOM     13  C   UNL     1     110.353 111.931 118.712  1.00  0.00    -0.014 C 
ATOM     14  C   UNL     1     110.989 110.738 119.447  1.00  0.00     0.007 C 
ATOM     15  C   UNL     1     108.830 111.737 118.623  1.00  0.00     0.007 C 
ENDBRANCH  11  13
TORSDOF 1
ENDMDL
MODEL 9
REMARK VINA RESULT:    -6.549      4.636      8.106
REMARK INTER + INTRA:          -7.166
REMARK INTER:                  -6.983
REMARK INTRA:                  -0.182
REMARK UNBOUND:                -0.233
REMARK SMILES CC1=CC[C@@H]2[C@H]3[C@@H](C(C)C)CC[C@]2(C)[C@@H]13
REMARK SMILES IDX 1 1 2 2 3 3 4 4 5 5 6 6 15 7 13 8 12 9 11 10 7 11 14 12 8 13
REMARK SMILES IDX 9 14 10 15
REMARK H PARENT
REMARK Flexibility Score: inf
ROOT
ATOM      1  C   UNL     1     112.875 109.501 112.991  1.00  0.00     0.039 C 
ATOM      2  C   UNL     1     112.623 110.523 114.058  1.00  0.00    -0.073 C 
ATOM      3  C   UNL     1     113.194 111.754 114.001  1.00  0.00    -0.027 C 
ATOM      4  C   UNL     1     112.877 112.769 115.103  1.00  0.00     0.031 C 
ATOM      5  C   UNL     1     111.922 112.139 116.167  1.00  0.00     0.003 C 
ATOM      6  C   UNL     1     112.474 110.730 116.514  1.00  0.00     0.004 C 
ATOM      7  C   UNL     1     111.721 110.230 115.261  1.00  0.00     0.024 C 
ATOM      8  C   UNL     1     110.736 111.398 115.497  1.00  0.00    -0.022 C 
ATOM      9  C   UNL     1     109.684 110.971 116.570  1.00  0.00     0.008 C 
ATOM     10  C   UNL     1     110.335 110.626 117.937  1.00  0.00     0.005 C 
ATOM     11  C   UNL     1     111.804 110.127 117.790  1.00  0.00    -0.005 C 
ATOM     12  C   UNL     1     110.045 112.041 114.272  1.00  0.00     0.012 C 
ENDROOT
BRANCH  11  13
ATOM     13  C   UNL     1     112.634 110.329 119.095  1.00  0.00    -0.014 C 
ATOM     14  C   UNL     1     112.129 109.500 120.288  1.00  0.00     0.007 C 
ATOM     15  C   UNL     1     112.709 111.814 119.486  1.00  0.00     0.007 C 
ENDBRANCH  11  13
TORSDOF 1
ENDMDL
