MODEL 1
REMARK VINA RESULT:    -4.507      0.000      0.000
REMARK INTER + INTRA:         -12.937
REMARK INTER:                 -10.303
REMARK INTRA:                  -2.634
REMARK UNBOUND:                -2.634
REMARK SMILES CCCCCCCCCCCCCCCCCCCCCCCC(=O)[O-]
REMARK SMILES IDX 13 1 14 2 15 3 16 4 17 5 18 6 19 7 20 8 21 9 22 10 23 11
REMARK SMILES IDX 24 12 25 13 26 14 12 15 11 16 10 17 9 18 8 19 7 20 6 21 5 22
REMARK SMILES IDX 4 23 3 24 2 25 1 26
REMARK H PARENT
REMARK Flexibility Score: inf
ROOT
ATOM      1  C   UNL     1      96.888   2.950 -26.297  1.00  0.00     0.000 C 
ENDROOT
BRANCH   1   2
ATOM      2  C   UNL     1      95.420   2.985 -25.834  1.00  0.00     0.000 C 
BRANCH   2   3
ATOM      3  C   UNL     1      94.475   3.582 -26.888  1.00  0.00     0.000 C 
BRANCH   3   4
ATOM      4  C   UNL     1      93.232   4.196 -26.229  1.00  0.00     0.000 C 
BRANCH   4   5
ATOM      5  C   UNL     1      93.349   5.719 -26.057  1.00  0.00     0.000 C 
BRANCH   5   6
ATOM      6  C   UNL     1      92.205   6.482 -26.748  1.00  0.00     0.000 C 
BRANCH   6   7
ATOM      7  C   UNL     1      91.862   5.892 -28.126  1.00  0.00     0.000 C 
BRANCH   7   8
ATOM      8  C   UNL     1      90.473   6.335 -28.621  1.00  0.00     0.000 C 
BRANCH   8   9
ATOM      9  C   UNL     1      89.479   5.168 -28.735  1.00  0.00     0.000 C 
BRANCH   9  10
ATOM     10  C   UNL     1      88.609   4.924 -27.486  1.00  0.00     0.006 C 
BRANCH  10  11
ATOM     11  C   UNL     1      89.170   3.856 -26.527  1.00  0.00     0.053 C 
BRANCH  11  12
ATOM     12  C   UNL     1      88.294   3.647 -25.327  1.00  0.00     0.041 C 
ATOM     13  O   UNL     1      87.687   2.555 -25.168  1.00  0.00    -0.550 OA
ATOM     14  O   UNL     1      88.113   4.672 -24.408  1.00  0.00    -0.550 OA
ENDBRANCH  11  12
ENDBRANCH  10  11
ENDBRANCH   9  10
ENDBRANCH   8   9
ENDBRANCH   7   8
ENDBRANCH   6   7
ENDBRANCH   5   6
ENDBRANCH   4   5
ENDBRANCH   3   4
ENDBRANCH   2   3
ENDBRANCH   1   2
BRANCH   1  15
ATOM     15  C   UNL     1      97.410   4.260 -26.923  1.00  0.00     0.000 C 
BRANCH  15  16
ATOM     16  C   UNL     1      98.928   4.484 -26.800  1.00  0.00     0.000 C 
BRANCH  16  17
ATOM     17  C   UNL     1      99.547   5.068 -28.081  1.00  0.00     0.000 C 
BRANCH  17  18
ATOM     18  C   UNL     1      98.885   4.532 -29.362  1.00  0.00    -0.000 C 
BRANCH  18  19
ATOM     19  C   UNL     1      99.391   3.155 -29.835  1.00  0.00    -0.000 C 
BRANCH  19  20
ATOM     20  C   UNL     1      98.360   2.018 -29.671  1.00  0.00    -0.000 C 
BRANCH  20  21
ATOM     21  C   UNL     1      98.907   0.846 -28.836  1.00  0.00    -0.000 C 
BRANCH  21  22
ATOM     22  C   UNL     1     100.124   1.238 -27.982  1.00  0.00    -0.000 C 
BRANCH  22  23
ATOM     23  C   UNL     1     100.001   0.811 -26.504  1.00  0.00    -0.000 C 
BRANCH  23  24
ATOM     24  C   UNL     1      98.899  -0.239 -26.294  1.00  0.00    -0.000 C 
BRANCH  24  25
ATOM     25  C   UNL     1      99.169  -1.082 -25.044  1.00  0.00    -0.003 C 
ATOM     26  C   UNL     1      97.885  -1.725 -24.526  1.00  0.00     0.004 C 
ENDBRANCH  24  25
ENDBRANCH  23  24
ENDBRANCH  22  23
ENDBRANCH  21  22
ENDBRANCH  20  21
ENDBRANCH  19  20
ENDBRANCH  18  19
ENDBRANCH  17  18
ENDBRANCH  16  17
ENDBRANCH  15  16
ENDBRANCH   1  15
TORSDOF 22
ENDMDL
MODEL 2
REMARK VINA RESULT:    -4.474      1.590      3.059
REMARK INTER + INTRA:         -12.861
REMARK INTER:                 -10.052
REMARK INTRA:                  -2.810
REMARK UNBOUND:                -2.634
REMARK SMILES CCCCCCCCCCCCCCCCCCCCCCCC(=O)[O-]
REMARK SMILES IDX 13 1 14 2 15 3 16 4 17 5 18 6 19 7 20 8 21 9 22 10 23 11
REMARK SMILES IDX 24 12 25 13 26 14 12 15 11 16 10 17 9 18 8 19 7 20 6 21 5 22
REMARK SMILES IDX 4 23 3 24 2 25 1 26
REMARK H PARENT
REMARK Flexibility Score: inf
ROOT
ATOM      1  C   UNL     1      98.969   4.474 -26.831  1.00  0.00     0.000 C 
ENDROOT
BRANCH   1   2
ATOM      2  C   UNL     1      98.111   3.760 -25.771  1.00  0.00     0.000 C 
BRANCH   2   3
ATOM      3  C   UNL     1      96.794   3.211 -26.339  1.00  0.00     0.000 C 
BRANCH   3   4
ATOM      4  C   UNL     1      95.639   3.417 -25.348  1.00  0.00     0.000 C 
BRANCH   4   5
ATOM      5  C   UNL     1      94.397   4.034 -26.013  1.00  0.00     0.000 C 
BRANCH   5   6
ATOM      6  C   UNL     1      93.213   4.172 -25.040  1.00  0.00     0.000 C 
BRANCH   6   7
ATOM      7  C   UNL     1      92.623   5.592 -25.040  1.00  0.00     0.000 C 
BRANCH   7   8
ATOM      8  C   UNL     1      92.892   6.336 -26.360  1.00  0.00     0.000 C 
BRANCH   8   9
ATOM      9  C   UNL     1      91.680   6.331 -27.306  1.00  0.00     0.000 C 
BRANCH   9  10
ATOM     10  C   UNL     1      91.830   5.445 -28.558  1.00  0.00     0.006 C 
BRANCH  10  11
ATOM     11  C   UNL     1      91.536   3.953 -28.311  1.00  0.00     0.053 C 
BRANCH  11  12
ATOM     12  C   UNL     1      90.145   3.719 -27.803  1.00  0.00     0.041 C 
ATOM     13  O   UNL     1      89.167   3.737 -28.597  1.00  0.00    -0.550 OA
ATOM     14  O   UNL     1      89.921   3.526 -26.445  1.00  0.00    -0.550 OA
ENDBRANCH  11  12
ENDBRANCH  10  11
ENDBRANCH   9  10
ENDBRANCH   8   9
ENDBRANCH   7   8
ENDBRANCH   6   7
ENDBRANCH   5   6
ENDBRANCH   4   5
ENDBRANCH   3   4
ENDBRANCH   2   3
ENDBRANCH   1   2
BRANCH   1  15
ATOM     15  C   UNL     1      98.227   4.858 -28.126  1.00  0.00     0.000 C 
BRANCH  15  16
ATOM     16  C   UNL     1      98.755   4.187 -29.407  1.00  0.00     0.000 C 
BRANCH  16  17
ATOM     17  C   UNL     1      98.100   2.823 -29.676  1.00  0.00     0.000 C 
BRANCH  17  18
ATOM     18  C   UNL     1      99.125   1.680 -29.791  1.00  0.00    -0.000 C 
BRANCH  18  19
ATOM     19  C   UNL     1      98.866   0.473 -28.868  1.00  0.00    -0.000 C 
BRANCH  19  20
ATOM     20  C   UNL     1      99.049   0.782 -27.366  1.00  0.00    -0.000 C 
BRANCH  20  21
ATOM     21  C   UNL     1      99.043  -0.490 -26.501  1.00  0.00    -0.000 C 
BRANCH  21  22
ATOM     22  C   UNL     1      98.410  -0.269 -25.118  1.00  0.00    -0.000 C 
BRANCH  22  23
ATOM     23  C   UNL     1      97.903  -1.569 -24.458  1.00  0.00    -0.000 C 
BRANCH  23  24
ATOM     24  C   UNL     1      96.437  -1.456 -24.009  1.00  0.00    -0.000 C 
BRANCH  24  25
ATOM     25  C   UNL     1      96.018   0.009 -23.853  1.00  0.00    -0.003 C 
ATOM     26  C   UNL     1      94.507   0.168 -24.002  1.00  0.00     0.004 C 
ENDBRANCH  24  25
ENDBRANCH  23  24
ENDBRANCH  22  23
ENDBRANCH  21  22
ENDBRANCH  20  21
ENDBRANCH  19  20
ENDBRANCH  18  19
ENDBRANCH  17  18
ENDBRANCH  16  17
ENDBRANCH  15  16
ENDBRANCH   1  15
TORSDOF 22
ENDMDL
MODEL 3
REMARK VINA RESULT:    -4.392      2.270      6.102
REMARK INTER + INTRA:         -12.675
REMARK INTER:                  -8.975
REMARK INTRA:                  -3.700
REMARK UNBOUND:                -2.634
REMARK SMILES CCCCCCCCCCCCCCCCCCCCCCCC(=O)[O-]
REMARK SMILES IDX 13 1 14 2 15 3 16 4 17 5 18 6 19 7 20 8 21 9 22 10 23 11
REMARK SMILES IDX 24 12 25 13 26 14 12 15 11 16 10 17 9 18 8 19 7 20 6 21 5 22
REMARK SMILES IDX 4 23 3 24 2 25 1 26
REMARK H PARENT
REMARK Flexibility Score: inf
ROOT
ATOM      1  C   UNL     1      99.026   0.372 -27.522  1.00  0.00     0.000 C 
ENDROOT
BRANCH   1   2
ATOM      2  C   UNL     1      99.712   0.289 -26.146  1.00  0.00     0.000 C 
BRANCH   2   3
ATOM      3  C   UNL     1      98.917  -0.547 -25.131  1.00  0.00     0.000 C 
BRANCH   3   4
ATOM      4  C   UNL     1      98.768   0.201 -23.798  1.00  0.00     0.000 C 
BRANCH   4   5
ATOM      5  C   UNL     1      97.396  -0.032 -23.144  1.00  0.00     0.000 C 
BRANCH   5   6
ATOM      6  C   UNL     1      96.281  -0.274 -24.178  1.00  0.00     0.000 C 
BRANCH   6   7
ATOM      7  C   UNL     1      95.294  -1.362 -23.725  1.00  0.00     0.000 C 
BRANCH   7   8
ATOM      8  C   UNL     1      94.456  -0.921 -22.511  1.00  0.00     0.000 C 
BRANCH   8   9
ATOM      9  C   UNL     1      93.057  -0.418 -22.902  1.00  0.00     0.000 C 
BRANCH   9  10
ATOM     10  C   UNL     1      92.984   1.068 -23.307  1.00  0.00     0.006 C 
BRANCH  10  11
ATOM     11  C   UNL     1      92.662   1.299 -24.795  1.00  0.00     0.053 C 
BRANCH  11  12
ATOM     12  C   UNL     1      91.297   1.887 -25.002  1.00  0.00     0.041 C 
ATOM     13  O   UNL     1      90.416   1.772 -24.110  1.00  0.00    -0.550 OA
ATOM     14  O   UNL     1      90.985   2.523 -26.196  1.00  0.00    -0.550 OA
ENDBRANCH  11  12
ENDBRANCH  10  11
ENDBRANCH   9  10
ENDBRANCH   8   9
ENDBRANCH   7   8
ENDBRANCH   6   7
ENDBRANCH   5   6
ENDBRANCH   4   5
ENDBRANCH   3   4
ENDBRANCH   2   3
ENDBRANCH   1   2
BRANCH   1  15
ATOM     15  C   UNL     1      99.663   1.367 -28.513  1.00  0.00     0.000 C 
BRANCH  15  16
ATOM     16  C   UNL     1      98.667   2.256 -29.279  1.00  0.00     0.000 C 
BRANCH  16  17
ATOM     17  C   UNL     1      99.078   3.738 -29.285  1.00  0.00     0.000 C 
BRANCH  17  18
ATOM     18  C   UNL     1      99.663   4.201 -27.939  1.00  0.00    -0.000 C 
BRANCH  18  19
ATOM     19  C   UNL     1      98.621   4.600 -26.875  1.00  0.00    -0.000 C 
BRANCH  19  20
ATOM     20  C   UNL     1      98.545   3.629 -25.677  1.00  0.00    -0.000 C 
BRANCH  20  21
ATOM     21  C   UNL     1      97.095   3.276 -25.301  1.00  0.00    -0.000 C 
BRANCH  21  22
ATOM     22  C   UNL     1      96.320   2.623 -26.456  1.00  0.00    -0.000 C 
BRANCH  22  23
ATOM     23  C   UNL     1      95.049   3.399 -26.862  1.00  0.00    -0.000 C 
BRANCH  23  24
ATOM     24  C   UNL     1      94.390   4.098 -25.663  1.00  0.00    -0.000 C 
BRANCH  24  25
ATOM     25  C   UNL     1      93.690   5.392 -26.093  1.00  0.00    -0.003 C 
ATOM     26  C   UNL     1      92.381   5.588 -25.332  1.00  0.00     0.004 C 
ENDBRANCH  24  25
ENDBRANCH  23  24
ENDBRANCH  22  23
ENDBRANCH  21  22
ENDBRANCH  20  21
ENDBRANCH  19  20
ENDBRANCH  18  19
ENDBRANCH  17  18
ENDBRANCH  16  17
ENDBRANCH  15  16
ENDBRANCH   1  15
TORSDOF 22
ENDMDL
MODEL 4
REMARK VINA RESULT:    -4.342      2.925      3.917
REMARK INTER + INTRA:         -12.560
REMARK INTER:                  -9.548
REMARK INTRA:                  -3.011
REMARK UNBOUND:                -2.634
REMARK SMILES CCCCCCCCCCCCCCCCCCCCCCCC(=O)[O-]
REMARK SMILES IDX 13 1 14 2 15 3 16 4 17 5 18 6 19 7 20 8 21 9 22 10 23 11
REMARK SMILES IDX 24 12 25 13 26 14 12 15 11 16 10 17 9 18 8 19 7 20 6 21 5 22
REMARK SMILES IDX 4 23 3 24 2 25 1 26
REMARK H PARENT
REMARK Flexibility Score: inf
ROOT
ATOM      1  C   UNL     1      97.866   3.810 -26.079  1.00  0.00     0.000 C 
ENDROOT
BRANCH   1   2
ATOM      2  C   UNL     1      96.677   3.234 -26.870  1.00  0.00     0.000 C 
BRANCH   2   3
ATOM      3  C   UNL     1      95.356   3.290 -26.088  1.00  0.00     0.000 C 
BRANCH   3   4
ATOM      4  C   UNL     1      94.152   3.130 -27.027  1.00  0.00     0.000 C 
BRANCH   4   5
ATOM      5  C   UNL     1      93.146   4.284 -26.895  1.00  0.00     0.000 C 
BRANCH   5   6
ATOM      6  C   UNL     1      93.387   5.138 -25.637  1.00  0.00     0.000 C 
BRANCH   6   7
ATOM      7  C   UNL     1      92.358   4.847 -24.532  1.00  0.00     0.000 C 
BRANCH   7   8
ATOM      8  C   UNL     1      93.025   4.425 -23.211  1.00  0.00     0.000 C 
BRANCH   8   9
ATOM      9  C   UNL     1      92.641   5.332 -22.030  1.00  0.00     0.000 C 
BRANCH   9  10
ATOM     10  C   UNL     1      92.390   4.600 -20.697  1.00  0.00     0.006 C 
BRANCH  10  11
ATOM     11  C   UNL     1      90.903   4.487 -20.312  1.00  0.00     0.053 C 
BRANCH  11  12
ATOM     12  C   UNL     1      90.344   5.780 -19.799  1.00  0.00     0.041 C 
ATOM     13  O   UNL     1      90.828   6.316 -18.767  1.00  0.00    -0.550 OA
ATOM     14  O   UNL     1      89.258   6.373 -20.432  1.00  0.00    -0.550 OA
ENDBRANCH  11  12
ENDBRANCH  10  11
ENDBRANCH   9  10
ENDBRANCH   8   9
ENDBRANCH   7   8
ENDBRANCH   6   7
ENDBRANCH   5   6
ENDBRANCH   4   5
ENDBRANCH   3   4
ENDBRANCH   2   3
ENDBRANCH   1   2
BRANCH   1  15
ATOM     15  C   UNL     1      98.978   4.447 -26.937  1.00  0.00     0.000 C 
BRANCH  15  16
ATOM     16  C   UNL     1      98.492   5.166 -28.208  1.00  0.00     0.000 C 
BRANCH  16  17
ATOM     17  C   UNL     1      98.846   4.402 -29.495  1.00  0.00     0.000 C 
BRANCH  17  18
ATOM     18  C   UNL     1      99.601   3.089 -29.221  1.00  0.00    -0.000 C 
BRANCH  18  19
ATOM     19  C   UNL     1      98.885   1.810 -29.696  1.00  0.00    -0.000 C 
BRANCH  19  20
ATOM     20  C   UNL     1      98.877   0.672 -28.654  1.00  0.00    -0.000 C 
BRANCH  20  21
ATOM     21  C   UNL     1      99.848   0.937 -27.489  1.00  0.00    -0.000 C 
BRANCH  21  22
ATOM     22  C   UNL     1      99.460   0.186 -26.205  1.00  0.00    -0.000 C 
BRANCH  22  23
ATOM     23  C   UNL     1      99.801   0.958 -24.913  1.00  0.00    -0.000 C 
BRANCH  23  24
ATOM     24  C   UNL     1      98.662   0.894 -23.884  1.00  0.00    -0.000 C 
BRANCH  24  25
ATOM     25  C   UNL     1      97.397   0.283 -24.496  1.00  0.00    -0.003 C 
ATOM     26  C   UNL     1      96.162   0.630 -23.668  1.00  0.00     0.004 C 
ENDBRANCH  24  25
ENDBRANCH  23  24
ENDBRANCH  22  23
ENDBRANCH  21  22
ENDBRANCH  20  21
ENDBRANCH  19  20
ENDBRANCH  18  19
ENDBRANCH  17  18
ENDBRANCH  16  17
ENDBRANCH  15  16
ENDBRANCH   1  15
TORSDOF 22
ENDMDL
MODEL 5
REMARK VINA RESULT:    -4.321      3.067      6.610
REMARK INTER + INTRA:         -12.512
REMARK INTER:                  -8.701
REMARK INTRA:                  -3.811
REMARK UNBOUND:                -2.634
REMARK SMILES CCCCCCCCCCCCCCCCCCCCCCCC(=O)[O-]
REMARK SMILES IDX 13 1 14 2 15 3 16 4 17 5 18 6 19 7 20 8 21 9 22 10 23 11
REMARK SMILES IDX 24 12 25 13 26 14 12 15 11 16 10 17 9 18 8 19 7 20 6 21 5 22
REMARK SMILES IDX 4 23 3 24 2 25 1 26
REMARK H PARENT
REMARK Flexibility Score: inf
ROOT
ATOM      1  C   UNL     1      99.020   0.428 -27.237  1.00  0.00     0.000 C 
ENDROOT
BRANCH   1   2
ATOM      2  C   UNL     1      99.698   0.141 -25.884  1.00  0.00     0.000 C 
BRANCH   2   3
ATOM      3  C   UNL     1      99.308   1.150 -24.794  1.00  0.00     0.000 C 
BRANCH   3   4
ATOM      4  C   UNL     1      97.913   0.840 -24.230  1.00  0.00     0.000 C 
BRANCH   4   5
ATOM      5  C   UNL     1      97.970   0.262 -22.807  1.00  0.00     0.000 C 
BRANCH   5   6
ATOM      6  C   UNL     1      97.139  -1.025 -22.658  1.00  0.00     0.000 C 
BRANCH   6   7
ATOM      7  C   UNL     1      96.314  -1.334 -23.918  1.00  0.00     0.000 C 
BRANCH   7   8
ATOM      8  C   UNL     1      94.800  -1.259 -23.657  1.00  0.00     0.000 C 
BRANCH   8   9
ATOM      9  C   UNL     1      94.149  -0.006 -24.266  1.00  0.00     0.000 C 
BRANCH   9  10
ATOM     10  C   UNL     1      93.532   0.972 -23.247  1.00  0.00     0.006 C 
BRANCH  10  11
ATOM     11  C   UNL     1      94.568   1.797 -22.460  1.00  0.00     0.053 C 
BRANCH  11  12
ATOM     12  C   UNL     1      94.487   1.558 -20.981  1.00  0.00     0.041 C 
ATOM     13  O   UNL     1      94.759   0.424 -20.506  1.00  0.00    -0.550 OA
ATOM     14  O   UNL     1      94.069   2.575 -20.132  1.00  0.00    -0.550 OA
ENDBRANCH  11  12
ENDBRANCH  10  11
ENDBRANCH   9  10
ENDBRANCH   8   9
ENDBRANCH   7   8
ENDBRANCH   6   7
ENDBRANCH   5   6
ENDBRANCH   4   5
ENDBRANCH   3   4
ENDBRANCH   2   3
ENDBRANCH   1   2
BRANCH   1  15
ATOM     15  C   UNL     1      99.903   1.154 -28.272  1.00  0.00     0.000 C 
BRANCH  15  16
ATOM     16  C   UNL     1      99.135   1.946 -29.346  1.00  0.00     0.000 C 
BRANCH  16  17
ATOM     17  C   UNL     1      99.815   3.280 -29.698  1.00  0.00     0.000 C 
BRANCH  17  18
ATOM     18  C   UNL     1      99.090   4.497 -29.097  1.00  0.00    -0.000 C 
BRANCH  18  19
ATOM     19  C   UNL     1      99.529   4.882 -27.670  1.00  0.00    -0.000 C 
BRANCH  19  20
ATOM     20  C   UNL     1      98.675   4.238 -26.557  1.00  0.00    -0.000 C 
BRANCH  20  21
ATOM     21  C   UNL     1      97.166   4.332 -26.846  1.00  0.00    -0.000 C 
BRANCH  21  22
ATOM     22  C   UNL     1      96.467   2.963 -26.819  1.00  0.00    -0.000 C 
BRANCH  22  23
ATOM     23  C   UNL     1      94.935   3.058 -26.655  1.00  0.00    -0.000 C 
BRANCH  23  24
ATOM     24  C   UNL     1      94.535   3.879 -25.420  1.00  0.00    -0.000 C 
BRANCH  24  25
ATOM     25  C   UNL     1      93.202   4.601 -25.644  1.00  0.00    -0.003 C 
ATOM     26  C   UNL     1      92.878   4.710 -27.132  1.00  0.00     0.004 C 
ENDBRANCH  24  25
ENDBRANCH  23  24
ENDBRANCH  22  23
ENDBRANCH  21  22
ENDBRANCH  20  21
ENDBRANCH  19  20
ENDBRANCH  18  19
ENDBRANCH  17  18
ENDBRANCH  16  17
ENDBRANCH  15  16
ENDBRANCH   1  15
TORSDOF 22
ENDMDL
MODEL 6
REMARK VINA RESULT:    -4.320      2.052      2.460
REMARK INTER + INTRA:         -12.508
REMARK INTER:                 -10.236
REMARK INTRA:                  -2.273
REMARK UNBOUND:                -2.634
REMARK SMILES CCCCCCCCCCCCCCCCCCCCCCCC(=O)[O-]
REMARK SMILES IDX 13 1 14 2 15 3 16 4 17 5 18 6 19 7 20 8 21 9 22 10 23 11
REMARK SMILES IDX 24 12 25 13 26 14 12 15 11 16 10 17 9 18 8 19 7 20 6 21 5 22
REMARK SMILES IDX 4 23 3 24 2 25 1 26
REMARK H PARENT
REMARK Flexibility Score: inf
ROOT
ATOM      1  C   UNL     1      96.823   2.995 -26.330  1.00  0.00     0.000 C 
ENDROOT
BRANCH   1   2
ATOM      2  C   UNL     1      95.388   3.143 -25.790  1.00  0.00     0.000 C 
BRANCH   2   3
ATOM      3  C   UNL     1      94.429   3.774 -26.811  1.00  0.00     0.000 C 
BRANCH   3   4
ATOM      4  C   UNL     1      93.258   4.475 -26.105  1.00  0.00     0.000 C 
BRANCH   4   5
ATOM      5  C   UNL     1      93.399   6.006 -26.113  1.00  0.00     0.000 C 
BRANCH   5   6
ATOM      6  C   UNL     1      92.205   6.706 -26.787  1.00  0.00     0.000 C 
BRANCH   6   7
ATOM      7  C   UNL     1      91.738   5.970 -28.053  1.00  0.00     0.000 C 
BRANCH   7   8
ATOM      8  C   UNL     1      90.241   6.188 -28.337  1.00  0.00     0.000 C 
BRANCH   8   9
ATOM      9  C   UNL     1      89.382   4.961 -27.992  1.00  0.00     0.000 C 
BRANCH   9  10
ATOM     10  C   UNL     1      89.338   3.866 -29.076  1.00  0.00     0.006 C 
BRANCH  10  11
ATOM     11  C   UNL     1      88.316   4.132 -30.198  1.00  0.00     0.053 C 
BRANCH  11  12
ATOM     12  C   UNL     1      88.318   3.054 -31.241  1.00  0.00     0.041 C 
ATOM     13  O   UNL     1      87.314   2.307 -31.382  1.00  0.00    -0.550 OA
ATOM     14  O   UNL     1      89.443   2.845 -32.028  1.00  0.00    -0.550 OA
ENDBRANCH  11  12
ENDBRANCH  10  11
ENDBRANCH   9  10
ENDBRANCH   8   9
ENDBRANCH   7   8
ENDBRANCH   6   7
ENDBRANCH   5   6
ENDBRANCH   4   5
ENDBRANCH   3   4
ENDBRANCH   2   3
ENDBRANCH   1   2
BRANCH   1  15
ATOM     15  C   UNL     1      97.437   4.278 -26.924  1.00  0.00     0.000 C 
BRANCH  15  16
ATOM     16  C   UNL     1      98.965   4.396 -26.788  1.00  0.00     0.000 C 
BRANCH  16  17
ATOM     17  C   UNL     1      99.622   5.049 -28.015  1.00  0.00     0.000 C 
BRANCH  17  18
ATOM     18  C   UNL     1      99.083   4.495 -29.346  1.00  0.00    -0.000 C 
BRANCH  18  19
ATOM     19  C   UNL     1      99.579   3.084 -29.717  1.00  0.00    -0.000 C 
BRANCH  19  20
ATOM     20  C   UNL     1      98.510   1.982 -29.560  1.00  0.00    -0.000 C 
BRANCH  20  21
ATOM     21  C   UNL     1      98.988   0.823 -28.668  1.00  0.00    -0.000 C 
BRANCH  21  22
ATOM     22  C   UNL     1     100.125   1.231 -27.717  1.00  0.00    -0.000 C 
BRANCH  22  23
ATOM     23  C   UNL     1      99.903   0.774 -26.260  1.00  0.00    -0.000 C 
BRANCH  23  24
ATOM     24  C   UNL     1      98.823  -0.314 -26.153  1.00  0.00    -0.000 C 
BRANCH  24  25
ATOM     25  C   UNL     1      99.026  -1.175 -24.901  1.00  0.00    -0.003 C 
ATOM     26  C   UNL     1      97.733  -1.882 -24.504  1.00  0.00     0.004 C 
ENDBRANCH  24  25
ENDBRANCH  23  24
ENDBRANCH  22  23
ENDBRANCH  21  22
ENDBRANCH  20  21
ENDBRANCH  19  20
ENDBRANCH  18  19
ENDBRANCH  17  18
ENDBRANCH  16  17
ENDBRANCH  15  16
ENDBRANCH   1  15
TORSDOF 22
ENDMDL
MODEL 7
REMARK VINA RESULT:    -4.310      2.731      5.046
REMARK INTER + INTRA:         -12.487
REMARK INTER:                  -8.513
REMARK INTRA:                  -3.974
REMARK UNBOUND:                -2.634
REMARK SMILES CCCCCCCCCCCCCCCCCCCCCCCC(=O)[O-]
REMARK SMILES IDX 13 1 14 2 15 3 16 4 17 5 18 6 19 7 20 8 21 9 22 10 23 11
REMARK SMILES IDX 24 12 25 13 26 14 12 15 11 16 10 17 9 18 8 19 7 20 6 21 5 22
REMARK SMILES IDX 4 23 3 24 2 25 1 26
REMARK H PARENT
REMARK Flexibility Score: inf
ROOT
ATOM      1  C   UNL     1      91.895   3.115 -27.634  1.00  0.00     0.000 C 
ENDROOT
BRANCH   1   2
ATOM      2  C   UNL     1      91.968   4.044 -28.859  1.00  0.00     0.000 C 
BRANCH   2   3
ATOM      3  C   UNL     1      91.435   5.456 -28.571  1.00  0.00     0.000 C 
BRANCH   3   4
ATOM      4  C   UNL     1      91.424   5.743 -27.062  1.00  0.00     0.000 C 
BRANCH   4   5
ATOM      5  C   UNL     1      92.650   6.551 -26.609  1.00  0.00     0.000 C 
BRANCH   5   6
ATOM      6  C   UNL     1      92.982   6.337 -25.121  1.00  0.00     0.000 C 
BRANCH   6   7
ATOM      7  C   UNL     1      92.287   5.093 -24.543  1.00  0.00     0.000 C 
BRANCH   7   8
ATOM      8  C   UNL     1      92.613   4.881 -23.054  1.00  0.00     0.000 C 
BRANCH   8   9
ATOM      9  C   UNL     1      92.976   3.425 -22.723  1.00  0.00     0.000 C 
BRANCH   9  10
ATOM     10  C   UNL     1      92.132   2.358 -23.448  1.00  0.00     0.006 C 
BRANCH  10  11
ATOM     11  C   UNL     1      92.901   1.065 -23.779  1.00  0.00     0.053 C 
BRANCH  11  12
ATOM     12  C   UNL     1      92.605  -0.042 -22.811  1.00  0.00     0.041 C 
ATOM     13  O   UNL     1      93.042  -1.204 -23.023  1.00  0.00    -0.550 OA
ATOM     14  O   UNL     1      91.810   0.198 -21.697  1.00  0.00    -0.550 OA
ENDBRANCH  11  12
ENDBRANCH  10  11
ENDBRANCH   9  10
ENDBRANCH   8   9
ENDBRANCH   7   8
ENDBRANCH   6   7
ENDBRANCH   5   6
ENDBRANCH   4   5
ENDBRANCH   3   4
ENDBRANCH   2   3
ENDBRANCH   1   2
BRANCH   1  15
ATOM     15  C   UNL     1      93.256   2.726 -27.023  1.00  0.00     0.000 C 
BRANCH  15  16
ATOM     16  C   UNL     1      94.487   3.280 -27.763  1.00  0.00     0.000 C 
BRANCH  16  17
ATOM     17  C   UNL     1      95.566   3.812 -26.804  1.00  0.00     0.000 C 
BRANCH  17  18
ATOM     18  C   UNL     1      95.451   3.219 -25.389  1.00  0.00    -0.000 C 
BRANCH  18  19
ATOM     19  C   UNL     1      96.748   2.600 -24.831  1.00  0.00    -0.000 C 
BRANCH  19  20
ATOM     20  C   UNL     1      98.025   3.386 -25.195  1.00  0.00    -0.000 C 
BRANCH  20  21
ATOM     21  C   UNL     1      99.078   2.505 -25.890  1.00  0.00    -0.000 C 
BRANCH  21  22
ATOM     22  C   UNL     1      98.456   1.464 -26.836  1.00  0.00    -0.000 C 
BRANCH  22  23
ATOM     23  C   UNL     1      98.852   1.661 -28.314  1.00  0.00    -0.000 C 
BRANCH  23  24
ATOM     24  C   UNL     1      98.195   2.907 -28.928  1.00  0.00    -0.000 C 
BRANCH  24  25
ATOM     25  C   UNL     1      99.250   3.932 -29.359  1.00  0.00    -0.003 C 
ATOM     26  C   UNL     1      99.155   5.205 -28.521  1.00  0.00     0.004 C 
ENDBRANCH  24  25
ENDBRANCH  23  24
ENDBRANCH  22  23
ENDBRANCH  21  22
ENDBRANCH  20  21
ENDBRANCH  19  20
ENDBRANCH  18  19
ENDBRANCH  17  18
ENDBRANCH  16  17
ENDBRANCH  15  16
ENDBRANCH   1  15
TORSDOF 22
ENDMDL
MODEL 8
REMARK VINA RESULT:    -4.266      3.648      5.967
REMARK INTER + INTRA:         -12.387
REMARK INTER:                  -9.082
REMARK INTRA:                  -3.304
REMARK UNBOUND:                -2.634
REMARK SMILES CCCCCCCCCCCCCCCCCCCCCCCC(=O)[O-]
REMARK SMILES IDX 13 1 14 2 15 3 16 4 17 5 18 6 19 7 20 8 21 9 22 10 23 11
REMARK SMILES IDX 24 12 25 13 26 14 12 15 11 16 10 17 9 18 8 19 7 20 6 21 5 22
REMARK SMILES IDX 4 23 3 24 2 25 1 26
REMARK H PARENT
REMARK Flexibility Score: inf
ROOT
ATOM      1  C   UNL     1      98.758   1.404 -28.982  1.00  0.00     0.000 C 
ENDROOT
BRANCH   1   2
ATOM      2  C   UNL     1      99.745   2.574 -29.145  1.00  0.00     0.000 C 
BRANCH   2   3
ATOM      3  C   UNL     1      99.095   3.825 -29.755  1.00  0.00     0.000 C 
BRANCH   3   4
ATOM      4  C   UNL     1      98.622   4.790 -28.658  1.00  0.00     0.000 C 
BRANCH   4   5
ATOM      5  C   UNL     1      99.368   4.581 -27.330  1.00  0.00     0.000 C 
BRANCH   5   6
ATOM      6  C   UNL     1      98.437   4.109 -26.198  1.00  0.00     0.000 C 
BRANCH   6   7
ATOM      7  C   UNL     1      97.021   3.790 -26.704  1.00  0.00     0.000 C 
BRANCH   7   8
ATOM      8  C   UNL     1      96.398   2.587 -25.974  1.00  0.00     0.000 C 
BRANCH   8   9
ATOM      9  C   UNL     1      95.928   2.929 -24.551  1.00  0.00     0.000 C 
BRANCH   9  10
ATOM     10  C   UNL     1      94.417   2.753 -24.301  1.00  0.00     0.006 C 
BRANCH  10  11
ATOM     11  C   UNL     1      94.079   1.824 -23.119  1.00  0.00     0.053 C 
BRANCH  11  12
ATOM     12  C   UNL     1      92.879   0.966 -23.389  1.00  0.00     0.041 C 
ATOM     13  O   UNL     1      92.932  -0.277 -23.195  1.00  0.00    -0.550 OA
ATOM     14  O   UNL     1      91.716   1.531 -23.897  1.00  0.00    -0.550 OA
ENDBRANCH  11  12
ENDBRANCH  10  11
ENDBRANCH   9  10
ENDBRANCH   8   9
ENDBRANCH   7   8
ENDBRANCH   6   7
ENDBRANCH   5   6
ENDBRANCH   4   5
ENDBRANCH   3   4
ENDBRANCH   2   3
ENDBRANCH   1   2
BRANCH   1  15
ATOM     15  C   UNL     1      99.078   0.430 -27.830  1.00  0.00     0.000 C 
BRANCH  15  16
ATOM     16  C   UNL     1     100.119   0.936 -26.816  1.00  0.00     0.000 C 
BRANCH  16  17
ATOM     17  C   UNL     1     100.115   0.127 -25.508  1.00  0.00     0.000 C 
BRANCH  17  18
ATOM     18  C   UNL     1      99.593   0.935 -24.308  1.00  0.00    -0.000 C 
BRANCH  18  19
ATOM     19  C   UNL     1      98.311   0.384 -23.654  1.00  0.00    -0.000 C 
BRANCH  19  20
ATOM     20  C   UNL     1      97.712  -0.838 -24.382  1.00  0.00    -0.000 C 
BRANCH  20  21
ATOM     21  C   UNL     1      96.282  -1.159 -23.912  1.00  0.00    -0.000 C 
BRANCH  21  22
ATOM     22  C   UNL     1      96.229  -2.324 -22.911  1.00  0.00    -0.000 C 
BRANCH  22  23
ATOM     23  C   UNL     1      97.595  -3.009 -22.691  1.00  0.00    -0.000 C 
BRANCH  23  24
ATOM     24  C   UNL     1      97.475  -4.271 -21.822  1.00  0.00    -0.000 C 
BRANCH  24  25
ATOM     25  C   UNL     1      98.186  -5.461 -22.475  1.00  0.00    -0.003 C 
ATOM     26  C   UNL     1      97.212  -6.297 -23.302  1.00  0.00     0.004 C 
ENDBRANCH  24  25
ENDBRANCH  23  24
ENDBRANCH  22  23
ENDBRANCH  21  22
ENDBRANCH  20  21
ENDBRANCH  19  20
ENDBRANCH  18  19
ENDBRANCH  17  18
ENDBRANCH  16  17
ENDBRANCH  15  16
ENDBRANCH   1  15
TORSDOF 22
ENDMDL
MODEL 9
REMARK VINA RESULT:    -4.257      2.307      3.624
REMARK INTER + INTRA:         -12.366
REMARK INTER:                  -9.815
REMARK INTRA:                  -2.550
REMARK UNBOUND:                -2.634
REMARK SMILES CCCCCCCCCCCCCCCCCCCCCCCC(=O)[O-]
REMARK SMILES IDX 13 1 14 2 15 3 16 4 17 5 18 6 19 7 20 8 21 9 22 10 23 11
REMARK SMILES IDX 24 12 25 13 26 14 12 15 11 16 10 17 9 18 8 19 7 20 6 21 5 22
REMARK SMILES IDX 4 23 3 24 2 25 1 26
REMARK H PARENT
REMARK Flexibility Score: inf
ROOT
ATOM      1  C   UNL     1      98.312   3.548 -25.399  1.00  0.00     0.000 C 
ENDROOT
BRANCH   1   2
ATOM      2  C   UNL     1      96.995   2.849 -25.781  1.00  0.00     0.000 C 
BRANCH   2   3
ATOM      3  C   UNL     1      95.952   2.882 -24.654  1.00  0.00     0.000 C 
BRANCH   3   4
ATOM      4  C   UNL     1      95.123   1.589 -24.633  1.00  0.00     0.000 C 
BRANCH   4   5
ATOM      5  C   UNL     1      94.144   1.539 -23.448  1.00  0.00     0.000 C 
BRANCH   5   6
ATOM      6  C   UNL     1      92.706   1.205 -23.884  1.00  0.00     0.000 C 
BRANCH   6   7
ATOM      7  C   UNL     1      91.678   2.186 -23.297  1.00  0.00     0.000 C 
BRANCH   7   8
ATOM      8  C   UNL     1      91.423   3.387 -24.224  1.00  0.00     0.000 C 
BRANCH   8   9
ATOM      9  C   UNL     1      92.629   4.335 -24.321  1.00  0.00     0.000 C 
BRANCH   9  10
ATOM     10  C   UNL     1      92.310   5.752 -24.839  1.00  0.00     0.006 C 
BRANCH  10  11
ATOM     11  C   UNL     1      93.046   6.126 -26.139  1.00  0.00     0.053 C 
BRANCH  11  12
ATOM     12  C   UNL     1      92.176   5.982 -27.352  1.00  0.00     0.041 C 
ATOM     13  O   UNL     1      91.300   6.849 -27.611  1.00  0.00    -0.550 OA
ATOM     14  O   UNL     1      92.302   4.869 -28.174  1.00  0.00    -0.550 OA
ENDBRANCH  11  12
ENDBRANCH  10  11
ENDBRANCH   9  10
ENDBRANCH   8   9
ENDBRANCH   7   8
ENDBRANCH   6   7
ENDBRANCH   5   6
ENDBRANCH   4   5
ENDBRANCH   3   4
ENDBRANCH   2   3
ENDBRANCH   1   2
BRANCH   1  15
ATOM     15  C   UNL     1      98.896   4.483 -26.478  1.00  0.00     0.000 C 
BRANCH  15  16
ATOM     16  C   UNL     1      97.968   4.760 -27.675  1.00  0.00     0.000 C 
BRANCH  16  17
ATOM     17  C   UNL     1      98.736   4.907 -28.999  1.00  0.00     0.000 C 
BRANCH  17  18
ATOM     18  C   UNL     1     100.046   4.099 -29.022  1.00  0.00    -0.000 C 
BRANCH  18  19
ATOM     19  C   UNL     1     100.124   3.009 -30.109  1.00  0.00    -0.000 C 
BRANCH  19  20
ATOM     20  C   UNL     1     100.084   1.569 -29.557  1.00  0.00    -0.000 C 
BRANCH  20  21
ATOM     21  C   UNL     1     100.085   1.531 -28.018  1.00  0.00    -0.000 C 
BRANCH  21  22
ATOM     22  C   UNL     1      99.243   0.378 -27.448  1.00  0.00    -0.000 C 
BRANCH  22  23
ATOM     23  C   UNL     1      99.549   0.065 -25.968  1.00  0.00    -0.000 C 
BRANCH  23  24
ATOM     24  C   UNL     1      98.700  -1.100 -25.436  1.00  0.00    -0.000 C 
BRANCH  24  25
ATOM     25  C   UNL     1      97.773  -0.638 -24.306  1.00  0.00    -0.003 C 
ATOM     26  C   UNL     1      96.791  -1.739 -23.915  1.00  0.00     0.004 C 
ENDBRANCH  24  25
ENDBRANCH  23  24
ENDBRANCH  22  23
ENDBRANCH  21  22
ENDBRANCH  20  21
ENDBRANCH  19  20
ENDBRANCH  18  19
ENDBRANCH  17  18
ENDBRANCH  16  17
ENDBRANCH  15  16
ENDBRANCH   1  15
TORSDOF 22
ENDMDL
