MODEL 1
REMARK VINA RESULT:    -4.710      0.000      0.000
REMARK INTER + INTRA:          -4.710
REMARK INTER:                  -4.710
REMARK INTRA:                   0.000
REMARK UNBOUND:                 0.000
REMARK SMILES CC(C)=C1CC[C@@H](C)CC1=O
REMARK SMILES IDX 8 1 7 2 6 3 5 4 4 5 2 6 1 7 3 8 10 9 11 10 9 11
REMARK H PARENT
REMARK Flexibility Score: inf
ROOT
ATOM      1  C   UNL     1      12.134 -19.403 -20.416  1.00  0.00     0.008 C 
ATOM      2  C   UNL     1      12.344 -17.880 -20.411  1.00  0.00    -0.006 C 
ATOM      3  C   UNL     1      13.146 -17.399 -21.634  1.00  0.00     0.008 C 
ATOM      4  C   UNL     1      14.604 -17.887 -21.627  1.00  0.00     0.039 C 
ATOM      5  C   UNL     1      15.307 -17.639 -20.299  1.00  0.00    -0.006 C 
ATOM      6  C   UNL     1      16.655 -17.424 -20.243  1.00  0.00    -0.070 C 
ATOM      7  C   UNL     1      17.504 -17.439 -21.494  1.00  0.00     0.039 C 
ATOM      8  C   UNL     1      17.359 -17.121 -18.940  1.00  0.00     0.039 C 
ATOM      9  C   UNL     1      14.467 -17.767 -19.071  1.00  0.00     0.159 C 
ATOM     10  O   UNL     1      14.952 -18.191 -17.988  1.00  0.00    -0.295 OA
ATOM     11  C   UNL     1      13.012 -17.400 -19.114  1.00  0.00     0.084 C 
ENDROOT
TORSDOF 0
ENDMDL
MODEL 2
REMARK VINA RESULT:    -4.693      2.407      4.732
REMARK INTER + INTRA:          -4.693
REMARK INTER:                  -4.693
REMARK INTRA:                   0.000
REMARK UNBOUND:                 0.000
REMARK SMILES CC(C)=C1CC[C@@H](C)CC1=O
REMARK SMILES IDX 8 1 7 2 6 3 5 4 4 5 2 6 1 7 3 8 10 9 11 10 9 11
REMARK H PARENT
REMARK Flexibility Score: inf
ROOT
ATOM      1  C   UNL     1      14.108 -17.513 -19.156  1.00  0.00     0.008 C 
ATOM      2  C   UNL     1      14.001 -18.606 -20.231  1.00  0.00    -0.006 C 
ATOM      3  C   UNL     1      14.200 -18.048 -21.652  1.00  0.00     0.008 C 
ATOM      4  C   UNL     1      13.069 -17.103 -22.091  1.00  0.00     0.039 C 
ATOM      5  C   UNL     1      11.682 -17.686 -21.853  1.00  0.00    -0.006 C 
ATOM      6  C   UNL     1      10.629 -17.352 -22.656  1.00  0.00    -0.070 C 
ATOM      7  C   UNL     1      10.794 -16.378 -23.801  1.00  0.00     0.039 C 
ATOM      8  C   UNL     1       9.260 -17.964 -22.468  1.00  0.00     0.039 C 
ATOM      9  C   UNL     1      11.521 -18.535 -20.636  1.00  0.00     0.159 C 
ATOM     10  O   UNL     1      10.435 -18.563 -19.997  1.00  0.00    -0.295 OA
ATOM     11  C   UNL     1      12.669 -19.367 -20.140  1.00  0.00     0.084 C 
ENDROOT
TORSDOF 0
ENDMDL
MODEL 3
REMARK VINA RESULT:    -4.605      1.548      2.665
REMARK INTER + INTRA:          -4.605
REMARK INTER:                  -4.605
REMARK INTRA:                   0.000
REMARK UNBOUND:                 0.000
REMARK SMILES CC(C)=C1CC[C@@H](C)CC1=O
REMARK SMILES IDX 8 1 7 2 6 3 5 4 4 5 2 6 1 7 3 8 10 9 11 10 9 11
REMARK H PARENT
REMARK Flexibility Score: inf
ROOT
ATOM      1  C   UNL     1      14.908 -18.622 -23.704  1.00  0.00     0.008 C 
ATOM      2  C   UNL     1      14.544 -17.257 -23.099  1.00  0.00    -0.006 C 
ATOM      3  C   UNL     1      15.789 -16.461 -22.667  1.00  0.00     0.008 C 
ATOM      4  C   UNL     1      16.536 -17.106 -21.488  1.00  0.00     0.039 C 
ATOM      5  C   UNL     1      15.616 -17.474 -20.332  1.00  0.00    -0.006 C 
ATOM      6  C   UNL     1      16.068 -17.478 -19.043  1.00  0.00    -0.070 C 
ATOM      7  C   UNL     1      17.503 -17.132 -18.714  1.00  0.00     0.039 C 
ATOM      8  C   UNL     1      15.153 -17.786 -17.880  1.00  0.00     0.039 C 
ATOM      9  C   UNL     1      14.247 -17.943 -20.699  1.00  0.00     0.159 C 
ATOM     10  O   UNL     1      13.643 -18.806 -20.007  1.00  0.00    -0.295 OA
ATOM     11  C   UNL     1      13.567 -17.397 -21.921  1.00  0.00     0.084 C 
ENDROOT
TORSDOF 0
ENDMDL
MODEL 4
REMARK VINA RESULT:    -4.600     12.250     13.061
REMARK INTER + INTRA:          -4.600
REMARK INTER:                  -4.600
REMARK INTRA:                   0.000
REMARK UNBOUND:                 0.000
REMARK SMILES CC(C)=C1CC[C@@H](C)CC1=O
REMARK SMILES IDX 8 1 7 2 6 3 5 4 4 5 2 6 1 7 3 8 10 9 11 10 9 11
REMARK H PARENT
REMARK Flexibility Score: inf
ROOT
ATOM      1  C   UNL     1       7.332  -7.597 -26.412  1.00  0.00     0.008 C 
ATOM      2  C   UNL     1       7.991  -8.769 -25.668  1.00  0.00    -0.006 C 
ATOM      3  C   UNL     1       8.416  -9.901 -26.621  1.00  0.00     0.008 C 
ATOM      4  C   UNL     1       7.222 -10.614 -27.278  1.00  0.00     0.039 C 
ATOM      5  C   UNL     1       6.154 -11.030 -26.275  1.00  0.00    -0.006 C 
ATOM      6  C   UNL     1       5.371 -12.128 -26.491  1.00  0.00    -0.070 C 
ATOM      7  C   UNL     1       5.523 -12.965 -27.742  1.00  0.00     0.039 C 
ATOM      8  C   UNL     1       4.346 -12.586 -25.480  1.00  0.00     0.039 C 
ATOM      9  C   UNL     1       5.935 -10.108 -25.121  1.00  0.00     0.159 C 
ATOM     10  O   UNL     1       4.793  -9.963 -24.607  1.00  0.00    -0.295 OA
ATOM     11  C   UNL     1       7.083  -9.321 -24.558  1.00  0.00     0.084 C 
ENDROOT
TORSDOF 0
ENDMDL
MODEL 5
REMARK VINA RESULT:    -4.571      7.293      8.430
REMARK INTER + INTRA:          -4.571
REMARK INTER:                  -4.571
REMARK INTRA:                   0.000
REMARK UNBOUND:                 0.000
REMARK SMILES CC(C)=C1CC[C@@H](C)CC1=O
REMARK SMILES IDX 8 1 7 2 6 3 5 4 4 5 2 6 1 7 3 8 10 9 11 10 9 11
REMARK H PARENT
REMARK Flexibility Score: inf
ROOT
ATOM      1  C   UNL     1      19.050 -25.118 -21.461  1.00  0.00     0.008 C 
ATOM      2  C   UNL     1      18.214 -25.760 -22.579  1.00  0.00    -0.006 C 
ATOM      3  C   UNL     1      18.944 -25.745 -23.935  1.00  0.00     0.008 C 
ATOM      4  C   UNL     1      19.135 -24.328 -24.499  1.00  0.00     0.039 C 
ATOM      5  C   UNL     1      17.853 -23.506 -24.488  1.00  0.00    -0.006 C 
ATOM      6  C   UNL     1      17.628 -22.536 -25.422  1.00  0.00    -0.070 C 
ATOM      7  C   UNL     1      18.648 -22.229 -26.495  1.00  0.00     0.039 C 
ATOM      8  C   UNL     1      16.338 -21.750 -25.458  1.00  0.00     0.039 C 
ATOM      9  C   UNL     1      16.929 -23.738 -23.338  1.00  0.00     0.159 C 
ATOM     10  O   UNL     1      16.226 -22.804 -22.866  1.00  0.00    -0.295 OA
ATOM     11  C   UNL     1      16.834 -25.098 -22.711  1.00  0.00     0.084 C 
ENDROOT
TORSDOF 0
ENDMDL
MODEL 6
REMARK VINA RESULT:    -4.554      2.683      5.070
REMARK INTER + INTRA:          -4.554
REMARK INTER:                  -4.554
REMARK INTRA:                   0.000
REMARK UNBOUND:                 0.000
REMARK SMILES CC(C)=C1CC[C@@H](C)CC1=O
REMARK SMILES IDX 8 1 7 2 6 3 5 4 4 5 2 6 1 7 3 8 10 9 11 10 9 11
REMARK H PARENT
REMARK Flexibility Score: inf
ROOT
ATOM      1  C   UNL     1      14.232 -19.680 -20.071  1.00  0.00     0.008 C 
ATOM      2  C   UNL     1      13.919 -18.177 -20.013  1.00  0.00    -0.006 C 
ATOM      3  C   UNL     1      12.527 -17.894 -19.419  1.00  0.00     0.008 C 
ATOM      4  C   UNL     1      11.379 -18.389 -20.314  1.00  0.00     0.039 C 
ATOM      5  C   UNL     1      11.525 -17.950 -21.765  1.00  0.00    -0.006 C 
ATOM      6  C   UNL     1      10.429 -17.741 -22.552  1.00  0.00    -0.070 C 
ATOM      7  C   UNL     1       9.029 -17.953 -22.021  1.00  0.00     0.039 C 
ATOM      8  C   UNL     1      10.554 -17.251 -23.976  1.00  0.00     0.039 C 
ATOM      9  C   UNL     1      12.917 -17.882 -22.299  1.00  0.00     0.159 C 
ATOM     10  O   UNL     1      13.168 -18.141 -23.507  1.00  0.00    -0.295 OA
ATOM     11  C   UNL     1      14.055 -17.512 -21.391  1.00  0.00     0.084 C 
ENDROOT
TORSDOF 0
ENDMDL
MODEL 7
REMARK VINA RESULT:    -4.542      6.915      8.667
REMARK INTER + INTRA:          -4.542
REMARK INTER:                  -4.542
REMARK INTRA:                   0.000
REMARK UNBOUND:                 0.000
REMARK SMILES CC(C)=C1CC[C@@H](C)CC1=O
REMARK SMILES IDX 8 1 7 2 6 3 5 4 4 5 2 6 1 7 3 8 10 9 11 10 9 11
REMARK H PARENT
REMARK Flexibility Score: inf
ROOT
ATOM      1  C   UNL     1      20.720 -21.400 -24.969  1.00  0.00     0.008 C 
ATOM      2  C   UNL     1      20.154 -22.617 -25.719  1.00  0.00    -0.006 C 
ATOM      3  C   UNL     1      18.741 -22.355 -26.272  1.00  0.00     0.008 C 
ATOM      4  C   UNL     1      17.685 -22.183 -25.168  1.00  0.00     0.039 C 
ATOM      5  C   UNL     1      17.735 -23.288 -24.121  1.00  0.00    -0.006 C 
ATOM      6  C   UNL     1      16.610 -23.678 -23.452  1.00  0.00    -0.070 C 
ATOM      7  C   UNL     1      15.274 -23.019 -23.713  1.00  0.00     0.039 C 
ATOM      8  C   UNL     1      16.632 -24.811 -22.451  1.00  0.00     0.039 C 
ATOM      9  C   UNL     1      19.088 -23.823 -23.788  1.00  0.00     0.159 C 
ATOM     10  O   UNL     1      19.365 -24.225 -22.626  1.00  0.00    -0.295 OA
ATOM     11  C   UNL     1      20.156 -23.879 -24.842  1.00  0.00     0.084 C 
ENDROOT
TORSDOF 0
ENDMDL
MODEL 8
REMARK VINA RESULT:    -4.525     11.956     12.792
REMARK INTER + INTRA:          -4.525
REMARK INTER:                  -4.525
REMARK INTRA:                   0.000
REMARK UNBOUND:                 0.000
REMARK SMILES CC(C)=C1CC[C@@H](C)CC1=O
REMARK SMILES IDX 8 1 7 2 6 3 5 4 4 5 2 6 1 7 3 8 10 9 11 10 9 11
REMARK H PARENT
REMARK Flexibility Score: inf
ROOT
ATOM      1  C   UNL     1       4.869 -12.850 -25.723  1.00  0.00     0.008 C 
ATOM      2  C   UNL     1       4.892 -11.715 -26.759  1.00  0.00    -0.006 C 
ATOM      3  C   UNL     1       6.298 -11.489 -27.345  1.00  0.00     0.008 C 
ATOM      4  C   UNL     1       7.301 -10.952 -26.311  1.00  0.00     0.039 C 
ATOM      5  C   UNL     1       6.767  -9.759 -25.529  1.00  0.00    -0.006 C 
ATOM      6  C   UNL     1       7.608  -8.798 -25.047  1.00  0.00    -0.070 C 
ATOM      7  C   UNL     1       9.103  -8.887 -25.255  1.00  0.00     0.039 C 
ATOM      8  C   UNL     1       7.090  -7.580 -24.318  1.00  0.00     0.039 C 
ATOM      9  C   UNL     1       5.306  -9.770 -25.222  1.00  0.00     0.159 C 
ATOM     10  O   UNL     1       4.858  -9.264 -24.158  1.00  0.00    -0.295 OA
ATOM     11  C   UNL     1       4.340 -10.403 -26.181  1.00  0.00     0.084 C 
ENDROOT
TORSDOF 0
ENDMDL
MODEL 9
REMARK VINA RESULT:    -4.432      7.089      8.244
REMARK INTER + INTRA:          -4.432
REMARK INTER:                  -4.432
REMARK INTRA:                   0.000
REMARK UNBOUND:                 0.000
REMARK SMILES CC(C)=C1CC[C@@H](C)CC1=O
REMARK SMILES IDX 8 1 7 2 6 3 5 4 4 5 2 6 1 7 3 8 10 9 11 10 9 11
REMARK H PARENT
REMARK Flexibility Score: inf
ROOT
ATOM      1  C   UNL     1      16.928 -21.627 -26.834  1.00  0.00     0.008 C 
ATOM      2  C   UNL     1      17.830 -21.307 -25.632  1.00  0.00    -0.006 C 
ATOM      3  C   UNL     1      19.124 -22.141 -25.637  1.00  0.00     0.008 C 
ATOM      4  C   UNL     1      18.874 -23.642 -25.415  1.00  0.00     0.039 C 
ATOM      5  C   UNL     1      17.972 -23.923 -24.221  1.00  0.00    -0.006 C 
ATOM      6  C   UNL     1      18.095 -25.076 -23.499  1.00  0.00    -0.070 C 
ATOM      7  C   UNL     1      19.120 -26.125 -23.866  1.00  0.00     0.039 C 
ATOM      8  C   UNL     1      17.245 -25.345 -22.279  1.00  0.00     0.039 C 
ATOM      9  C   UNL     1      16.881 -22.935 -23.968  1.00  0.00     0.159 C 
ATOM     10  O   UNL     1      15.772 -23.294 -23.489  1.00  0.00    -0.295 OA
ATOM     11  C   UNL     1      17.088 -21.485 -24.298  1.00  0.00     0.084 C 
ENDROOT
TORSDOF 0
ENDMDL
