MODEL 1
REMARK VINA RESULT:    -3.220      0.000      0.000
REMARK INTER + INTRA:          -3.314
REMARK INTER:                  -3.314
REMARK INTRA:                   0.000
REMARK UNBOUND:                 0.000
REMARK SMILES CC1(C)[C@H]2CC[C@](C)(C2)[C@H]1O
REMARK SMILES IDX 1 1 2 2 4 3 5 4 6 5 7 6 9 7 10 8 8 9 3 10 11 11
REMARK H PARENT 11 12
REMARK Flexibility Score: inf
ROOT
ATOM      1  C   UNL     1     107.818 110.608 106.480  1.00  0.00     0.014 C 
ATOM      2  C   UNL     1     108.270 109.775 105.256  1.00  0.00    -0.006 C 
ATOM      3  C   UNL     1     108.025 108.249 105.523  1.00  0.00    -0.002 C 
ATOM      4  C   UNL     1     108.212 107.421 104.235  1.00  0.00     0.005 C 
ATOM      5  C   UNL     1     109.721 107.539 103.970  1.00  0.00     0.010 C 
ATOM      6  C   UNL     1     110.223 108.325 105.206  1.00  0.00    -0.006 C 
ATOM      7  C   UNL     1     109.276 107.838 106.281  1.00  0.00     0.013 C 
ATOM      8  C   UNL     1     109.827 109.819 105.096  1.00  0.00     0.126 C 
ATOM      9  C   UNL     1     111.703 108.095 105.528  1.00  0.00     0.014 C 
ATOM     10  C   UNL     1     107.501 110.313 104.021  1.00  0.00     0.014 C 
ENDROOT
BRANCH   8  11
ATOM     11  O   UNL     1     110.254 110.373 103.875  1.00  0.00    -0.392 OA
ATOM     12  H   UNL     1     111.156 110.753 104.039  1.00  0.00     0.211 HD
ENDBRANCH   8  11
TORSDOF 1
ENDMDL
MODEL 2
REMARK VINA RESULT:    -3.206      2.369      4.456
REMARK INTER + INTRA:          -3.299
REMARK INTER:                  -3.299
REMARK INTRA:                   0.000
REMARK UNBOUND:                 0.000
REMARK SMILES CC1(C)[C@H]2CC[C@](C)(C2)[C@H]1O
REMARK SMILES IDX 1 1 2 2 4 3 5 4 6 5 7 6 9 7 10 8 8 9 3 10 11 11
REMARK H PARENT 11 12
REMARK Flexibility Score: inf
ROOT
ATOM      1  C   UNL     1     112.254 109.474 106.497  1.00  0.00     0.014 C 
ATOM      2  C   UNL     1     111.814 110.342 105.294  1.00  0.00    -0.006 C 
ATOM      3  C   UNL     1     112.057 111.860 105.607  1.00  0.00    -0.002 C 
ATOM      4  C   UNL     1     111.883 112.726 104.342  1.00  0.00     0.005 C 
ATOM      5  C   UNL     1     110.377 112.615 104.059  1.00  0.00     0.010 C 
ATOM      6  C   UNL     1     109.862 111.794 105.266  1.00  0.00    -0.006 C 
ATOM      7  C   UNL     1     110.798 112.249 106.364  1.00  0.00     0.013 C 
ATOM      8  C   UNL     1     110.259 110.303 105.115  1.00  0.00     0.126 C 
ATOM      9  C   UNL     1     108.379 112.015 105.579  1.00  0.00     0.014 C 
ATOM     10  C   UNL     1     112.596 109.841 104.051  1.00  0.00     0.014 C 
ENDROOT
BRANCH   8  11
ATOM     11  O   UNL     1     109.845 109.786 103.875  1.00  0.00    -0.392 OA
ATOM     12  H   UNL     1     109.202 110.441 103.498  1.00  0.00     0.211 HD
ENDBRANCH   8  11
TORSDOF 1
ENDMDL
MODEL 3
REMARK VINA RESULT:    -3.205      8.257     10.769
REMARK INTER + INTRA:          -3.298
REMARK INTER:                  -3.298
REMARK INTRA:                   0.000
REMARK UNBOUND:                 0.000
REMARK SMILES CC1(C)[C@H]2CC[C@](C)(C2)[C@H]1O
REMARK SMILES IDX 1 1 2 2 4 3 5 4 6 5 7 6 9 7 10 8 8 9 3 10 11 11
REMARK H PARENT 11 12
REMARK Flexibility Score: inf
ROOT
ATOM      1  C   UNL     1     106.193 115.409 108.035  1.00  0.00     0.014 C 
ATOM      2  C   UNL     1     105.755 116.575 108.954  1.00  0.00    -0.006 C 
ATOM      3  C   UNL     1     104.559 116.125 109.863  1.00  0.00    -0.002 C 
ATOM      4  C   UNL     1     104.276 117.165 110.968  1.00  0.00     0.005 C 
ATOM      5  C   UNL     1     103.741 118.367 110.175  1.00  0.00     0.010 C 
ATOM      6  C   UNL     1     103.677 117.819 108.727  1.00  0.00    -0.006 C 
ATOM      7  C   UNL     1     103.354 116.361 108.968  1.00  0.00     0.013 C 
ATOM      8  C   UNL     1     105.100 117.727 108.120  1.00  0.00     0.126 C 
ATOM      9  C   UNL     1     102.665 118.543 107.835  1.00  0.00     0.014 C 
ATOM     10  C   UNL     1     107.003 117.022 109.760  1.00  0.00     0.014 C 
ENDROOT
BRANCH   8  11
ATOM     11  O   UNL     1     105.780 118.954 108.220  1.00  0.00    -0.392 OA
ATOM     12  H   UNL     1     106.745 118.751 108.112  1.00  0.00     0.211 HD
ENDBRANCH   8  11
TORSDOF 1
ENDMDL
MODEL 4
REMARK VINA RESULT:    -3.192      1.545      3.090
REMARK INTER + INTRA:          -3.286
REMARK INTER:                  -3.286
REMARK INTRA:                   0.000
REMARK UNBOUND:                 0.000
REMARK SMILES CC1(C)[C@H]2CC[C@](C)(C2)[C@H]1O
REMARK SMILES IDX 1 1 2 2 4 3 5 4 6 5 7 6 9 7 10 8 8 9 3 10 11 11
REMARK H PARENT 11 12
REMARK Flexibility Score: inf
ROOT
ATOM      1  C   UNL     1     110.510 112.247 106.402  1.00  0.00     0.014 C 
ATOM      2  C   UNL     1     109.673 111.750 105.199  1.00  0.00    -0.006 C 
ATOM      3  C   UNL     1     108.147 111.991 105.467  1.00  0.00    -0.002 C 
ATOM      4  C   UNL     1     107.312 111.757 104.191  1.00  0.00     0.005 C 
ATOM      5  C   UNL     1     107.441 110.243 103.972  1.00  0.00     0.010 C 
ATOM      6  C   UNL     1     108.239 109.785 105.218  1.00  0.00    -0.006 C 
ATOM      7  C   UNL     1     107.751 110.761 106.266  1.00  0.00     0.013 C 
ATOM      8  C   UNL     1     109.729 110.189 105.085  1.00  0.00     0.126 C 
ATOM      9  C   UNL     1     108.024 108.314 105.586  1.00  0.00     0.014 C 
ATOM     10  C   UNL     1     110.197 112.485 103.937  1.00  0.00     0.014 C 
ENDROOT
BRANCH   8  11
ATOM     11  O   UNL     1     110.278 109.730 103.875  1.00  0.00    -0.392 OA
ATOM     12  H   UNL     1     109.521 109.634 103.241  1.00  0.00     0.211 HD
ENDBRANCH   8  11
TORSDOF 1
ENDMDL
MODEL 5
REMARK VINA RESULT:    -3.182      1.604      3.164
REMARK INTER + INTRA:          -3.275
REMARK INTER:                  -3.275
REMARK INTRA:                   0.000
REMARK UNBOUND:                 0.000
REMARK SMILES CC1(C)[C@H]2CC[C@](C)(C2)[C@H]1O
REMARK SMILES IDX 1 1 2 2 4 3 5 4 6 5 7 6 9 7 10 8 8 9 3 10 11 11
REMARK H PARENT 11 12
REMARK Flexibility Score: inf
ROOT
ATOM      1  C   UNL     1     109.466 107.882 106.341  1.00  0.00     0.014 C 
ATOM      2  C   UNL     1     110.336 108.390 105.167  1.00  0.00    -0.006 C 
ATOM      3  C   UNL     1     111.851 108.110 105.458  1.00  0.00    -0.002 C 
ATOM      4  C   UNL     1     112.715 108.357 104.204  1.00  0.00     0.005 C 
ATOM      5  C   UNL     1     112.621 109.879 104.020  1.00  0.00     0.010 C 
ATOM      6  C   UNL     1     111.810 110.324 105.262  1.00  0.00    -0.006 C 
ATOM      7  C   UNL     1     112.257 109.312 106.295  1.00  0.00     0.013 C 
ATOM      8  C   UNL     1     110.314 109.954 105.091  1.00  0.00     0.126 C 
ATOM      9  C   UNL     1     112.048 111.780 105.670  1.00  0.00     0.014 C 
ATOM     10  C   UNL     1     109.822 107.697 103.877  1.00  0.00     0.014 C 
ENDROOT
BRANCH   8  11
ATOM     11  O   UNL     1     109.798 110.454 103.882  1.00  0.00    -0.392 OA
ATOM     12  H   UNL     1     108.887 110.071 103.785  1.00  0.00     0.211 HD
ENDBRANCH   8  11
TORSDOF 1
ENDMDL
MODEL 6
REMARK VINA RESULT:    -3.164     10.225     11.660
REMARK INTER + INTRA:          -3.257
REMARK INTER:                  -3.257
REMARK INTRA:                   0.000
REMARK UNBOUND:                 0.000
REMARK SMILES CC1(C)[C@H]2CC[C@](C)(C2)[C@H]1O
REMARK SMILES IDX 1 1 2 2 4 3 5 4 6 5 7 6 9 7 10 8 8 9 3 10 11 11
REMARK H PARENT 11 12
REMARK Flexibility Score: inf
ROOT
ATOM      1  C   UNL     1     115.433 114.100 108.187  1.00  0.00     0.014 C 
ATOM      2  C   UNL     1     116.665 114.510 109.030  1.00  0.00    -0.006 C 
ATOM      3  C   UNL     1     116.302 115.721 109.959  1.00  0.00    -0.002 C 
ATOM      4  C   UNL     1     117.414 115.981 110.996  1.00  0.00     0.005 C 
ATOM      5  C   UNL     1     118.579 116.482 110.128  1.00  0.00     0.010 C 
ATOM      6  C   UNL     1     117.946 116.555 108.717  1.00  0.00    -0.006 C 
ATOM      7  C   UNL     1     116.513 116.917 109.045  1.00  0.00     0.013 C 
ATOM      8  C   UNL     1     117.780 115.133 108.124  1.00  0.00     0.126 C 
ATOM      9  C   UNL     1     118.640 117.544 107.776  1.00  0.00     0.014 C 
ATOM     10  C   UNL     1     117.127 113.254 109.814  1.00  0.00     0.014 C 
ENDROOT
BRANCH   8  11
ATOM     11  O   UNL     1     118.993 114.422 108.152  1.00  0.00    -0.392 OA
ATOM     12  H   UNL     1     118.802 113.525 107.772  1.00  0.00     0.211 HD
ENDBRANCH   8  11
TORSDOF 1
ENDMDL
MODEL 7
REMARK VINA RESULT:    -3.089      2.446      3.890
REMARK INTER + INTRA:          -3.180
REMARK INTER:                  -3.180
REMARK INTRA:                   0.000
REMARK UNBOUND:                 0.000
REMARK SMILES CC1(C)[C@H]2CC[C@](C)(C2)[C@H]1O
REMARK SMILES IDX 1 1 2 2 4 3 5 4 6 5 7 6 9 7 10 8 8 9 3 10 11 11
REMARK H PARENT 11 12
REMARK Flexibility Score: inf
ROOT
ATOM      1  C   UNL     1     113.321 107.518 106.760  1.00  0.00     0.014 C 
ATOM      2  C   UNL     1     112.072 108.145 106.096  1.00  0.00    -0.006 C 
ATOM      3  C   UNL     1     111.959 107.672 104.605  1.00  0.00    -0.002 C 
ATOM      4  C   UNL     1     110.594 108.058 103.998  1.00  0.00     0.005 C 
ATOM      5  C   UNL     1     110.676 109.590 103.923  1.00  0.00     0.010 C 
ATOM      6  C   UNL     1     112.125 109.878 104.389  1.00  0.00    -0.006 C 
ATOM      7  C   UNL     1     112.857 108.657 103.875  1.00  0.00     0.013 C 
ATOM      8  C   UNL     1     112.247 109.691 105.923  1.00  0.00     0.126 C 
ATOM      9  C   UNL     1     112.690 111.206 103.877  1.00  0.00     0.014 C 
ATOM     10  C   UNL     1     110.843 107.750 106.958  1.00  0.00     0.014 C 
ENDROOT
BRANCH   8  11
ATOM     11  O   UNL     1     111.283 110.450 106.610  1.00  0.00    -0.392 OA
ATOM     12  H   UNL     1     111.724 111.303 106.861  1.00  0.00     0.211 HD
ENDBRANCH   8  11
TORSDOF 1
ENDMDL
MODEL 8
REMARK VINA RESULT:    -3.064      3.193      4.694
REMARK INTER + INTRA:          -3.154
REMARK INTER:                  -3.154
REMARK INTRA:                   0.000
REMARK UNBOUND:                 0.000
REMARK SMILES CC1(C)[C@H]2CC[C@](C)(C2)[C@H]1O
REMARK SMILES IDX 1 1 2 2 4 3 5 4 6 5 7 6 9 7 10 8 8 9 3 10 11 11
REMARK H PARENT 11 12
REMARK Flexibility Score: inf
ROOT
ATOM      1  C   UNL     1     112.320 113.010 107.260  1.00  0.00     0.014 C 
ATOM      2  C   UNL     1     111.820 111.853 106.361  1.00  0.00    -0.006 C 
ATOM      3  C   UNL     1     112.435 111.983 104.924  1.00  0.00    -0.002 C 
ATOM      4  C   UNL     1     112.175 110.712 104.089  1.00  0.00     0.005 C 
ATOM      5  C   UNL     1     110.655 110.750 103.875  1.00  0.00     0.010 C 
ATOM      6  C   UNL     1     110.253 112.101 104.517  1.00  0.00    -0.006 C 
ATOM      7  C   UNL     1     111.478 112.945 104.239  1.00  0.00     0.013 C 
ATOM      8  C   UNL     1     110.290 111.998 106.063  1.00  0.00     0.126 C 
ATOM      9  C   UNL     1     108.952 112.688 103.963  1.00  0.00     0.014 C 
ATOM     10  C   UNL     1     112.194 110.524 107.069  1.00  0.00     0.014 C 
ENDROOT
BRANCH   8  11
ATOM     11  O   UNL     1     109.520 110.914 106.522  1.00  0.00    -0.392 OA
ATOM     12  H   UNL     1     108.714 111.304 106.951  1.00  0.00     0.211 HD
ENDBRANCH   8  11
TORSDOF 1
ENDMDL
MODEL 9
REMARK VINA RESULT:    -3.050      1.403      2.718
REMARK INTER + INTRA:          -3.139
REMARK INTER:                  -3.139
REMARK INTRA:                   0.000
REMARK UNBOUND:                 0.000
REMARK SMILES CC1(C)[C@H]2CC[C@](C)(C2)[C@H]1O
REMARK SMILES IDX 1 1 2 2 4 3 5 4 6 5 7 6 9 7 10 8 8 9 3 10 11 11
REMARK H PARENT 11 12
REMARK Flexibility Score: inf
ROOT
ATOM      1  C   UNL     1     107.799 107.223 106.492  1.00  0.00     0.014 C 
ATOM      2  C   UNL     1     108.492 107.868 105.268  1.00  0.00    -0.006 C 
ATOM      3  C   UNL     1     110.030 108.020 105.537  1.00  0.00    -0.002 C 
ATOM      4  C   UNL     1     110.786 108.408 104.249  1.00  0.00     0.005 C 
ATOM      5  C   UNL     1     110.288 109.836 103.979  1.00  0.00     0.010 C 
ATOM      6  C   UNL     1     109.397 110.126 105.212  1.00  0.00    -0.006 C 
ATOM      7  C   UNL     1     110.107 109.337 106.291  1.00  0.00     0.013 C 
ATOM      8  C   UNL     1     108.053 109.362 105.101  1.00  0.00     0.126 C 
ATOM      9  C   UNL     1     109.242 111.616 105.528  1.00  0.00     0.014 C 
ATOM     10  C   UNL     1     108.171 106.983 104.035  1.00  0.00     0.014 C 
ENDROOT
BRANCH   8  11
ATOM     11  O   UNL     1     107.412 109.629 103.878  1.00  0.00    -0.392 OA
ATOM     12  H   UNL     1     106.446 109.725 104.083  1.00  0.00     0.211 HD
ENDBRANCH   8  11
TORSDOF 1
ENDMDL
