MODEL 1
REMARK VINA RESULT:    -3.152      0.000      0.000
REMARK INTER + INTRA:          -3.828
REMARK INTER:                  -3.705
REMARK INTRA:                  -0.123
REMARK UNBOUND:                -0.123
REMARK SMILES O=C([O-])CCC(=O)[O-]
REMARK SMILES IDX 4 1 2 2 1 3 3 4 5 5 6 6 7 7 8 8
REMARK H PARENT
REMARK Flexibility Score: inf
ROOT
ATOM      1  C   UNL     1      10.496   4.773  -6.593  1.00  0.00     0.059 C 
ENDROOT
BRANCH   1   2
ATOM      2  C   UNL     1      11.949   4.448  -6.423  1.00  0.00     0.042 C 
ATOM      3  O   UNL     1      12.522   4.664  -5.324  1.00  0.00    -0.550 OA
ATOM      4  O   UNL     1      12.658   3.867  -7.468  1.00  0.00    -0.550 OA
ENDBRANCH   1   2
BRANCH   1   5
ATOM      5  C   UNL     1      10.296   6.082  -7.365  1.00  0.00     0.059 C 
BRANCH   5   6
ATOM      6  C   UNL     1      10.740   7.268  -6.564  1.00  0.00     0.042 C 
ATOM      7  O   UNL     1      11.435   8.170  -7.101  1.00  0.00    -0.550 OA
ATOM      8  O   UNL     1      10.352   7.396  -5.236  1.00  0.00    -0.550 OA
ENDBRANCH   5   6
ENDBRANCH   1   5
TORSDOF 3
ENDMDL
MODEL 2
REMARK VINA RESULT:    -3.133      0.153      3.592
REMARK INTER + INTRA:          -3.806
REMARK INTER:                  -3.677
REMARK INTRA:                  -0.129
REMARK UNBOUND:                -0.123
REMARK SMILES O=C([O-])CCC(=O)[O-]
REMARK SMILES IDX 4 1 2 2 1 3 3 4 5 5 6 6 7 7 8 8
REMARK H PARENT
REMARK Flexibility Score: inf
ROOT
ATOM      1  C   UNL     1      10.307   6.192  -7.297  1.00  0.00     0.059 C 
ENDROOT
BRANCH   1   2
ATOM      2  C   UNL     1      10.822   7.385  -6.551  1.00  0.00     0.042 C 
ATOM      3  O   UNL     1      11.432   8.300  -7.164  1.00  0.00    -0.550 OA
ATOM      4  O   UNL     1      10.592   7.504  -5.186  1.00  0.00    -0.550 OA
ENDBRANCH   1   2
BRANCH   1   5
ATOM      5  C   UNL     1      10.470   4.903  -6.485  1.00  0.00     0.059 C 
BRANCH   5   6
ATOM      6  C   UNL     1      11.906   4.483  -6.399  1.00  0.00     0.042 C 
ATOM      7  O   UNL     1      12.556   4.663  -5.337  1.00  0.00    -0.550 OA
ATOM      8  O   UNL     1      12.514   3.856  -7.481  1.00  0.00    -0.550 OA
ENDBRANCH   5   6
ENDBRANCH   1   5
TORSDOF 3
ENDMDL
MODEL 3
REMARK VINA RESULT:    -3.107     14.371     15.146
REMARK INTER + INTRA:          -3.775
REMARK INTER:                  -3.731
REMARK INTRA:                  -0.044
REMARK UNBOUND:                -0.123
REMARK SMILES O=C([O-])CCC(=O)[O-]
REMARK SMILES IDX 4 1 2 2 1 3 3 4 5 5 6 6 7 7 8 8
REMARK H PARENT
REMARK Flexibility Score: inf
ROOT
ATOM      1  C   UNL     1      22.692  10.279   2.460  1.00  0.00     0.059 C 
ENDROOT
BRANCH   1   2
ATOM      2  C   UNL     1      24.076   9.786   2.169  1.00  0.00     0.042 C 
ATOM      3  O   UNL     1      24.602  10.000   1.046  1.00  0.00    -0.550 OA
ATOM      4  O   UNL     1      24.801   9.124   3.154  1.00  0.00    -0.550 OA
ENDBRANCH   1   2
BRANCH   1   5
ATOM      5  C   UNL     1      22.051   9.513   3.622  1.00  0.00     0.059 C 
BRANCH   5   6
ATOM      6  C   UNL     1      20.631   9.140   3.320  1.00  0.00     0.042 C 
ATOM      7  O   UNL     1      19.991   8.396   4.108  1.00  0.00    -0.550 OA
ATOM      8  O   UNL     1      20.004   9.646   2.188  1.00  0.00    -0.550 OA
ENDBRANCH   5   6
ENDBRANCH   1   5
TORSDOF 3
ENDMDL
MODEL 4
REMARK VINA RESULT:    -3.103      1.538      2.080
REMARK INTER + INTRA:          -3.770
REMARK INTER:                  -3.739
REMARK INTRA:                  -0.032
REMARK UNBOUND:                -0.123
REMARK SMILES O=C([O-])CCC(=O)[O-]
REMARK SMILES IDX 4 1 2 2 1 3 3 4 5 5 6 6 7 7 8 8
REMARK H PARENT
REMARK Flexibility Score: inf
ROOT
ATOM      1  C   UNL     1      10.247   6.115  -7.033  1.00  0.00     0.059 C 
ENDROOT
BRANCH   1   2
ATOM      2  C   UNL     1      10.835   4.778  -6.699  1.00  0.00     0.042 C 
ATOM      3  O   UNL     1      11.607   4.204  -7.511  1.00  0.00    -0.550 OA
ATOM      4  O   UNL     1      10.564   4.186  -5.471  1.00  0.00    -0.550 OA
ENDBRANCH   1   2
BRANCH   1   5
ATOM      5  C   UNL     1      11.105   7.263  -6.491  1.00  0.00     0.059 C 
BRANCH   5   6
ATOM      6  C   UNL     1      11.040   8.467  -7.380  1.00  0.00     0.042 C 
ATOM      7  O   UNL     1      12.048   9.207  -7.519  1.00  0.00    -0.550 OA
ATOM      8  O   UNL     1       9.877   8.749  -8.087  1.00  0.00    -0.550 OA
ENDBRANCH   5   6
ENDBRANCH   1   5
TORSDOF 3
ENDMDL
MODEL 5
REMARK VINA RESULT:    -3.084     14.111     14.963
REMARK INTER + INTRA:          -3.748
REMARK INTER:                  -3.716
REMARK INTRA:                  -0.032
REMARK UNBOUND:                -0.123
REMARK SMILES O=C([O-])CCC(=O)[O-]
REMARK SMILES IDX 4 1 2 2 1 3 3 4 5 5 6 6 7 7 8 8
REMARK H PARENT
REMARK Flexibility Score: inf
ROOT
ATOM      1  C   UNL     1      21.649   9.120   2.995  1.00  0.00     0.059 C 
ENDROOT
BRANCH   1   2
ATOM      2  C   UNL     1      20.190   9.459   2.960  1.00  0.00     0.042 C 
ATOM      3  O   UNL     1      19.390   8.896   3.752  1.00  0.00    -0.550 OA
ATOM      4  O   UNL     1      19.721  10.427   2.080  1.00  0.00    -0.550 OA
ENDBRANCH   1   2
BRANCH   1   5
ATOM      5  C   UNL     1      22.513  10.288   2.507  1.00  0.00     0.059 C 
BRANCH   5   6
ATOM      6  C   UNL     1      23.912   9.848   2.201  1.00  0.00     0.042 C 
ATOM      7  O   UNL     1      24.583   9.224   3.064  1.00  0.00    -0.550 OA
ATOM      8  O   UNL     1      24.460  10.092   0.947  1.00  0.00    -0.550 OA
ENDBRANCH   5   6
ENDBRANCH   1   5
TORSDOF 3
ENDMDL
MODEL 6
REMARK VINA RESULT:    -3.046      0.629      3.372
REMARK INTER + INTRA:          -3.704
REMARK INTER:                  -3.565
REMARK INTRA:                  -0.139
REMARK UNBOUND:                -0.123
REMARK SMILES O=C([O-])CCC(=O)[O-]
REMARK SMILES IDX 4 1 2 2 1 3 3 4 5 5 6 6 7 7 8 8
REMARK H PARENT
REMARK Flexibility Score: inf
ROOT
ATOM      1  C   UNL     1      10.001   6.563  -7.449  1.00  0.00     0.059 C 
ENDROOT
BRANCH   1   2
ATOM      2  C   UNL     1      10.648   7.684  -6.695  1.00  0.00     0.042 C 
ATOM      3  O   UNL     1      10.488   7.786  -5.451  1.00  0.00    -0.550 OA
ATOM      4  O   UNL     1      11.460   8.594  -7.362  1.00  0.00    -0.550 OA
ENDBRANCH   1   2
BRANCH   1   5
ATOM      5  C   UNL     1       9.951   5.277  -6.618  1.00  0.00     0.059 C 
BRANCH   5   6
ATOM      6  C   UNL     1      11.284   4.593  -6.580  1.00  0.00     0.042 C 
ATOM      7  O   UNL     1      11.741   4.038  -7.613  1.00  0.00    -0.550 OA
ATOM      8  O   UNL     1      12.039   4.604  -5.413  1.00  0.00    -0.550 OA
ENDBRANCH   5   6
ENDBRANCH   1   5
TORSDOF 3
ENDMDL
MODEL 7
REMARK VINA RESULT:    -3.044     14.818     15.575
REMARK INTER + INTRA:          -3.701
REMARK INTER:                  -3.577
REMARK INTRA:                  -0.124
REMARK UNBOUND:                -0.123
REMARK SMILES O=C([O-])CCC(=O)[O-]
REMARK SMILES IDX 4 1 2 2 1 3 3 4 5 5 6 6 7 7 8 8
REMARK H PARENT
REMARK Flexibility Score: inf
ROOT
ATOM      1  C   UNL     1      24.199   9.507   2.276  1.00  0.00     0.059 C 
ENDROOT
BRANCH   1   2
ATOM      2  C   UNL     1      24.496  10.496   1.190  1.00  0.00     0.042 C 
ATOM      3  O   UNL     1      24.940  10.103   0.080  1.00  0.00    -0.550 OA
ATOM      4  O   UNL     1      24.242  11.847   1.392  1.00  0.00    -0.550 OA
ENDBRANCH   1   2
BRANCH   1   5
ATOM      5  C   UNL     1      23.249  10.089   3.328  1.00  0.00     0.059 C 
BRANCH   5   6
ATOM      6  C   UNL     1      21.821   9.749   3.029  1.00  0.00     0.042 C 
ATOM      7  O   UNL     1      21.269   8.773   3.602  1.00  0.00    -0.550 OA
ATOM      8  O   UNL     1      21.088  10.534   2.148  1.00  0.00    -0.550 OA
ENDBRANCH   5   6
ENDBRANCH   1   5
TORSDOF 3
ENDMDL
MODEL 8
REMARK VINA RESULT:    -2.943      1.301      1.853
REMARK INTER + INTRA:          -3.583
REMARK INTER:                  -3.464
REMARK INTRA:                  -0.119
REMARK UNBOUND:                -0.123
REMARK SMILES O=C([O-])CCC(=O)[O-]
REMARK SMILES IDX 4 1 2 2 1 3 3 4 5 5 6 6 7 7 8 8
REMARK H PARENT
REMARK Flexibility Score: inf
ROOT
ATOM      1  C   UNL     1      10.202   5.993  -7.071  1.00  0.00     0.059 C 
ENDROOT
BRANCH   1   2
ATOM      2  C   UNL     1      10.828   4.684  -6.697  1.00  0.00     0.042 C 
ATOM      3  O   UNL     1      11.680   4.151  -7.454  1.00  0.00    -0.550 OA
ATOM      4  O   UNL     1      10.499   4.075  -5.492  1.00  0.00    -0.550 OA
ENDBRANCH   1   2
BRANCH   1   5
ATOM      5  C   UNL     1      11.100   7.177  -6.697  1.00  0.00     0.059 C 
BRANCH   5   6
ATOM      6  C   UNL     1      10.628   7.855  -5.447  1.00  0.00     0.042 C 
ATOM      7  O   UNL     1      10.085   8.989  -5.509  1.00  0.00    -0.550 OA
ATOM      8  O   UNL     1      10.751   7.217  -4.219  1.00  0.00    -0.550 OA
ENDBRANCH   5   6
ENDBRANCH   1   5
TORSDOF 3
ENDMDL
MODEL 9
REMARK VINA RESULT:    -2.867      2.584      4.691
REMARK INTER + INTRA:          -3.494
REMARK INTER:                  -3.462
REMARK INTRA:                  -0.032
REMARK UNBOUND:                -0.123
REMARK SMILES O=C([O-])CCC(=O)[O-]
REMARK SMILES IDX 4 1 2 2 1 3 3 4 5 5 6 6 7 7 8 8
REMARK H PARENT
REMARK Flexibility Score: inf
ROOT
ATOM      1  C   UNL     1      11.623   9.408  -7.382  1.00  0.00     0.059 C 
ENDROOT
BRANCH   1   2
ATOM      2  C   UNL     1      11.835  10.239  -8.611  1.00  0.00     0.042 C 
ATOM      3  O   UNL     1      12.999  10.569  -8.958  1.00  0.00    -0.550 OA
ATOM      4  O   UNL     1      10.750  10.612  -9.394  1.00  0.00    -0.550 OA
ENDBRANCH   1   2
BRANCH   1   5
ATOM      5  C   UNL     1      10.400   8.496  -7.520  1.00  0.00     0.059 C 
BRANCH   5   6
ATOM      6  C   UNL     1      10.645   7.148  -6.913  1.00  0.00     0.042 C 
ATOM      7  O   UNL     1      10.254   6.107  -7.502  1.00  0.00    -0.550 OA
ATOM      8  O   UNL     1      11.342   7.040  -5.715  1.00  0.00    -0.550 OA
ENDBRANCH   5   6
ENDBRANCH   1   5
TORSDOF 3
ENDMDL
