MODEL 1
REMARK VINA RESULT:    -5.733      0.000      0.000
REMARK INTER + INTRA:          -7.805
REMARK INTER:                  -7.409
REMARK INTRA:                  -0.395
REMARK UNBOUND:                -0.395
REMARK SMILES CCO[C@H]1O[C@H](CO)[C@@H](O)[C@H](O)[C@H]1O
REMARK SMILES IDX 4 1 13 2 11 3 9 4 6 5 5 6 3 7 2 8 1 9 14 10 12 12 7 14 8 15
REMARK SMILES IDX 10 17
REMARK H PARENT 14 11 12 13 8 16 10 18
REMARK Flexibility Score: inf
ROOT
ATOM      1  C   UNL     1      21.512  -5.027  17.188  1.00  0.00     0.281 C 
ATOM      2  C   UNL     1      21.385  -6.551  17.017  1.00  0.00     0.202 C 
ATOM      3  C   UNL     1      20.653  -6.883  15.707  1.00  0.00     0.179 C 
ATOM      4  C   UNL     1      19.331  -6.097  15.630  1.00  0.00     0.177 C 
ATOM      5  C   UNL     1      19.598  -4.595  15.889  1.00  0.00     0.178 C 
ATOM      6  O   UNL     1      20.233  -4.409  17.145  1.00  0.00    -0.341 OA
ENDROOT
BRANCH   1   7
ATOM      7  O   UNL     1      22.383  -4.491  16.203  1.00  0.00    -0.350 OA
BRANCH   7   8
ATOM      8  C   UNL     1      23.367  -3.661  16.790  1.00  0.00     0.160 C 
ATOM      9  C   UNL     1      24.761  -4.188  16.471  1.00  0.00     0.035 C 
ENDBRANCH   7   8
ENDBRANCH   1   7
BRANCH   2  10
ATOM     10  O   UNL     1      22.666  -7.128  17.018  1.00  0.00    -0.385 OA
ATOM     11  H   UNL     1      23.012  -7.061  17.945  1.00  0.00     0.211 HD
ENDBRANCH   2  10
BRANCH   3  12
ATOM     12  O   UNL     1      20.392  -8.263  15.662  1.00  0.00    -0.387 OA
ATOM     13  H   UNL     1      20.744  -8.652  16.505  1.00  0.00     0.211 HD
ENDBRANCH   3  12
BRANCH   5  14
ATOM     14  C   UNL     1      18.289  -3.787  15.904  1.00  0.00     0.191 C 
BRANCH  14  15
ATOM     15  O   UNL     1      17.676  -3.784  14.643  1.00  0.00    -0.394 OA
ATOM     16  H   UNL     1      17.207  -2.914  14.556  1.00  0.00     0.210 HD
ENDBRANCH  14  15
ENDBRANCH   5  14
BRANCH   4  17
ATOM     17  O   UNL     1      18.761  -6.266  14.357  1.00  0.00    -0.387 OA
ATOM     18  H   UNL     1      18.379  -5.390  14.091  1.00  0.00     0.211 HD
ENDBRANCH   4  17
TORSDOF 7
ENDMDL
MODEL 2
REMARK VINA RESULT:    -5.392      2.124      4.722
REMARK INTER + INTRA:          -7.364
REMARK INTER:                  -7.066
REMARK INTRA:                  -0.298
REMARK UNBOUND:                -0.395
REMARK SMILES CCO[C@H]1O[C@H](CO)[C@@H](O)[C@H](O)[C@H]1O
REMARK SMILES IDX 4 1 13 2 11 3 9 4 6 5 5 6 3 7 2 8 1 9 14 10 12 12 7 14 8 15
REMARK SMILES IDX 10 17
REMARK H PARENT 14 11 12 13 8 16 10 18
REMARK Flexibility Score: inf
ROOT
ATOM      1  C   UNL     1      21.275  -4.031  15.890  1.00  0.00     0.281 C 
ATOM      2  C   UNL     1      21.796  -4.678  14.595  1.00  0.00     0.202 C 
ATOM      3  C   UNL     1      23.092  -5.457  14.871  1.00  0.00     0.179 C 
ATOM      4  C   UNL     1      24.099  -4.558  15.612  1.00  0.00     0.177 C 
ATOM      5  C   UNL     1      23.421  -3.921  16.849  1.00  0.00     0.178 C 
ATOM      6  O   UNL     1      22.266  -3.190  16.465  1.00  0.00    -0.341 OA
ENDROOT
BRANCH   1   7
ATOM      7  O   UNL     1      20.845  -5.031  16.803  1.00  0.00    -0.350 OA
BRANCH   7   8
ATOM      8  C   UNL     1      19.507  -4.811  17.207  1.00  0.00     0.160 C 
ATOM      9  C   UNL     1      18.897  -3.665  16.408  1.00  0.00     0.035 C 
ENDBRANCH   7   8
ENDBRANCH   1   7
BRANCH   2  10
ATOM     10  O   UNL     1      20.814  -5.537  14.075  1.00  0.00    -0.385 OA
ATOM     11  H   UNL     1      21.271  -6.146  13.439  1.00  0.00     0.211 HD
ENDBRANCH   2  10
BRANCH   3  12
ATOM     12  O   UNL     1      23.641  -5.885  13.650  1.00  0.00    -0.387 OA
ATOM     13  H   UNL     1      23.607  -5.111  13.030  1.00  0.00     0.211 HD
ENDBRANCH   3  12
BRANCH   5  14
ATOM     14  C   UNL     1      24.370  -2.948  17.569  1.00  0.00     0.191 C 
BRANCH  14  15
ATOM     15  O   UNL     1      24.957  -3.545  18.694  1.00  0.00    -0.394 OA
ATOM     16  H   UNL     1      25.057  -2.831  19.376  1.00  0.00     0.210 HD
ENDBRANCH  14  15
ENDBRANCH   5  14
BRANCH   4  17
ATOM     17  O   UNL     1      25.202  -5.328  16.018  1.00  0.00    -0.387 OA
ATOM     18  H   UNL     1      25.883  -5.263  15.299  1.00  0.00     0.211 HD
ENDBRANCH   4  17
TORSDOF 7
ENDMDL
MODEL 3
REMARK VINA RESULT:    -5.207      1.711      3.282
REMARK INTER + INTRA:          -7.124
REMARK INTER:                  -6.817
REMARK INTRA:                  -0.307
REMARK UNBOUND:                -0.395
REMARK SMILES CCO[C@H]1O[C@H](CO)[C@@H](O)[C@H](O)[C@H]1O
REMARK SMILES IDX 4 1 13 2 11 3 9 4 6 5 5 6 3 7 2 8 1 9 14 10 12 12 7 14 8 15
REMARK SMILES IDX 10 17
REMARK H PARENT 14 11 12 13 8 16 10 18
REMARK Flexibility Score: inf
ROOT
ATOM      1  C   UNL     1      21.687  -4.520  15.130  1.00  0.00     0.281 C 
ATOM      2  C   UNL     1      20.547  -3.644  15.675  1.00  0.00     0.202 C 
ATOM      3  C   UNL     1      19.897  -4.310  16.898  1.00  0.00     0.179 C 
ATOM      4  C   UNL     1      19.511  -5.763  16.562  1.00  0.00     0.177 C 
ATOM      5  C   UNL     1      20.730  -6.503  15.961  1.00  0.00     0.178 C 
ATOM      6  O   UNL     1      21.213  -5.822  14.813  1.00  0.00    -0.341 OA
ENDROOT
BRANCH   1   7
ATOM      7  O   UNL     1      22.759  -4.569  16.061  1.00  0.00    -0.350 OA
BRANCH   7   8
ATOM      8  C   UNL     1      23.942  -5.052  15.451  1.00  0.00     0.160 C 
ATOM      9  C   UNL     1      25.168  -4.491  16.161  1.00  0.00     0.035 C 
ENDBRANCH   7   8
ENDBRANCH   1   7
BRANCH   2  10
ATOM     10  O   UNL     1      21.055  -2.381  16.022  1.00  0.00    -0.385 OA
ATOM     11  H   UNL     1      20.371  -1.713  15.757  1.00  0.00     0.211 HD
ENDBRANCH   2  10
BRANCH   3  12
ATOM     12  O   UNL     1      18.751  -3.584  17.264  1.00  0.00    -0.387 OA
ATOM     13  H   UNL     1      18.962  -2.624  17.130  1.00  0.00     0.211 HD
ENDBRANCH   3  12
BRANCH   5  14
ATOM     14  C   UNL     1      20.362  -7.934  15.534  1.00  0.00     0.191 C 
BRANCH  14  15
ATOM     15  O   UNL     1      18.972  -8.126  15.535  1.00  0.00    -0.394 OA
ATOM     16  H   UNL     1      18.818  -9.092  15.372  1.00  0.00     0.210 HD
ENDBRANCH  14  15
ENDBRANCH   5  14
BRANCH   4  17
ATOM     17  O   UNL     1      19.088  -6.416  17.733  1.00  0.00    -0.387 OA
ATOM     18  H   UNL     1      19.179  -7.390  17.571  1.00  0.00     0.211 HD
ENDBRANCH   4  17
TORSDOF 7
ENDMDL
MODEL 4
REMARK VINA RESULT:    -5.119      2.418      3.639
REMARK INTER + INTRA:          -7.010
REMARK INTER:                  -6.817
REMARK INTRA:                  -0.193
REMARK UNBOUND:                -0.395
REMARK SMILES CCO[C@H]1O[C@H](CO)[C@@H](O)[C@H](O)[C@H]1O
REMARK SMILES IDX 4 1 13 2 11 3 9 4 6 5 5 6 3 7 2 8 1 9 14 10 12 12 7 14 8 15
REMARK SMILES IDX 10 17
REMARK H PARENT 14 11 12 13 8 16 10 18
REMARK Flexibility Score: inf
ROOT
ATOM      1  C   UNL     1      24.642  -4.416  16.779  1.00  0.00     0.281 C 
ATOM      2  C   UNL     1      25.004  -5.350  15.612  1.00  0.00     0.202 C 
ATOM      3  C   UNL     1      24.008  -5.170  14.454  1.00  0.00     0.179 C 
ATOM      4  C   UNL     1      22.566  -5.294  14.978  1.00  0.00     0.177 C 
ATOM      5  C   UNL     1      22.365  -4.353  16.190  1.00  0.00     0.178 C 
ATOM      6  O   UNL     1      23.307  -4.644  17.211  1.00  0.00    -0.341 OA
ENDROOT
BRANCH   1   7
ATOM      7  O   UNL     1      24.844  -3.060  16.407  1.00  0.00    -0.350 OA
BRANCH   7   8
ATOM      8  C   UNL     1      25.497  -2.341  17.436  1.00  0.00     0.160 C 
ATOM      9  C   UNL     1      25.132  -0.863  17.360  1.00  0.00     0.035 C 
ENDBRANCH   7   8
ENDBRANCH   1   7
BRANCH   2  10
ATOM     10  O   UNL     1      26.310  -5.069  15.178  1.00  0.00    -0.385 OA
ATOM     11  H   UNL     1      26.285  -4.176  14.749  1.00  0.00     0.211 HD
ENDBRANCH   2  10
BRANCH   3  12
ATOM     12  O   UNL     1      24.251  -6.153  13.481  1.00  0.00    -0.387 OA
ATOM     13  H   UNL     1      23.619  -6.898  13.658  1.00  0.00     0.211 HD
ENDBRANCH   3  12
BRANCH   5  14
ATOM     14  C   UNL     1      20.959  -4.511  16.795  1.00  0.00     0.191 C 
BRANCH  14  15
ATOM     15  O   UNL     1      20.928  -5.532  17.755  1.00  0.00    -0.394 OA
ATOM     16  H   UNL     1      20.928  -5.089  18.643  1.00  0.00     0.210 HD
ENDBRANCH  14  15
ENDBRANCH   5  14
BRANCH   4  17
ATOM     17  O   UNL     1      21.667  -4.949  13.954  1.00  0.00    -0.387 OA
ATOM     18  H   UNL     1      21.858  -5.547  13.185  1.00  0.00     0.211 HD
ENDBRANCH   4  17
TORSDOF 7
ENDMDL
MODEL 5
REMARK VINA RESULT:    -5.114      1.895      4.685
REMARK INTER + INTRA:          -7.005
REMARK INTER:                  -6.989
REMARK INTRA:                  -0.016
REMARK UNBOUND:                -0.395
REMARK SMILES CCO[C@H]1O[C@H](CO)[C@@H](O)[C@H](O)[C@H]1O
REMARK SMILES IDX 4 1 13 2 11 3 9 4 6 5 5 6 3 7 2 8 1 9 14 10 12 12 7 14 8 15
REMARK SMILES IDX 10 17
REMARK H PARENT 14 11 12 13 8 16 10 18
REMARK Flexibility Score: inf
ROOT
ATOM      1  C   UNL     1      19.590  -5.301  16.626  1.00  0.00     0.281 C 
ATOM      2  C   UNL     1      19.501  -4.248  15.508  1.00  0.00     0.202 C 
ATOM      3  C   UNL     1      20.471  -4.596  14.368  1.00  0.00     0.179 C 
ATOM      4  C   UNL     1      21.882  -4.841  14.933  1.00  0.00     0.177 C 
ATOM      5  C   UNL     1      21.811  -5.865  16.092  1.00  0.00     0.178 C 
ATOM      6  O   UNL     1      20.924  -5.415  17.104  1.00  0.00    -0.341 OA
ENDROOT
BRANCH   1   7
ATOM      7  O   UNL     1      19.092  -6.550  16.169  1.00  0.00    -0.350 OA
BRANCH   7   8
ATOM      8  C   UNL     1      19.063  -7.501  17.216  1.00  0.00     0.160 C 
ATOM      9  C   UNL     1      18.336  -8.761  16.763  1.00  0.00     0.035 C 
ENDBRANCH   7   8
ENDBRANCH   1   7
BRANCH   2  10
ATOM     10  O   UNL     1      18.183  -4.191  15.026  1.00  0.00    -0.385 OA
ATOM     11  H   UNL     1      18.172  -3.519  14.296  1.00  0.00     0.211 HD
ENDBRANCH   2  10
BRANCH   3  12
ATOM     12  O   UNL     1      20.502  -3.533  13.449  1.00  0.00    -0.387 OA
ATOM     13  H   UNL     1      19.787  -2.899  13.715  1.00  0.00     0.211 HD
ENDBRANCH   3  12
BRANCH   5  14
ATOM     14  C   UNL     1      23.191  -6.074  16.740  1.00  0.00     0.191 C 
BRANCH  14  15
ATOM     15  O   UNL     1      23.223  -7.249  17.505  1.00  0.00    -0.394 OA
ATOM     16  H   UNL     1      24.134  -7.629  17.405  1.00  0.00     0.210 HD
ENDBRANCH  14  15
ENDBRANCH   5  14
BRANCH   4  17
ATOM     17  O   UNL     1      22.714  -5.334  13.914  1.00  0.00    -0.387 OA
ATOM     18  H   UNL     1      23.356  -5.960  14.339  1.00  0.00     0.211 HD
ENDBRANCH   4  17
TORSDOF 7
ENDMDL
MODEL 6
REMARK VINA RESULT:    -4.991      1.675      4.187
REMARK INTER + INTRA:          -6.845
REMARK INTER:                  -6.431
REMARK INTRA:                  -0.414
REMARK UNBOUND:                -0.395
REMARK SMILES CCO[C@H]1O[C@H](CO)[C@@H](O)[C@H](O)[C@H]1O
REMARK SMILES IDX 4 1 13 2 11 3 9 4 6 5 5 6 3 7 2 8 1 9 14 10 12 12 7 14 8 15
REMARK SMILES IDX 10 17
REMARK H PARENT 14 11 12 13 8 16 10 18
REMARK Flexibility Score: inf
ROOT
ATOM      1  C   UNL     1      19.438  -6.453  14.881  1.00  0.00     0.281 C 
ATOM      2  C   UNL     1      20.740  -7.117  15.363  1.00  0.00     0.202 C 
ATOM      3  C   UNL     1      21.135  -6.576  16.747  1.00  0.00     0.179 C 
ATOM      4  C   UNL     1      21.147  -5.037  16.726  1.00  0.00     0.177 C 
ATOM      5  C   UNL     1      19.808  -4.510  16.156  1.00  0.00     0.178 C 
ATOM      6  O   UNL     1      19.574  -5.038  14.859  1.00  0.00    -0.341 OA
ENDROOT
BRANCH   1   7
ATOM      7  O   UNL     1      18.347  -6.859  15.694  1.00  0.00    -0.350 OA
BRANCH   7   8
ATOM      8  C   UNL     1      17.307  -7.415  14.911  1.00  0.00     0.160 C 
ATOM      9  C   UNL     1      17.071  -8.868  15.305  1.00  0.00     0.035 C 
ENDBRANCH   7   8
ENDBRANCH   1   7
BRANCH   2  10
ATOM     10  O   UNL     1      20.560  -8.509  15.418  1.00  0.00    -0.385 OA
ATOM     11  H   UNL     1      21.444  -8.906  15.630  1.00  0.00     0.211 HD
ENDBRANCH   2  10
BRANCH   3  12
ATOM     12  O   UNL     1      22.410  -7.060  17.083  1.00  0.00    -0.387 OA
ATOM     13  H   UNL     1      22.968  -7.000  16.265  1.00  0.00     0.211 HD
ENDBRANCH   3  12
BRANCH   5  14
ATOM     14  C   UNL     1      19.814  -2.976  16.040  1.00  0.00     0.191 C 
BRANCH  14  15
ATOM     15  O   UNL     1      21.118  -2.464  16.099  1.00  0.00    -0.394 OA
ATOM     16  H   UNL     1      21.336  -2.131  15.190  1.00  0.00     0.210 HD
ENDBRANCH  14  15
ENDBRANCH   5  14
BRANCH   4  17
ATOM     17  O   UNL     1      21.330  -4.554  18.033  1.00  0.00    -0.387 OA
ATOM     18  H   UNL     1      22.273  -4.738  18.282  1.00  0.00     0.211 HD
ENDBRANCH   4  17
TORSDOF 7
ENDMDL
MODEL 7
REMARK VINA RESULT:    -4.962      6.340      8.887
REMARK INTER + INTRA:          -6.808
REMARK INTER:                  -6.339
REMARK INTRA:                  -0.470
REMARK UNBOUND:                -0.395
REMARK SMILES CCO[C@H]1O[C@H](CO)[C@@H](O)[C@H](O)[C@H]1O
REMARK SMILES IDX 4 1 13 2 11 3 9 4 6 5 5 6 3 7 2 8 1 9 14 10 12 12 7 14 8 15
REMARK SMILES IDX 10 17
REMARK H PARENT 14 11 12 13 8 16 10 18
REMARK Flexibility Score: inf
ROOT
ATOM      1  C   UNL     1      13.213  -8.271  14.462  1.00  0.00     0.281 C 
ATOM      2  C   UNL     1      14.474  -7.401  14.316  1.00  0.00     0.202 C 
ATOM      3  C   UNL     1      15.678  -8.268  13.916  1.00  0.00     0.179 C 
ATOM      4  C   UNL     1      15.808  -9.464  14.877  1.00  0.00     0.177 C 
ATOM      5  C   UNL     1      14.452 -10.204  14.979  1.00  0.00     0.178 C 
ATOM      6  O   UNL     1      13.429  -9.315  15.402  1.00  0.00    -0.341 OA
ENDROOT
BRANCH   1   7
ATOM      7  O   UNL     1      12.818  -8.783  13.197  1.00  0.00    -0.350 OA
BRANCH   7   8
ATOM      8  C   UNL     1      11.409  -8.860  13.096  1.00  0.00     0.160 C 
ATOM      9  C   UNL     1      10.806  -7.461  13.056  1.00  0.00     0.035 C 
ENDBRANCH   7   8
ENDBRANCH   1   7
BRANCH   2  10
ATOM     10  O   UNL     1      14.246  -6.409  13.349  1.00  0.00    -0.385 OA
ATOM     11  H   UNL     1      14.536  -5.547  13.746  1.00  0.00     0.211 HD
ENDBRANCH   2  10
BRANCH   3  12
ATOM     12  O   UNL     1      16.844  -7.486  13.965  1.00  0.00    -0.387 OA
ATOM     13  H   UNL     1      17.021  -7.171  13.041  1.00  0.00     0.211 HD
ENDBRANCH   3  12
BRANCH   5  14
ATOM     14  C   UNL     1      14.518 -11.356  15.996  1.00  0.00     0.191 C 
BRANCH  14  15
ATOM     15  O   UNL     1      15.545 -11.154  16.930  1.00  0.00    -0.394 OA
ATOM     16  H   UNL     1      16.110 -11.970  16.914  1.00  0.00     0.210 HD
ENDBRANCH  14  15
ENDBRANCH   5  14
BRANCH   4  17
ATOM     17  O   UNL     1      16.794 -10.343  14.396  1.00  0.00    -0.387 OA
ATOM     18  H   UNL     1      17.185 -10.801  15.185  1.00  0.00     0.211 HD
ENDBRANCH   4  17
TORSDOF 7
ENDMDL
MODEL 8
REMARK VINA RESULT:    -4.857      2.651      3.847
REMARK INTER + INTRA:          -6.673
REMARK INTER:                  -6.235
REMARK INTRA:                  -0.437
REMARK UNBOUND:                -0.395
REMARK SMILES CCO[C@H]1O[C@H](CO)[C@@H](O)[C@H](O)[C@H]1O
REMARK SMILES IDX 4 1 13 2 11 3 9 4 6 5 5 6 3 7 2 8 1 9 14 10 12 12 7 14 8 15
REMARK SMILES IDX 10 17
REMARK H PARENT 14 11 12 13 8 16 10 18
REMARK Flexibility Score: inf
ROOT
ATOM      1  C   UNL     1      24.229  -3.576  17.227  1.00  0.00     0.281 C 
ATOM      2  C   UNL     1      25.103  -4.823  17.002  1.00  0.00     0.202 C 
ATOM      3  C   UNL     1      24.969  -5.314  15.552  1.00  0.00     0.179 C 
ATOM      4  C   UNL     1      23.482  -5.475  15.186  1.00  0.00     0.177 C 
ATOM      5  C   UNL     1      22.715  -4.175  15.529  1.00  0.00     0.178 C 
ATOM      6  O   UNL     1      22.873  -3.848  16.901  1.00  0.00    -0.341 OA
ENDROOT
BRANCH   1   7
ATOM      7  O   UNL     1      24.734  -2.478  16.482  1.00  0.00    -0.350 OA
BRANCH   7   8
ATOM      8  C   UNL     1      24.617  -1.271  17.210  1.00  0.00     0.160 C 
ATOM      9  C   UNL     1      25.758  -1.147  18.213  1.00  0.00     0.035 C 
ENDBRANCH   7   8
ENDBRANCH   1   7
BRANCH   2  10
ATOM     10  O   UNL     1      26.442  -4.511  17.288  1.00  0.00    -0.385 OA
ATOM     11  H   UNL     1      26.523  -4.466  18.276  1.00  0.00     0.211 HD
ENDBRANCH   2  10
BRANCH   3  12
ATOM     12  O   UNL     1      25.630  -6.547  15.421  1.00  0.00    -0.387 OA
ATOM     13  H   UNL     1      26.033  -6.565  14.514  1.00  0.00     0.211 HD
ENDBRANCH   3  12
BRANCH   5  14
ATOM     14  C   UNL     1      21.208  -4.326  15.256  1.00  0.00     0.191 C 
BRANCH  14  15
ATOM     15  O   UNL     1      20.938  -4.345  13.880  1.00  0.00    -0.394 OA
ATOM     16  H   UNL     1      21.085  -3.421  13.548  1.00  0.00     0.210 HD
ENDBRANCH  14  15
ENDBRANCH   5  14
BRANCH   4  17
ATOM     17  O   UNL     1      23.367  -5.747  13.812  1.00  0.00    -0.387 OA
ATOM     18  H   UNL     1      23.541  -4.896  13.332  1.00  0.00     0.211 HD
ENDBRANCH   4  17
TORSDOF 7
ENDMDL
MODEL 9
REMARK VINA RESULT:    -4.824      3.181      5.474
REMARK INTER + INTRA:          -6.629
REMARK INTER:                  -6.182
REMARK INTRA:                  -0.447
REMARK UNBOUND:                -0.395
REMARK SMILES CCO[C@H]1O[C@H](CO)[C@@H](O)[C@H](O)[C@H]1O
REMARK SMILES IDX 4 1 13 2 11 3 9 4 6 5 5 6 3 7 2 8 1 9 14 10 12 12 7 14 8 15
REMARK SMILES IDX 10 17
REMARK H PARENT 14 11 12 13 8 16 10 18
REMARK Flexibility Score: inf
ROOT
ATOM      1  C   UNL     1      25.486  -3.241  17.340  1.00  0.00     0.281 C 
ATOM      2  C   UNL     1      24.148  -2.897  16.664  1.00  0.00     0.202 C 
ATOM      3  C   UNL     1      23.140  -4.041  16.859  1.00  0.00     0.179 C 
ATOM      4  C   UNL     1      23.773  -5.378  16.431  1.00  0.00     0.177 C 
ATOM      5  C   UNL     1      25.140  -5.560  17.133  1.00  0.00     0.178 C 
ATOM      6  O   UNL     1      26.000  -4.469  16.841  1.00  0.00    -0.341 OA
ENDROOT
BRANCH   1   7
ATOM      7  O   UNL     1      25.330  -3.277  18.752  1.00  0.00    -0.350 OA
BRANCH   7   8
ATOM      8  C   UNL     1      26.468  -2.744  19.403  1.00  0.00     0.160 C 
ATOM      9  C   UNL     1      26.653  -1.279  19.027  1.00  0.00     0.035 C 
ENDBRANCH   7   8
ENDBRANCH   1   7
BRANCH   2  10
ATOM     10  O   UNL     1      23.643  -1.706  17.209  1.00  0.00    -0.385 OA
ATOM     11  H   UNL     1      24.164  -0.962  16.811  1.00  0.00     0.211 HD
ENDBRANCH   2  10
BRANCH   3  12
ATOM     12  O   UNL     1      21.996  -3.784  16.086  1.00  0.00    -0.387 OA
ATOM     13  H   UNL     1      21.683  -4.657  15.733  1.00  0.00     0.211 HD
ENDBRANCH   3  12
BRANCH   5  14
ATOM     14  C   UNL     1      25.843  -6.845  16.665  1.00  0.00     0.191 C 
BRANCH  14  15
ATOM     15  O   UNL     1      25.197  -7.989  17.157  1.00  0.00    -0.394 OA
ATOM     16  H   UNL     1      24.794  -7.736  18.028  1.00  0.00     0.210 HD
ENDBRANCH  14  15
ENDBRANCH   5  14
BRANCH   4  17
ATOM     17  O   UNL     1      22.914  -6.434  16.783  1.00  0.00    -0.387 OA
ATOM     18  H   UNL     1      22.199  -6.469  16.096  1.00  0.00     0.211 HD
ENDBRANCH   4  17
TORSDOF 7
ENDMDL
