MODEL 1
REMARK VINA RESULT:    -3.284      0.000      0.000
REMARK INTER + INTRA:          -3.978
REMARK INTER:                  -3.860
REMARK INTRA:                  -0.118
REMARK UNBOUND:                -0.118
REMARK SMILES O=C([O-])CCC(=O)[O-]
REMARK SMILES IDX 4 1 2 2 1 3 3 4 5 5 6 6 7 7 8 8
REMARK H PARENT
REMARK Flexibility Score: inf
ROOT
ATOM      1  C   UNL     1      -0.064   7.499  -8.948  1.00  0.00     0.059 C 
ENDROOT
BRANCH   1   2
ATOM      2  C   UNL     1       0.955   6.515  -8.463  1.00  0.00     0.042 C 
ATOM      3  O   UNL     1       0.743   5.844  -7.419  1.00  0.00    -0.550 OA
ATOM      4  O   UNL     1       2.123   6.308  -9.186  1.00  0.00    -0.550 OA
ENDBRANCH   1   2
BRANCH   1   5
ATOM      5  C   UNL     1      -0.584   8.381  -7.808  1.00  0.00     0.059 C 
BRANCH   5   6
ATOM      6  C   UNL     1       0.377   9.482  -7.479  1.00  0.00     0.042 C 
ATOM      7  O   UNL     1       0.405   9.973  -6.320  1.00  0.00    -0.550 OA
ATOM      8  O   UNL     1       1.212   9.995  -8.465  1.00  0.00    -0.550 OA
ENDBRANCH   5   6
ENDBRANCH   1   5
TORSDOF 3
ENDMDL
MODEL 2
REMARK VINA RESULT:    -3.266      0.132      3.358
REMARK INTER + INTRA:          -3.957
REMARK INTER:                  -3.837
REMARK INTRA:                  -0.120
REMARK UNBOUND:                -0.118
REMARK SMILES O=C([O-])CCC(=O)[O-]
REMARK SMILES IDX 4 1 2 2 1 3 3 4 5 5 6 6 7 7 8 8
REMARK H PARENT
REMARK Flexibility Score: inf
ROOT
ATOM      1  C   UNL     1      -0.659   8.343  -7.983  1.00  0.00     0.059 C 
ENDROOT
BRANCH   1   2
ATOM      2  C   UNL     1       0.294   9.432  -7.601  1.00  0.00     0.042 C 
ATOM      3  O   UNL     1       0.314   9.872  -6.421  1.00  0.00    -0.550 OA
ATOM      4  O   UNL     1       1.189   9.935  -8.537  1.00  0.00    -0.550 OA
ENDBRANCH   1   2
BRANCH   1   5
ATOM      5  C   UNL     1      -0.077   7.442  -9.078  1.00  0.00     0.059 C 
BRANCH   5   6
ATOM      6  C   UNL     1       0.919   6.471  -8.523  1.00  0.00     0.042 C 
ATOM      7  O   UNL     1       0.699   5.898  -7.422  1.00  0.00    -0.550 OA
ATOM      8  O   UNL     1       2.108   6.229  -9.199  1.00  0.00    -0.550 OA
ENDBRANCH   5   6
ENDBRANCH   1   5
TORSDOF 3
ENDMDL
MODEL 3
REMARK VINA RESULT:    -2.974     16.102     16.755
REMARK INTER + INTRA:          -3.614
REMARK INTER:                  -3.541
REMARK INTRA:                  -0.073
REMARK UNBOUND:                -0.118
REMARK SMILES O=C([O-])CCC(=O)[O-]
REMARK SMILES IDX 4 1 2 2 1 3 3 4 5 5 6 6 7 7 8 8
REMARK H PARENT
REMARK Flexibility Score: inf
ROOT
ATOM      1  C   UNL     1      -4.839  -6.591  -7.568  1.00  0.00     0.059 C 
ENDROOT
BRANCH   1   2
ATOM      2  C   UNL     1      -3.900  -7.695  -7.944  1.00  0.00     0.042 C 
ATOM      3  O   UNL     1      -3.497  -7.807  -9.132  1.00  0.00    -0.550 OA
ATOM      4  O   UNL     1      -3.437  -8.576  -6.975  1.00  0.00    -0.550 OA
ENDBRANCH   1   2
BRANCH   1   5
ATOM      5  C   UNL     1      -5.769  -7.006  -6.423  1.00  0.00     0.059 C 
BRANCH   5   6
ATOM      6  C   UNL     1      -7.203  -7.018  -6.853  1.00  0.00     0.042 C 
ATOM      7  O   UNL     1      -7.509  -7.351  -8.028  1.00  0.00    -0.550 OA
ATOM      8  O   UNL     1      -8.199  -6.620  -5.969  1.00  0.00    -0.550 OA
ENDBRANCH   5   6
ENDBRANCH   1   5
TORSDOF 3
ENDMDL
MODEL 4
REMARK VINA RESULT:    -2.968     16.095     16.888
REMARK INTER + INTRA:          -3.607
REMARK INTER:                  -3.535
REMARK INTRA:                  -0.072
REMARK UNBOUND:                -0.118
REMARK SMILES O=C([O-])CCC(=O)[O-]
REMARK SMILES IDX 4 1 2 2 1 3 3 4 5 5 6 6 7 7 8 8
REMARK H PARENT
REMARK Flexibility Score: inf
ROOT
ATOM      1  C   UNL     1      -5.778  -7.031  -6.383  1.00  0.00     0.059 C 
ENDROOT
BRANCH   1   2
ATOM      2  C   UNL     1      -7.210  -7.005  -6.817  1.00  0.00     0.042 C 
ATOM      3  O   UNL     1      -8.115  -6.693  -5.998  1.00  0.00    -0.550 OA
ATOM      4  O   UNL     1      -7.544  -7.285  -8.136  1.00  0.00    -0.550 OA
ENDBRANCH   1   2
BRANCH   1   5
ATOM      5  C   UNL     1      -4.839  -6.579  -7.508  1.00  0.00     0.059 C 
BRANCH   5   6
ATOM      6  C   UNL     1      -3.892  -7.668  -7.908  1.00  0.00     0.042 C 
ATOM      7  O   UNL     1      -3.539  -7.790  -9.111  1.00  0.00    -0.550 OA
ATOM      8  O   UNL     1      -3.432  -8.575  -6.960  1.00  0.00    -0.550 OA
ENDBRANCH   5   6
ENDBRANCH   1   5
TORSDOF 3
ENDMDL
MODEL 5
REMARK VINA RESULT:    -2.932     16.388     16.795
REMARK INTER + INTRA:          -3.565
REMARK INTER:                  -3.472
REMARK INTRA:                  -0.093
REMARK UNBOUND:                -0.118
REMARK SMILES O=C([O-])CCC(=O)[O-]
REMARK SMILES IDX 4 1 2 2 1 3 3 4 5 5 6 6 7 7 8 8
REMARK H PARENT
REMARK Flexibility Score: inf
ROOT
ATOM      1  C   UNL     1      -3.946  -7.162  -7.793  1.00  0.00     0.059 C 
ENDROOT
BRANCH   1   2
ATOM      2  C   UNL     1      -4.147  -7.783  -9.140  1.00  0.00     0.042 C 
ATOM      3  O   UNL     1      -3.210  -8.417  -9.693  1.00  0.00    -0.550 OA
ATOM      4  O   UNL     1      -5.383  -7.697  -9.770  1.00  0.00    -0.550 OA
ENDBRANCH   1   2
BRANCH   1   5
ATOM      5  C   UNL     1      -5.254  -6.589  -7.235  1.00  0.00     0.059 C 
BRANCH   5   6
ATOM      6  C   UNL     1      -5.826  -7.463  -6.162  1.00  0.00     0.042 C 
ATOM      7  O   UNL     1      -5.321  -8.593  -5.929  1.00  0.00    -0.550 OA
ATOM      8  O   UNL     1      -6.944  -7.049  -5.448  1.00  0.00    -0.550 OA
ENDBRANCH   5   6
ENDBRANCH   1   5
TORSDOF 3
ENDMDL
MODEL 6
REMARK VINA RESULT:    -2.922      1.668      2.198
REMARK INTER + INTRA:          -3.553
REMARK INTER:                  -3.413
REMARK INTRA:                  -0.140
REMARK UNBOUND:                -0.118
REMARK SMILES O=C([O-])CCC(=O)[O-]
REMARK SMILES IDX 4 1 2 2 1 3 3 4 5 5 6 6 7 7 8 8
REMARK H PARENT
REMARK Flexibility Score: inf
ROOT
ATOM      1  C   UNL     1       1.251   8.141  -8.909  1.00  0.00     0.059 C 
ENDROOT
BRANCH   1   2
ATOM      2  C   UNL     1       0.567   6.822  -8.733  1.00  0.00     0.042 C 
ATOM      3  O   UNL     1      -0.265   6.419  -9.589  1.00  0.00    -0.550 OA
ATOM      4  O   UNL     1       0.875   6.017  -7.643  1.00  0.00    -0.550 OA
ENDBRANCH   1   2
BRANCH   1   5
ATOM      5  C   UNL     1       0.691   9.201  -7.954  1.00  0.00     0.059 C 
BRANCH   5   6
ATOM      6  C   UNL     1      -0.746   9.505  -8.249  1.00  0.00     0.042 C 
ATOM      7  O   UNL     1      -1.075   9.996  -9.361  1.00  0.00    -0.550 OA
ATOM      8  O   UNL     1      -1.717   9.285  -7.279  1.00  0.00    -0.550 OA
ENDBRANCH   5   6
ENDBRANCH   1   5
TORSDOF 3
ENDMDL
MODEL 7
REMARK VINA RESULT:    -2.900     15.945     16.799
REMARK INTER + INTRA:          -3.527
REMARK INTER:                  -3.412
REMARK INTRA:                  -0.114
REMARK UNBOUND:                -0.118
REMARK SMILES O=C([O-])CCC(=O)[O-]
REMARK SMILES IDX 4 1 2 2 1 3 3 4 5 5 6 6 7 7 8 8
REMARK H PARENT
REMARK Flexibility Score: inf
ROOT
ATOM      1  C   UNL     1      -6.194  -7.195  -6.379  1.00  0.00     0.059 C 
ENDROOT
BRANCH   1   2
ATOM      2  C   UNL     1      -7.585  -6.919  -6.859  1.00  0.00     0.042 C 
ATOM      3  O   UNL     1      -7.906  -7.169  -8.051  1.00  0.00    -0.550 OA
ATOM      4  O   UNL     1      -8.539  -6.422  -5.980  1.00  0.00    -0.550 OA
ENDBRANCH   1   2
BRANCH   1   5
ATOM      5  C   UNL     1      -5.156  -6.372  -7.150  1.00  0.00     0.059 C 
BRANCH   5   6
ATOM      6  C   UNL     1      -4.368  -7.225  -8.097  1.00  0.00     0.042 C 
ATOM      7  O   UNL     1      -3.249  -7.686  -7.751  1.00  0.00    -0.550 OA
ATOM      8  O   UNL     1      -4.851  -7.474  -9.376  1.00  0.00    -0.550 OA
ENDBRANCH   5   6
ENDBRANCH   1   5
TORSDOF 3
ENDMDL
MODEL 8
REMARK VINA RESULT:    -2.897     16.051     16.689
REMARK INTER + INTRA:          -3.524
REMARK INTER:                  -3.409
REMARK INTRA:                  -0.114
REMARK UNBOUND:                -0.118
REMARK SMILES O=C([O-])CCC(=O)[O-]
REMARK SMILES IDX 4 1 2 2 1 3 3 4 5 5 6 6 7 7 8 8
REMARK H PARENT
REMARK Flexibility Score: inf
ROOT
ATOM      1  C   UNL     1      -5.208  -6.370  -7.123  1.00  0.00     0.059 C 
ENDROOT
BRANCH   1   2
ATOM      2  C   UNL     1      -4.374  -7.267  -7.983  1.00  0.00     0.042 C 
ATOM      3  O   UNL     1      -3.364  -7.847  -7.503  1.00  0.00    -0.550 OA
ATOM      4  O   UNL     1      -4.733  -7.496  -9.305  1.00  0.00    -0.550 OA
ENDBRANCH   1   2
BRANCH   1   5
ATOM      5  C   UNL     1      -6.254  -7.161  -6.329  1.00  0.00     0.059 C 
BRANCH   5   6
ATOM      6  C   UNL     1      -7.639  -6.914  -6.841  1.00  0.00     0.042 C 
ATOM      7  O   UNL     1      -7.920  -7.147  -8.047  1.00  0.00    -0.550 OA
ATOM      8  O   UNL     1      -8.610  -6.386  -5.998  1.00  0.00    -0.550 OA
ENDBRANCH   5   6
ENDBRANCH   1   5
TORSDOF 3
ENDMDL
MODEL 9
REMARK VINA RESULT:    -2.758     12.190     12.605
REMARK INTER + INTRA:          -3.360
REMARK INTER:                  -3.309
REMARK INTRA:                  -0.051
REMARK UNBOUND:                -0.118
REMARK SMILES O=C([O-])CCC(=O)[O-]
REMARK SMILES IDX 4 1 2 2 1 3 3 4 5 5 6 6 7 7 8 8
REMARK H PARENT
REMARK Flexibility Score: inf
ROOT
ATOM      1  C   UNL     1       8.948   5.270   0.497  1.00  0.00     0.059 C 
ENDROOT
BRANCH   1   2
ATOM      2  C   UNL     1       9.595   4.798  -0.768  1.00  0.00     0.042 C 
ATOM      3  O   UNL     1      10.124   5.625  -1.556  1.00  0.00    -0.550 OA
ATOM      4  O   UNL     1       9.648   3.441  -1.058  1.00  0.00    -0.550 OA
ENDBRANCH   1   2
BRANCH   1   5
ATOM      5  C   UNL     1       9.943   6.008   1.400  1.00  0.00     0.059 C 
BRANCH   5   6
ATOM      6  C   UNL     1       9.382   7.304   1.897  1.00  0.00     0.042 C 
ATOM      7  O   UNL     1       8.222   7.346   2.385  1.00  0.00    -0.550 OA
ATOM      8  O   UNL     1      10.124   8.474   1.783  1.00  0.00    -0.550 OA
ENDBRANCH   5   6
ENDBRANCH   1   5
TORSDOF 3
ENDMDL
