MODEL 1
REMARK VINA RESULT:    -5.756      0.000      0.000
REMARK INTER + INTRA:         -10.889
REMARK INTER:                 -10.131
REMARK INTRA:                  -0.759
REMARK UNBOUND:                -0.759
REMARK SMILES CCCCCCCCCCCCCCC(=O)[O-]
REMARK SMILES IDX 9 1 10 2 11 3 12 4 13 5 14 6 15 7 16 8 17 9 8 10 7 11 6 12
REMARK SMILES IDX 5 13 4 14 3 15 2 16 1 17
REMARK H PARENT
REMARK Flexibility Score: inf
ROOT
ATOM      1  C   UNL     1     -12.245  -0.099  -9.998  1.00  0.00     0.000 C 
ENDROOT
BRANCH   1   2
ATOM      2  C   UNL     1     -13.500  -0.886 -10.413  1.00  0.00     0.000 C 
BRANCH   2   3
ATOM      3  C   UNL     1     -14.742   0.010 -10.544  1.00  0.00     0.000 C 
BRANCH   3   4
ATOM      4  C   UNL     1     -14.976   0.886  -9.301  1.00  0.00     0.000 C 
BRANCH   4   5
ATOM      5  C   UNL     1     -14.842   2.387  -9.604  1.00  0.00     0.006 C 
BRANCH   5   6
ATOM      6  C   UNL     1     -14.248   3.174  -8.429  1.00  0.00     0.053 C 
BRANCH   6   7
ATOM      7  C   UNL     1     -12.822   3.532  -8.708  1.00  0.00     0.041 C 
ATOM      8  O   UNL     1     -12.398   3.564  -9.894  1.00  0.00    -0.550 OA
ATOM      9  O   UNL     1     -11.974   3.879  -7.665  1.00  0.00    -0.550 OA
ENDBRANCH   6   7
ENDBRANCH   5   6
ENDBRANCH   4   5
ENDBRANCH   3   4
ENDBRANCH   2   3
ENDBRANCH   1   2
BRANCH   1  10
ATOM     10  C   UNL     1     -10.955  -0.922 -10.144  1.00  0.00     0.000 C 
BRANCH  10  11
ATOM     11  C   UNL     1     -11.109  -2.360  -9.616  1.00  0.00    -0.000 C 
BRANCH  11  12
ATOM     12  C   UNL     1     -10.264  -2.620  -8.359  1.00  0.00    -0.000 C 
BRANCH  12  13
ATOM     13  C   UNL     1      -9.280  -3.787  -8.536  1.00  0.00    -0.000 C 
BRANCH  13  14
ATOM     14  C   UNL     1      -9.790  -5.046  -7.824  1.00  0.00    -0.000 C 
BRANCH  14  15
ATOM     15  C   UNL     1     -10.897  -4.702  -6.820  1.00  0.00    -0.000 C 
BRANCH  15  16
ATOM     16  C   UNL     1     -11.723  -5.944  -6.464  1.00  0.00    -0.003 C 
ATOM     17  C   UNL     1     -11.696  -6.212  -4.962  1.00  0.00     0.004 C 
ENDBRANCH  15  16
ENDBRANCH  14  15
ENDBRANCH  13  14
ENDBRANCH  12  13
ENDBRANCH  11  12
ENDBRANCH  10  11
ENDBRANCH   1  10
TORSDOF 13
ENDMDL
MODEL 2
REMARK VINA RESULT:    -5.701      3.837      7.798
REMARK INTER + INTRA:         -10.792
REMARK INTER:                  -9.939
REMARK INTRA:                  -0.853
REMARK UNBOUND:                -0.759
REMARK SMILES CCCCCCCCCCCCCCC(=O)[O-]
REMARK SMILES IDX 9 1 10 2 11 3 12 4 13 5 14 6 15 7 16 8 17 9 8 10 7 11 6 12
REMARK SMILES IDX 5 13 4 14 3 15 2 16 1 17
REMARK H PARENT
REMARK Flexibility Score: inf
ROOT
ATOM      1  C   UNL     1     -11.018  -1.359  -9.406  1.00  0.00     0.000 C 
ENDROOT
BRANCH   1   2
ATOM      2  C   UNL     1     -10.068  -2.341 -10.112  1.00  0.00     0.000 C 
BRANCH   2   3
ATOM      3  C   UNL     1     -10.221  -3.782  -9.600  1.00  0.00     0.000 C 
BRANCH   3   4
ATOM      4  C   UNL     1     -11.674  -4.129  -9.231  1.00  0.00     0.000 C 
BRANCH   4   5
ATOM      5  C   UNL     1     -11.765  -5.262  -8.196  1.00  0.00     0.006 C 
BRANCH   5   6
ATOM      6  C   UNL     1     -10.961  -4.965  -6.925  1.00  0.00     0.053 C 
BRANCH   6   7
ATOM      7  C   UNL     1     -10.998  -6.139  -5.997  1.00  0.00     0.041 C 
ATOM      8  O   UNL     1     -10.349  -7.183  -6.271  1.00  0.00    -0.550 OA
ATOM      9  O   UNL     1     -11.708  -6.062  -4.806  1.00  0.00    -0.550 OA
ENDBRANCH   6   7
ENDBRANCH   5   6
ENDBRANCH   4   5
ENDBRANCH   3   4
ENDBRANCH   2   3
ENDBRANCH   1   2
BRANCH   1  10
ATOM     10  C   UNL     1     -11.944  -0.623 -10.388  1.00  0.00     0.000 C 
BRANCH  10  11
ATOM     11  C   UNL     1     -13.390  -1.146 -10.341  1.00  0.00    -0.000 C 
BRANCH  11  12
ATOM     12  C   UNL     1     -14.426  -0.044 -10.618  1.00  0.00    -0.000 C 
BRANCH  12  13
ATOM     13  C   UNL     1     -14.771   0.775  -9.365  1.00  0.00    -0.000 C 
BRANCH  13  14
ATOM     14  C   UNL     1     -14.431   2.256  -9.567  1.00  0.00    -0.000 C 
BRANCH  14  15
ATOM     15  C   UNL     1     -12.933   2.512  -9.355  1.00  0.00    -0.000 C 
BRANCH  15  16
ATOM     16  C   UNL     1     -12.690   3.911  -8.777  1.00  0.00    -0.003 C 
ATOM     17  C   UNL     1     -13.594   4.177  -7.578  1.00  0.00     0.004 C 
ENDBRANCH  15  16
ENDBRANCH  14  15
ENDBRANCH  13  14
ENDBRANCH  12  13
ENDBRANCH  11  12
ENDBRANCH  10  11
ENDBRANCH   1  10
TORSDOF 13
ENDMDL
MODEL 3
REMARK VINA RESULT:    -5.699      3.738      7.950
REMARK INTER + INTRA:         -10.789
REMARK INTER:                  -9.975
REMARK INTRA:                  -0.814
REMARK UNBOUND:                -0.759
REMARK SMILES CCCCCCCCCCCCCCC(=O)[O-]
REMARK SMILES IDX 9 1 10 2 11 3 12 4 13 5 14 6 15 7 16 8 17 9 8 10 7 11 6 12
REMARK SMILES IDX 5 13 4 14 3 15 2 16 1 17
REMARK H PARENT
REMARK Flexibility Score: inf
ROOT
ATOM      1  C   UNL     1     -11.128  -2.401  -9.585  1.00  0.00     0.000 C 
ENDROOT
BRANCH   1   2
ATOM      2  C   UNL     1     -10.272  -2.594  -8.321  1.00  0.00     0.000 C 
BRANCH   2   3
ATOM      3  C   UNL     1      -9.310  -3.788  -8.437  1.00  0.00     0.000 C 
BRANCH   3   4
ATOM      4  C   UNL     1      -9.842  -5.049  -7.736  1.00  0.00     0.000 C 
BRANCH   4   5
ATOM      5  C   UNL     1     -10.915  -4.730  -6.683  1.00  0.00     0.006 C 
BRANCH   5   6
ATOM      6  C   UNL     1     -11.201  -5.917  -5.754  1.00  0.00     0.053 C 
BRANCH   6   7
ATOM      7  C   UNL     1     -12.521  -6.537  -6.090  1.00  0.00     0.041 C 
ATOM      8  O   UNL     1     -13.092  -7.296  -5.263  1.00  0.00    -0.550 OA
ATOM      9  O   UNL     1     -13.145  -6.237  -7.294  1.00  0.00    -0.550 OA
ENDBRANCH   6   7
ENDBRANCH   5   6
ENDBRANCH   4   5
ENDBRANCH   3   4
ENDBRANCH   2   3
ENDBRANCH   1   2
BRANCH   1  10
ATOM     10  C   UNL     1     -10.977  -0.997 -10.192  1.00  0.00     0.000 C 
BRANCH  10  11
ATOM     11  C   UNL     1     -12.257  -0.154 -10.055  1.00  0.00    -0.000 C 
BRANCH  11  12
ATOM     12  C   UNL     1     -13.519  -0.922 -10.484  1.00  0.00    -0.000 C 
BRANCH  12  13
ATOM     13  C   UNL     1     -14.759  -0.021 -10.577  1.00  0.00    -0.000 C 
BRANCH  13  14
ATOM     14  C   UNL     1     -14.882   0.873  -9.337  1.00  0.00    -0.000 C 
BRANCH  14  15
ATOM     15  C   UNL     1     -14.842   2.357  -9.721  1.00  0.00    -0.000 C 
BRANCH  15  16
ATOM     16  C   UNL     1     -14.119   3.183  -8.652  1.00  0.00    -0.003 C 
ATOM     17  C   UNL     1     -12.639   3.342  -8.985  1.00  0.00     0.004 C 
ENDBRANCH  15  16
ENDBRANCH  14  15
ENDBRANCH  13  14
ENDBRANCH  12  13
ENDBRANCH  11  12
ENDBRANCH  10  11
ENDBRANCH   1  10
TORSDOF 13
ENDMDL
MODEL 4
REMARK VINA RESULT:    -5.609      1.198      2.084
REMARK INTER + INTRA:         -10.631
REMARK INTER:                  -9.636
REMARK INTRA:                  -0.995
REMARK UNBOUND:                -0.759
REMARK SMILES CCCCCCCCCCCCCCC(=O)[O-]
REMARK SMILES IDX 9 1 10 2 11 3 12 4 13 5 14 6 15 7 16 8 17 9 8 10 7 11 6 12
REMARK SMILES IDX 5 13 4 14 3 15 2 16 1 17
REMARK H PARENT
REMARK Flexibility Score: inf
ROOT
ATOM      1  C   UNL     1     -11.405  -2.155  -9.628  1.00  0.00     0.000 C 
ENDROOT
BRANCH   1   2
ATOM      2  C   UNL     1     -11.346  -0.802 -10.359  1.00  0.00     0.000 C 
BRANCH   2   3
ATOM      3  C   UNL     1     -11.963   0.341  -9.536  1.00  0.00     0.000 C 
BRANCH   3   4
ATOM      4  C   UNL     1     -13.476   0.490  -9.769  1.00  0.00     0.000 C 
BRANCH   4   5
ATOM      5  C   UNL     1     -13.978   1.915  -9.487  1.00  0.00     0.006 C 
BRANCH   5   6
ATOM      6  C   UNL     1     -12.851   2.955  -9.523  1.00  0.00     0.053 C 
BRANCH   6   7
ATOM      7  C   UNL     1     -12.747   3.658  -8.207  1.00  0.00     0.041 C 
ATOM      8  O   UNL     1     -11.618   3.872  -7.691  1.00  0.00    -0.550 OA
ATOM      9  O   UNL     1     -13.892   4.122  -7.573  1.00  0.00    -0.550 OA
ENDBRANCH   6   7
ENDBRANCH   5   6
ENDBRANCH   4   5
ENDBRANCH   3   4
ENDBRANCH   2   3
ENDBRANCH   1   2
BRANCH   1  10
ATOM     10  C   UNL     1     -10.355  -2.269  -8.512  1.00  0.00     0.000 C 
BRANCH  10  11
ATOM     11  C   UNL     1     -10.254  -3.695  -7.940  1.00  0.00    -0.000 C 
BRANCH  11  12
ATOM     12  C   UNL     1      -9.986  -4.749  -9.028  1.00  0.00    -0.000 C 
BRANCH  12  13
ATOM     13  C   UNL     1     -10.806  -6.032  -8.825  1.00  0.00    -0.000 C 
BRANCH  13  14
ATOM     14  C   UNL     1     -12.215  -5.707  -8.312  1.00  0.00    -0.000 C 
BRANCH  14  15
ATOM     15  C   UNL     1     -12.735  -6.817  -7.389  1.00  0.00    -0.000 C 
BRANCH  15  16
ATOM     16  C   UNL     1     -11.774  -7.055  -6.219  1.00  0.00    -0.003 C 
ATOM     17  C   UNL     1     -11.770  -5.870  -5.258  1.00  0.00     0.004 C 
ENDBRANCH  15  16
ENDBRANCH  14  15
ENDBRANCH  13  14
ENDBRANCH  12  13
ENDBRANCH  11  12
ENDBRANCH  10  11
ENDBRANCH   1  10
TORSDOF 13
ENDMDL
MODEL 5
REMARK VINA RESULT:    -5.093      1.762      3.677
REMARK INTER + INTRA:          -9.721
REMARK INTER:                  -8.605
REMARK INTRA:                  -1.117
REMARK UNBOUND:                -0.759
REMARK SMILES CCCCCCCCCCCCCCC(=O)[O-]
REMARK SMILES IDX 9 1 10 2 11 3 12 4 13 5 14 6 15 7 16 8 17 9 8 10 7 11 6 12
REMARK SMILES IDX 5 13 4 14 3 15 2 16 1 17
REMARK H PARENT
REMARK Flexibility Score: inf
ROOT
ATOM      1  C   UNL     1     -10.852  -3.598  -7.875  1.00  0.00     0.000 C 
ENDROOT
BRANCH   1   2
ATOM      2  C   UNL     1     -10.310  -2.281  -8.456  1.00  0.00     0.000 C 
BRANCH   2   3
ATOM      3  C   UNL     1     -10.665  -2.101  -9.942  1.00  0.00     0.000 C 
BRANCH   3   4
ATOM      4  C   UNL     1     -11.006  -0.644 -10.297  1.00  0.00     0.000 C 
BRANCH   4   5
ATOM      5  C   UNL     1     -12.477  -0.297 -10.014  1.00  0.00     0.006 C 
BRANCH   5   6
ATOM      6  C   UNL     1     -12.654   1.134  -9.490  1.00  0.00     0.053 C 
BRANCH   6   7
ATOM      7  C   UNL     1     -14.094   1.538  -9.553  1.00  0.00     0.041 C 
ATOM      8  O   UNL     1     -14.937   0.791 -10.118  1.00  0.00    -0.550 OA
ATOM      9  O   UNL     1     -14.514   2.713  -8.946  1.00  0.00    -0.550 OA
ENDBRANCH   6   7
ENDBRANCH   5   6
ENDBRANCH   4   5
ENDBRANCH   3   4
ENDBRANCH   2   3
ENDBRANCH   1   2
BRANCH   1  10
ATOM     10  C   UNL     1      -9.848  -4.756  -7.997  1.00  0.00     0.000 C 
BRANCH  10  11
ATOM     11  C   UNL     1     -10.124  -5.650  -9.219  1.00  0.00    -0.000 C 
BRANCH  11  12
ATOM     12  C   UNL     1     -10.661  -7.036  -8.828  1.00  0.00    -0.000 C 
BRANCH  12  13
ATOM     13  C   UNL     1     -12.194  -7.073  -8.729  1.00  0.00    -0.000 C 
BRANCH  13  14
ATOM     14  C   UNL     1     -12.647  -7.971  -7.572  1.00  0.00    -0.000 C 
BRANCH  14  15
ATOM     15  C   UNL     1     -11.600  -7.997  -6.450  1.00  0.00    -0.000 C 
BRANCH  15  16
ATOM     16  C   UNL     1     -12.157  -7.378  -5.163  1.00  0.00    -0.003 C 
ATOM     17  C   UNL     1     -11.773  -5.907  -5.048  1.00  0.00     0.004 C 
ENDBRANCH  15  16
ENDBRANCH  14  15
ENDBRANCH  13  14
ENDBRANCH  12  13
ENDBRANCH  11  12
ENDBRANCH  10  11
ENDBRANCH   1  10
TORSDOF 13
ENDMDL
MODEL 6
REMARK VINA RESULT:    -5.041      3.882      8.121
REMARK INTER + INTRA:          -9.630
REMARK INTER:                  -8.893
REMARK INTRA:                  -0.737
REMARK UNBOUND:                -0.759
REMARK SMILES CCCCCCCCCCCCCCC(=O)[O-]
REMARK SMILES IDX 9 1 10 2 11 3 12 4 13 5 14 6 15 7 16 8 17 9 8 10 7 11 6 12
REMARK SMILES IDX 5 13 4 14 3 15 2 16 1 17
REMARK H PARENT
REMARK Flexibility Score: inf
ROOT
ATOM      1  C   UNL     1     -10.368  -3.306  -8.607  1.00  0.00     0.000 C 
ENDROOT
BRANCH   1   2
ATOM      2  C   UNL     1     -11.171  -4.618  -8.574  1.00  0.00     0.000 C 
BRANCH   2   3
ATOM      3  C   UNL     1     -10.282  -5.859  -8.756  1.00  0.00     0.000 C 
BRANCH   3   4
ATOM      4  C   UNL     1     -11.090  -7.168  -8.789  1.00  0.00     0.000 C 
BRANCH   4   5
ATOM      5  C   UNL     1     -12.564  -6.961  -8.404  1.00  0.00     0.006 C 
BRANCH   5   6
ATOM      6  C   UNL     1     -12.953  -7.721  -7.131  1.00  0.00     0.053 C 
BRANCH   6   7
ATOM      7  C   UNL     1     -13.192  -6.765  -6.004  1.00  0.00     0.041 C 
ATOM      8  O   UNL     1     -14.343  -6.644  -5.510  1.00  0.00    -0.550 OA
ATOM      9  O   UNL     1     -12.133  -6.044  -5.467  1.00  0.00    -0.550 OA
ENDBRANCH   6   7
ENDBRANCH   5   6
ENDBRANCH   4   5
ENDBRANCH   3   4
ENDBRANCH   2   3
ENDBRANCH   1   2
BRANCH   1  10
ATOM     10  C   UNL     1     -10.336  -2.668 -10.005  1.00  0.00     0.000 C 
BRANCH  10  11
ATOM     11  C   UNL     1     -10.665  -1.165  -9.975  1.00  0.00    -0.000 C 
BRANCH  11  12
ATOM     12  C   UNL     1     -12.173  -0.888 -10.098  1.00  0.00    -0.000 C 
BRANCH  12  13
ATOM     13  C   UNL     1     -12.551   0.539  -9.673  1.00  0.00    -0.000 C 
BRANCH  13  14
ATOM     14  C   UNL     1     -14.035   0.816  -9.943  1.00  0.00    -0.000 C 
BRANCH  14  15
ATOM     15  C   UNL     1     -14.491   2.106  -9.249  1.00  0.00    -0.000 C 
BRANCH  15  16
ATOM     16  C   UNL     1     -13.293   2.998  -8.906  1.00  0.00    -0.003 C 
ATOM     17  C   UNL     1     -13.747   4.387  -8.468  1.00  0.00     0.004 C 
ENDBRANCH  15  16
ENDBRANCH  14  15
ENDBRANCH  13  14
ENDBRANCH  12  13
ENDBRANCH  11  12
ENDBRANCH  10  11
ENDBRANCH   1  10
TORSDOF 13
ENDMDL
MODEL 7
REMARK VINA RESULT:    -4.958      4.206      8.078
REMARK INTER + INTRA:          -9.485
REMARK INTER:                  -8.523
REMARK INTRA:                  -0.962
REMARK UNBOUND:                -0.759
REMARK SMILES CCCCCCCCCCCCCCC(=O)[O-]
REMARK SMILES IDX 9 1 10 2 11 3 12 4 13 5 14 6 15 7 16 8 17 9 8 10 7 11 6 12
REMARK SMILES IDX 5 13 4 14 3 15 2 16 1 17
REMARK H PARENT
REMARK Flexibility Score: inf
ROOT
ATOM      1  C   UNL     1     -11.433  -4.671  -8.495  1.00  0.00     0.000 C 
ENDROOT
BRANCH   1   2
ATOM      2  C   UNL     1     -10.690  -5.972  -8.844  1.00  0.00     0.000 C 
BRANCH   2   3
ATOM      3  C   UNL     1     -11.648  -7.138  -9.139  1.00  0.00     0.000 C 
BRANCH   3   4
ATOM      4  C   UNL     1     -11.762  -8.124  -7.965  1.00  0.00     0.000 C 
BRANCH   4   5
ATOM      5  C   UNL     1     -13.150  -8.098  -7.305  1.00  0.00     0.006 C 
BRANCH   5   6
ATOM      6  C   UNL     1     -13.260  -7.032  -6.207  1.00  0.00     0.053 C 
BRANCH   6   7
ATOM      7  C   UNL     1     -12.112  -7.143  -5.254  1.00  0.00     0.041 C 
ATOM      8  O   UNL     1     -12.080  -8.075  -4.409  1.00  0.00    -0.550 OA
ATOM      9  O   UNL     1     -11.055  -6.246  -5.331  1.00  0.00    -0.550 OA
ENDBRANCH   6   7
ENDBRANCH   5   6
ENDBRANCH   4   5
ENDBRANCH   3   4
ENDBRANCH   2   3
ENDBRANCH   1   2
BRANCH   1  10
ATOM     10  C   UNL     1     -10.573  -3.704  -7.665  1.00  0.00     0.000 C 
BRANCH  10  11
ATOM     11  C   UNL     1     -10.125  -2.472  -8.472  1.00  0.00    -0.000 C 
BRANCH  11  12
ATOM     12  C   UNL     1     -11.071  -2.158  -9.643  1.00  0.00    -0.000 C 
BRANCH  12  13
ATOM     13  C   UNL     1     -11.551  -0.699  -9.643  1.00  0.00    -0.000 C 
BRANCH  13  14
ATOM     14  C   UNL     1     -12.651  -0.484 -10.690  1.00  0.00    -0.000 C 
BRANCH  14  15
ATOM     15  C   UNL     1     -14.037  -0.777 -10.101  1.00  0.00    -0.000 C 
BRANCH  15  16
ATOM     16  C   UNL     1     -14.952   0.448 -10.210  1.00  0.00    -0.003 C 
ATOM     17  C   UNL     1     -14.271   1.695  -9.656  1.00  0.00     0.004 C 
ENDBRANCH  15  16
ENDBRANCH  14  15
ENDBRANCH  13  14
ENDBRANCH  12  13
ENDBRANCH  11  12
ENDBRANCH  10  11
ENDBRANCH   1  10
TORSDOF 13
ENDMDL
MODEL 8
REMARK VINA RESULT:    -4.941      1.984      4.750
REMARK INTER + INTRA:          -9.454
REMARK INTER:                  -8.080
REMARK INTRA:                  -1.374
REMARK UNBOUND:                -0.759
REMARK SMILES CCCCCCCCCCCCCCC(=O)[O-]
REMARK SMILES IDX 9 1 10 2 11 3 12 4 13 5 14 6 15 7 16 8 17 9 8 10 7 11 6 12
REMARK SMILES IDX 5 13 4 14 3 15 2 16 1 17
REMARK H PARENT
REMARK Flexibility Score: inf
ROOT
ATOM      1  C   UNL     1     -10.651  -3.976  -7.300  1.00  0.00     0.000 C 
ENDROOT
BRANCH   1   2
ATOM      2  C   UNL     1     -10.454  -4.481  -8.740  1.00  0.00     0.000 C 
BRANCH   2   3
ATOM      3  C   UNL     1     -10.625  -3.365  -9.784  1.00  0.00     0.000 C 
BRANCH   3   4
ATOM      4  C   UNL     1     -10.649  -1.962  -9.155  1.00  0.00     0.000 C 
BRANCH   4   5
ATOM      5  C   UNL     1     -11.040  -0.870 -10.164  1.00  0.00     0.006 C 
BRANCH   5   6
ATOM      6  C   UNL     1     -12.557  -0.766 -10.361  1.00  0.00     0.053 C 
BRANCH   6   7
ATOM      7  C   UNL     1     -13.070   0.525  -9.804  1.00  0.00     0.041 C 
ATOM      8  O   UNL     1     -12.283   1.321  -9.226  1.00  0.00    -0.550 OA
ATOM      9  O   UNL     1     -14.404   0.872  -9.966  1.00  0.00    -0.550 OA
ENDBRANCH   6   7
ENDBRANCH   5   6
ENDBRANCH   4   5
ENDBRANCH   3   4
ENDBRANCH   2   3
ENDBRANCH   1   2
BRANCH   1  10
ATOM     10  C   UNL     1     -10.878  -5.121  -6.299  1.00  0.00     0.000 C 
BRANCH  10  11
ATOM     11  C   UNL     1     -10.744  -6.509  -6.950  1.00  0.00    -0.000 C 
BRANCH  11  12
ATOM     12  C   UNL     1     -10.906  -7.654  -5.936  1.00  0.00    -0.000 C 
BRANCH  12  13
ATOM     13  C   UNL     1     -12.317  -7.718  -5.333  1.00  0.00    -0.000 C 
BRANCH  13  14
ATOM     14  C   UNL     1     -13.357  -8.059  -6.406  1.00  0.00    -0.000 C 
BRANCH  14  15
ATOM     15  C   UNL     1     -14.422  -6.960  -6.512  1.00  0.00    -0.000 C 
BRANCH  15  16
ATOM     16  C   UNL     1     -14.245  -6.144  -7.797  1.00  0.00    -0.003 C 
ATOM     17  C   UNL     1     -13.853  -7.039  -8.969  1.00  0.00     0.004 C 
ENDBRANCH  15  16
ENDBRANCH  14  15
ENDBRANCH  13  14
ENDBRANCH  12  13
ENDBRANCH  11  12
ENDBRANCH  10  11
ENDBRANCH   1  10
TORSDOF 13
ENDMDL
MODEL 9
REMARK VINA RESULT:    -4.854     16.244     18.128
REMARK INTER + INTRA:          -9.302
REMARK INTER:                  -7.291
REMARK INTRA:                  -2.011
REMARK UNBOUND:                -0.759
REMARK SMILES CCCCCCCCCCCCCCC(=O)[O-]
REMARK SMILES IDX 9 1 10 2 11 3 12 4 13 5 14 6 15 7 16 8 17 9 8 10 7 11 6 12
REMARK SMILES IDX 5 13 4 14 3 15 2 16 1 17
REMARK H PARENT
REMARK Flexibility Score: inf
ROOT
ATOM      1  C   UNL     1     -10.467   5.302   5.341  1.00  0.00     0.000 C 
ENDROOT
BRANCH   1   2
ATOM      2  C   UNL     1      -9.502   5.440   6.532  1.00  0.00     0.000 C 
BRANCH   2   3
ATOM      3  C   UNL     1      -9.075   6.896   6.780  1.00  0.00     0.000 C 
BRANCH   3   4
ATOM      4  C   UNL     1      -9.106   7.750   5.501  1.00  0.00     0.000 C 
BRANCH   4   5
ATOM      5  C   UNL     1      -8.712   9.213   5.759  1.00  0.00     0.006 C 
BRANCH   5   6
ATOM      6  C   UNL     1      -7.255   9.506   5.382  1.00  0.00     0.053 C 
BRANCH   6   7
ATOM      7  C   UNL     1      -6.460   9.858   6.601  1.00  0.00     0.041 C 
ATOM      8  O   UNL     1      -5.202   9.869   6.554  1.00  0.00    -0.550 OA
ATOM      9  O   UNL     1      -7.109  10.221   7.773  1.00  0.00    -0.550 OA
ENDBRANCH   6   7
ENDBRANCH   5   6
ENDBRANCH   4   5
ENDBRANCH   3   4
ENDBRANCH   2   3
ENDBRANCH   1   2
BRANCH   1  10
ATOM     10  C   UNL     1     -11.442   4.125   5.505  1.00  0.00     0.000 C 
BRANCH  10  11
ATOM     11  C   UNL     1     -11.364   3.484   6.902  1.00  0.00    -0.000 C 
BRANCH  11  12
ATOM     12  C   UNL     1     -12.529   3.908   7.812  1.00  0.00    -0.000 C 
BRANCH  12  13
ATOM     13  C   UNL     1     -12.055   4.548   9.125  1.00  0.00    -0.000 C 
BRANCH  13  14
ATOM     14  C   UNL     1     -12.069   6.078   9.026  1.00  0.00    -0.000 C 
BRANCH  14  15
ATOM     15  C   UNL     1     -13.273   6.566   8.210  1.00  0.00    -0.000 C 
BRANCH  15  16
ATOM     16  C   UNL     1     -12.844   7.589   7.153  1.00  0.00    -0.003 C 
ATOM     17  C   UNL     1     -13.418   7.242   5.783  1.00  0.00     0.004 C 
ENDBRANCH  15  16
ENDBRANCH  14  15
ENDBRANCH  13  14
ENDBRANCH  12  13
ENDBRANCH  11  12
ENDBRANCH  10  11
ENDBRANCH   1  10
TORSDOF 13
ENDMDL
