MODEL 1
REMARK VINA RESULT:    -4.045      0.000      0.000
REMARK INTER + INTRA:          -9.132
REMARK INTER:                  -7.119
REMARK INTRA:                  -2.013
REMARK UNBOUND:                -2.013
REMARK SMILES CCCCCCC=CCCCCCCCC(=O)[O-]
REMARK SMILES IDX 10 1 11 2 12 3 13 4 14 5 15 6 16 7 17 8 18 9 9 10 8 11 7 12
REMARK SMILES IDX 6 13 5 14 4 15 3 16 2 17 1 18
REMARK H PARENT
REMARK Flexibility Score: inf
ROOT
ATOM      1  C   UNL     1      36.805  24.119  33.963  1.00  0.00     0.004 C 
ENDROOT
BRANCH   1   2
ATOM      2  C   UNL     1      36.824  22.796  34.748  1.00  0.00     0.000 C 
BRANCH   2   3
ATOM      3  C   UNL     1      35.446  22.143  34.965  1.00  0.00     0.000 C 
BRANCH   3   4
ATOM      4  C   UNL     1      35.117  21.074  33.909  1.00  0.00     0.000 C 
BRANCH   4   5
ATOM      5  C   UNL     1      33.636  20.666  33.923  1.00  0.00     0.006 C 
BRANCH   5   6
ATOM      6  C   UNL     1      33.304  19.669  35.042  1.00  0.00     0.053 C 
BRANCH   6   7
ATOM      7  C   UNL     1      31.851  19.743  35.391  1.00  0.00     0.041 C 
ATOM      8  O   UNL     1      31.092  20.543  34.781  1.00  0.00    -0.550 OA
ATOM      9  O   UNL     1      31.343  18.968  36.427  1.00  0.00    -0.550 OA
ENDBRANCH   6   7
ENDBRANCH   5   6
ENDBRANCH   4   5
ENDBRANCH   3   4
ENDBRANCH   2   3
ENDBRANCH   1   2
BRANCH   1  10
ATOM     10  C   UNL     1      36.210  25.284  34.768  1.00  0.00     0.027 C 
BRANCH  10  11
ATOM     11  C   UNL     1      36.361  26.595  34.039  1.00  0.00    -0.031 C 
ATOM     12  C   UNL     1      35.416  27.172  33.272  1.00  0.00    -0.031 C 
BRANCH  12  13
ATOM     13  C   UNL     1      34.049  26.593  32.985  1.00  0.00     0.027 C 
BRANCH  13  14
ATOM     14  C   UNL     1      34.065  25.698  31.737  1.00  0.00     0.004 C 
BRANCH  14  15
ATOM     15  C   UNL     1      33.644  24.251  32.049  1.00  0.00     0.000 C 
BRANCH  15  16
ATOM     16  C   UNL     1      32.805  24.143  33.332  1.00  0.00    -0.000 C 
BRANCH  16  17
ATOM     17  C   UNL     1      31.391  23.603  33.073  1.00  0.00    -0.003 C 
ATOM     18  C   UNL     1      31.362  22.714  31.832  1.00  0.00     0.004 C 
ENDBRANCH  16  17
ENDBRANCH  15  16
ENDBRANCH  14  15
ENDBRANCH  13  14
ENDBRANCH  12  13
ENDBRANCH  10  11
ENDBRANCH   1  10
TORSDOF 13
ENDMDL
MODEL 2
REMARK VINA RESULT:    -4.002     10.728     12.116
REMARK INTER + INTRA:          -9.057
REMARK INTER:                  -7.328
REMARK INTRA:                  -1.729
REMARK UNBOUND:                -2.013
REMARK SMILES CCCCCCC=CCCCCCCCC(=O)[O-]
REMARK SMILES IDX 10 1 11 2 12 3 13 4 14 5 15 6 16 7 17 8 18 9 9 10 8 11 7 12
REMARK SMILES IDX 6 13 5 14 4 15 3 16 2 17 1 18
REMARK H PARENT
REMARK Flexibility Score: inf
ROOT
ATOM      1  C   UNL     1      36.779  22.173  43.271  1.00  0.00     0.004 C 
ENDROOT
BRANCH   1   2
ATOM      2  C   UNL     1      37.957  22.302  44.254  1.00  0.00     0.000 C 
BRANCH   2   3
ATOM      3  C   UNL     1      37.637  23.044  45.565  1.00  0.00     0.000 C 
BRANCH   3   4
ATOM      4  C   UNL     1      36.247  22.696  46.126  1.00  0.00     0.000 C 
BRANCH   4   5
ATOM      5  C   UNL     1      36.230  21.353  46.873  1.00  0.00     0.006 C 
BRANCH   5   6
ATOM      6  C   UNL     1      35.028  21.214  47.817  1.00  0.00     0.053 C 
BRANCH   6   7
ATOM      7  C   UNL     1      34.029  20.254  47.249  1.00  0.00     0.041 C 
ATOM      8  O   UNL     1      34.220  19.736  46.116  1.00  0.00    -0.550 OA
ATOM      9  O   UNL     1      32.860  19.972  47.945  1.00  0.00    -0.550 OA
ENDBRANCH   6   7
ENDBRANCH   5   6
ENDBRANCH   4   5
ENDBRANCH   3   4
ENDBRANCH   2   3
ENDBRANCH   1   2
BRANCH   1  10
ATOM     10  C   UNL     1      36.706  23.336  42.270  1.00  0.00     0.027 C 
BRANCH  10  11
ATOM     11  C   UNL     1      35.466  24.168  42.479  1.00  0.00    -0.031 C 
ATOM     12  C   UNL     1      35.429  25.367  43.093  1.00  0.00    -0.031 C 
BRANCH  12  13
ATOM     13  C   UNL     1      36.618  26.074  43.704  1.00  0.00     0.027 C 
BRANCH  13  14
ATOM     14  C   UNL     1      36.297  26.610  45.108  1.00  0.00     0.004 C 
BRANCH  14  15
ATOM     15  C   UNL     1      34.959  26.075  45.647  1.00  0.00     0.000 C 
BRANCH  15  16
ATOM     16  C   UNL     1      34.029  27.196  46.139  1.00  0.00    -0.000 C 
BRANCH  16  17
ATOM     17  C   UNL     1      34.799  28.416  46.665  1.00  0.00    -0.003 C 
ATOM     18  C   UNL     1      33.902  29.303  47.524  1.00  0.00     0.004 C 
ENDBRANCH  16  17
ENDBRANCH  15  16
ENDBRANCH  14  15
ENDBRANCH  13  14
ENDBRANCH  12  13
ENDBRANCH  10  11
ENDBRANCH   1  10
TORSDOF 13
ENDMDL
MODEL 3
REMARK VINA RESULT:    -3.998      1.270      3.827
REMARK INTER + INTRA:          -9.049
REMARK INTER:                  -7.526
REMARK INTRA:                  -1.523
REMARK UNBOUND:                -2.013
REMARK SMILES CCCCCCC=CCCCCCCCC(=O)[O-]
REMARK SMILES IDX 10 1 11 2 12 3 13 4 14 5 15 6 16 7 17 8 18 9 9 10 8 11 7 12
REMARK SMILES IDX 6 13 5 14 4 15 3 16 2 17 1 18
REMARK H PARENT
REMARK Flexibility Score: inf
ROOT
ATOM      1  C   UNL     1      30.957  22.946  32.633  1.00  0.00     0.004 C 
ENDROOT
BRANCH   1   2
ATOM      2  C   UNL     1      30.728  21.780  33.612  1.00  0.00     0.000 C 
BRANCH   2   3
ATOM      3  C   UNL     1      31.549  20.510  33.320  1.00  0.00     0.000 C 
BRANCH   3   4
ATOM      4  C   UNL     1      32.916  20.507  34.026  1.00  0.00     0.000 C 
BRANCH   4   5
ATOM      5  C   UNL     1      33.034  19.398  35.083  1.00  0.00     0.006 C 
BRANCH   5   6
ATOM      6  C   UNL     1      31.953  18.318  34.935  1.00  0.00     0.053 C 
BRANCH   6   7
ATOM      7  C   UNL     1      31.328  18.023  36.262  1.00  0.00     0.041 C 
ATOM      8  O   UNL     1      31.957  18.263  37.327  1.00  0.00    -0.550 OA
ATOM      9  O   UNL     1      30.072  17.431  36.324  1.00  0.00    -0.550 OA
ENDBRANCH   6   7
ENDBRANCH   5   6
ENDBRANCH   4   5
ENDBRANCH   3   4
ENDBRANCH   2   3
ENDBRANCH   1   2
BRANCH   1  10
ATOM     10  C   UNL     1      31.989  23.962  33.147  1.00  0.00     0.027 C 
BRANCH  10  11
ATOM     11  C   UNL     1      33.107  24.164  32.155  1.00  0.00    -0.031 C 
ATOM     12  C   UNL     1      33.789  25.312  31.975  1.00  0.00    -0.031 C 
BRANCH  12  13
ATOM     13  C   UNL     1      33.533  26.606  32.714  1.00  0.00     0.027 C 
BRANCH  13  14
ATOM     14  C   UNL     1      34.779  27.074  33.482  1.00  0.00     0.004 C 
BRANCH  14  15
ATOM     15  C   UNL     1      35.975  26.125  33.293  1.00  0.00     0.000 C 
BRANCH  15  16
ATOM     16  C   UNL     1      36.338  25.369  34.582  1.00  0.00    -0.000 C 
BRANCH  16  17
ATOM     17  C   UNL     1      36.392  23.847  34.381  1.00  0.00    -0.003 C 
ATOM     18  C   UNL     1      35.184  23.166  35.017  1.00  0.00     0.004 C 
ENDBRANCH  16  17
ENDBRANCH  15  16
ENDBRANCH  14  15
ENDBRANCH  13  14
ENDBRANCH  12  13
ENDBRANCH  10  11
ENDBRANCH   1  10
TORSDOF 13
ENDMDL
MODEL 4
REMARK VINA RESULT:    -3.994      1.235      3.531
REMARK INTER + INTRA:          -9.042
REMARK INTER:                  -7.255
REMARK INTRA:                  -1.787
REMARK UNBOUND:                -2.013
REMARK SMILES CCCCCCC=CCCCCCCCC(=O)[O-]
REMARK SMILES IDX 10 1 11 2 12 3 13 4 14 5 15 6 16 7 17 8 18 9 9 10 8 11 7 12
REMARK SMILES IDX 6 13 5 14 4 15 3 16 2 17 1 18
REMARK H PARENT
REMARK Flexibility Score: inf
ROOT
ATOM      1  C   UNL     1      33.428  23.778  31.722  1.00  0.00     0.004 C 
ENDROOT
BRANCH   1   2
ATOM      2  C   UNL     1      32.138  23.775  32.560  1.00  0.00     0.000 C 
BRANCH   2   3
ATOM      3  C   UNL     1      31.182  22.598  32.288  1.00  0.00     0.000 C 
BRANCH   3   4
ATOM      4  C   UNL     1      30.756  21.864  33.571  1.00  0.00     0.000 C 
BRANCH   4   5
ATOM      5  C   UNL     1      31.025  20.353  33.504  1.00  0.00     0.006 C 
BRANCH   5   6
ATOM      6  C   UNL     1      31.576  19.788  34.821  1.00  0.00     0.053 C 
BRANCH   6   7
ATOM      7  C   UNL     1      30.993  18.436  35.092  1.00  0.00     0.041 C 
ATOM      8  O   UNL     1      30.673  18.108  36.265  1.00  0.00    -0.550 OA
ATOM      9  O   UNL     1      30.853  17.519  34.058  1.00  0.00    -0.550 OA
ENDBRANCH   6   7
ENDBRANCH   5   6
ENDBRANCH   4   5
ENDBRANCH   3   4
ENDBRANCH   2   3
ENDBRANCH   1   2
BRANCH   1  10
ATOM     10  C   UNL     1      33.968  25.192  31.460  1.00  0.00     0.027 C 
BRANCH  10  11
ATOM     11  C   UNL     1      33.488  26.169  32.503  1.00  0.00    -0.031 C 
ATOM     12  C   UNL     1      34.284  26.905  33.304  1.00  0.00    -0.031 C 
BRANCH  12  13
ATOM     13  C   UNL     1      35.795  26.858  33.317  1.00  0.00     0.027 C 
BRANCH  13  14
ATOM     14  C   UNL     1      36.325  25.990  34.468  1.00  0.00     0.004 C 
BRANCH  14  15
ATOM     15  C   UNL     1      36.505  24.518  34.057  1.00  0.00     0.000 C 
BRANCH  15  16
ATOM     16  C   UNL     1      36.111  23.540  35.176  1.00  0.00    -0.000 C 
BRANCH  16  17
ATOM     17  C   UNL     1      34.695  22.975  34.998  1.00  0.00    -0.003 C 
ATOM     18  C   UNL     1      34.737  21.532  34.501  1.00  0.00     0.004 C 
ENDBRANCH  16  17
ENDBRANCH  15  16
ENDBRANCH  14  15
ENDBRANCH  13  14
ENDBRANCH  12  13
ENDBRANCH  10  11
ENDBRANCH   1  10
TORSDOF 13
ENDMDL
MODEL 5
REMARK VINA RESULT:    -3.957      1.370      3.408
REMARK INTER + INTRA:          -8.977
REMARK INTER:                  -6.805
REMARK INTRA:                  -2.172
REMARK UNBOUND:                -2.013
REMARK SMILES CCCCCCC=CCCCCCCCC(=O)[O-]
REMARK SMILES IDX 10 1 11 2 12 3 13 4 14 5 15 6 16 7 17 8 18 9 9 10 8 11 7 12
REMARK SMILES IDX 6 13 5 14 4 15 3 16 2 17 1 18
REMARK H PARENT
REMARK Flexibility Score: inf
ROOT
ATOM      1  C   UNL     1      33.095  24.473  32.807  1.00  0.00     0.004 C 
ENDROOT
BRANCH   1   2
ATOM      2  C   UNL     1      33.775  23.605  31.732  1.00  0.00     0.000 C 
BRANCH   2   3
ATOM      3  C   UNL     1      32.904  22.471  31.159  1.00  0.00     0.000 C 
BRANCH   3   4
ATOM      4  C   UNL     1      33.576  21.091  31.260  1.00  0.00     0.000 C 
BRANCH   4   5
ATOM      5  C   UNL     1      33.053  20.264  32.444  1.00  0.00     0.006 C 
BRANCH   5   6
ATOM      6  C   UNL     1      31.529  20.352  32.603  1.00  0.00     0.053 C 
BRANCH   6   7
ATOM      7  C   UNL     1      31.178  20.949  33.930  1.00  0.00     0.041 C 
ATOM      8  O   UNL     1      30.660  22.097  33.991  1.00  0.00    -0.550 OA
ATOM      9  O   UNL     1      31.471  20.264  35.102  1.00  0.00    -0.550 OA
ENDBRANCH   6   7
ENDBRANCH   5   6
ENDBRANCH   4   5
ENDBRANCH   3   4
ENDBRANCH   2   3
ENDBRANCH   1   2
BRANCH   1  10
ATOM     10  C   UNL     1      33.204  25.977  32.518  1.00  0.00     0.027 C 
BRANCH  10  11
ATOM     11  C   UNL     1      34.525  26.323  31.877  1.00  0.00    -0.031 C 
ATOM     12  C   UNL     1      35.639  26.690  32.541  1.00  0.00    -0.031 C 
BRANCH  12  13
ATOM     13  C   UNL     1      35.751  26.847  34.041  1.00  0.00     0.027 C 
BRANCH  13  14
ATOM     14  C   UNL     1      36.396  25.613  34.691  1.00  0.00     0.004 C 
BRANCH  14  15
ATOM     15  C   UNL     1      37.026  24.666  33.655  1.00  0.00     0.000 C 
BRANCH  15  16
ATOM     16  C   UNL     1      36.725  23.187  33.947  1.00  0.00    -0.000 C 
BRANCH  16  17
ATOM     17  C   UNL     1      36.002  22.983  35.286  1.00  0.00    -0.003 C 
ATOM     18  C   UNL     1      34.710  22.192  35.099  1.00  0.00     0.004 C 
ENDBRANCH  16  17
ENDBRANCH  15  16
ENDBRANCH  14  15
ENDBRANCH  13  14
ENDBRANCH  12  13
ENDBRANCH  10  11
ENDBRANCH   1  10
TORSDOF 13
ENDMDL
MODEL 6
REMARK VINA RESULT:    -3.916      3.784      8.087
REMARK INTER + INTRA:          -8.905
REMARK INTER:                  -7.018
REMARK INTRA:                  -1.887
REMARK UNBOUND:                -2.013
REMARK SMILES CCCCCCC=CCCCCCCCC(=O)[O-]
REMARK SMILES IDX 10 1 11 2 12 3 13 4 14 5 15 6 16 7 17 8 18 9 9 10 8 11 7 12
REMARK SMILES IDX 6 13 5 14 4 15 3 16 2 17 1 18
REMARK H PARENT
REMARK Flexibility Score: inf
ROOT
ATOM      1  C   UNL     1      31.749  17.489  32.735  1.00  0.00     0.004 C 
ENDROOT
BRANCH   1   2
ATOM      2  C   UNL     1      30.564  18.166  32.023  1.00  0.00     0.000 C 
BRANCH   2   3
ATOM      3  C   UNL     1      30.777  19.648  31.662  1.00  0.00     0.000 C 
BRANCH   3   4
ATOM      4  C   UNL     1      31.732  20.368  32.630  1.00  0.00     0.000 C 
BRANCH   4   5
ATOM      5  C   UNL     1      31.019  21.423  33.489  1.00  0.00     0.006 C 
BRANCH   5   6
ATOM      6  C   UNL     1      30.786  22.742  32.739  1.00  0.00     0.053 C 
BRANCH   6   7
ATOM      7  C   UNL     1      31.612  23.836  33.342  1.00  0.00     0.041 C 
ATOM      8  O   UNL     1      32.528  23.560  34.161  1.00  0.00    -0.550 OA
ATOM      9  O   UNL     1      31.335  25.163  33.041  1.00  0.00    -0.550 OA
ENDBRANCH   6   7
ENDBRANCH   5   6
ENDBRANCH   4   5
ENDBRANCH   3   4
ENDBRANCH   2   3
ENDBRANCH   1   2
BRANCH   1  10
ATOM     10  C   UNL     1      31.351  16.831  34.065  1.00  0.00     0.027 C 
BRANCH  10  11
ATOM     11  C   UNL     1      30.559  17.776  34.934  1.00  0.00    -0.031 C 
ATOM     12  C   UNL     1      31.074  18.560  35.900  1.00  0.00    -0.031 C 
BRANCH  12  13
ATOM     13  C   UNL     1      32.532  18.610  36.301  1.00  0.00     0.027 C 
BRANCH  13  14
ATOM     14  C   UNL     1      32.791  17.815  37.590  1.00  0.00     0.004 C 
BRANCH  14  15
ATOM     15  C   UNL     1      33.441  16.448  37.314  1.00  0.00     0.000 C 
BRANCH  15  16
ATOM     16  C   UNL     1      32.423  15.296  37.331  1.00  0.00    -0.000 C 
BRANCH  16  17
ATOM     17  C   UNL     1      31.186  15.611  38.185  1.00  0.00    -0.003 C 
ATOM     18  C   UNL     1      31.354  15.087  39.609  1.00  0.00     0.004 C 
ENDBRANCH  16  17
ENDBRANCH  15  16
ENDBRANCH  14  15
ENDBRANCH  13  14
ENDBRANCH  12  13
ENDBRANCH  10  11
ENDBRANCH   1  10
TORSDOF 13
ENDMDL
MODEL 7
REMARK VINA RESULT:    -3.911      1.865      3.751
REMARK INTER + INTRA:          -8.897
REMARK INTER:                  -6.421
REMARK INTRA:                  -2.476
REMARK UNBOUND:                -2.013
REMARK SMILES CCCCCCC=CCCCCCCCC(=O)[O-]
REMARK SMILES IDX 10 1 11 2 12 3 13 4 14 5 15 6 16 7 17 8 18 9 9 10 8 11 7 12
REMARK SMILES IDX 6 13 5 14 4 15 3 16 2 17 1 18
REMARK H PARENT
REMARK Flexibility Score: inf
ROOT
ATOM      1  C   UNL     1      35.382  22.982  35.112  1.00  0.00     0.004 C 
ENDROOT
BRANCH   1   2
ATOM      2  C   UNL     1      34.050  22.818  34.357  1.00  0.00     0.000 C 
BRANCH   2   3
ATOM      3  C   UNL     1      33.353  24.135  33.966  1.00  0.00     0.000 C 
BRANCH   3   4
ATOM      4  C   UNL     1      32.773  24.104  32.541  1.00  0.00     0.000 C 
BRANCH   4   5
ATOM      5  C   UNL     1      32.765  22.692  31.936  1.00  0.00     0.006 C 
BRANCH   5   6
ATOM      6  C   UNL     1      31.347  22.147  31.718  1.00  0.00     0.053 C 
BRANCH   6   7
ATOM      7  C   UNL     1      30.921  21.319  32.891  1.00  0.00     0.041 C 
ATOM      8  O   UNL     1      30.841  20.066  32.787  1.00  0.00    -0.550 OA
ATOM      9  O   UNL     1      30.561  21.935  34.083  1.00  0.00    -0.550 OA
ENDBRANCH   6   7
ENDBRANCH   5   6
ENDBRANCH   4   5
ENDBRANCH   3   4
ENDBRANCH   2   3
ENDBRANCH   1   2
BRANCH   1  10
ATOM     10  C   UNL     1      36.138  24.260  34.721  1.00  0.00     0.027 C 
BRANCH  10  11
ATOM     11  C   UNL     1      37.415  23.944  33.985  1.00  0.00    -0.031 C 
ATOM     12  C   UNL     1      37.509  23.685  32.666  1.00  0.00    -0.031 C 
BRANCH  12  13
ATOM     13  C   UNL     1      36.348  23.638  31.699  1.00  0.00     0.027 C 
BRANCH  13  14
ATOM     14  C   UNL     1      36.438  24.759  30.652  1.00  0.00     0.004 C 
BRANCH  14  15
ATOM     15  C   UNL     1      35.582  25.981  31.027  1.00  0.00     0.000 C 
BRANCH  15  16
ATOM     16  C   UNL     1      36.425  27.156  31.548  1.00  0.00    -0.000 C 
BRANCH  16  17
ATOM     17  C   UNL     1      36.209  27.424  33.044  1.00  0.00    -0.003 C 
ATOM     18  C   UNL     1      34.723  27.418  33.394  1.00  0.00     0.004 C 
ENDBRANCH  16  17
ENDBRANCH  15  16
ENDBRANCH  14  15
ENDBRANCH  13  14
ENDBRANCH  12  13
ENDBRANCH  10  11
ENDBRANCH   1  10
TORSDOF 13
ENDMDL
MODEL 8
REMARK VINA RESULT:    -3.895      1.821      2.971
REMARK INTER + INTRA:          -8.868
REMARK INTER:                  -6.623
REMARK INTRA:                  -2.245
REMARK UNBOUND:                -2.013
REMARK SMILES CCCCCCC=CCCCCCCCC(=O)[O-]
REMARK SMILES IDX 10 1 11 2 12 3 13 4 14 5 15 6 16 7 17 8 18 9 9 10 8 11 7 12
REMARK SMILES IDX 6 13 5 14 4 15 3 16 2 17 1 18
REMARK H PARENT
REMARK Flexibility Score: inf
ROOT
ATOM      1  C   UNL     1      35.052  23.240  34.663  1.00  0.00     0.004 C 
ENDROOT
BRANCH   1   2
ATOM      2  C   UNL     1      35.286  22.078  33.681  1.00  0.00     0.000 C 
BRANCH   2   3
ATOM      3  C   UNL     1      34.685  20.727  34.111  1.00  0.00     0.000 C 
BRANCH   3   4
ATOM      4  C   UNL     1      33.334  20.431  33.437  1.00  0.00     0.000 C 
BRANCH   4   5
ATOM      5  C   UNL     1      32.136  20.801  34.326  1.00  0.00     0.006 C 
BRANCH   5   6
ATOM      6  C   UNL     1      30.939  21.327  33.522  1.00  0.00     0.053 C 
BRANCH   6   7
ATOM      7  C   UNL     1      31.126  22.777  33.199  1.00  0.00     0.041 C 
ATOM      8  O   UNL     1      30.838  23.213  32.053  1.00  0.00    -0.550 OA
ATOM      9  O   UNL     1      31.668  23.637  34.146  1.00  0.00    -0.550 OA
ENDBRANCH   6   7
ENDBRANCH   5   6
ENDBRANCH   4   5
ENDBRANCH   3   4
ENDBRANCH   2   3
ENDBRANCH   1   2
BRANCH   1  10
ATOM     10  C   UNL     1      36.284  24.144  34.824  1.00  0.00     0.027 C 
BRANCH  10  11
ATOM     11  C   UNL     1      37.107  24.187  33.561  1.00  0.00    -0.031 C 
ATOM     12  C   UNL     1      37.507  25.309  32.932  1.00  0.00    -0.031 C 
BRANCH  12  13
ATOM     13  C   UNL     1      37.178  26.720  33.366  1.00  0.00     0.027 C 
BRANCH  13  14
ATOM     14  C   UNL     1      35.977  27.284  32.592  1.00  0.00     0.004 C 
BRANCH  14  15
ATOM     15  C   UNL     1      34.651  27.098  33.351  1.00  0.00     0.000 C 
BRANCH  15  16
ATOM     16  C   UNL     1      33.701  26.116  32.647  1.00  0.00    -0.000 C 
BRANCH  16  17
ATOM     17  C   UNL     1      34.220  25.671  31.272  1.00  0.00    -0.003 C 
ATOM     18  C   UNL     1      34.017  24.172  31.067  1.00  0.00     0.004 C 
ENDBRANCH  16  17
ENDBRANCH  15  16
ENDBRANCH  14  15
ENDBRANCH  13  14
ENDBRANCH  12  13
ENDBRANCH  10  11
ENDBRANCH   1  10
TORSDOF 13
ENDMDL
MODEL 9
REMARK VINA RESULT:    -3.801      2.750      5.755
REMARK INTER + INTRA:          -8.702
REMARK INTER:                  -6.699
REMARK INTRA:                  -2.003
REMARK UNBOUND:                -2.013
REMARK SMILES CCCCCCC=CCCCCCCCC(=O)[O-]
REMARK SMILES IDX 10 1 11 2 12 3 13 4 14 5 15 6 16 7 17 8 18 9 9 10 8 11 7 12
REMARK SMILES IDX 6 13 5 14 4 15 3 16 2 17 1 18
REMARK H PARENT
REMARK Flexibility Score: inf
ROOT
ATOM      1  C   UNL     1      34.156  24.111  30.887  1.00  0.00     0.004 C 
ENDROOT
BRANCH   1   2
ATOM      2  C   UNL     1      34.381  25.633  30.894  1.00  0.00     0.000 C 
BRANCH   2   3
ATOM      3  C   UNL     1      35.853  26.078  30.792  1.00  0.00     0.000 C 
BRANCH   3   4
ATOM      4  C   UNL     1      36.215  27.184  31.797  1.00  0.00     0.000 C 
BRANCH   4   5
ATOM      5  C   UNL     1      35.396  27.094  33.095  1.00  0.00     0.006 C 
BRANCH   5   6
ATOM      6  C   UNL     1      36.272  26.884  34.338  1.00  0.00     0.053 C 
BRANCH   6   7
ATOM      7  C   UNL     1      36.733  25.462  34.415  1.00  0.00     0.041 C 
ATOM      8  O   UNL     1      36.041  24.604  35.025  1.00  0.00    -0.550 OA
ATOM      9  O   UNL     1      37.953  25.094  33.860  1.00  0.00    -0.550 OA
ENDBRANCH   6   7
ENDBRANCH   5   6
ENDBRANCH   4   5
ENDBRANCH   3   4
ENDBRANCH   2   3
ENDBRANCH   1   2
BRANCH   1  10
ATOM     10  C   UNL     1      33.987  23.524  32.296  1.00  0.00     0.027 C 
BRANCH  10  11
ATOM     11  C   UNL     1      33.033  24.347  33.127  1.00  0.00    -0.031 C 
ATOM     12  C   UNL     1      31.716  24.103  33.269  1.00  0.00    -0.031 C 
BRANCH  12  13
ATOM     13  C   UNL     1      30.958  22.979  32.599  1.00  0.00     0.027 C 
BRANCH  13  14
ATOM     14  C   UNL     1      30.685  21.822  33.571  1.00  0.00     0.004 C 
BRANCH  14  15
ATOM     15  C   UNL     1      31.061  20.454  32.975  1.00  0.00     0.000 C 
BRANCH  15  16
ATOM     16  C   UNL     1      32.547  20.112  33.171  1.00  0.00    -0.000 C 
BRANCH  16  17
ATOM     17  C   UNL     1      32.975  20.157  34.646  1.00  0.00    -0.003 C 
ATOM     18  C   UNL     1      34.209  21.037  34.833  1.00  0.00     0.004 C 
ENDBRANCH  16  17
ENDBRANCH  15  16
ENDBRANCH  14  15
ENDBRANCH  13  14
ENDBRANCH  12  13
ENDBRANCH  10  11
ENDBRANCH   1  10
TORSDOF 13
ENDMDL
