MODEL 1
REMARK VINA RESULT:    -6.993      0.000      0.000
REMARK INTER + INTRA:         -12.038
REMARK INTER:                 -10.672
REMARK INTRA:                  -1.366
REMARK UNBOUND:                -1.366
REMARK SMILES CC(=O)CCC=C(C)CCC=C(C)CCC=C(C)C
REMARK SMILES IDX 10 1 11 2 12 3 13 4 14 5 15 6 16 7 18 8 17 9 19 10 9 11 7 12
REMARK SMILES IDX 6 13 8 14 5 15 4 16 2 17 3 18 1 19
REMARK H PARENT
REMARK Flexibility Score: inf
ROOT
ATOM      1  C   UNL     1      -9.224  72.544  30.465  1.00  0.00     0.032 C 
ENDROOT
BRANCH   1   2
ATOM      2  C   UNL     1      -9.633  73.902  30.977  1.00  0.00    -0.028 C 
ATOM      3  C   UNL     1     -10.637  74.128  31.855  1.00  0.00    -0.077 C 
ATOM      4  C   UNL     1     -10.880  75.544  32.312  1.00  0.00     0.039 C 
BRANCH   3   5
ATOM      5  C   UNL     1     -11.545  73.026  32.373  1.00  0.00     0.034 C 
BRANCH   5   6
ATOM      6  C   UNL     1     -10.875  72.202  33.482  1.00  0.00     0.032 C 
BRANCH   6   7
ATOM      7  C   UNL     1     -11.317  72.662  34.852  1.00  0.00    -0.028 C 
ATOM      8  C   UNL     1      -9.731  71.150  36.069  1.00  0.00     0.039 C 
ATOM      9  C   UNL     1     -10.834  72.181  36.019  1.00  0.00    -0.080 C 
ATOM     10  C   UNL     1     -11.426  72.696  37.306  1.00  0.00     0.039 C 
ENDBRANCH   6   7
ENDBRANCH   5   6
ENDBRANCH   3   5
ENDBRANCH   1   2
BRANCH   1  11
ATOM     11  C   UNL     1      -9.342  72.483  28.937  1.00  0.00     0.034 C 
BRANCH  11  12
ATOM     12  C   UNL     1     -10.771  72.734  28.493  1.00  0.00    -0.077 C 
ATOM     13  C   UNL     1     -11.128  73.711  27.627  1.00  0.00    -0.028 C 
ATOM     14  C   UNL     1     -11.856  71.847  29.048  1.00  0.00     0.039 C 
BRANCH  13  15
ATOM     15  C   UNL     1     -10.182  74.657  26.928  1.00  0.00     0.035 C 
BRANCH  15  16
ATOM     16  C   UNL     1     -10.375  74.636  25.408  1.00  0.00     0.079 C 
BRANCH  16  17
ATOM     17  C   UNL     1      -9.967  73.304  24.840  1.00  0.00     0.130 C 
ATOM     18  O   UNL     1     -10.704  72.729  24.052  1.00  0.00    -0.300 OA
ATOM     19  C   UNL     1      -8.673  72.666  25.250  1.00  0.00     0.087 C 
ENDBRANCH  16  17
ENDBRANCH  15  16
ENDBRANCH  13  15
ENDBRANCH  11  12
ENDBRANCH   1  11
TORSDOF 9
ENDMDL
MODEL 2
REMARK VINA RESULT:    -6.689      1.563      2.292
REMARK INTER + INTRA:         -11.575
REMARK INTER:                 -10.529
REMARK INTRA:                  -1.046
REMARK UNBOUND:                -1.366
REMARK SMILES CC(=O)CCC=C(C)CCC=C(C)CCC=C(C)C
REMARK SMILES IDX 10 1 11 2 12 3 13 4 14 5 15 6 16 7 18 8 17 9 19 10 9 11 7 12
REMARK SMILES IDX 6 13 8 14 5 15 4 16 2 17 3 18 1 19
REMARK H PARENT
REMARK Flexibility Score: inf
ROOT
ATOM      1  C   UNL     1     -11.629  73.303  28.978  1.00  0.00     0.032 C 
ENDROOT
BRANCH   1   2
ATOM      2  C   UNL     1     -11.505  74.337  30.068  1.00  0.00    -0.028 C 
ATOM      3  C   UNL     1     -10.900  74.134  31.262  1.00  0.00    -0.077 C 
ATOM      4  C   UNL     1     -10.810  75.293  32.221  1.00  0.00     0.039 C 
BRANCH   3   5
ATOM      5  C   UNL     1     -10.340  72.787  31.686  1.00  0.00     0.034 C 
BRANCH   5   6
ATOM      6  C   UNL     1     -11.185  72.132  32.787  1.00  0.00     0.032 C 
BRANCH   6   7
ATOM      7  C   UNL     1     -10.313  71.509  33.852  1.00  0.00    -0.028 C 
ATOM      8  C   UNL     1     -11.198  72.970  35.686  1.00  0.00     0.039 C 
ATOM      9  C   UNL     1     -10.287  71.892  35.148  1.00  0.00    -0.080 C 
ATOM     10  C   UNL     1      -9.312  71.214  36.076  1.00  0.00     0.039 C 
ENDBRANCH   6   7
ENDBRANCH   5   6
ENDBRANCH   3   5
ENDBRANCH   1   2
BRANCH   1  11
ATOM     11  C   UNL     1     -11.224  73.896  27.622  1.00  0.00     0.034 C 
BRANCH  11  12
ATOM     12  C   UNL     1      -9.882  73.352  27.171  1.00  0.00    -0.077 C 
ATOM     13  C   UNL     1      -9.430  73.426  25.897  1.00  0.00    -0.028 C 
ATOM     14  C   UNL     1      -8.999  72.689  28.198  1.00  0.00     0.039 C 
BRANCH  13  15
ATOM     15  C   UNL     1     -10.143  74.097  24.748  1.00  0.00     0.035 C 
BRANCH  15  16
ATOM     16  C   UNL     1     -10.069  73.261  23.466  1.00  0.00     0.079 C 
BRANCH  16  17
ATOM     17  C   UNL     1      -9.439  74.051  22.352  1.00  0.00     0.130 C 
ATOM     18  O   UNL     1     -10.133  74.470  21.437  1.00  0.00    -0.300 OA
ATOM     19  C   UNL     1      -7.962  74.307  22.343  1.00  0.00     0.087 C 
ENDBRANCH  16  17
ENDBRANCH  15  16
ENDBRANCH  13  15
ENDBRANCH  11  12
ENDBRANCH   1  11
TORSDOF 9
ENDMDL
MODEL 3
REMARK VINA RESULT:    -6.625      3.107      8.195
REMARK INTER + INTRA:         -11.477
REMARK INTER:                 -10.038
REMARK INTRA:                  -1.438
REMARK UNBOUND:                -1.366
REMARK SMILES CC(=O)CCC=C(C)CCC=C(C)CCC=C(C)C
REMARK SMILES IDX 10 1 11 2 12 3 13 4 14 5 15 6 16 7 18 8 17 9 19 10 9 11 7 12
REMARK SMILES IDX 6 13 8 14 5 15 4 16 2 17 3 18 1 19
REMARK H PARENT
REMARK Flexibility Score: inf
ROOT
ATOM      1  C   UNL     1      -9.670  72.104  29.585  1.00  0.00     0.032 C 
ENDROOT
BRANCH   1   2
ATOM      2  C   UNL     1     -11.054  72.410  29.073  1.00  0.00    -0.028 C 
ATOM      3  C   UNL     1     -11.374  73.466  28.289  1.00  0.00    -0.077 C 
ATOM      4  C   UNL     1     -12.798  73.596  27.813  1.00  0.00     0.039 C 
BRANCH   3   5
ATOM      5  C   UNL     1     -10.370  74.536  27.896  1.00  0.00     0.034 C 
BRANCH   5   6
ATOM      6  C   UNL     1     -10.237  74.671  26.373  1.00  0.00     0.032 C 
BRANCH   6   7
ATOM      7  C   UNL     1      -9.168  73.751  25.831  1.00  0.00    -0.028 C 
ATOM      8  C   UNL     1     -10.598  72.898  23.958  1.00  0.00     0.039 C 
ATOM      9  C   UNL     1      -9.323  72.931  24.768  1.00  0.00    -0.080 C 
ATOM     10  C   UNL     1      -8.181  72.023  24.391  1.00  0.00     0.039 C 
ENDBRANCH   6   7
ENDBRANCH   5   6
ENDBRANCH   3   5
ENDBRANCH   1   2
BRANCH   1  11
ATOM     11  C   UNL     1      -9.659  72.057  31.119  1.00  0.00     0.034 C 
BRANCH  11  12
ATOM     12  C   UNL     1      -9.863  73.441  31.706  1.00  0.00    -0.077 C 
ATOM     13  C   UNL     1     -10.688  73.702  32.746  1.00  0.00    -0.028 C 
ATOM     14  C   UNL     1      -9.104  74.593  31.096  1.00  0.00     0.039 C 
BRANCH  13  15
ATOM     15  C   UNL     1     -11.483  72.677  33.518  1.00  0.00     0.035 C 
BRANCH  15  16
ATOM     16  C   UNL     1     -11.495  72.978  35.020  1.00  0.00     0.079 C 
BRANCH  16  17
ATOM     17  C   UNL     1     -10.839  71.866  35.791  1.00  0.00     0.130 C 
ATOM     18  O   UNL     1     -11.320  71.499  36.854  1.00  0.00    -0.300 OA
ATOM     19  C   UNL     1      -9.587  71.220  35.278  1.00  0.00     0.087 C 
ENDBRANCH  16  17
ENDBRANCH  15  16
ENDBRANCH  13  15
ENDBRANCH  11  12
ENDBRANCH   1  11
TORSDOF 9
ENDMDL
MODEL 4
REMARK VINA RESULT:    -6.620      1.384      3.114
REMARK INTER + INTRA:         -11.469
REMARK INTER:                 -10.373
REMARK INTRA:                  -1.096
REMARK UNBOUND:                -1.366
REMARK SMILES CC(=O)CCC=C(C)CCC=C(C)CCC=C(C)C
REMARK SMILES IDX 10 1 11 2 12 3 13 4 14 5 15 6 16 7 18 8 17 9 19 10 9 11 7 12
REMARK SMILES IDX 6 13 8 14 5 15 4 16 2 17 3 18 1 19
REMARK H PARENT
REMARK Flexibility Score: inf
ROOT
ATOM      1  C   UNL     1     -11.997  72.721  32.408  1.00  0.00     0.032 C 
ENDROOT
BRANCH   1   2
ATOM      2  C   UNL     1     -10.918  71.887  33.052  1.00  0.00    -0.028 C 
ATOM      3  C   UNL     1     -10.634  71.876  34.375  1.00  0.00    -0.077 C 
ATOM      4  C   UNL     1      -9.560  70.938  34.865  1.00  0.00     0.039 C 
BRANCH   3   5
ATOM      5  C   UNL     1     -11.325  72.786  35.376  1.00  0.00     0.034 C 
BRANCH   5   6
ATOM      6  C   UNL     1     -10.489  72.984  36.648  1.00  0.00     0.032 C 
BRANCH   6   7
ATOM      7  C   UNL     1     -11.334  72.832  37.891  1.00  0.00    -0.028 C 
ATOM      8  C   UNL     1     -10.554  70.496  38.355  1.00  0.00     0.039 C 
ATOM      9  C   UNL     1     -11.395  71.715  38.650  1.00  0.00    -0.080 C 
ATOM     10  C   UNL     1     -12.340  71.698  39.824  1.00  0.00     0.039 C 
ENDBRANCH   6   7
ENDBRANCH   5   6
ENDBRANCH   3   5
ENDBRANCH   1   2
BRANCH   1  11
ATOM     11  C   UNL     1     -11.589  73.130  30.987  1.00  0.00     0.034 C 
BRANCH  11  12
ATOM     12  C   UNL     1     -10.706  74.363  31.010  1.00  0.00    -0.077 C 
ATOM     13  C   UNL     1      -9.759  74.627  30.079  1.00  0.00    -0.028 C 
ATOM     14  C   UNL     1     -10.890  75.352  32.133  1.00  0.00     0.039 C 
BRANCH  13  15
ATOM     15  C   UNL     1      -9.468  73.788  28.858  1.00  0.00     0.035 C 
BRANCH  15  16
ATOM     16  C   UNL     1     -10.495  74.028  27.745  1.00  0.00     0.079 C 
BRANCH  16  17
ATOM     17  C   UNL     1      -9.842  73.944  26.393  1.00  0.00     0.130 C 
ATOM     18  O   UNL     1     -10.225  74.672  25.489  1.00  0.00    -0.300 OA
ATOM     19  C   UNL     1      -8.743  72.957  26.139  1.00  0.00     0.087 C 
ENDBRANCH  16  17
ENDBRANCH  15  16
ENDBRANCH  13  15
ENDBRANCH  11  12
ENDBRANCH   1  11
TORSDOF 9
ENDMDL
MODEL 5
REMARK VINA RESULT:    -6.577      3.158      9.026
REMARK INTER + INTRA:         -11.403
REMARK INTER:                 -10.199
REMARK INTRA:                  -1.204
REMARK UNBOUND:                -1.366
REMARK SMILES CC(=O)CCC=C(C)CCC=C(C)CCC=C(C)C
REMARK SMILES IDX 10 1 11 2 12 3 13 4 14 5 15 6 16 7 18 8 17 9 19 10 9 11 7 12
REMARK SMILES IDX 6 13 8 14 5 15 4 16 2 17 3 18 1 19
REMARK H PARENT
REMARK Flexibility Score: inf
ROOT
ATOM      1  C   UNL     1      -9.954  74.773  27.616  1.00  0.00     0.032 C 
ENDROOT
BRANCH   1   2
ATOM      2  C   UNL     1      -9.076  73.697  27.029  1.00  0.00    -0.028 C 
ATOM      3  C   UNL     1      -9.002  73.390  25.713  1.00  0.00    -0.077 C 
ATOM      4  C   UNL     1      -8.027  72.324  25.283  1.00  0.00     0.039 C 
BRANCH   3   5
ATOM      5  C   UNL     1      -9.878  74.049  24.661  1.00  0.00     0.034 C 
BRANCH   5   6
ATOM      6  C   UNL     1      -9.976  73.205  23.382  1.00  0.00     0.032 C 
BRANCH   6   7
ATOM      7  C   UNL     1      -9.586  74.008  22.163  1.00  0.00    -0.028 C 
ATOM      8  C   UNL     1      -7.407  72.809  21.848  1.00  0.00     0.039 C 
ATOM      9  C   UNL     1      -8.427  73.861  21.482  1.00  0.00    -0.080 C 
ATOM     10  C   UNL     1      -8.156  74.786  20.323  1.00  0.00     0.039 C 
ENDBRANCH   6   7
ENDBRANCH   5   6
ENDBRANCH   3   5
ENDBRANCH   1   2
BRANCH   1  11
ATOM     11  C   UNL     1     -10.353  74.421  29.055  1.00  0.00     0.034 C 
BRANCH  11  12
ATOM     12  C   UNL     1     -11.519  73.450  29.072  1.00  0.00    -0.077 C 
ATOM     13  C   UNL     1     -11.647  72.445  29.970  1.00  0.00    -0.028 C 
ATOM     14  C   UNL     1     -12.598  73.612  28.031  1.00  0.00     0.039 C 
BRANCH  13  15
ATOM     15  C   UNL     1     -10.703  72.161  31.113  1.00  0.00     0.035 C 
BRANCH  15  16
ATOM     16  C   UNL     1     -11.422  72.191  32.466  1.00  0.00     0.079 C 
BRANCH  16  17
ATOM     17  C   UNL     1     -11.035  73.417  33.247  1.00  0.00     0.130 C 
ATOM     18  O   UNL     1     -10.800  73.325  34.443  1.00  0.00    -0.300 OA
ATOM     19  C   UNL     1     -10.959  74.754  32.573  1.00  0.00     0.087 C 
ENDBRANCH  16  17
ENDBRANCH  15  16
ENDBRANCH  13  15
ENDBRANCH  11  12
ENDBRANCH   1  11
TORSDOF 9
ENDMDL
MODEL 6
REMARK VINA RESULT:    -6.415      3.018      8.730
REMARK INTER + INTRA:         -11.157
REMARK INTER:                 -10.087
REMARK INTRA:                  -1.070
REMARK UNBOUND:                -1.366
REMARK SMILES CC(=O)CCC=C(C)CCC=C(C)CCC=C(C)C
REMARK SMILES IDX 10 1 11 2 12 3 13 4 14 5 15 6 16 7 18 8 17 9 19 10 9 11 7 12
REMARK SMILES IDX 6 13 8 14 5 15 4 16 2 17 3 18 1 19
REMARK H PARENT
REMARK Flexibility Score: inf
ROOT
ATOM      1  C   UNL     1      -9.672  74.061  29.092  1.00  0.00     0.032 C 
ENDROOT
BRANCH   1   2
ATOM      2  C   UNL     1     -10.103  74.663  27.779  1.00  0.00    -0.028 C 
ATOM      3  C   UNL     1      -9.835  74.137  26.560  1.00  0.00    -0.077 C 
ATOM      4  C   UNL     1     -10.391  74.835  25.345  1.00  0.00     0.039 C 
BRANCH   3   5
ATOM      5  C   UNL     1      -8.977  72.899  26.366  1.00  0.00     0.034 C 
BRANCH   5   6
ATOM      6  C   UNL     1      -9.117  72.317  24.952  1.00  0.00     0.032 C 
BRANCH   6   7
ATOM      7  C   UNL     1      -7.776  72.218  24.264  1.00  0.00    -0.028 C 
ATOM      8  C   UNL     1      -8.362  73.887  22.488  1.00  0.00     0.039 C 
ATOM      9  C   UNL     1      -7.432  72.893  23.144  1.00  0.00    -0.080 C 
ATOM     10  C   UNL     1      -6.076  72.634  22.539  1.00  0.00     0.039 C 
ENDBRANCH   6   7
ENDBRANCH   5   6
ENDBRANCH   3   5
ENDBRANCH   1   2
BRANCH   1  11
ATOM     11  C   UNL     1     -10.778  74.208  30.144  1.00  0.00     0.034 C 
BRANCH  11  12
ATOM     12  C   UNL     1     -11.433  72.870  30.434  1.00  0.00    -0.077 C 
ATOM     13  C   UNL     1     -11.769  72.451  31.676  1.00  0.00    -0.028 C 
ATOM     14  C   UNL     1     -11.725  71.954  29.273  1.00  0.00     0.039 C 
BRANCH  13  15
ATOM     15  C   UNL     1     -11.606  73.248  32.948  1.00  0.00     0.035 C 
BRANCH  15  16
ATOM     16  C   UNL     1     -10.263  72.964  33.629  1.00  0.00     0.079 C 
BRANCH  16  17
ATOM     17  C   UNL     1     -10.472  72.283  34.954  1.00  0.00     0.130 C 
ATOM     18  O   UNL     1      -9.844  71.269  35.220  1.00  0.00    -0.300 OA
ATOM     19  C   UNL     1     -11.463  72.825  35.939  1.00  0.00     0.087 C 
ENDBRANCH  16  17
ENDBRANCH  15  16
ENDBRANCH  13  15
ENDBRANCH  11  12
ENDBRANCH   1  11
TORSDOF 9
ENDMDL
MODEL 7
REMARK VINA RESULT:    -6.332      3.205      8.528
REMARK INTER + INTRA:         -11.030
REMARK INTER:                  -9.780
REMARK INTRA:                  -1.250
REMARK UNBOUND:                -1.366
REMARK SMILES CC(=O)CCC=C(C)CCC=C(C)CCC=C(C)C
REMARK SMILES IDX 10 1 11 2 12 3 13 4 14 5 15 6 16 7 18 8 17 9 19 10 9 11 7 12
REMARK SMILES IDX 6 13 8 14 5 15 4 16 2 17 3 18 1 19
REMARK H PARENT
REMARK Flexibility Score: inf
ROOT
ATOM      1  C   UNL     1     -11.690  72.558  30.328  1.00  0.00     0.032 C 
ENDROOT
BRANCH   1   2
ATOM      2  C   UNL     1     -10.434  71.726  30.272  1.00  0.00    -0.028 C 
ATOM      3  C   UNL     1      -9.303  72.074  29.616  1.00  0.00    -0.077 C 
ATOM      4  C   UNL     1      -8.113  71.153  29.709  1.00  0.00     0.039 C 
BRANCH   3   5
ATOM      5  C   UNL     1      -9.192  73.330  28.770  1.00  0.00     0.034 C 
BRANCH   5   6
ATOM      6  C   UNL     1      -9.773  73.129  27.363  1.00  0.00     0.032 C 
BRANCH   6   7
ATOM      7  C   UNL     1      -8.692  72.785  26.365  1.00  0.00    -0.028 C 
ATOM      8  C   UNL     1     -10.206  72.994  24.379  1.00  0.00     0.039 C 
ATOM      9  C   UNL     1      -8.876  72.693  25.030  1.00  0.00    -0.080 C 
ATOM     10  C   UNL     1      -7.710  72.273  24.173  1.00  0.00     0.039 C 
ENDBRANCH   6   7
ENDBRANCH   5   6
ENDBRANCH   3   5
ENDBRANCH   1   2
BRANCH   1  11
ATOM     11  C   UNL     1     -12.112  72.805  31.782  1.00  0.00     0.034 C 
BRANCH  11  12
ATOM     12  C   UNL     1     -11.136  73.733  32.480  1.00  0.00    -0.077 C 
ATOM     13  C   UNL     1     -10.515  73.433  33.645  1.00  0.00    -0.028 C 
ATOM     14  C   UNL     1     -10.839  75.067  31.842  1.00  0.00     0.039 C 
BRANCH  13  15
ATOM     15  C   UNL     1     -10.643  72.131  34.400  1.00  0.00     0.035 C 
BRANCH  15  16
ATOM     16  C   UNL     1      -9.781  72.122  35.667  1.00  0.00     0.079 C 
BRANCH  16  17
ATOM     17  C   UNL     1     -10.449  72.897  36.769  1.00  0.00     0.130 C 
ATOM     18  O   UNL     1     -10.094  74.042  37.007  1.00  0.00    -0.300 OA
ATOM     19  C   UNL     1     -11.531  72.266  37.595  1.00  0.00     0.087 C 
ENDBRANCH  16  17
ENDBRANCH  15  16
ENDBRANCH  13  15
ENDBRANCH  11  12
ENDBRANCH   1  11
TORSDOF 9
ENDMDL
MODEL 8
REMARK VINA RESULT:    -6.318      3.325      9.117
REMARK INTER + INTRA:         -11.009
REMARK INTER:                 -10.340
REMARK INTRA:                  -0.668
REMARK UNBOUND:                -1.366
REMARK SMILES CC(=O)CCC=C(C)CCC=C(C)CCC=C(C)C
REMARK SMILES IDX 10 1 11 2 12 3 13 4 14 5 15 6 16 7 18 8 17 9 19 10 9 11 7 12
REMARK SMILES IDX 6 13 8 14 5 15 4 16 2 17 3 18 1 19
REMARK H PARENT
REMARK Flexibility Score: inf
ROOT
ATOM      1  C   UNL     1     -10.133  74.401  26.493  1.00  0.00     0.032 C 
ENDROOT
BRANCH   1   2
ATOM      2  C   UNL     1      -9.035  73.460  26.066  1.00  0.00    -0.028 C 
ATOM      3  C   UNL     1      -8.958  72.859  24.856  1.00  0.00    -0.077 C 
ATOM      4  C   UNL     1      -7.761  71.990  24.567  1.00  0.00     0.039 C 
BRANCH   3   5
ATOM      5  C   UNL     1     -10.037  72.997  23.796  1.00  0.00     0.034 C 
BRANCH   5   6
ATOM      6  C   UNL     1      -9.817  74.229  22.907  1.00  0.00     0.032 C 
BRANCH   6   7
ATOM      7  C   UNL     1      -8.598  74.064  22.029  1.00  0.00    -0.028 C 
ATOM      8  C   UNL     1      -9.808  74.684  19.924  1.00  0.00     0.039 C 
ATOM      9  C   UNL     1      -8.585  74.237  20.689  1.00  0.00    -0.080 C 
ATOM     10  C   UNL     1      -7.302  73.969  19.945  1.00  0.00     0.039 C 
ENDBRANCH   6   7
ENDBRANCH   5   6
ENDBRANCH   3   5
ENDBRANCH   1   2
BRANCH   1  11
ATOM     11  C   UNL     1     -10.092  74.628  28.010  1.00  0.00     0.034 C 
BRANCH  11  12
ATOM     12  C   UNL     1     -11.347  74.091  28.673  1.00  0.00    -0.077 C 
ATOM     13  C   UNL     1     -11.541  74.073  30.012  1.00  0.00    -0.028 C 
ATOM     14  C   UNL     1     -12.441  73.545  27.791  1.00  0.00     0.039 C 
BRANCH  13  15
ATOM     15  C   UNL     1     -10.589  74.623  31.047  1.00  0.00     0.035 C 
BRANCH  15  16
ATOM     16  C   UNL     1      -9.236  73.903  31.015  1.00  0.00     0.079 C 
BRANCH  16  17
ATOM     17  C   UNL     1      -9.428  72.412  31.013  1.00  0.00     0.130 C 
ATOM     18  O   UNL     1     -10.050  71.879  31.920  1.00  0.00    -0.300 OA
ATOM     19  C   UNL     1      -8.841  71.571  29.919  1.00  0.00     0.087 C 
ENDBRANCH  16  17
ENDBRANCH  15  16
ENDBRANCH  13  15
ENDBRANCH  11  12
ENDBRANCH   1  11
TORSDOF 9
ENDMDL
MODEL 9
REMARK VINA RESULT:    -6.210      2.042      4.440
REMARK INTER + INTRA:         -10.843
REMARK INTER:                  -9.706
REMARK INTRA:                  -1.137
REMARK UNBOUND:                -1.366
REMARK SMILES CC(=O)CCC=C(C)CCC=C(C)CCC=C(C)C
REMARK SMILES IDX 10 1 11 2 12 3 13 4 14 5 15 6 16 7 18 8 17 9 19 10 9 11 7 12
REMARK SMILES IDX 6 13 8 14 5 15 4 16 2 17 3 18 1 19
REMARK H PARENT
REMARK Flexibility Score: inf
ROOT
ATOM      1  C   UNL     1     -10.558  72.662  33.392  1.00  0.00     0.032 C 
ENDROOT
BRANCH   1   2
ATOM      2  C   UNL     1     -11.277  72.779  34.711  1.00  0.00    -0.028 C 
ATOM      3  C   UNL     1     -10.766  72.405  35.907  1.00  0.00    -0.077 C 
ATOM      4  C   UNL     1     -11.595  72.645  37.143  1.00  0.00     0.039 C 
BRANCH   3   5
ATOM      5  C   UNL     1      -9.414  71.728  36.052  1.00  0.00     0.034 C 
BRANCH   5   6
ATOM      6  C   UNL     1      -9.524  70.362  36.744  1.00  0.00     0.032 C 
BRANCH   6   7
ATOM      7  C   UNL     1      -8.925  69.266  35.894  1.00  0.00    -0.028 C 
ATOM      8  C   UNL     1      -6.598  69.626  36.750  1.00  0.00     0.039 C 
ATOM      9  C   UNL     1      -7.614  68.942  35.865  1.00  0.00    -0.080 C 
ATOM     10  C   UNL     1      -7.162  67.865  34.913  1.00  0.00     0.039 C 
ENDBRANCH   6   7
ENDBRANCH   5   6
ENDBRANCH   3   5
ENDBRANCH   1   2
BRANCH   1  11
ATOM     11  C   UNL     1     -11.389  73.289  32.264  1.00  0.00     0.034 C 
BRANCH  11  12
ATOM     12  C   UNL     1     -10.694  74.510  31.693  1.00  0.00    -0.077 C 
ATOM     13  C   UNL     1      -9.769  74.456  30.707  1.00  0.00    -0.028 C 
ATOM     14  C   UNL     1     -11.052  75.863  32.255  1.00  0.00     0.039 C 
BRANCH  13  15
ATOM     15  C   UNL     1      -9.323  73.206  29.986  1.00  0.00     0.035 C 
BRANCH  15  16
ATOM     16  C   UNL     1      -9.908  73.126  28.572  1.00  0.00     0.079 C 
BRANCH  16  17
ATOM     17  C   UNL     1     -11.356  72.722  28.618  1.00  0.00     0.130 C 
ATOM     18  O   UNL     1     -11.670  71.646  29.105  1.00  0.00    -0.300 OA
ATOM     19  C   UNL     1     -12.415  73.618  28.049  1.00  0.00     0.087 C 
ENDBRANCH  16  17
ENDBRANCH  15  16
ENDBRANCH  13  15
ENDBRANCH  11  12
ENDBRANCH   1  11
TORSDOF 9
ENDMDL
