MODEL 1
REMARK VINA RESULT:    -6.553      0.000      0.000
REMARK INTER + INTRA:          -7.987
REMARK INTER:                  -7.702
REMARK INTRA:                  -0.284
REMARK UNBOUND:                -0.284
REMARK SMILES O=c1cc(-c2ccc(O)c(O)c2)oc2cc(O)cc(O)c12
REMARK SMILES IDX 4 1 3 2 2 3 1 4 21 5 19 6 18 7 16 8 15 9 14 10 13 11 5 12
REMARK SMILES IDX 6 13 7 14 8 15 12 16 10 17 9 18 11 20 20 22 17 24
REMARK H PARENT 9 19 11 21 20 23 17 25
REMARK Flexibility Score: inf
ROOT
ATOM      1  C   UNL     1       6.874  78.450  63.709  1.00  0.00     0.138 A 
ATOM      2  C   UNL     1       5.797  78.803  62.885  1.00  0.00     0.100 A 
ATOM      3  C   UNL     1       6.038  79.459  61.676  1.00  0.00     0.197 A 
ATOM      4  O   UNL     1       5.055  79.713  60.933  1.00  0.00    -0.289 OA
ATOM      5  C   UNL     1       7.364  79.796  61.310  1.00  0.00     0.107 A 
ATOM      6  C   UNL     1       7.727  80.494  60.119  1.00  0.00     0.134 A 
ATOM      7  C   UNL     1       9.081  80.683  59.817  1.00  0.00     0.093 A 
ATOM      8  C   UNL     1      10.082  80.250  60.689  1.00  0.00     0.123 A 
ATOM      9  C   UNL     1       9.737  79.612  61.877  1.00  0.00     0.094 A 
ATOM     10  C   UNL     1       8.396  79.378  62.192  1.00  0.00     0.146 A 
ATOM     11  O   UNL     1       8.111  78.749  63.327  1.00  0.00    -0.456 OA
ENDROOT
BRANCH   1  12
ATOM     12  C   UNL     1       6.675  77.754  65.006  1.00  0.00     0.021 A 
ATOM     13  C   UNL     1       7.529  78.046  66.082  1.00  0.00     0.016 A 
ATOM     14  C   UNL     1       7.369  77.400  67.312  1.00  0.00     0.051 A 
ATOM     15  C   UNL     1       6.361  76.447  67.483  1.00  0.00     0.157 A 
ATOM     16  C   UNL     1       5.670  76.783  65.179  1.00  0.00     0.062 A 
ATOM     17  C   UNL     1       5.509  76.134  66.412  1.00  0.00     0.158 A 
BRANCH  15  18
ATOM     18  O   UNL     1       6.224  75.820  68.722  1.00  0.00    -0.504 OA
ATOM     19  H   UNL     1       5.617  75.022  68.856  1.00  0.00     0.293 HD
ENDBRANCH  15  18
BRANCH  17  20
ATOM     20  O   UNL     1       4.509  75.175  66.573  1.00  0.00    -0.504 OA
ATOM     21  H   UNL     1       4.162  74.919  67.489  1.00  0.00     0.293 HD
ENDBRANCH  17  20
ENDBRANCH   1  12
BRANCH   6  22
ATOM     22  O   UNL     1       6.807  81.039  59.219  1.00  0.00    -0.507 OA
ATOM     23  H   UNL     1       6.982  81.210  58.241  1.00  0.00     0.293 HD
ENDBRANCH   6  22
BRANCH   8  24
ATOM     24  O   UNL     1      11.427  80.456  60.387  1.00  0.00    -0.508 OA
ATOM     25  H   UNL     1      11.908  81.304  60.667  1.00  0.00     0.293 HD
ENDBRANCH   8  24
TORSDOF 5
ENDMDL
MODEL 2
REMARK VINA RESULT:    -6.540      1.236      2.799
REMARK INTER + INTRA:          -7.971
REMARK INTER:                  -7.662
REMARK INTRA:                  -0.309
REMARK UNBOUND:                -0.284
REMARK SMILES O=c1cc(-c2ccc(O)c(O)c2)oc2cc(O)cc(O)c12
REMARK SMILES IDX 4 1 3 2 2 3 1 4 21 5 19 6 18 7 16 8 15 9 14 10 13 11 5 12
REMARK SMILES IDX 6 13 7 14 8 15 12 16 10 17 9 18 11 20 20 22 17 24
REMARK H PARENT 9 19 11 21 20 23 17 25
REMARK Flexibility Score: inf
ROOT
ATOM      1  C   UNL     1       6.985  78.451  63.762  1.00  0.00     0.138 A 
ATOM      2  C   UNL     1       8.244  78.981  63.446  1.00  0.00     0.100 A 
ATOM      3  C   UNL     1       8.433  79.632  62.226  1.00  0.00     0.197 A 
ATOM      4  O   UNL     1       9.558  80.145  61.996  1.00  0.00    -0.289 OA
ATOM      5  C   UNL     1       7.363  79.719  61.302  1.00  0.00     0.107 A 
ATOM      6  C   UNL     1       7.448  80.330  60.014  1.00  0.00     0.134 A 
ATOM      7  C   UNL     1       6.295  80.444  59.228  1.00  0.00     0.093 A 
ATOM      8  C   UNL     1       5.074  79.919  59.657  1.00  0.00     0.123 A 
ATOM      9  C   UNL     1       4.992  79.278  60.891  1.00  0.00     0.094 A 
ATOM     10  C   UNL     1       6.116  79.178  61.714  1.00  0.00     0.146 A 
ATOM     11  O   UNL     1       5.989  78.574  62.891  1.00  0.00    -0.456 OA
ENDROOT
BRANCH   1  12
ATOM     12  C   UNL     1       6.729  77.746  65.044  1.00  0.00     0.021 A 
ATOM     13  C   UNL     1       7.535  78.027  66.159  1.00  0.00     0.016 A 
ATOM     14  C   UNL     1       7.320  77.374  67.375  1.00  0.00     0.051 A 
ATOM     15  C   UNL     1       6.304  76.423  67.496  1.00  0.00     0.157 A 
ATOM     16  C   UNL     1       5.714  76.776  65.167  1.00  0.00     0.062 A 
ATOM     17  C   UNL     1       5.498  76.119  66.387  1.00  0.00     0.158 A 
BRANCH  15  18
ATOM     18  O   UNL     1       6.112  75.787  68.723  1.00  0.00    -0.504 OA
ATOM     19  H   UNL     1       6.777  75.870  69.481  1.00  0.00     0.293 HD
ENDBRANCH  15  18
BRANCH  17  20
ATOM     20  O   UNL     1       4.490  75.162  66.497  1.00  0.00    -0.504 OA
ATOM     21  H   UNL     1       4.078  74.925  67.392  1.00  0.00     0.293 HD
ENDBRANCH  17  20
ENDBRANCH   1  12
BRANCH   6  22
ATOM     22  O   UNL     1       8.633  80.815  59.454  1.00  0.00    -0.507 OA
ATOM     23  H   UNL     1       9.529  80.355  59.502  1.00  0.00     0.293 HD
ENDBRANCH   6  22
BRANCH   8  24
ATOM     24  O   UNL     1       3.935  80.023  58.861  1.00  0.00    -0.508 OA
ATOM     25  H   UNL     1       3.717  80.877  58.360  1.00  0.00     0.293 HD
ENDBRANCH   8  24
TORSDOF 5
ENDMDL
MODEL 3
REMARK VINA RESULT:    -6.202      2.373      7.093
REMARK INTER + INTRA:          -7.574
REMARK INTER:                  -7.311
REMARK INTRA:                  -0.263
REMARK UNBOUND:                -0.284
REMARK SMILES O=c1cc(-c2ccc(O)c(O)c2)oc2cc(O)cc(O)c12
REMARK SMILES IDX 4 1 3 2 2 3 1 4 21 5 19 6 18 7 16 8 15 9 14 10 13 11 5 12
REMARK SMILES IDX 6 13 7 14 8 15 12 16 10 17 9 18 11 20 20 22 17 24
REMARK H PARENT 9 19 11 21 20 23 17 25
REMARK Flexibility Score: inf
ROOT
ATOM      1  C   UNL     1       5.189  78.733  63.942  1.00  0.00     0.138 A 
ATOM      2  C   UNL     1       4.280  79.622  64.530  1.00  0.00     0.100 A 
ATOM      3  C   UNL     1       4.006  79.528  65.895  1.00  0.00     0.197 A 
ATOM      4  O   UNL     1       3.227  80.375  66.404  1.00  0.00    -0.289 OA
ATOM      5  C   UNL     1       4.620  78.511  66.667  1.00  0.00     0.107 A 
ATOM      6  C   UNL     1       4.391  78.298  68.061  1.00  0.00     0.134 A 
ATOM      7  C   UNL     1       5.132  77.322  68.739  1.00  0.00     0.093 A 
ATOM      8  C   UNL     1       6.051  76.515  68.064  1.00  0.00     0.123 A 
ATOM      9  C   UNL     1       6.245  76.683  66.696  1.00  0.00     0.094 A 
ATOM     10  C   UNL     1       5.547  77.670  65.996  1.00  0.00     0.146 A 
ATOM     11  O   UNL     1       5.776  77.809  64.695  1.00  0.00    -0.456 OA
ENDROOT
BRANCH   1  12
ATOM     12  C   UNL     1       5.516  78.787  62.494  1.00  0.00     0.021 A 
ATOM     13  C   UNL     1       6.804  79.175  62.091  1.00  0.00     0.016 A 
ATOM     14  C   UNL     1       7.136  79.240  60.735  1.00  0.00     0.051 A 
ATOM     15  C   UNL     1       6.185  78.928  59.760  1.00  0.00     0.157 A 
ATOM     16  C   UNL     1       4.557  78.487  61.506  1.00  0.00     0.062 A 
ATOM     17  C   UNL     1       4.889  78.553  60.145  1.00  0.00     0.158 A 
BRANCH  15  18
ATOM     18  O   UNL     1       6.546  79.001  58.414  1.00  0.00    -0.504 OA
ATOM     19  H   UNL     1       7.284  79.612  58.087  1.00  0.00     0.293 HD
ENDBRANCH  15  18
BRANCH  17  20
ATOM     20  O   UNL     1       3.932  78.252  59.176  1.00  0.00    -0.504 OA
ATOM     21  H   UNL     1       4.195  77.939  58.249  1.00  0.00     0.293 HD
ENDBRANCH  17  20
ENDBRANCH   1  12
BRANCH   6  22
ATOM     22  O   UNL     1       3.440  78.991  68.814  1.00  0.00    -0.507 OA
ATOM     23  H   UNL     1       3.358  79.995  68.863  1.00  0.00     0.293 HD
ENDBRANCH   6  22
BRANCH   8  24
ATOM     24  O   UNL     1       6.773  75.537  68.745  1.00  0.00    -0.508 OA
ATOM     25  H   UNL     1       6.319  74.718  69.132  1.00  0.00     0.293 HD
ENDBRANCH   8  24
TORSDOF 5
ENDMDL
MODEL 4
REMARK VINA RESULT:    -6.134      2.953      7.381
REMARK INTER + INTRA:          -7.494
REMARK INTER:                  -7.215
REMARK INTRA:                  -0.279
REMARK UNBOUND:                -0.284
REMARK SMILES O=c1cc(-c2ccc(O)c(O)c2)oc2cc(O)cc(O)c12
REMARK SMILES IDX 4 1 3 2 2 3 1 4 21 5 19 6 18 7 16 8 15 9 14 10 13 11 5 12
REMARK SMILES IDX 6 13 7 14 8 15 12 16 10 17 9 18 11 20 20 22 17 24
REMARK H PARENT 9 19 11 21 20 23 17 25
REMARK Flexibility Score: inf
ROOT
ATOM      1  C   UNL     1       5.428  78.651  63.999  1.00  0.00     0.138 A 
ATOM      2  C   UNL     1       6.257  77.833  64.778  1.00  0.00     0.100 A 
ATOM      3  C   UNL     1       6.098  77.810  66.165  1.00  0.00     0.197 A 
ATOM      4  O   UNL     1       6.819  77.024  66.832  1.00  0.00    -0.289 OA
ATOM      5  C   UNL     1       5.126  78.640  66.776  1.00  0.00     0.107 A 
ATOM      6  C   UNL     1       4.897  78.724  68.183  1.00  0.00     0.134 A 
ATOM      7  C   UNL     1       3.840  79.507  68.663  1.00  0.00     0.093 A 
ATOM      8  C   UNL     1       3.041  80.253  67.793  1.00  0.00     0.123 A 
ATOM      9  C   UNL     1       3.288  80.215  66.423  1.00  0.00     0.094 A 
ATOM     10  C   UNL     1       4.313  79.417  65.909  1.00  0.00     0.146 A 
ATOM     11  O   UNL     1       4.503  79.397  64.594  1.00  0.00    -0.456 OA
ENDROOT
BRANCH   1  12
ATOM     12  C   UNL     1       5.555  78.717  62.521  1.00  0.00     0.021 A 
ATOM     13  C   UNL     1       6.772  79.126  61.951  1.00  0.00     0.016 A 
ATOM     14  C   UNL     1       6.917  79.204  60.563  1.00  0.00     0.051 A 
ATOM     15  C   UNL     1       5.848  78.883  59.722  1.00  0.00     0.157 A 
ATOM     16  C   UNL     1       4.476  78.408  61.669  1.00  0.00     0.062 A 
ATOM     17  C   UNL     1       4.620  78.486  60.277  1.00  0.00     0.158 A 
BRANCH  15  18
ATOM     18  O   UNL     1       6.023  78.969  58.341  1.00  0.00    -0.504 OA
ATOM     19  H   UNL     1       5.240  78.974  57.699  1.00  0.00     0.293 HD
ENDBRANCH  15  18
BRANCH  17  20
ATOM     20  O   UNL     1       3.546  78.177  59.443  1.00  0.00    -0.504 OA
ATOM     21  H   UNL     1       3.654  78.117  58.438  1.00  0.00     0.293 HD
ENDBRANCH  17  20
ENDBRANCH   1  12
BRANCH   6  22
ATOM     22  O   UNL     1       5.684  78.086  69.145  1.00  0.00    -0.507 OA
ATOM     23  H   UNL     1       6.481  77.500  68.948  1.00  0.00     0.293 HD
ENDBRANCH   6  22
BRANCH   8  24
ATOM     24  O   UNL     1       2.001  81.041  68.281  1.00  0.00    -0.508 OA
ATOM     25  H   UNL     1       1.213  81.297  67.697  1.00  0.00     0.293 HD
ENDBRANCH   8  24
TORSDOF 5
ENDMDL
MODEL 5
REMARK VINA RESULT:    -6.001      5.251      7.341
REMARK INTER + INTRA:          -7.338
REMARK INTER:                  -7.020
REMARK INTRA:                  -0.317
REMARK UNBOUND:                -0.284
REMARK SMILES O=c1cc(-c2ccc(O)c(O)c2)oc2cc(O)cc(O)c12
REMARK SMILES IDX 4 1 3 2 2 3 1 4 21 5 19 6 18 7 16 8 15 9 14 10 13 11 5 12
REMARK SMILES IDX 6 13 7 14 8 15 12 16 10 17 9 18 11 20 20 22 17 24
REMARK H PARENT 9 19 11 21 20 23 17 25
REMARK Flexibility Score: inf
ROOT
ATOM      1  C   UNL     1       3.244  80.165  66.658  1.00  0.00     0.138 A 
ATOM      2  C   UNL     1       3.562  80.017  65.302  1.00  0.00     0.100 A 
ATOM      3  C   UNL     1       4.473  79.035  64.909  1.00  0.00     0.197 A 
ATOM      4  O   UNL     1       4.696  78.891  63.679  1.00  0.00    -0.289 OA
ATOM      5  C   UNL     1       5.095  78.221  65.886  1.00  0.00     0.107 A 
ATOM      6  C   UNL     1       6.064  77.210  65.606  1.00  0.00     0.134 A 
ATOM      7  C   UNL     1       6.537  76.402  66.647  1.00  0.00     0.093 A 
ATOM      8  C   UNL     1       6.119  76.604  67.965  1.00  0.00     0.123 A 
ATOM      9  C   UNL     1       5.211  77.619  68.254  1.00  0.00     0.094 A 
ATOM     10  C   UNL     1       4.695  78.421  67.234  1.00  0.00     0.146 A 
ATOM     11  O   UNL     1       3.818  79.367  67.553  1.00  0.00    -0.456 OA
ENDROOT
BRANCH   1  12
ATOM     12  C   UNL     1       2.284  81.195  67.133  1.00  0.00     0.021 A 
ATOM     13  C   UNL     1       1.805  82.159  66.230  1.00  0.00     0.016 A 
ATOM     14  C   UNL     1       0.907  83.143  66.651  1.00  0.00     0.051 A 
ATOM     15  C   UNL     1       0.479  83.186  67.981  1.00  0.00     0.157 A 
ATOM     16  C   UNL     1       1.861  81.251  68.475  1.00  0.00     0.062 A 
ATOM     17  C   UNL     1       0.960  82.239  68.899  1.00  0.00     0.158 A 
BRANCH  15  18
ATOM     18  O   UNL     1      -0.419  84.180  68.372  1.00  0.00    -0.504 OA
ATOM     19  H   UNL     1      -0.955  84.113  69.228  1.00  0.00     0.293 HD
ENDBRANCH  15  18
BRANCH  17  20
ATOM     20  O   UNL     1       0.546  82.284  70.230  1.00  0.00    -0.504 OA
ATOM     21  H   UNL     1       0.446  81.443  70.784  1.00  0.00     0.293 HD
ENDBRANCH  17  20
ENDBRANCH   1  12
BRANCH   6  22
ATOM     22  O   UNL     1       6.609  76.977  64.341  1.00  0.00    -0.507 OA
ATOM     23  H   UNL     1       6.138  76.508  63.583  1.00  0.00     0.293 HD
ENDBRANCH   6  22
BRANCH   8  24
ATOM     24  O   UNL     1       6.606  75.804  68.996  1.00  0.00    -0.508 OA
ATOM     25  H   UNL     1       6.033  75.084  69.423  1.00  0.00     0.293 HD
ENDBRANCH   8  24
TORSDOF 5
ENDMDL
MODEL 6
REMARK VINA RESULT:    -5.982      6.868      9.562
REMARK INTER + INTRA:          -7.315
REMARK INTER:                  -7.031
REMARK INTRA:                  -0.284
REMARK UNBOUND:                -0.284
REMARK SMILES O=c1cc(-c2ccc(O)c(O)c2)oc2cc(O)cc(O)c12
REMARK SMILES IDX 4 1 3 2 2 3 1 4 21 5 19 6 18 7 16 8 15 9 14 10 13 11 5 12
REMARK SMILES IDX 6 13 7 14 8 15 12 16 10 17 9 18 11 20 20 22 17 24
REMARK H PARENT 9 19 11 21 20 23 17 25
REMARK Flexibility Score: inf
ROOT
ATOM      1  C   UNL     1       2.319  79.270  68.942  1.00  0.00     0.138 A 
ATOM      2  C   UNL     1       3.717  79.248  68.846  1.00  0.00     0.100 A 
ATOM      3  C   UNL     1       4.375  78.037  68.629  1.00  0.00     0.197 A 
ATOM      4  O   UNL     1       5.625  78.057  68.493  1.00  0.00    -0.289 OA
ATOM      5  C   UNL     1       3.629  76.836  68.544  1.00  0.00     0.107 A 
ATOM      6  C   UNL     1       4.195  75.538  68.358  1.00  0.00     0.134 A 
ATOM      7  C   UNL     1       3.348  74.435  68.190  1.00  0.00     0.093 A 
ATOM      8  C   UNL     1       1.960  74.573  68.259  1.00  0.00     0.123 A 
ATOM      9  C   UNL     1       1.401  75.828  68.489  1.00  0.00     0.094 A 
ATOM     10  C   UNL     1       2.216  76.953  68.626  1.00  0.00     0.146 A 
ATOM     11  O   UNL     1       1.640  78.134  68.828  1.00  0.00    -0.456 OA
ENDROOT
BRANCH   1  12
ATOM     12  C   UNL     1       1.567  80.530  69.176  1.00  0.00     0.021 A 
ATOM     13  C   UNL     1       0.408  80.505  69.969  1.00  0.00     0.016 A 
ATOM     14  C   UNL     1      -0.322  81.674  70.199  1.00  0.00     0.051 A 
ATOM     15  C   UNL     1       0.088  82.885  69.634  1.00  0.00     0.157 A 
ATOM     16  C   UNL     1       1.968  81.750  68.598  1.00  0.00     0.062 A 
ATOM     17  C   UNL     1       1.236  82.924  68.827  1.00  0.00     0.158 A 
BRANCH  15  18
ATOM     18  O   UNL     1      -0.660  84.036  69.883  1.00  0.00    -0.504 OA
ATOM     19  H   UNL     1      -0.683  84.813  69.234  1.00  0.00     0.293 HD
ENDBRANCH  15  18
BRANCH  17  20
ATOM     20  O   UNL     1       1.643  84.127  68.251  1.00  0.00    -0.504 OA
ATOM     21  H   UNL     1       2.623  84.362  68.147  1.00  0.00     0.293 HD
ENDBRANCH  17  20
ENDBRANCH   1  12
BRANCH   6  22
ATOM     22  O   UNL     1       5.567  75.275  68.354  1.00  0.00    -0.507 OA
ATOM     23  H   UNL     1       5.989  74.386  68.576  1.00  0.00     0.293 HD
ENDBRANCH   6  22
BRANCH   8  24
ATOM     24  O   UNL     1       1.126  73.468  68.106  1.00  0.00    -0.508 OA
ATOM     25  H   UNL     1       0.185  73.459  68.482  1.00  0.00     0.293 HD
ENDBRANCH   8  24
TORSDOF 5
ENDMDL
MODEL 7
REMARK VINA RESULT:    -5.962      5.755      8.495
REMARK INTER + INTRA:          -7.291
REMARK INTER:                  -7.023
REMARK INTRA:                  -0.268
REMARK UNBOUND:                -0.284
REMARK SMILES O=c1cc(-c2ccc(O)c(O)c2)oc2cc(O)cc(O)c12
REMARK SMILES IDX 4 1 3 2 2 3 1 4 21 5 19 6 18 7 16 8 15 9 14 10 13 11 5 12
REMARK SMILES IDX 6 13 7 14 8 15 12 16 10 17 9 18 11 20 20 22 17 24
REMARK H PARENT 9 19 11 21 20 23 17 25
REMARK Flexibility Score: inf
ROOT
ATOM      1  C   UNL     1       2.149  78.449  69.548  1.00  0.00     0.138 A 
ATOM      2  C   UNL     1       1.737  77.153  69.211  1.00  0.00     0.100 A 
ATOM      3  C   UNL     1       2.569  76.343  68.438  1.00  0.00     0.197 A 
ATOM      4  O   UNL     1       2.195  75.165  68.199  1.00  0.00    -0.289 OA
ATOM      5  C   UNL     1       3.806  76.848  67.969  1.00  0.00     0.107 A 
ATOM      6  C   UNL     1       4.722  76.125  67.145  1.00  0.00     0.134 A 
ATOM      7  C   UNL     1       5.960  76.695  66.826  1.00  0.00     0.093 A 
ATOM      8  C   UNL     1       6.293  77.983  67.252  1.00  0.00     0.123 A 
ATOM      9  C   UNL     1       5.386  78.715  68.014  1.00  0.00     0.094 A 
ATOM     10  C   UNL     1       4.157  78.162  68.379  1.00  0.00     0.146 A 
ATOM     11  O   UNL     1       3.329  78.889  69.122  1.00  0.00    -0.456 OA
ENDROOT
BRANCH   1  12
ATOM     12  C   UNL     1       1.303  79.356  70.365  1.00  0.00     0.021 A 
ATOM     13  C   UNL     1       0.912  80.597  69.837  1.00  0.00     0.016 A 
ATOM     14  C   UNL     1       0.122  81.472  70.588  1.00  0.00     0.051 A 
ATOM     15  C   UNL     1      -0.284  81.126  71.879  1.00  0.00     0.157 A 
ATOM     16  C   UNL     1       0.903  79.017  71.673  1.00  0.00     0.062 A 
ATOM     17  C   UNL     1       0.110  79.895  72.427  1.00  0.00     0.158 A 
BRANCH  15  18
ATOM     18  O   UNL     1      -1.074  82.019  72.604  1.00  0.00    -0.504 OA
ATOM     19  H   UNL     1      -1.217  81.923  73.601  1.00  0.00     0.293 HD
ENDBRANCH  15  18
BRANCH  17  20
ATOM     20  O   UNL     1      -0.281  79.549  73.720  1.00  0.00    -0.504 OA
ATOM     21  H   UNL     1      -0.924  78.786  73.895  1.00  0.00     0.293 HD
ENDBRANCH  17  20
ENDBRANCH   1  12
BRANCH   6  22
ATOM     22  O   UNL     1       4.458  74.866  66.599  1.00  0.00    -0.507 OA
ATOM     23  H   UNL     1       3.612  74.608  66.115  1.00  0.00     0.293 HD
ENDBRANCH   6  22
BRANCH   8  24
ATOM     24  O   UNL     1       7.522  78.548  66.917  1.00  0.00    -0.508 OA
ATOM     25  H   UNL     1       8.392  78.173  67.276  1.00  0.00     0.293 HD
ENDBRANCH   8  24
TORSDOF 5
ENDMDL
MODEL 8
REMARK VINA RESULT:    -5.869      1.841      6.694
REMARK INTER + INTRA:          -7.183
REMARK INTER:                  -6.911
REMARK INTRA:                  -0.272
REMARK UNBOUND:                -0.284
REMARK SMILES O=c1cc(-c2ccc(O)c(O)c2)oc2cc(O)cc(O)c12
REMARK SMILES IDX 4 1 3 2 2 3 1 4 21 5 19 6 18 7 16 8 15 9 14 10 13 11 5 12
REMARK SMILES IDX 6 13 7 14 8 15 12 16 10 17 9 18 11 20 20 22 17 24
REMARK H PARENT 9 19 11 21 20 23 17 25
REMARK Flexibility Score: inf
ROOT
ATOM      1  C   UNL     1       8.189  78.794  62.332  1.00  0.00     0.138 A 
ATOM      2  C   UNL     1       6.948  79.211  61.833  1.00  0.00     0.100 A 
ATOM      3  C   UNL     1       5.841  79.254  62.682  1.00  0.00     0.197 A 
ATOM      4  O   UNL     1       4.754  79.684  62.218  1.00  0.00    -0.289 OA
ATOM      5  C   UNL     1       5.972  78.842  64.031  1.00  0.00     0.107 A 
ATOM      6  C   UNL     1       4.906  78.811  64.980  1.00  0.00     0.134 A 
ATOM      7  C   UNL     1       5.179  78.479  66.312  1.00  0.00     0.093 A 
ATOM      8  C   UNL     1       6.467  78.121  66.718  1.00  0.00     0.123 A 
ATOM      9  C   UNL     1       7.503  78.100  65.789  1.00  0.00     0.094 A 
ATOM     10  C   UNL     1       7.272  78.460  64.459  1.00  0.00     0.146 A 
ATOM     11  O   UNL     1       8.293  78.443  63.609  1.00  0.00    -0.456 OA
ENDROOT
BRANCH   1  12
ATOM     12  C   UNL     1       9.399  78.727  61.473  1.00  0.00     0.021 A 
ATOM     13  C   UNL     1       9.449  77.793  60.424  1.00  0.00     0.016 A 
ATOM     14  C   UNL     1      10.577  77.704  59.605  1.00  0.00     0.051 A 
ATOM     15  C   UNL     1      11.677  78.537  59.824  1.00  0.00     0.157 A 
ATOM     16  C   UNL     1      10.515  79.555  61.698  1.00  0.00     0.062 A 
ATOM     17  C   UNL     1      11.649  79.466  60.877  1.00  0.00     0.158 A 
BRANCH  15  18
ATOM     18  O   UNL     1      12.789  78.426  58.989  1.00  0.00    -0.504 OA
ATOM     19  H   UNL     1      13.333  77.574  58.928  1.00  0.00     0.293 HD
ENDBRANCH  15  18
BRANCH  17  20
ATOM     20  O   UNL     1      12.748  80.292  61.108  1.00  0.00    -0.504 OA
ATOM     21  H   UNL     1      13.304  80.662  60.347  1.00  0.00     0.293 HD
ENDBRANCH  17  20
ENDBRANCH   1  12
BRANCH   6  22
ATOM     22  O   UNL     1       3.569  79.072  64.665  1.00  0.00    -0.507 OA
ATOM     23  H   UNL     1       3.104  79.957  64.797  1.00  0.00     0.293 HD
ENDBRANCH   6  22
BRANCH   8  24
ATOM     24  O   UNL     1       6.726  77.777  68.043  1.00  0.00    -0.508 OA
ATOM     25  H   UNL     1       7.502  77.173  68.291  1.00  0.00     0.293 HD
ENDBRANCH   8  24
TORSDOF 5
ENDMDL
MODEL 9
REMARK VINA RESULT:    -5.844      1.735      6.905
REMARK INTER + INTRA:          -7.153
REMARK INTER:                  -6.853
REMARK INTRA:                  -0.301
REMARK UNBOUND:                -0.284
REMARK SMILES O=c1cc(-c2ccc(O)c(O)c2)oc2cc(O)cc(O)c12
REMARK SMILES IDX 4 1 3 2 2 3 1 4 21 5 19 6 18 7 16 8 15 9 14 10 13 11 5 12
REMARK SMILES IDX 6 13 7 14 8 15 12 16 10 17 9 18 11 20 20 22 17 24
REMARK H PARENT 9 19 11 21 20 23 17 25
REMARK Flexibility Score: inf
ROOT
ATOM      1  C   UNL     1       6.727  78.872  63.473  1.00  0.00     0.138 A 
ATOM      2  C   UNL     1       5.438  79.413  63.560  1.00  0.00     0.100 A 
ATOM      3  C   UNL     1       4.668  79.183  64.701  1.00  0.00     0.197 A 
ATOM      4  O   UNL     1       3.536  79.728  64.772  1.00  0.00    -0.289 OA
ATOM      5  C   UNL     1       5.180  78.375  65.745  1.00  0.00     0.107 A 
ATOM      6  C   UNL     1       4.473  78.044  66.940  1.00  0.00     0.134 A 
ATOM      7  C   UNL     1       5.122  77.318  67.946  1.00  0.00     0.093 A 
ATOM      8  C   UNL     1       6.431  76.862  67.777  1.00  0.00     0.123 A 
ATOM      9  C   UNL     1       7.112  77.137  66.594  1.00  0.00     0.094 A 
ATOM     10  C   UNL     1       6.506  77.889  65.585  1.00  0.00     0.146 A 
ATOM     11  O   UNL     1       7.198  78.144  64.480  1.00  0.00    -0.456 OA
ENDROOT
BRANCH   1  12
ATOM     12  C   UNL     1       7.589  79.083  62.281  1.00  0.00     0.021 A 
ATOM     13  C   UNL     1       7.006  79.108  61.004  1.00  0.00     0.016 A 
ATOM     14  C   UNL     1       7.794  79.297  59.866  1.00  0.00     0.051 A 
ATOM     15  C   UNL     1       9.177  79.457  59.983  1.00  0.00     0.157 A 
ATOM     16  C   UNL     1       8.986  79.230  62.393  1.00  0.00     0.062 A 
ATOM     17  C   UNL     1       9.778  79.420  61.252  1.00  0.00     0.158 A 
BRANCH  15  18
ATOM     18  O   UNL     1       9.938  79.646  58.829  1.00  0.00    -0.504 OA
ATOM     19  H   UNL     1      10.666  80.347  58.774  1.00  0.00     0.293 HD
ENDBRANCH  15  18
BRANCH  17  20
ATOM     20  O   UNL     1      11.159  79.566  61.374  1.00  0.00    -0.504 OA
ATOM     21  H   UNL     1      11.738  78.835  61.771  1.00  0.00     0.293 HD
ENDBRANCH  17  20
ENDBRANCH   1  12
BRANCH   6  22
ATOM     22  O   UNL     1       3.137  78.380  67.178  1.00  0.00    -0.507 OA
ATOM     23  H   UNL     1       2.340  77.865  66.839  1.00  0.00     0.293 HD
ENDBRANCH   6  22
BRANCH   8  24
ATOM     24  O   UNL     1       7.064  76.126  68.777  1.00  0.00    -0.508 OA
ATOM     25  H   UNL     1       6.630  75.982  69.682  1.00  0.00     0.293 HD
ENDBRANCH   8  24
TORSDOF 5
ENDMDL
