MODEL 1
REMARK VINA RESULT:    -4.801      0.000      0.000
REMARK INTER + INTRA:          -9.970
REMARK INTER:                  -8.449
REMARK INTRA:                  -1.521
REMARK UNBOUND:                -1.521
REMARK SMILES CCCCCCCCCCCCCCC(=O)[O-]
REMARK SMILES IDX 9 1 10 2 11 3 12 4 13 5 14 6 15 7 16 8 17 9 8 10 7 11 6 12
REMARK SMILES IDX 5 13 4 14 3 15 2 16 1 17
REMARK H PARENT
REMARK Flexibility Score: inf
ROOT
ATOM      1  C   UNL     1       1.470 -37.079  21.188  1.00  0.00     0.000 C 
ENDROOT
BRANCH   1   2
ATOM      2  C   UNL     1      -0.044 -37.219  20.989  1.00  0.00     0.000 C 
BRANCH   2   3
ATOM      3  C   UNL     1      -0.708 -35.843  20.828  1.00  0.00     0.000 C 
BRANCH   3   4
ATOM      4  C   UNL     1      -2.186 -35.843  21.248  1.00  0.00     0.000 C 
BRANCH   4   5
ATOM      5  C   UNL     1      -2.445 -34.987  22.500  1.00  0.00     0.006 C 
BRANCH   5   6
ATOM      6  C   UNL     1      -1.337 -33.950  22.730  1.00  0.00     0.053 C 
BRANCH   6   7
ATOM      7  C   UNL     1      -1.766 -32.881  23.687  1.00  0.00     0.041 C 
ATOM      8  O   UNL     1      -2.907 -32.356  23.583  1.00  0.00    -0.550 OA
ATOM      9  O   UNL     1      -0.895 -32.442  24.676  1.00  0.00    -0.550 OA
ENDBRANCH   6   7
ENDBRANCH   5   6
ENDBRANCH   4   5
ENDBRANCH   3   4
ENDBRANCH   2   3
ENDBRANCH   1   2
BRANCH   1  10
ATOM     10  C   UNL     1       1.841 -35.645  21.594  1.00  0.00     0.000 C 
BRANCH  10  11
ATOM     11  C   UNL     1       3.313 -35.508  22.013  1.00  0.00    -0.000 C 
BRANCH  11  12
ATOM     12  C   UNL     1       4.033 -36.865  22.106  1.00  0.00    -0.000 C 
BRANCH  12  13
ATOM     13  C   UNL     1       5.193 -36.983  21.095  1.00  0.00    -0.000 C 
BRANCH  13  14
ATOM     14  C   UNL     1       4.874 -37.884  19.888  1.00  0.00    -0.000 C 
BRANCH  14  15
ATOM     15  C   UNL     1       4.981 -37.193  18.515  1.00  0.00    -0.000 C 
BRANCH  15  16
ATOM     16  C   UNL     1       3.790 -36.285  18.156  1.00  0.00    -0.003 C 
ATOM     17  C   UNL     1       2.593 -37.059  17.607  1.00  0.00     0.004 C 
ENDBRANCH  15  16
ENDBRANCH  14  15
ENDBRANCH  13  14
ENDBRANCH  12  13
ENDBRANCH  11  12
ENDBRANCH  10  11
ENDBRANCH   1  10
TORSDOF 13
ENDMDL
MODEL 2
REMARK VINA RESULT:    -4.621      0.899      2.462
REMARK INTER + INTRA:          -9.654
REMARK INTER:                  -8.096
REMARK INTRA:                  -1.558
REMARK UNBOUND:                -1.521
REMARK SMILES CCCCCCCCCCCCCCC(=O)[O-]
REMARK SMILES IDX 9 1 10 2 11 3 12 4 13 5 14 6 15 7 16 8 17 9 8 10 7 11 6 12
REMARK SMILES IDX 5 13 4 14 3 15 2 16 1 17
REMARK H PARENT
REMARK Flexibility Score: inf
ROOT
ATOM      1  C   UNL     1       1.428 -37.294  20.209  1.00  0.00     0.000 C 
ENDROOT
BRANCH   1   2
ATOM      2  C   UNL     1       0.093 -37.261  20.962  1.00  0.00     0.000 C 
BRANCH   2   3
ATOM      3  C   UNL     1      -0.310 -35.819  21.306  1.00  0.00     0.000 C 
BRANCH   3   4
ATOM      4  C   UNL     1      -1.834 -35.623  21.353  1.00  0.00     0.000 C 
BRANCH   4   5
ATOM      5  C   UNL     1      -2.287 -34.808  22.577  1.00  0.00     0.006 C 
BRANCH   5   6
ATOM      6  C   UNL     1      -1.395 -33.583  22.817  1.00  0.00     0.053 C 
BRANCH   6   7
ATOM      7  C   UNL     1      -1.958 -32.684  23.876  1.00  0.00     0.041 C 
ATOM      8  O   UNL     1      -1.450 -32.665  25.028  1.00  0.00    -0.550 OA
ATOM      9  O   UNL     1      -3.063 -31.890  23.598  1.00  0.00    -0.550 OA
ENDBRANCH   6   7
ENDBRANCH   5   6
ENDBRANCH   4   5
ENDBRANCH   3   4
ENDBRANCH   2   3
ENDBRANCH   1   2
BRANCH   1  10
ATOM     10  C   UNL     1       1.696 -35.955  19.505  1.00  0.00     0.000 C 
BRANCH  10  11
ATOM     11  C   UNL     1       3.020 -35.948  18.725  1.00  0.00    -0.000 C 
BRANCH  11  12
ATOM     12  C   UNL     1       3.808 -37.260  18.880  1.00  0.00    -0.000 C 
BRANCH  12  13
ATOM     13  C   UNL     1       5.149 -37.055  19.617  1.00  0.00    -0.000 C 
BRANCH  13  14
ATOM     14  C   UNL     1       5.250 -37.827  20.946  1.00  0.00    -0.000 C 
BRANCH  14  15
ATOM     15  C   UNL     1       4.432 -37.230  22.107  1.00  0.00    -0.000 C 
BRANCH  15  16
ATOM     16  C   UNL     1       4.391 -35.691  22.142  1.00  0.00    -0.003 C 
ATOM     17  C   UNL     1       3.139 -35.142  22.825  1.00  0.00     0.004 C 
ENDBRANCH  15  16
ENDBRANCH  14  15
ENDBRANCH  13  14
ENDBRANCH  12  13
ENDBRANCH  11  12
ENDBRANCH  10  11
ENDBRANCH   1  10
TORSDOF 13
ENDMDL
MODEL 3
REMARK VINA RESULT:    -4.590      1.137      2.404
REMARK INTER + INTRA:          -9.600
REMARK INTER:                  -8.203
REMARK INTRA:                  -1.397
REMARK UNBOUND:                -1.521
REMARK SMILES CCCCCCCCCCCCCCC(=O)[O-]
REMARK SMILES IDX 9 1 10 2 11 3 12 4 13 5 14 6 15 7 16 8 17 9 8 10 7 11 6 12
REMARK SMILES IDX 5 13 4 14 3 15 2 16 1 17
REMARK H PARENT
REMARK Flexibility Score: inf
ROOT
ATOM      1  C   UNL     1      -0.372 -37.451  20.910  1.00  0.00     0.000 C 
ENDROOT
BRANCH   1   2
ATOM      2  C   UNL     1      -1.346 -36.302  20.623  1.00  0.00     0.000 C 
BRANCH   2   3
ATOM      3  C   UNL     1      -2.666 -36.496  21.385  1.00  0.00     0.000 C 
BRANCH   3   4
ATOM      4  C   UNL     1      -2.896 -35.420  22.458  1.00  0.00     0.000 C 
BRANCH   4   5
ATOM      5  C   UNL     1      -1.779 -34.362  22.482  1.00  0.00     0.006 C 
BRANCH   5   6
ATOM      6  C   UNL     1      -2.222 -33.070  23.184  1.00  0.00     0.053 C 
BRANCH   6   7
ATOM      7  C   UNL     1      -1.348 -32.747  24.357  1.00  0.00     0.041 C 
ATOM      8  O   UNL     1      -1.642 -33.174  25.505  1.00  0.00    -0.550 OA
ATOM      9  O   UNL     1      -0.224 -31.948  24.187  1.00  0.00    -0.550 OA
ENDBRANCH   6   7
ENDBRANCH   5   6
ENDBRANCH   4   5
ENDBRANCH   3   4
ENDBRANCH   2   3
ENDBRANCH   1   2
BRANCH   1  10
ATOM     10  C   UNL     1       1.070 -36.934  21.023  1.00  0.00     0.000 C 
BRANCH  10  11
ATOM     11  C   UNL     1       1.315 -35.667  20.189  1.00  0.00    -0.000 C 
BRANCH  11  12
ATOM     12  C   UNL     1       2.355 -35.880  19.075  1.00  0.00    -0.000 C 
BRANCH  12  13
ATOM     13  C   UNL     1       2.528 -37.371  18.713  1.00  0.00    -0.000 C 
BRANCH  13  14
ATOM     14  C   UNL     1       3.979 -37.873  18.832  1.00  0.00    -0.000 C 
BRANCH  14  15
ATOM     15  C   UNL     1       4.925 -36.944  19.618  1.00  0.00    -0.000 C 
BRANCH  15  16
ATOM     16  C   UNL     1       5.083 -37.298  21.109  1.00  0.00    -0.003 C 
ATOM     17  C   UNL     1       4.656 -36.164  22.040  1.00  0.00     0.004 C 
ENDBRANCH  15  16
ENDBRANCH  14  15
ENDBRANCH  13  14
ENDBRANCH  12  13
ENDBRANCH  11  12
ENDBRANCH  10  11
ENDBRANCH   1  10
TORSDOF 13
ENDMDL
MODEL 4
REMARK VINA RESULT:    -4.575      1.402      3.306
REMARK INTER + INTRA:          -9.572
REMARK INTER:                  -7.799
REMARK INTRA:                  -1.773
REMARK UNBOUND:                -1.521
REMARK SMILES CCCCCCCCCCCCCCC(=O)[O-]
REMARK SMILES IDX 9 1 10 2 11 3 12 4 13 5 14 6 15 7 16 8 17 9 8 10 7 11 6 12
REMARK SMILES IDX 5 13 4 14 3 15 2 16 1 17
REMARK H PARENT
REMARK Flexibility Score: inf
ROOT
ATOM      1  C   UNL     1       1.936 -36.682  19.091  1.00  0.00     0.000 C 
ENDROOT
BRANCH   1   2
ATOM      2  C   UNL     1       1.641 -37.968  19.872  1.00  0.00     0.000 C 
BRANCH   2   3
ATOM      3  C   UNL     1       0.702 -37.691  21.055  1.00  0.00     0.000 C 
BRANCH   3   4
ATOM      4  C   UNL     1      -0.748 -38.120  20.777  1.00  0.00     0.000 C 
BRANCH   4   5
ATOM      5  C   UNL     1      -1.685 -36.921  20.549  1.00  0.00     0.006 C 
BRANCH   5   6
ATOM      6  C   UNL     1      -1.126 -35.627  21.156  1.00  0.00     0.053 C 
BRANCH   6   7
ATOM      7  C   UNL     1      -2.053 -35.047  22.180  1.00  0.00     0.041 C 
ATOM      8  O   UNL     1      -1.691 -34.065  22.881  1.00  0.00    -0.550 OA
ATOM      9  O   UNL     1      -3.307 -35.610  22.381  1.00  0.00    -0.550 OA
ENDBRANCH   6   7
ENDBRANCH   5   6
ENDBRANCH   4   5
ENDBRANCH   3   4
ENDBRANCH   2   3
ENDBRANCH   1   2
BRANCH   1  10
ATOM     10  C   UNL     1       2.518 -37.000  17.706  1.00  0.00     0.000 C 
BRANCH  10  11
ATOM     11  C   UNL     1       3.900 -37.670  17.781  1.00  0.00    -0.000 C 
BRANCH  11  12
ATOM     12  C   UNL     1       4.977 -36.745  18.374  1.00  0.00    -0.000 C 
BRANCH  12  13
ATOM     13  C   UNL     1       5.853 -37.463  19.423  1.00  0.00    -0.000 C 
BRANCH  13  14
ATOM     14  C   UNL     1       5.247 -37.465  20.839  1.00  0.00    -0.000 C 
BRANCH  14  15
ATOM     15  C   UNL     1       4.858 -36.076  21.381  1.00  0.00    -0.000 C 
BRANCH  15  16
ATOM     16  C   UNL     1       3.901 -36.100  22.587  1.00  0.00    -0.003 C 
ATOM     17  C   UNL     1       2.798 -35.047  22.494  1.00  0.00     0.004 C 
ENDBRANCH  15  16
ENDBRANCH  14  15
ENDBRANCH  13  14
ENDBRANCH  12  13
ENDBRANCH  11  12
ENDBRANCH  10  11
ENDBRANCH   1  10
TORSDOF 13
ENDMDL
MODEL 5
REMARK VINA RESULT:    -4.570      1.014      2.068
REMARK INTER + INTRA:          -9.564
REMARK INTER:                  -8.178
REMARK INTRA:                  -1.386
REMARK UNBOUND:                -1.521
REMARK SMILES CCCCCCCCCCCCCCC(=O)[O-]
REMARK SMILES IDX 9 1 10 2 11 3 12 4 13 5 14 6 15 7 16 8 17 9 8 10 7 11 6 12
REMARK SMILES IDX 5 13 4 14 3 15 2 16 1 17
REMARK H PARENT
REMARK Flexibility Score: inf
ROOT
ATOM      1  C   UNL     1      -1.537 -38.125  20.888  1.00  0.00     0.000 C 
ENDROOT
BRANCH   1   2
ATOM      2  C   UNL     1      -2.850 -37.345  20.748  1.00  0.00     0.000 C 
BRANCH   2   3
ATOM      3  C   UNL     1      -2.616 -35.837  20.926  1.00  0.00     0.000 C 
BRANCH   3   4
ATOM      4  C   UNL     1      -2.617 -35.406  22.402  1.00  0.00     0.000 C 
BRANCH   4   5
ATOM      5  C   UNL     1      -1.728 -34.177  22.658  1.00  0.00     0.006 C 
BRANCH   5   6
ATOM      6  C   UNL     1      -2.245 -33.322  23.823  1.00  0.00     0.053 C 
BRANCH   6   7
ATOM      7  C   UNL     1      -1.328 -32.175  24.122  1.00  0.00     0.041 C 
ATOM      8  O   UNL     1      -1.782 -31.003  24.200  1.00  0.00    -0.550 OA
ATOM      9  O   UNL     1       0.034 -32.398  24.284  1.00  0.00    -0.550 OA
ENDBRANCH   6   7
ENDBRANCH   5   6
ENDBRANCH   4   5
ENDBRANCH   3   4
ENDBRANCH   2   3
ENDBRANCH   1   2
BRANCH   1  10
ATOM     10  C   UNL     1      -0.385 -37.393  20.184  1.00  0.00     0.000 C 
BRANCH  10  11
ATOM     11  C   UNL     1       0.905 -37.371  21.019  1.00  0.00    -0.000 C 
BRANCH  11  12
ATOM     12  C   UNL     1       1.392 -35.944  21.323  1.00  0.00    -0.000 C 
BRANCH  12  13
ATOM     13  C   UNL     1       2.932 -35.834  21.309  1.00  0.00    -0.000 C 
BRANCH  13  14
ATOM     14  C   UNL     1       3.644 -37.158  20.975  1.00  0.00    -0.000 C 
BRANCH  14  15
ATOM     15  C   UNL     1       4.344 -37.190  19.603  1.00  0.00    -0.000 C 
BRANCH  15  16
ATOM     16  C   UNL     1       3.726 -36.259  18.543  1.00  0.00    -0.003 C 
ATOM     17  C   UNL     1       2.738 -36.975  17.623  1.00  0.00     0.004 C 
ENDBRANCH  15  16
ENDBRANCH  14  15
ENDBRANCH  13  14
ENDBRANCH  12  13
ENDBRANCH  11  12
ENDBRANCH  10  11
ENDBRANCH   1  10
TORSDOF 13
ENDMDL
MODEL 6
REMARK VINA RESULT:    -4.490      3.328      6.878
REMARK INTER + INTRA:          -9.423
REMARK INTER:                  -8.358
REMARK INTRA:                  -1.066
REMARK UNBOUND:                -1.521
REMARK SMILES CCCCCCCCCCCCCCC(=O)[O-]
REMARK SMILES IDX 9 1 10 2 11 3 12 4 13 5 14 6 15 7 16 8 17 9 8 10 7 11 6 12
REMARK SMILES IDX 5 13 4 14 3 15 2 16 1 17
REMARK H PARENT
REMARK Flexibility Score: inf
ROOT
ATOM      1  C   UNL     1       1.670 -35.872  19.964  1.00  0.00     0.000 C 
ENDROOT
BRANCH   1   2
ATOM      2  C   UNL     1       1.709 -37.195  19.190  1.00  0.00     0.000 C 
BRANCH   2   3
ATOM      3  C   UNL     1       2.430 -37.023  17.844  1.00  0.00     0.000 C 
BRANCH   3   4
ATOM      4  C   UNL     1       3.884 -36.552  18.005  1.00  0.00     0.000 C 
BRANCH   4   5
ATOM      5  C   UNL     1       4.787 -37.627  18.634  1.00  0.00     0.006 C 
BRANCH   5   6
ATOM      6  C   UNL     1       5.719 -37.045  19.705  1.00  0.00     0.053 C 
BRANCH   6   7
ATOM      7  C   UNL     1       5.067 -37.019  21.055  1.00  0.00     0.041 C 
ATOM      8  O   UNL     1       4.314 -37.962  21.414  1.00  0.00    -0.550 OA
ATOM      9  O   UNL     1       5.270 -35.938  21.903  1.00  0.00    -0.550 OA
ENDBRANCH   6   7
ENDBRANCH   5   6
ENDBRANCH   4   5
ENDBRANCH   3   4
ENDBRANCH   2   3
ENDBRANCH   1   2
BRANCH   1  10
ATOM     10  C   UNL     1       0.824 -36.007  21.240  1.00  0.00     0.000 C 
BRANCH  10  11
ATOM     11  C   UNL     1      -0.502 -36.745  21.000  1.00  0.00    -0.000 C 
BRANCH  11  12
ATOM     12  C   UNL     1      -1.732 -35.869  21.296  1.00  0.00    -0.000 C 
BRANCH  12  13
ATOM     13  C   UNL     1      -3.051 -36.668  21.226  1.00  0.00    -0.000 C 
BRANCH  13  14
ATOM     14  C   UNL     1      -2.934 -37.989  20.443  1.00  0.00    -0.000 C 
BRANCH  14  15
ATOM     15  C   UNL     1      -3.428 -37.925  18.984  1.00  0.00    -0.000 C 
BRANCH  15  16
ATOM     16  C   UNL     1      -3.940 -36.543  18.538  1.00  0.00    -0.003 C 
ATOM     17  C   UNL     1      -4.672 -36.582  17.197  1.00  0.00     0.004 C 
ENDBRANCH  15  16
ENDBRANCH  14  15
ENDBRANCH  13  14
ENDBRANCH  12  13
ENDBRANCH  11  12
ENDBRANCH  10  11
ENDBRANCH   1  10
TORSDOF 13
ENDMDL
MODEL 7
REMARK VINA RESULT:    -4.269      2.961      6.804
REMARK INTER + INTRA:          -9.034
REMARK INTER:                  -7.641
REMARK INTRA:                  -1.393
REMARK UNBOUND:                -1.521
REMARK SMILES CCCCCCCCCCCCCCC(=O)[O-]
REMARK SMILES IDX 9 1 10 2 11 3 12 4 13 5 14 6 15 7 16 8 17 9 8 10 7 11 6 12
REMARK SMILES IDX 5 13 4 14 3 15 2 16 1 17
REMARK H PARENT
REMARK Flexibility Score: inf
ROOT
ATOM      1  C   UNL     1       1.767 -35.960  19.499  1.00  0.00     0.000 C 
ENDROOT
BRANCH   1   2
ATOM      2  C   UNL     1       1.929 -37.215  18.635  1.00  0.00     0.000 C 
BRANCH   2   3
ATOM      3  C   UNL     1       3.300 -37.235  17.943  1.00  0.00     0.000 C 
BRANCH   3   4
ATOM      4  C   UNL     1       4.311 -36.281  18.601  1.00  0.00     0.000 C 
BRANCH   4   5
ATOM      5  C   UNL     1       5.507 -37.024  19.221  1.00  0.00     0.006 C 
BRANCH   5   6
ATOM      6  C   UNL     1       5.083 -37.935  20.381  1.00  0.00     0.053 C 
BRANCH   6   7
ATOM      7  C   UNL     1       4.988 -37.183  21.673  1.00  0.00     0.041 C 
ATOM      8  O   UNL     1       4.107 -37.486  22.521  1.00  0.00    -0.550 OA
ATOM      9  O   UNL     1       5.853 -36.127  21.928  1.00  0.00    -0.550 OA
ENDBRANCH   6   7
ENDBRANCH   5   6
ENDBRANCH   4   5
ENDBRANCH   3   4
ENDBRANCH   2   3
ENDBRANCH   1   2
BRANCH   1  10
ATOM     10  C   UNL     1       1.205 -36.313  20.884  1.00  0.00     0.000 C 
BRANCH  10  11
ATOM     11  C   UNL     1       0.859 -37.804  21.023  1.00  0.00    -0.000 C 
BRANCH  11  12
ATOM     12  C   UNL     1      -0.649 -38.079  20.882  1.00  0.00    -0.000 C 
BRANCH  12  13
ATOM     13  C   UNL     1      -1.460 -36.788  20.640  1.00  0.00    -0.000 C 
BRANCH  13  14
ATOM     14  C   UNL     1      -2.798 -36.745  21.401  1.00  0.00    -0.000 C 
BRANCH  14  15
ATOM     15  C   UNL     1      -3.009 -35.492  22.273  1.00  0.00    -0.000 C 
BRANCH  15  16
ATOM     16  C   UNL     1      -1.757 -34.613  22.451  1.00  0.00    -0.003 C 
ATOM     17  C   UNL     1      -2.034 -33.333  23.238  1.00  0.00     0.004 C 
ENDBRANCH  15  16
ENDBRANCH  14  15
ENDBRANCH  13  14
ENDBRANCH  12  13
ENDBRANCH  11  12
ENDBRANCH  10  11
ENDBRANCH   1  10
TORSDOF 13
ENDMDL
MODEL 8
REMARK VINA RESULT:    -4.125      3.152      4.517
REMARK INTER + INTRA:          -8.781
REMARK INTER:                  -7.492
REMARK INTRA:                  -1.289
REMARK UNBOUND:                -1.521
REMARK SMILES CCCCCCCCCCCCCCC(=O)[O-]
REMARK SMILES IDX 9 1 10 2 11 3 12 4 13 5 14 6 15 7 16 8 17 9 8 10 7 11 6 12
REMARK SMILES IDX 5 13 4 14 3 15 2 16 1 17
REMARK H PARENT
REMARK Flexibility Score: inf
ROOT
ATOM      1  C   UNL     1       0.250 -38.048  20.222  1.00  0.00     0.000 C 
ENDROOT
BRANCH   1   2
ATOM      2  C   UNL     1      -0.057 -36.734  20.950  1.00  0.00     0.000 C 
BRANCH   2   3
ATOM      3  C   UNL     1      -1.542 -36.362  20.811  1.00  0.00     0.000 C 
BRANCH   3   4
ATOM      4  C   UNL     1      -2.479 -37.439  21.382  1.00  0.00     0.000 C 
BRANCH   4   5
ATOM      5  C   UNL     1      -3.634 -37.783  20.425  1.00  0.00     0.006 C 
BRANCH   5   6
ATOM      6  C   UNL     1      -3.143 -38.039  18.994  1.00  0.00     0.053 C 
BRANCH   6   7
ATOM      7  C   UNL     1      -3.984 -37.323  17.981  1.00  0.00     0.041 C 
ATOM      8  O   UNL     1      -4.495 -37.956  17.020  1.00  0.00    -0.550 OA
ATOM      9  O   UNL     1      -4.177 -35.951  18.082  1.00  0.00    -0.550 OA
ENDBRANCH   6   7
ENDBRANCH   5   6
ENDBRANCH   4   5
ENDBRANCH   3   4
ENDBRANCH   2   3
ENDBRANCH   1   2
BRANCH   1  10
ATOM     10  C   UNL     1       1.724 -38.108  19.794  1.00  0.00     0.000 C 
BRANCH  10  11
ATOM     11  C   UNL     1       1.997 -37.341  18.490  1.00  0.00    -0.000 C 
BRANCH  11  12
ATOM     12  C   UNL     1       3.480 -37.371  18.082  1.00  0.00    -0.000 C 
BRANCH  12  13
ATOM     13  C   UNL     1       4.365 -38.065  19.140  1.00  0.00    -0.000 C 
BRANCH  13  14
ATOM     14  C   UNL     1       5.630 -37.268  19.509  1.00  0.00    -0.000 C 
BRANCH  14  15
ATOM     15  C   UNL     1       5.822 -37.015  21.017  1.00  0.00    -0.000 C 
BRANCH  15  16
ATOM     16  C   UNL     1       4.514 -36.862  21.816  1.00  0.00    -0.003 C 
ATOM     17  C   UNL     1       3.836 -35.511  21.597  1.00  0.00     0.004 C 
ENDBRANCH  15  16
ENDBRANCH  14  15
ENDBRANCH  13  14
ENDBRANCH  12  13
ENDBRANCH  11  12
ENDBRANCH  10  11
ENDBRANCH   1  10
TORSDOF 13
ENDMDL
MODEL 9
REMARK VINA RESULT:    -3.869      1.622      3.160
REMARK INTER + INTRA:          -8.330
REMARK INTER:                  -7.365
REMARK INTRA:                  -0.965
REMARK UNBOUND:                -1.521
REMARK SMILES CCCCCCCCCCCCCCC(=O)[O-]
REMARK SMILES IDX 9 1 10 2 11 3 12 4 13 5 14 6 15 7 16 8 17 9 8 10 7 11 6 12
REMARK SMILES IDX 5 13 4 14 3 15 2 16 1 17
REMARK H PARENT
REMARK Flexibility Score: inf
ROOT
ATOM      1  C   UNL     1      -2.185 -37.201  20.189  1.00  0.00     0.000 C 
ENDROOT
BRANCH   1   2
ATOM      2  C   UNL     1      -2.945 -37.371  21.510  1.00  0.00     0.000 C 
BRANCH   2   3
ATOM      3  C   UNL     1      -3.315 -36.007  22.112  1.00  0.00     0.000 C 
BRANCH   3   4
ATOM      4  C   UNL     1      -2.255 -34.928  21.837  1.00  0.00     0.000 C 
BRANCH   4   5
ATOM      5  C   UNL     1      -1.770 -34.236  23.122  1.00  0.00     0.006 C 
BRANCH   5   6
ATOM      6  C   UNL     1      -2.329 -32.813  23.259  1.00  0.00     0.053 C 
BRANCH   6   7
ATOM      7  C   UNL     1      -1.442 -31.945  24.099  1.00  0.00     0.041 C 
ATOM      8  O   UNL     1      -1.715 -30.726  24.260  1.00  0.00    -0.550 OA
ATOM      9  O   UNL     1      -0.297 -32.477  24.679  1.00  0.00    -0.550 OA
ENDBRANCH   6   7
ENDBRANCH   5   6
ENDBRANCH   4   5
ENDBRANCH   3   4
ENDBRANCH   2   3
ENDBRANCH   1   2
BRANCH   1  10
ATOM     10  C   UNL     1      -0.959 -38.125  20.137  1.00  0.00     0.000 C 
BRANCH  10  11
ATOM     11  C   UNL     1       0.255 -37.545  20.880  1.00  0.00    -0.000 C 
BRANCH  11  12
ATOM     12  C   UNL     1       1.295 -36.928  19.928  1.00  0.00    -0.000 C 
BRANCH  12  13
ATOM     13  C   UNL     1       1.886 -35.612  20.478  1.00  0.00    -0.000 C 
BRANCH  13  14
ATOM     14  C   UNL     1       2.772 -35.804  21.723  1.00  0.00    -0.000 C 
BRANCH  14  15
ATOM     15  C   UNL     1       4.264 -36.054  21.426  1.00  0.00    -0.000 C 
BRANCH  15  16
ATOM     16  C   UNL     1       4.694 -37.531  21.485  1.00  0.00    -0.003 C 
ATOM     17  C   UNL     1       5.797 -37.791  22.509  1.00  0.00     0.004 C 
ENDBRANCH  15  16
ENDBRANCH  14  15
ENDBRANCH  13  14
ENDBRANCH  12  13
ENDBRANCH  11  12
ENDBRANCH  10  11
ENDBRANCH   1  10
TORSDOF 13
ENDMDL
