MODEL 1
REMARK VINA RESULT:    -6.780      0.000      0.000
REMARK INTER + INTRA:          -8.466
REMARK INTER:                  -8.167
REMARK INTRA:                  -0.299
REMARK UNBOUND:                -0.299
REMARK SMILES O=c1c(O)c(-c2ccc(O)c(O)c2)oc2cc(O)cc(O)c12
REMARK SMILES IDX 5 1 3 2 2 3 1 4 22 5 20 6 19 7 17 8 16 9 15 10 14 11 6 12
REMARK SMILES IDX 7 13 8 14 9 15 13 16 11 17 10 18 12 20 4 22 21 24 18 26
REMARK H PARENT 10 19 12 21 4 23 21 25 18 27
REMARK Flexibility Score: inf
ROOT
ATOM      1  C   UNL     1      15.976   9.016  13.498  1.00  0.00     0.180 A 
ATOM      2  C   UNL     1      16.092   9.739  14.698  1.00  0.00     0.208 A 
ATOM      3  C   UNL     1      16.002  11.140  14.662  1.00  0.00     0.238 A 
ATOM      4  O   UNL     1      16.050  11.776  15.747  1.00  0.00    -0.285 OA
ATOM      5  C   UNL     1      15.814  11.800  13.425  1.00  0.00     0.111 A 
ATOM      6  C   UNL     1      15.749  13.218  13.265  1.00  0.00     0.134 A 
ATOM      7  C   UNL     1      15.429  13.758  12.013  1.00  0.00     0.093 A 
ATOM      8  C   UNL     1      15.238  12.937  10.902  1.00  0.00     0.123 A 
ATOM      9  C   UNL     1      15.358  11.553  11.034  1.00  0.00     0.094 A 
ATOM     10  C   UNL     1      15.640  10.983  12.277  1.00  0.00     0.146 A 
ATOM     11  O   UNL     1      15.735   9.662  12.363  1.00  0.00    -0.452 OA
ENDROOT
BRANCH   1  12
ATOM     12  C   UNL     1      16.086   7.541  13.453  1.00  0.00     0.025 A 
ATOM     13  C   UNL     1      14.962   6.754  13.752  1.00  0.00     0.016 A 
ATOM     14  C   UNL     1      15.037   5.360  13.695  1.00  0.00     0.051 A 
ATOM     15  C   UNL     1      16.233   4.733  13.324  1.00  0.00     0.157 A 
ATOM     16  C   UNL     1      17.279   6.906  13.062  1.00  0.00     0.062 A 
ATOM     17  C   UNL     1      17.355   5.507  13.003  1.00  0.00     0.158 A 
BRANCH  15  18
ATOM     18  O   UNL     1      16.314   3.342  13.268  1.00  0.00    -0.504 OA
ATOM     19  H   UNL     1      15.519   2.777  12.994  1.00  0.00     0.293 HD
ENDBRANCH  15  18
BRANCH  17  20
ATOM     20  O   UNL     1      18.540   4.880  12.621  1.00  0.00    -0.504 OA
ATOM     21  H   UNL     1      19.365   4.902  13.209  1.00  0.00     0.293 HD
ENDBRANCH  17  20
ENDBRANCH   1  12
BRANCH   2  22
ATOM     22  O   UNL     1      16.254   9.064  15.912  1.00  0.00    -0.502 OA
ATOM     23  H   UNL     1      16.796   8.211  15.991  1.00  0.00     0.293 HD
ENDBRANCH   2  22
BRANCH   6  24
ATOM     24  O   UNL     1      16.014  14.131  14.289  1.00  0.00    -0.507 OA
ATOM     25  H   UNL     1      15.360  14.821  14.628  1.00  0.00     0.293 HD
ENDBRANCH   6  24
BRANCH   8  26
ATOM     26  O   UNL     1      14.937  13.510   9.669  1.00  0.00    -0.508 OA
ATOM     27  H   UNL     1      15.660  13.902   9.076  1.00  0.00     0.293 HD
ENDBRANCH   8  26
TORSDOF 6
ENDMDL
MODEL 2
REMARK VINA RESULT:    -6.596      1.669      6.656
REMARK INTER + INTRA:          -8.244
REMARK INTER:                  -7.923
REMARK INTRA:                  -0.322
REMARK UNBOUND:                -0.299
REMARK SMILES O=c1c(O)c(-c2ccc(O)c(O)c2)oc2cc(O)cc(O)c12
REMARK SMILES IDX 5 1 3 2 2 3 1 4 22 5 20 6 19 7 17 8 16 9 15 10 14 11 6 12
REMARK SMILES IDX 7 13 8 14 9 15 13 16 11 17 10 18 12 20 4 22 21 24 18 26
REMARK H PARENT 10 19 12 21 4 23 21 25 18 27
REMARK Flexibility Score: inf
ROOT
ATOM      1  C   UNL     1      15.889  10.691  13.216  1.00  0.00     0.180 A 
ATOM      2  C   UNL     1      16.988  10.928  14.059  1.00  0.00     0.208 A 
ATOM      3  C   UNL     1      17.657   9.835  14.632  1.00  0.00     0.238 A 
ATOM      4  O   UNL     1      18.674  10.052  15.341  1.00  0.00    -0.285 OA
ATOM      5  C   UNL     1      17.206   8.519  14.369  1.00  0.00     0.111 A 
ATOM      6  C   UNL     1      17.783   7.338  14.928  1.00  0.00     0.134 A 
ATOM      7  C   UNL     1      17.340   6.082  14.496  1.00  0.00     0.093 A 
ATOM      8  C   UNL     1      16.299   5.963  13.576  1.00  0.00     0.123 A 
ATOM      9  C   UNL     1      15.688   7.110  13.067  1.00  0.00     0.094 A 
ATOM     10  C   UNL     1      16.132   8.377  13.452  1.00  0.00     0.146 A 
ATOM     11  O   UNL     1      15.531   9.443  12.937  1.00  0.00    -0.452 OA
ENDROOT
BRANCH   1  12
ATOM     12  C   UNL     1      15.119  11.793  12.597  1.00  0.00     0.025 A 
ATOM     13  C   UNL     1      14.069  12.392  13.312  1.00  0.00     0.016 A 
ATOM     14  C   UNL     1      13.343  13.447  12.754  1.00  0.00     0.051 A 
ATOM     15  C   UNL     1      13.665  13.930  11.480  1.00  0.00     0.157 A 
ATOM     16  C   UNL     1      15.452  12.295  11.325  1.00  0.00     0.062 A 
ATOM     17  C   UNL     1      14.725  13.356  10.765  1.00  0.00     0.158 A 
BRANCH  15  18
ATOM     18  O   UNL     1      12.942  14.981  10.918  1.00  0.00    -0.504 OA
ATOM     19  H   UNL     1      12.524  15.702  11.494  1.00  0.00     0.293 HD
ENDBRANCH  15  18
BRANCH  17  20
ATOM     20  O   UNL     1      15.052  13.847   9.503  1.00  0.00    -0.504 OA
ATOM     21  H   UNL     1      14.340  14.183   8.864  1.00  0.00     0.293 HD
ENDBRANCH  17  20
ENDBRANCH   1  12
BRANCH   2  22
ATOM     22  O   UNL     1      17.430  12.236  14.287  1.00  0.00    -0.502 OA
ATOM     23  H   UNL     1      17.513  12.918  13.543  1.00  0.00     0.293 HD
ENDBRANCH   2  22
BRANCH   6  24
ATOM     24  O   UNL     1      18.766   7.345  15.922  1.00  0.00    -0.507 OA
ATOM     25  H   UNL     1      19.003   6.555  16.502  1.00  0.00     0.293 HD
ENDBRANCH   6  24
BRANCH   8  26
ATOM     26  O   UNL     1      15.874   4.696  13.180  1.00  0.00    -0.508 OA
ATOM     27  H   UNL     1      15.820   3.927  13.838  1.00  0.00     0.293 HD
ENDBRANCH   8  26
TORSDOF 6
ENDMDL
MODEL 3
REMARK VINA RESULT:    -6.574      4.560      7.490
REMARK INTER + INTRA:          -8.218
REMARK INTER:                  -8.081
REMARK INTRA:                  -0.137
REMARK UNBOUND:                -0.299
REMARK SMILES O=c1c(O)c(-c2ccc(O)c(O)c2)oc2cc(O)cc(O)c12
REMARK SMILES IDX 5 1 3 2 2 3 1 4 22 5 20 6 19 7 17 8 16 9 15 10 14 11 6 12
REMARK SMILES IDX 7 13 8 14 9 15 13 16 11 17 10 18 12 20 4 22 21 24 18 26
REMARK H PARENT 10 19 12 21 4 23 21 25 18 27
REMARK Flexibility Score: inf
ROOT
ATOM      1  C   UNL     1      11.952  13.799  11.249  1.00  0.00     0.180 A 
ATOM      2  C   UNL     1      10.611  13.413  11.077  1.00  0.00     0.208 A 
ATOM      3  C   UNL     1       9.886  13.931   9.992  1.00  0.00     0.238 A 
ATOM      4  O   UNL     1       8.704  13.538   9.813  1.00  0.00    -0.285 OA
ATOM      5  C   UNL     1      10.505  14.842   9.103  1.00  0.00     0.111 A 
ATOM      6  C   UNL     1       9.853  15.460   7.993  1.00  0.00     0.134 A 
ATOM      7  C   UNL     1      10.598  16.244   7.104  1.00  0.00     0.093 A 
ATOM      8  C   UNL     1      11.955  16.485   7.319  1.00  0.00     0.123 A 
ATOM      9  C   UNL     1      12.589  15.933   8.433  1.00  0.00     0.094 A 
ATOM     10  C   UNL     1      11.880  15.118   9.318  1.00  0.00     0.146 A 
ATOM     11  O   UNL     1      12.523  14.604  10.360  1.00  0.00    -0.452 OA
ENDROOT
BRANCH   1  12
ATOM     12  C   UNL     1      12.772  13.315  12.382  1.00  0.00     0.025 A 
ATOM     13  C   UNL     1      12.386  13.622  13.696  1.00  0.00     0.016 A 
ATOM     14  C   UNL     1      13.134  13.159  14.781  1.00  0.00     0.051 A 
ATOM     15  C   UNL     1      14.271  12.368  14.568  1.00  0.00     0.157 A 
ATOM     16  C   UNL     1      13.903  12.504  12.174  1.00  0.00     0.062 A 
ATOM     17  C   UNL     1      14.654  12.036  13.262  1.00  0.00     0.158 A 
BRANCH  15  18
ATOM     18  O   UNL     1      15.022  11.905  15.647  1.00  0.00    -0.504 OA
ATOM     19  H   UNL     1      15.998  12.152  15.757  1.00  0.00     0.293 HD
ENDBRANCH  15  18
BRANCH  17  20
ATOM     20  O   UNL     1      15.777  11.238  13.054  1.00  0.00    -0.504 OA
ATOM     21  H   UNL     1      15.769  10.475  12.386  1.00  0.00     0.293 HD
ENDBRANCH  17  20
ENDBRANCH   1  12
BRANCH   2  22
ATOM     22  O   UNL     1      10.027  12.494  11.955  1.00  0.00    -0.502 OA
ATOM     23  H   UNL     1      10.552  11.739  12.378  1.00  0.00     0.293 HD
ENDBRANCH   2  22
BRANCH   6  24
ATOM     24  O   UNL     1       8.482  15.360   7.739  1.00  0.00    -0.507 OA
ATOM     25  H   UNL     1       7.760  15.449   8.437  1.00  0.00     0.293 HD
ENDBRANCH   6  24
BRANCH   8  26
ATOM     26  O   UNL     1      12.661  17.282   6.421  1.00  0.00    -0.508 OA
ATOM     27  H   UNL     1      12.647  17.098   5.424  1.00  0.00     0.293 HD
ENDBRANCH   8  26
TORSDOF 6
ENDMDL
MODEL 4
REMARK VINA RESULT:    -6.532      1.716      7.202
REMARK INTER + INTRA:          -8.167
REMARK INTER:                  -7.867
REMARK INTRA:                  -0.300
REMARK UNBOUND:                -0.299
REMARK SMILES O=c1c(O)c(-c2ccc(O)c(O)c2)oc2cc(O)cc(O)c12
REMARK SMILES IDX 5 1 3 2 2 3 1 4 22 5 20 6 19 7 17 8 16 9 15 10 14 11 6 12
REMARK SMILES IDX 7 13 8 14 9 15 13 16 11 17 10 18 12 20 4 22 21 24 18 26
REMARK H PARENT 10 19 12 21 4 23 21 25 18 27
REMARK Flexibility Score: inf
ROOT
ATOM      1  C   UNL     1      15.845   7.864  13.181  1.00  0.00     0.180 A 
ATOM      2  C   UNL     1      17.032   7.117  13.085  1.00  0.00     0.208 A 
ATOM      3  C   UNL     1      16.977   5.725  13.257  1.00  0.00     0.238 A 
ATOM      4  O   UNL     1      18.034   5.057  13.115  1.00  0.00    -0.285 OA
ATOM      5  C   UNL     1      15.739   5.099  13.539  1.00  0.00     0.111 A 
ATOM      6  C   UNL     1      15.573   3.700  13.771  1.00  0.00     0.134 A 
ATOM      7  C   UNL     1      14.284   3.172  13.912  1.00  0.00     0.093 A 
ATOM      8  C   UNL     1      13.161   3.998  13.894  1.00  0.00     0.123 A 
ATOM      9  C   UNL     1      13.316   5.375  13.727  1.00  0.00     0.094 A 
ATOM     10  C   UNL     1      14.586   5.927  13.548  1.00  0.00     0.146 A 
ATOM     11  O   UNL     1      14.690   7.240  13.382  1.00  0.00    -0.452 OA
ENDROOT
BRANCH   1  12
ATOM     12  C   UNL     1      15.827   9.337  13.037  1.00  0.00     0.025 A 
ATOM     13  C   UNL     1      16.199  10.143  14.124  1.00  0.00     0.016 A 
ATOM     14  C   UNL     1      16.209  11.535  14.004  1.00  0.00     0.051 A 
ATOM     15  C   UNL     1      15.862  12.141  12.790  1.00  0.00     0.157 A 
ATOM     16  C   UNL     1      15.498   9.950  11.813  1.00  0.00     0.062 A 
ATOM     17  C   UNL     1      15.510  11.347  11.691  1.00  0.00     0.158 A 
BRANCH  15  18
ATOM     18  O   UNL     1      15.868  13.529  12.666  1.00  0.00    -0.504 OA
ATOM     19  H   UNL     1      16.556  14.100  13.143  1.00  0.00     0.293 HD
ENDBRANCH  15  18
BRANCH  17  20
ATOM     20  O   UNL     1      15.178  11.953  10.480  1.00  0.00    -0.504 OA
ATOM     21  H   UNL     1      15.864  12.078   9.745  1.00  0.00     0.293 HD
ENDBRANCH  17  20
ENDBRANCH   1  12
BRANCH   2  22
ATOM     22  O   UNL     1      18.239   7.754  12.783  1.00  0.00    -0.502 OA
ATOM     23  H   UNL     1      18.745   8.310  13.462  1.00  0.00     0.293 HD
ENDBRANCH   2  22
BRANCH   6  24
ATOM     24  O   UNL     1      16.634   2.799  13.899  1.00  0.00    -0.507 OA
ATOM     25  H   UNL     1      17.607   3.060  13.945  1.00  0.00     0.293 HD
ENDBRANCH   6  24
BRANCH   8  26
ATOM     26  O   UNL     1      11.895   3.440  14.053  1.00  0.00    -0.508 OA
ATOM     27  H   UNL     1      11.258   3.767  14.771  1.00  0.00     0.293 HD
ENDBRANCH   8  26
TORSDOF 6
ENDMDL
MODEL 5
REMARK VINA RESULT:    -6.508      2.039      7.552
REMARK INTER + INTRA:          -8.139
REMARK INTER:                  -7.809
REMARK INTRA:                  -0.330
REMARK UNBOUND:                -0.299
REMARK SMILES O=c1c(O)c(-c2ccc(O)c(O)c2)oc2cc(O)cc(O)c12
REMARK SMILES IDX 5 1 3 2 2 3 1 4 22 5 20 6 19 7 17 8 16 9 15 10 14 11 6 12
REMARK SMILES IDX 7 13 8 14 9 15 13 16 11 17 10 18 12 20 4 22 21 24 18 26
REMARK H PARENT 10 19 12 21 4 23 21 25 18 27
REMARK Flexibility Score: inf
ROOT
ATOM      1  C   UNL     1      15.175  12.034  13.394  1.00  0.00     0.180 A 
ATOM      2  C   UNL     1      15.163  11.404  12.137  1.00  0.00     0.208 A 
ATOM      3  C   UNL     1      15.582  10.068  12.039  1.00  0.00     0.238 A 
ATOM      4  O   UNL     1      15.516   9.494  10.921  1.00  0.00    -0.285 OA
ATOM      5  C   UNL     1      16.024   9.383  13.196  1.00  0.00     0.111 A 
ATOM      6  C   UNL     1      16.508   8.040  13.207  1.00  0.00     0.134 A 
ATOM      7  C   UNL     1      16.796   7.419  14.429  1.00  0.00     0.093 A 
ATOM      8  C   UNL     1      16.680   8.112  15.633  1.00  0.00     0.123 A 
ATOM      9  C   UNL     1      16.264   9.444  15.630  1.00  0.00     0.094 A 
ATOM     10  C   UNL     1      15.935  10.079  14.430  1.00  0.00     0.146 A 
ATOM     11  O   UNL     1      15.533  11.344  14.471  1.00  0.00    -0.452 OA
ENDROOT
BRANCH   1  12
ATOM     12  C   UNL     1      14.772  13.447  13.572  1.00  0.00     0.025 A 
ATOM     13  C   UNL     1      13.437  13.751  13.881  1.00  0.00     0.016 A 
ATOM     14  C   UNL     1      13.038  15.077  14.073  1.00  0.00     0.051 A 
ATOM     15  C   UNL     1      13.973  16.116  13.975  1.00  0.00     0.157 A 
ATOM     16  C   UNL     1      15.711  14.492  13.494  1.00  0.00     0.062 A 
ATOM     17  C   UNL     1      15.312  15.823  13.689  1.00  0.00     0.158 A 
BRANCH  15  18
ATOM     18  O   UNL     1      13.580  17.439  14.164  1.00  0.00    -0.504 OA
ATOM     19  H   UNL     1      13.231  18.003  13.398  1.00  0.00     0.293 HD
ENDBRANCH  15  18
BRANCH  17  20
ATOM     20  O   UNL     1      16.242  16.857  13.606  1.00  0.00    -0.504 OA
ATOM     21  H   UNL     1      17.173  16.705  13.235  1.00  0.00     0.293 HD
ENDBRANCH  17  20
ENDBRANCH   1  12
BRANCH   2  22
ATOM     22  O   UNL     1      14.701  12.093  11.011  1.00  0.00    -0.502 OA
ATOM     23  H   UNL     1      15.138  12.003  10.102  1.00  0.00     0.293 HD
ENDBRANCH   2  22
BRANCH   6  24
ATOM     24  O   UNL     1      16.749   7.288  12.054  1.00  0.00    -0.507 OA
ATOM     25  H   UNL     1      17.519   6.648  11.935  1.00  0.00     0.293 HD
ENDBRANCH   6  24
BRANCH   8  26
ATOM     26  O   UNL     1      16.990   7.468  16.829  1.00  0.00    -0.508 OA
ATOM     27  H   UNL     1      17.878   7.615  17.295  1.00  0.00     0.293 HD
ENDBRANCH   8  26
TORSDOF 6
ENDMDL
MODEL 6
REMARK VINA RESULT:    -6.304      2.887      4.102
REMARK INTER + INTRA:          -7.892
REMARK INTER:                  -7.572
REMARK INTRA:                  -0.321
REMARK UNBOUND:                -0.299
REMARK SMILES O=c1c(O)c(-c2ccc(O)c(O)c2)oc2cc(O)cc(O)c12
REMARK SMILES IDX 5 1 3 2 2 3 1 4 22 5 20 6 19 7 17 8 16 9 15 10 14 11 6 12
REMARK SMILES IDX 7 13 8 14 9 15 13 16 11 17 10 18 12 20 4 22 21 24 18 26
REMARK H PARENT 10 19 12 21 4 23 21 25 18 27
REMARK Flexibility Score: inf
ROOT
ATOM      1  C   UNL     1      16.942   9.350  15.297  1.00  0.00     0.180 A 
ATOM      2  C   UNL     1      16.280   8.668  14.262  1.00  0.00     0.208 A 
ATOM      3  C   UNL     1      15.822   9.393  13.150  1.00  0.00     0.238 A 
ATOM      4  O   UNL     1      15.279   8.767  12.202  1.00  0.00    -0.285 OA
ATOM      5  C   UNL     1      16.016  10.794  13.096  1.00  0.00     0.111 A 
ATOM      6  C   UNL     1      15.557  11.635  12.037  1.00  0.00     0.134 A 
ATOM      7  C   UNL     1      15.919  12.987  12.023  1.00  0.00     0.093 A 
ATOM      8  C   UNL     1      16.667  13.543  13.061  1.00  0.00     0.123 A 
ATOM      9  C   UNL     1      17.071  12.743  14.131  1.00  0.00     0.094 A 
ATOM     10  C   UNL     1      16.755  11.383  14.155  1.00  0.00     0.146 A 
ATOM     11  O   UNL     1      17.167  10.655  15.185  1.00  0.00    -0.452 OA
ENDROOT
BRANCH   1  12
ATOM     12  C   UNL     1      17.431   8.658  16.510  1.00  0.00     0.025 A 
ATOM     13  C   UNL     1      16.591   8.548  17.629  1.00  0.00     0.016 A 
ATOM     14  C   UNL     1      17.024   7.881  18.778  1.00  0.00     0.051 A 
ATOM     15  C   UNL     1      18.299   7.302  18.819  1.00  0.00     0.157 A 
ATOM     16  C   UNL     1      18.703   8.057  16.549  1.00  0.00     0.062 A 
ATOM     17  C   UNL     1      19.138   7.386  17.701  1.00  0.00     0.158 A 
BRANCH  15  18
ATOM     18  O   UNL     1      18.736   6.637  19.964  1.00  0.00    -0.504 OA
ATOM     19  H   UNL     1      18.082   6.232  20.623  1.00  0.00     0.293 HD
ENDBRANCH  15  18
BRANCH  17  20
ATOM     20  O   UNL     1      20.401   6.796  17.740  1.00  0.00    -0.504 OA
ATOM     21  H   UNL     1      20.738   6.320  18.569  1.00  0.00     0.293 HD
ENDBRANCH  17  20
ENDBRANCH   1  12
BRANCH   2  22
ATOM     22  O   UNL     1      16.119   7.280  14.326  1.00  0.00    -0.502 OA
ATOM     23  H   UNL     1      15.273   6.816  14.016  1.00  0.00     0.293 HD
ENDBRANCH   2  22
BRANCH   6  24
ATOM     24  O   UNL     1      14.728  11.200  10.999  1.00  0.00    -0.507 OA
ATOM     25  H   UNL     1      13.720  11.242  11.012  1.00  0.00     0.293 HD
ENDBRANCH   6  24
BRANCH   8  26
ATOM     26  O   UNL     1      16.996  14.897  13.022  1.00  0.00    -0.508 OA
ATOM     27  H   UNL     1      16.485  15.549  12.438  1.00  0.00     0.293 HD
ENDBRANCH   8  26
TORSDOF 6
ENDMDL
MODEL 7
REMARK VINA RESULT:    -6.264      2.466      7.384
REMARK INTER + INTRA:          -7.845
REMARK INTER:                  -7.530
REMARK INTRA:                  -0.315
REMARK UNBOUND:                -0.299
REMARK SMILES O=c1c(O)c(-c2ccc(O)c(O)c2)oc2cc(O)cc(O)c12
REMARK SMILES IDX 5 1 3 2 2 3 1 4 22 5 20 6 19 7 17 8 16 9 15 10 14 11 6 12
REMARK SMILES IDX 7 13 8 14 9 15 13 16 11 17 10 18 12 20 4 22 21 24 18 26
REMARK H PARENT 10 19 12 21 4 23 21 25 18 27
REMARK Flexibility Score: inf
ROOT
ATOM      1  C   UNL     1      15.892  11.101  14.409  1.00  0.00     0.180 A 
ATOM      2  C   UNL     1      16.164  10.082  13.480  1.00  0.00     0.208 A 
ATOM      3  C   UNL     1      16.662   8.853  13.942  1.00  0.00     0.238 A 
ATOM      4  O   UNL     1      16.851   7.927  13.111  1.00  0.00    -0.285 OA
ATOM      5  C   UNL     1      16.897   8.664  15.325  1.00  0.00     0.111 A 
ATOM      6  C   UNL     1      17.438   7.474  15.899  1.00  0.00     0.134 A 
ATOM      7  C   UNL     1      17.506   7.350  17.293  1.00  0.00     0.093 A 
ATOM      8  C   UNL     1      17.116   8.395  18.129  1.00  0.00     0.123 A 
ATOM      9  C   UNL     1      16.641   9.585  17.576  1.00  0.00     0.094 A 
ATOM     10  C   UNL     1      16.527   9.726  16.191  1.00  0.00     0.146 A 
ATOM     11  O   UNL     1      16.062  10.870  15.706  1.00  0.00    -0.452 OA
ENDROOT
BRANCH   1  12
ATOM     12  C   UNL     1      15.389  12.430  13.996  1.00  0.00     0.025 A 
ATOM     13  C   UNL     1      14.026  12.731  14.144  1.00  0.00     0.016 A 
ATOM     14  C   UNL     1      13.533  13.987  13.780  1.00  0.00     0.051 A 
ATOM     15  C   UNL     1      14.400  14.966  13.277  1.00  0.00     0.157 A 
ATOM     16  C   UNL     1      16.259  13.424  13.510  1.00  0.00     0.062 A 
ATOM     17  C   UNL     1      15.766  14.686  13.146  1.00  0.00     0.158 A 
BRANCH  15  18
ATOM     18  O   UNL     1      13.914  16.219  12.911  1.00  0.00    -0.504 OA
ATOM     19  H   UNL     1      13.314  16.755  13.527  1.00  0.00     0.293 HD
ENDBRANCH  15  18
BRANCH  17  20
ATOM     20  O   UNL     1      16.628  15.666  12.659  1.00  0.00    -0.504 OA
ATOM     21  H   UNL     1      16.364  16.268  11.887  1.00  0.00     0.293 HD
ENDBRANCH  17  20
ENDBRANCH   1  12
BRANCH   2  22
ATOM     22  O   UNL     1      15.902  10.282  12.121  1.00  0.00    -0.502 OA
ATOM     23  H   UNL     1      16.619  10.193  11.411  1.00  0.00     0.293 HD
ENDBRANCH   2  22
BRANCH   6  24
ATOM     24  O   UNL     1      17.943   6.406  15.152  1.00  0.00    -0.507 OA
ATOM     25  H   UNL     1      17.418   5.887  14.465  1.00  0.00     0.293 HD
ENDBRANCH   6  24
BRANCH   8  26
ATOM     26  O   UNL     1      17.212   8.241  19.510  1.00  0.00    -0.508 OA
ATOM     27  H   UNL     1      16.591   8.734  20.142  1.00  0.00     0.293 HD
ENDBRANCH   8  26
TORSDOF 6
ENDMDL
MODEL 8
REMARK VINA RESULT:    -6.241      2.426      6.778
REMARK INTER + INTRA:          -7.817
REMARK INTER:                  -7.629
REMARK INTRA:                  -0.188
REMARK UNBOUND:                -0.299
REMARK SMILES O=c1c(O)c(-c2ccc(O)c(O)c2)oc2cc(O)cc(O)c12
REMARK SMILES IDX 5 1 3 2 2 3 1 4 22 5 20 6 19 7 17 8 16 9 15 10 14 11 6 12
REMARK SMILES IDX 7 13 8 14 9 15 13 16 11 17 10 18 12 20 4 22 21 24 18 26
REMARK H PARENT 10 19 12 21 4 23 21 25 18 27
REMARK Flexibility Score: inf
ROOT
ATOM      1  C   UNL     1      16.037  10.930  14.169  1.00  0.00     0.180 A 
ATOM      2  C   UNL     1      16.268   9.578  13.862  1.00  0.00     0.208 A 
ATOM      3  C   UNL     1      17.067   8.810  14.724  1.00  0.00     0.238 A 
ATOM      4  O   UNL     1      17.223   7.587  14.473  1.00  0.00    -0.285 OA
ATOM      5  C   UNL     1      17.638   9.408  15.873  1.00  0.00     0.111 A 
ATOM      6  C   UNL     1      18.496   8.734  16.795  1.00  0.00     0.134 A 
ATOM      7  C   UNL     1      18.899   9.387  17.966  1.00  0.00     0.093 A 
ATOM      8  C   UNL     1      18.529  10.708  18.219  1.00  0.00     0.123 A 
ATOM      9  C   UNL     1      17.739  11.395  17.296  1.00  0.00     0.094 A 
ATOM     10  C   UNL     1      17.292  10.759  16.135  1.00  0.00     0.146 A 
ATOM     11  O   UNL     1      16.534  11.444  15.288  1.00  0.00    -0.452 OA
ENDROOT
BRANCH   1  12
ATOM     12  C   UNL     1      15.228  11.809  13.296  1.00  0.00     0.025 A 
ATOM     13  C   UNL     1      14.053  12.391  13.798  1.00  0.00     0.016 A 
ATOM     14  C   UNL     1      13.284  13.240  12.999  1.00  0.00     0.051 A 
ATOM     15  C   UNL     1      13.688  13.533  11.689  1.00  0.00     0.157 A 
ATOM     16  C   UNL     1      15.639  12.123  11.987  1.00  0.00     0.062 A 
ATOM     17  C   UNL     1      14.869  12.977  11.184  1.00  0.00     0.158 A 
BRANCH  15  18
ATOM     18  O   UNL     1      12.923  14.378  10.887  1.00  0.00    -0.504 OA
ATOM     19  H   UNL     1      12.122  14.036  10.370  1.00  0.00     0.293 HD
ENDBRANCH  15  18
BRANCH  17  20
ATOM     20  O   UNL     1      15.275  13.281   9.886  1.00  0.00    -0.504 OA
ATOM     21  H   UNL     1      16.246  13.208   9.603  1.00  0.00     0.293 HD
ENDBRANCH  17  20
ENDBRANCH   1  12
BRANCH   2  22
ATOM     22  O   UNL     1      15.675   9.003  12.734  1.00  0.00    -0.502 OA
ATOM     23  H   UNL     1      15.167   8.127  12.775  1.00  0.00     0.293 HD
ENDBRANCH   2  22
BRANCH   6  24
ATOM     24  O   UNL     1      19.000   7.446  16.594  1.00  0.00    -0.507 OA
ATOM     25  H   UNL     1      18.532   6.721  16.071  1.00  0.00     0.293 HD
ENDBRANCH   6  24
BRANCH   8  26
ATOM     26  O   UNL     1      18.960  11.330  19.388  1.00  0.00    -0.508 OA
ATOM     27  H   UNL     1      19.075  10.813  20.252  1.00  0.00     0.293 HD
ENDBRANCH   8  26
TORSDOF 6
ENDMDL
MODEL 9
REMARK VINA RESULT:    -6.241      1.946      6.790
REMARK INTER + INTRA:          -7.817
REMARK INTER:                  -7.532
REMARK INTRA:                  -0.285
REMARK UNBOUND:                -0.299
REMARK SMILES O=c1c(O)c(-c2ccc(O)c(O)c2)oc2cc(O)cc(O)c12
REMARK SMILES IDX 5 1 3 2 2 3 1 4 22 5 20 6 19 7 17 8 16 9 15 10 14 11 6 12
REMARK SMILES IDX 7 13 8 14 9 15 13 16 11 17 10 18 12 20 4 22 21 24 18 26
REMARK H PARENT 10 19 12 21 4 23 21 25 18 27
REMARK Flexibility Score: inf
ROOT
ATOM      1  C   UNL     1      15.875  10.865  14.455  1.00  0.00     0.180 A 
ATOM      2  C   UNL     1      15.896  10.606  15.837  1.00  0.00     0.208 A 
ATOM      3  C   UNL     1      16.330   9.350  16.289  1.00  0.00     0.238 A 
ATOM      4  O   UNL     1      16.400   9.145  17.528  1.00  0.00    -0.285 OA
ATOM      5  C   UNL     1      16.720   8.362  15.353  1.00  0.00     0.111 A 
ATOM      6  C   UNL     1      17.139   7.041  15.697  1.00  0.00     0.134 A 
ATOM      7  C   UNL     1      17.627   6.189  14.698  1.00  0.00     0.093 A 
ATOM      8  C   UNL     1      17.652   6.587  13.362  1.00  0.00     0.123 A 
ATOM      9  C   UNL     1      17.190   7.855  13.006  1.00  0.00     0.094 A 
ATOM     10  C   UNL     1      16.730   8.739  13.984  1.00  0.00     0.146 A 
ATOM     11  O   UNL     1      16.309   9.940  13.606  1.00  0.00    -0.452 OA
ENDROOT
BRANCH   1  12
ATOM     12  C   UNL     1      15.407  12.156  13.902  1.00  0.00     0.025 A 
ATOM     13  C   UNL     1      14.029  12.420  13.833  1.00  0.00     0.016 A 
ATOM     14  C   UNL     1      13.566  13.639  13.334  1.00  0.00     0.051 A 
ATOM     15  C   UNL     1      14.473  14.619  12.911  1.00  0.00     0.157 A 
ATOM     16  C   UNL     1      16.314  13.151  13.495  1.00  0.00     0.062 A 
ATOM     17  C   UNL     1      15.850  14.377  12.996  1.00  0.00     0.158 A 
BRANCH  15  18
ATOM     18  O   UNL     1      14.016  15.837  12.410  1.00  0.00    -0.504 OA
ATOM     19  H   UNL     1      13.941  16.005  11.414  1.00  0.00     0.293 HD
ENDBRANCH  15  18
BRANCH  17  20
ATOM     20  O   UNL     1      16.750  15.359  12.587  1.00  0.00    -0.504 OA
ATOM     21  H   UNL     1      17.731  15.317  12.838  1.00  0.00     0.293 HD
ENDBRANCH  17  20
ENDBRANCH   1  12
BRANCH   2  22
ATOM     22  O   UNL     1      15.528  11.605  16.744  1.00  0.00    -0.502 OA
ATOM     23  H   UNL     1      14.605  12.023  16.746  1.00  0.00     0.293 HD
ENDBRANCH   2  22
BRANCH   6  24
ATOM     24  O   UNL     1      17.069   6.512  16.989  1.00  0.00    -0.507 OA
ATOM     25  H   UNL     1      16.500   6.885  17.733  1.00  0.00     0.293 HD
ENDBRANCH   6  24
BRANCH   8  26
ATOM     26  O   UNL     1      18.130   5.707  12.393  1.00  0.00    -0.508 OA
ATOM     27  H   UNL     1      18.975   5.905  11.869  1.00  0.00     0.293 HD
ENDBRANCH   8  26
TORSDOF 6
ENDMDL
