MODEL 1
REMARK VINA RESULT:    -4.368      0.000      0.000
REMARK INTER + INTRA:          -5.102
REMARK INTER:                  -5.006
REMARK INTRA:                  -0.096
REMARK UNBOUND:                -0.096
REMARK SMILES COc1cc(C(=O)[O-])ccc1O
REMARK SMILES IDX 5 1 9 2 4 3 10 4 3 5 11 6 6 7 7 8 8 9 2 10 1 11 12 12
REMARK H PARENT 12 13
REMARK Flexibility Score: inf
ROOT
ATOM      1  C   UNL     1      38.923 -20.252  15.906  1.00  0.00     0.001 A 
ATOM      2  C   UNL     1      37.995 -20.616  14.917  1.00  0.00     0.014 A 
ATOM      3  C   UNL     1      38.485 -19.500  17.010  1.00  0.00     0.060 A 
ATOM      4  C   UNL     1      36.657 -20.238  15.029  1.00  0.00     0.051 A 
ATOM      5  C   UNL     1      37.133 -19.115  17.129  1.00  0.00     0.161 A 
ATOM      6  C   UNL     1      36.221 -19.490  16.127  1.00  0.00     0.157 A 
ENDROOT
BRANCH   1   7
ATOM      7  C   UNL     1      40.343 -20.651  15.789  1.00  0.00     0.072 C 
ATOM      8  O   UNL     1      41.093 -20.109  14.934  1.00  0.00    -0.545 OA
ATOM      9  O   UNL     1      40.871 -21.632  16.621  1.00  0.00    -0.545 OA
ENDBRANCH   1   7
BRANCH   5  10
ATOM     10  O   UNL     1      36.667 -18.365  18.221  1.00  0.00    -0.493 OA
ATOM     11  C   UNL     1      36.885 -16.969  18.396  1.00  0.00     0.278 C 
ENDBRANCH   5  10
BRANCH   6  12
ATOM     12  O   UNL     1      34.875 -19.130  16.205  1.00  0.00    -0.504 OA
ATOM     13  H   UNL     1      34.499 -18.336  15.702  1.00  0.00     0.293 HD
ENDBRANCH   6  12
TORSDOF 3
ENDMDL
MODEL 2
REMARK VINA RESULT:    -4.131      3.258      5.478
REMARK INTER + INTRA:          -4.830
REMARK INTER:                  -4.742
REMARK INTRA:                  -0.088
REMARK UNBOUND:                -0.096
REMARK SMILES COc1cc(C(=O)[O-])ccc1O
REMARK SMILES IDX 5 1 9 2 4 3 10 4 3 5 11 6 6 7 7 8 8 9 2 10 1 11 12 12
REMARK H PARENT 12 13
REMARK Flexibility Score: inf
ROOT
ATOM      1  C   UNL     1      37.127 -16.521  17.423  1.00  0.00     0.001 A 
ATOM      2  C   UNL     1      36.760 -16.797  18.751  1.00  0.00     0.014 A 
ATOM      3  C   UNL     1      37.448 -15.200  17.064  1.00  0.00     0.060 A 
ATOM      4  C   UNL     1      36.715 -15.775  19.699  1.00  0.00     0.051 A 
ATOM      5  C   UNL     1      37.404 -14.163  18.019  1.00  0.00     0.161 A 
ATOM      6  C   UNL     1      37.035 -14.462  19.342  1.00  0.00     0.157 A 
ENDROOT
BRANCH   1   7
ATOM      7  C   UNL     1      37.175 -17.603  16.415  1.00  0.00     0.072 C 
ATOM      8  O   UNL     1      37.341 -18.801  16.768  1.00  0.00    -0.545 OA
ATOM      9  O   UNL     1      37.039 -17.313  15.062  1.00  0.00    -0.545 OA
ENDBRANCH   1   7
BRANCH   5  10
ATOM     10  O   UNL     1      37.721 -12.835  17.689  1.00  0.00    -0.493 OA
ATOM     11  C   UNL     1      37.177 -12.125  16.581  1.00  0.00     0.278 C 
ENDBRANCH   5  10
BRANCH   6  12
ATOM     12  O   UNL     1      36.978 -13.466  20.318  1.00  0.00    -0.504 OA
ATOM     13  H   UNL     1      36.343 -12.680  20.252  1.00  0.00     0.293 HD
ENDBRANCH   6  12
TORSDOF 3
ENDMDL
MODEL 3
REMARK VINA RESULT:    -4.041      2.831      4.917
REMARK INTER + INTRA:          -4.728
REMARK INTER:                  -4.631
REMARK INTRA:                  -0.097
REMARK UNBOUND:                -0.096
REMARK SMILES COc1cc(C(=O)[O-])ccc1O
REMARK SMILES IDX 5 1 9 2 4 3 10 4 3 5 11 6 6 7 7 8 8 9 2 10 1 11 12 12
REMARK H PARENT 12 13
REMARK Flexibility Score: inf
ROOT
ATOM      1  C   UNL     1      37.161 -17.057  17.612  1.00  0.00     0.001 A 
ATOM      2  C   UNL     1      37.335 -16.120  16.581  1.00  0.00     0.014 A 
ATOM      3  C   UNL     1      37.102 -16.607  18.943  1.00  0.00     0.060 A 
ATOM      4  C   UNL     1      37.445 -14.760  16.873  1.00  0.00     0.051 A 
ATOM      5  C   UNL     1      37.213 -15.233  19.243  1.00  0.00     0.161 A 
ATOM      6  C   UNL     1      37.385 -14.312  18.195  1.00  0.00     0.157 A 
ENDROOT
BRANCH   1   7
ATOM      7  C   UNL     1      37.044 -18.501  17.305  1.00  0.00     0.072 C 
ATOM      8  O   UNL     1      35.965 -19.115  17.517  1.00  0.00    -0.545 OA
ATOM      9  O   UNL     1      38.125 -19.200  16.781  1.00  0.00    -0.545 OA
ENDBRANCH   1   7
BRANCH   5  10
ATOM     10  O   UNL     1      37.156 -14.755  20.562  1.00  0.00    -0.493 OA
ATOM     11  C   UNL     1      38.259 -14.726  21.462  1.00  0.00     0.278 C 
ENDBRANCH   5  10
BRANCH   6  12
ATOM     12  O   UNL     1      37.500 -12.945  18.449  1.00  0.00    -0.504 OA
ATOM     13  H   UNL     1      36.702 -12.371  18.690  1.00  0.00     0.293 HD
ENDBRANCH   6  12
TORSDOF 3
ENDMDL
MODEL 4
REMARK VINA RESULT:    -3.924      3.253      5.241
REMARK INTER + INTRA:          -4.594
REMARK INTER:                  -4.500
REMARK INTRA:                  -0.093
REMARK UNBOUND:                -0.096
REMARK SMILES COc1cc(C(=O)[O-])ccc1O
REMARK SMILES IDX 5 1 9 2 4 3 10 4 3 5 11 6 6 7 7 8 8 9 2 10 1 11 12 12
REMARK H PARENT 12 13
REMARK Flexibility Score: inf
ROOT
ATOM      1  C   UNL     1      38.053 -17.206  18.641  1.00  0.00     0.001 A 
ATOM      2  C   UNL     1      36.722 -16.774  18.769  1.00  0.00     0.014 A 
ATOM      3  C   UNL     1      39.087 -16.386  19.125  1.00  0.00     0.060 A 
ATOM      4  C   UNL     1      36.432 -15.550  19.371  1.00  0.00     0.051 A 
ATOM      5  C   UNL     1      38.799 -15.147  19.734  1.00  0.00     0.161 A 
ATOM      6  C   UNL     1      37.460 -14.734  19.853  1.00  0.00     0.157 A 
ENDROOT
BRANCH   1   7
ATOM      7  C   UNL     1      38.365 -18.504  18.002  1.00  0.00     0.072 C 
ATOM      8  O   UNL     1      38.971 -19.404  18.643  1.00  0.00    -0.545 OA
ATOM      9  O   UNL     1      37.994 -18.750  16.685  1.00  0.00    -0.545 OA
ENDBRANCH   1   7
BRANCH   5  10
ATOM     10  O   UNL     1      39.811 -14.308  20.228  1.00  0.00    -0.493 OA
ATOM     11  C   UNL     1      40.637 -14.609  21.348  1.00  0.00     0.278 C 
ENDBRANCH   5  10
BRANCH   6  12
ATOM     12  O   UNL     1      37.130 -13.516  20.448  1.00  0.00    -0.504 OA
ATOM     13  H   UNL     1      37.009 -13.419  21.448  1.00  0.00     0.293 HD
ENDBRANCH   6  12
TORSDOF 3
ENDMDL
MODEL 5
REMARK VINA RESULT:    -3.888      1.690      4.225
REMARK INTER + INTRA:          -4.552
REMARK INTER:                  -4.450
REMARK INTRA:                  -0.103
REMARK UNBOUND:                -0.096
REMARK SMILES COc1cc(C(=O)[O-])ccc1O
REMARK SMILES IDX 5 1 9 2 4 3 10 4 3 5 11 6 6 7 7 8 8 9 2 10 1 11 12 12
REMARK H PARENT 12 13
REMARK Flexibility Score: inf
ROOT
ATOM      1  C   UNL     1      37.273 -17.855  17.705  1.00  0.00     0.001 A 
ATOM      2  C   UNL     1      35.997 -18.000  17.136  1.00  0.00     0.014 A 
ATOM      3  C   UNL     1      38.298 -18.738  17.320  1.00  0.00     0.060 A 
ATOM      4  C   UNL     1      35.750 -19.005  16.201  1.00  0.00     0.051 A 
ATOM      5  C   UNL     1      38.053 -19.755  16.374  1.00  0.00     0.161 A 
ATOM      6  C   UNL     1      36.768 -19.882  15.817  1.00  0.00     0.157 A 
ENDROOT
BRANCH   1   7
ATOM      7  C   UNL     1      37.538 -16.791  18.699  1.00  0.00     0.072 C 
ATOM      8  O   UNL     1      38.718 -16.520  19.048  1.00  0.00    -0.545 OA
ATOM      9  O   UNL     1      36.488 -16.075  19.263  1.00  0.00    -0.545 OA
ENDBRANCH   1   7
BRANCH   5  10
ATOM     10  O   UNL     1      39.057 -20.650  15.969  1.00  0.00    -0.493 OA
ATOM     11  C   UNL     1      40.104 -20.334  15.057  1.00  0.00     0.278 C 
ENDBRANCH   5  10
BRANCH   6  12
ATOM     12  O   UNL     1      36.484 -20.875  14.879  1.00  0.00    -0.504 OA
ATOM     13  H   UNL     1      37.204 -21.306  14.314  1.00  0.00     0.293 HD
ENDBRANCH   6  12
TORSDOF 3
ENDMDL
MODEL 6
REMARK VINA RESULT:    -3.819      2.292      5.174
REMARK INTER + INTRA:          -4.474
REMARK INTER:                  -4.373
REMARK INTRA:                  -0.101
REMARK UNBOUND:                -0.096
REMARK SMILES COc1cc(C(=O)[O-])ccc1O
REMARK SMILES IDX 5 1 9 2 4 3 10 4 3 5 11 6 6 7 7 8 8 9 2 10 1 11 12 12
REMARK H PARENT 12 13
REMARK Flexibility Score: inf
ROOT
ATOM      1  C   UNL     1      37.723 -16.541  18.981  1.00  0.00     0.001 A 
ATOM      2  C   UNL     1      39.061 -16.954  18.869  1.00  0.00     0.014 A 
ATOM      3  C   UNL     1      36.722 -17.287  18.335  1.00  0.00     0.060 A 
ATOM      4  C   UNL     1      39.391 -18.089  18.128  1.00  0.00     0.051 A 
ATOM      5  C   UNL     1      37.050 -18.435  17.584  1.00  0.00     0.161 A 
ATOM      6  C   UNL     1      38.396 -18.831  17.486  1.00  0.00     0.157 A 
ENDROOT
BRANCH   1   7
ATOM      7  C   UNL     1      37.370 -15.338  19.766  1.00  0.00     0.072 C 
ATOM      8  O   UNL     1      36.389 -14.621  19.433  1.00  0.00    -0.545 OA
ATOM      9  O   UNL     1      38.117 -14.979  20.882  1.00  0.00    -0.545 OA
ENDBRANCH   1   7
BRANCH   5  10
ATOM     10  O   UNL     1      36.071 -19.200  16.929  1.00  0.00    -0.493 OA
ATOM     11  C   UNL     1      35.508 -18.879  15.661  1.00  0.00     0.278 C 
ENDBRANCH   5  10
BRANCH   6  12
ATOM     12  O   UNL     1      38.765 -19.959  16.753  1.00  0.00    -0.504 OA
ATOM     13  H   UNL     1      38.477 -20.097  15.792  1.00  0.00     0.293 HD
ENDBRANCH   6  12
TORSDOF 3
ENDMDL
MODEL 7
REMARK VINA RESULT:    -3.805      1.794      3.992
REMARK INTER + INTRA:          -4.457
REMARK INTER:                  -4.380
REMARK INTRA:                  -0.077
REMARK UNBOUND:                -0.096
REMARK SMILES COc1cc(C(=O)[O-])ccc1O
REMARK SMILES IDX 5 1 9 2 4 3 10 4 3 5 11 6 6 7 7 8 8 9 2 10 1 11 12 12
REMARK H PARENT 12 13
REMARK Flexibility Score: inf
ROOT
ATOM      1  C   UNL     1      37.528 -19.175  15.745  1.00  0.00     0.001 A 
ATOM      2  C   UNL     1      37.731 -20.426  15.139  1.00  0.00     0.014 A 
ATOM      3  C   UNL     1      38.336 -18.805  16.835  1.00  0.00     0.060 A 
ATOM      4  C   UNL     1      38.721 -21.288  15.610  1.00  0.00     0.051 A 
ATOM      5  C   UNL     1      39.339 -19.673  17.315  1.00  0.00     0.161 A 
ATOM      6  C   UNL     1      39.525 -20.920  16.693  1.00  0.00     0.157 A 
ENDROOT
BRANCH   1   7
ATOM      7  C   UNL     1      36.478 -18.259  15.247  1.00  0.00     0.072 C 
ATOM      8  O   UNL     1      35.361 -18.706  14.875  1.00  0.00    -0.545 OA
ATOM      9  O   UNL     1      36.710 -16.889  15.181  1.00  0.00    -0.545 OA
ENDBRANCH   1   7
BRANCH   5  10
ATOM     10  O   UNL     1      40.161 -19.329  18.400  1.00  0.00    -0.493 OA
ATOM     11  C   UNL     1      40.228 -18.034  18.988  1.00  0.00     0.278 C 
ENDBRANCH   5  10
BRANCH   6  12
ATOM     12  O   UNL     1      40.504 -21.809  17.137  1.00  0.00    -0.504 OA
ATOM     13  H   UNL     1      40.403 -22.812  17.048  1.00  0.00     0.293 HD
ENDBRANCH   6  12
TORSDOF 3
ENDMDL
MODEL 8
REMARK VINA RESULT:    -3.793      1.799      4.446
REMARK INTER + INTRA:          -4.443
REMARK INTER:                  -4.367
REMARK INTRA:                  -0.076
REMARK UNBOUND:                -0.096
REMARK SMILES COc1cc(C(=O)[O-])ccc1O
REMARK SMILES IDX 5 1 9 2 4 3 10 4 3 5 11 6 6 7 7 8 8 9 2 10 1 11 12 12
REMARK H PARENT 12 13
REMARK Flexibility Score: inf
ROOT
ATOM      1  C   UNL     1      37.299 -19.408  15.544  1.00  0.00     0.001 A 
ATOM      2  C   UNL     1      37.795 -20.718  15.443  1.00  0.00     0.014 A 
ATOM      3  C   UNL     1      38.192 -18.328  15.423  1.00  0.00     0.060 A 
ATOM      4  C   UNL     1      39.154 -20.945  15.224  1.00  0.00     0.051 A 
ATOM      5  C   UNL     1      39.567 -18.552  15.202  1.00  0.00     0.161 A 
ATOM      6  C   UNL     1      40.042 -19.872  15.104  1.00  0.00     0.157 A 
ENDROOT
BRANCH   1   7
ATOM      7  C   UNL     1      35.858 -19.165  15.776  1.00  0.00     0.072 C 
ATOM      8  O   UNL     1      35.265 -19.704  16.748  1.00  0.00    -0.545 OA
ATOM      9  O   UNL     1      35.136 -18.338  14.922  1.00  0.00    -0.545 OA
ENDBRANCH   1   7
BRANCH   5  10
ATOM     10  O   UNL     1      40.481 -17.493  15.077  1.00  0.00    -0.493 OA
ATOM     11  C   UNL     1      40.253 -16.167  15.544  1.00  0.00     0.278 C 
ENDBRANCH   5  10
BRANCH   6  12
ATOM     12  O   UNL     1      41.394 -20.137  14.887  1.00  0.00    -0.504 OA
ATOM     13  H   UNL     1      41.862 -19.884  14.026  1.00  0.00     0.293 HD
ENDBRANCH   6  12
TORSDOF 3
ENDMDL
MODEL 9
REMARK VINA RESULT:    -3.776      2.382      3.691
REMARK INTER + INTRA:          -4.423
REMARK INTER:                  -4.331
REMARK INTRA:                  -0.092
REMARK UNBOUND:                -0.096
REMARK SMILES COc1cc(C(=O)[O-])ccc1O
REMARK SMILES IDX 5 1 9 2 4 3 10 4 3 5 11 6 6 7 7 8 8 9 2 10 1 11 12 12
REMARK H PARENT 12 13
REMARK Flexibility Score: inf
ROOT
ATOM      1  C   UNL     1      38.230 -17.443  16.207  1.00  0.00     0.001 A 
ATOM      2  C   UNL     1      37.090 -17.042  16.923  1.00  0.00     0.014 A 
ATOM      3  C   UNL     1      38.284 -18.746  15.682  1.00  0.00     0.060 A 
ATOM      4  C   UNL     1      36.025 -17.925  17.108  1.00  0.00     0.051 A 
ATOM      5  C   UNL     1      37.211 -19.642  15.866  1.00  0.00     0.161 A 
ATOM      6  C   UNL     1      36.078 -19.220  16.585  1.00  0.00     0.157 A 
ENDROOT
BRANCH   1   7
ATOM      7  C   UNL     1      39.361 -16.510  16.010  1.00  0.00     0.072 C 
ATOM      8  O   UNL     1      40.319 -16.816  15.251  1.00  0.00    -0.545 OA
ATOM      9  O   UNL     1      39.384 -15.281  16.661  1.00  0.00    -0.545 OA
ENDBRANCH   1   7
BRANCH   5  10
ATOM     10  O   UNL     1      37.237 -20.949  15.352  1.00  0.00    -0.493 OA
ATOM     11  C   UNL     1      38.269 -21.897  15.602  1.00  0.00     0.278 C 
ENDBRANCH   5  10
BRANCH   6  12
ATOM     12  O   UNL     1      34.995 -20.074  16.791  1.00  0.00    -0.504 OA
ATOM     13  H   UNL     1      34.498 -20.114  17.672  1.00  0.00     0.293 HD
ENDBRANCH   6  12
TORSDOF 3
ENDMDL
