MODEL 1
REMARK VINA RESULT:    -3.381      0.000      0.000
REMARK INTER + INTRA:          -4.503
REMARK INTER:                  -4.370
REMARK INTRA:                  -0.133
REMARK UNBOUND:                -0.133
REMARK SMILES CCCCCCC(=O)[O-]
REMARK SMILES IDX 5 1 6 2 7 3 8 4 9 5 4 6 3 7 2 8 1 9
REMARK H PARENT
REMARK Flexibility Score: inf
ROOT
ATOM      1  C   UNL     1      19.363  12.362 -14.575  1.00  0.00     0.006 C 
ENDROOT
BRANCH   1   2
ATOM      2  C   UNL     1      18.487  11.499 -13.657  1.00  0.00     0.053 C 
BRANCH   2   3
ATOM      3  C   UNL     1      18.297  10.117 -14.205  1.00  0.00     0.041 C 
ATOM      4  O   UNL     1      17.212   9.507 -14.018  1.00  0.00    -0.550 OA
ATOM      5  O   UNL     1      19.328   9.493 -14.895  1.00  0.00    -0.550 OA
ENDBRANCH   2   3
ENDBRANCH   1   2
BRANCH   1   6
ATOM      6  C   UNL     1      20.808  12.475 -14.060  1.00  0.00     0.000 C 
BRANCH   6   7
ATOM      7  C   UNL     1      21.362  13.905 -14.167  1.00  0.00    -0.000 C 
BRANCH   7   8
ATOM      8  C   UNL     1      20.939  14.609 -15.465  1.00  0.00    -0.003 C 
ATOM      9  C   UNL     1      21.823  15.821 -15.746  1.00  0.00     0.004 C 
ENDBRANCH   7   8
ENDBRANCH   6   7
ENDBRANCH   1   6
TORSDOF 5
ENDMDL
MODEL 2
REMARK VINA RESULT:    -3.241      1.377      2.008
REMARK INTER + INTRA:          -4.321
REMARK INTER:                  -4.061
REMARK INTRA:                  -0.260
REMARK UNBOUND:                -0.133
REMARK SMILES CCCCCCC(=O)[O-]
REMARK SMILES IDX 5 1 6 2 7 3 8 4 9 5 4 6 3 7 2 8 1 9
REMARK H PARENT
REMARK Flexibility Score: inf
ROOT
ATOM      1  C   UNL     1      18.359  10.870 -14.383  1.00  0.00     0.006 C 
ENDROOT
BRANCH   1   2
ATOM      2  C   UNL     1      18.991  10.454 -15.718  1.00  0.00     0.053 C 
BRANCH   2   3
ATOM      3  C   UNL     1      19.064   8.964 -15.860  1.00  0.00     0.041 C 
ATOM      4  O   UNL     1      18.008   8.278 -15.885  1.00  0.00    -0.550 OA
ATOM      5  O   UNL     1      20.298   8.330 -15.935  1.00  0.00    -0.550 OA
ENDBRANCH   2   3
ENDBRANCH   1   2
BRANCH   1   6
ATOM      6  C   UNL     1      19.090  12.061 -13.741  1.00  0.00     0.000 C 
BRANCH   6   7
ATOM      7  C   UNL     1      20.574  12.127 -14.137  1.00  0.00    -0.000 C 
BRANCH   7   8
ATOM      8  C   UNL     1      21.091  13.568 -14.258  1.00  0.00    -0.003 C 
ATOM      9  C   UNL     1      20.527  14.251 -15.501  1.00  0.00     0.004 C 
ENDBRANCH   7   8
ENDBRANCH   6   7
ENDBRANCH   1   6
TORSDOF 5
ENDMDL
MODEL 3
REMARK VINA RESULT:    -3.156     14.080     15.046
REMARK INTER + INTRA:          -4.211
REMARK INTER:                  -3.897
REMARK INTRA:                  -0.314
REMARK UNBOUND:                -0.133
REMARK SMILES CCCCCCC(=O)[O-]
REMARK SMILES IDX 5 1 6 2 7 3 8 4 9 5 4 6 3 7 2 8 1 9
REMARK H PARENT
REMARK Flexibility Score: inf
ROOT
ATOM      1  C   UNL     1       6.888   9.039 -12.452  1.00  0.00     0.006 C 
ENDROOT
BRANCH   1   2
ATOM      2  C   UNL     1       5.709   8.147 -12.043  1.00  0.00     0.053 C 
BRANCH   2   3
ATOM      3  C   UNL     1       4.881   8.775 -10.964  1.00  0.00     0.041 C 
ATOM      4  O   UNL     1       5.284   8.767  -9.771  1.00  0.00    -0.550 OA
ATOM      5  O   UNL     1       3.651   9.344 -11.270  1.00  0.00    -0.550 OA
ENDBRANCH   2   3
ENDBRANCH   1   2
BRANCH   1   6
ATOM      6  C   UNL     1       6.448  10.207 -13.351  1.00  0.00     0.000 C 
BRANCH   6   7
ATOM      7  C   UNL     1       5.767   9.732 -14.645  1.00  0.00    -0.000 C 
BRANCH   7   8
ATOM      8  C   UNL     1       4.908  10.826 -15.297  1.00  0.00    -0.003 C 
ATOM      9  C   UNL     1       4.127  11.610 -14.246  1.00  0.00     0.004 C 
ENDBRANCH   7   8
ENDBRANCH   6   7
ENDBRANCH   1   6
TORSDOF 5
ENDMDL
MODEL 4
REMARK VINA RESULT:    -3.144     14.392     15.463
REMARK INTER + INTRA:          -4.197
REMARK INTER:                  -3.867
REMARK INTRA:                  -0.330
REMARK UNBOUND:                -0.133
REMARK SMILES CCCCCCC(=O)[O-]
REMARK SMILES IDX 5 1 6 2 7 3 8 4 9 5 4 6 3 7 2 8 1 9
REMARK H PARENT
REMARK Flexibility Score: inf
ROOT
ATOM      1  C   UNL     1       5.603   8.084 -12.014  1.00  0.00     0.006 C 
ENDROOT
BRANCH   1   2
ATOM      2  C   UNL     1       5.219   8.614 -10.626  1.00  0.00     0.053 C 
BRANCH   2   3
ATOM      3  C   UNL     1       3.751   8.893 -10.522  1.00  0.00     0.041 C 
ATOM      4  O   UNL     1       3.136   9.416 -11.488  1.00  0.00    -0.550 OA
ATOM      5  O   UNL     1       3.067   8.602  -9.348  1.00  0.00    -0.550 OA
ENDBRANCH   2   3
ENDBRANCH   1   2
BRANCH   1   6
ATOM      6  C   UNL     1       6.883   8.745 -12.554  1.00  0.00     0.000 C 
BRANCH   6   7
ATOM      7  C   UNL     1       6.632  10.159 -13.102  1.00  0.00    -0.000 C 
BRANCH   7   8
ATOM      8  C   UNL     1       5.733  10.160 -14.348  1.00  0.00    -0.003 C 
ATOM      9  C   UNL     1       4.560  11.121 -14.178  1.00  0.00     0.004 C 
ENDBRANCH   7   8
ENDBRANCH   6   7
ENDBRANCH   1   6
TORSDOF 5
ENDMDL
MODEL 5
REMARK VINA RESULT:    -3.112      2.889      4.881
REMARK INTER + INTRA:          -4.155
REMARK INTER:                  -3.872
REMARK INTRA:                  -0.284
REMARK UNBOUND:                -0.133
REMARK SMILES CCCCCCC(=O)[O-]
REMARK SMILES IDX 5 1 6 2 7 3 8 4 9 5 4 6 3 7 2 8 1 9
REMARK H PARENT
REMARK Flexibility Score: inf
ROOT
ATOM      1  C   UNL     1      20.533  12.743 -13.931  1.00  0.00     0.006 C 
ENDROOT
BRANCH   1   2
ATOM      2  C   UNL     1      21.384  13.956 -14.331  1.00  0.00     0.053 C 
BRANCH   2   3
ATOM      3  C   UNL     1      20.816  14.669 -15.520  1.00  0.00     0.041 C 
ATOM      4  O   UNL     1      21.382  15.700 -15.969  1.00  0.00    -0.550 OA
ATOM      5  O   UNL     1      19.645  14.213 -16.113  1.00  0.00    -0.550 OA
ENDBRANCH   2   3
ENDBRANCH   1   2
BRANCH   1   6
ATOM      6  C   UNL     1      21.145  11.418 -14.417  1.00  0.00     0.000 C 
BRANCH   6   7
ATOM      7  C   UNL     1      20.106  10.492 -15.070  1.00  0.00    -0.000 C 
BRANCH   7   8
ATOM      8  C   UNL     1      18.666  10.990 -14.878  1.00  0.00    -0.003 C 
ATOM      9  C   UNL     1      17.908  10.111 -13.887  1.00  0.00     0.004 C 
ENDBRANCH   7   8
ENDBRANCH   6   7
ENDBRANCH   1   6
TORSDOF 5
ENDMDL
MODEL 6
REMARK VINA RESULT:    -3.096      2.512      5.562
REMARK INTER + INTRA:          -4.135
REMARK INTER:                  -4.033
REMARK INTRA:                  -0.102
REMARK UNBOUND:                -0.133
REMARK SMILES CCCCCCC(=O)[O-]
REMARK SMILES IDX 5 1 6 2 7 3 8 4 9 5 4 6 3 7 2 8 1 9
REMARK H PARENT
REMARK Flexibility Score: inf
ROOT
ATOM      1  C   UNL     1      18.592  11.637 -13.696  1.00  0.00     0.006 C 
ENDROOT
BRANCH   1   2
ATOM      2  C   UNL     1      19.380  12.444 -14.736  1.00  0.00     0.053 C 
BRANCH   2   3
ATOM      3  C   UNL     1      20.789  12.698 -14.293  1.00  0.00     0.041 C 
ATOM      4  O   UNL     1      21.172  13.870 -14.040  1.00  0.00    -0.550 OA
ATOM      5  O   UNL     1      21.688  11.643 -14.189  1.00  0.00    -0.550 OA
ENDBRANCH   2   3
ENDBRANCH   1   2
BRANCH   1   6
ATOM      6  C   UNL     1      18.367  10.181 -14.140  1.00  0.00     0.000 C 
BRANCH   6   7
ATOM      7  C   UNL     1      16.946   9.683 -13.832  1.00  0.00    -0.000 C 
BRANCH   7   8
ATOM      8  C   UNL     1      16.631   8.340 -14.508  1.00  0.00    -0.003 C 
ATOM      9  C   UNL     1      15.158   7.974 -14.342  1.00  0.00     0.004 C 
ENDBRANCH   7   8
ENDBRANCH   6   7
ENDBRANCH   1   6
TORSDOF 5
ENDMDL
MODEL 7
REMARK VINA RESULT:    -3.044      3.050      5.003
REMARK INTER + INTRA:          -4.068
REMARK INTER:                  -3.854
REMARK INTRA:                  -0.214
REMARK UNBOUND:                -0.133
REMARK SMILES CCCCCCC(=O)[O-]
REMARK SMILES IDX 5 1 6 2 7 3 8 4 9 5 4 6 3 7 2 8 1 9
REMARK H PARENT
REMARK Flexibility Score: inf
ROOT
ATOM      1  C   UNL     1      19.936  12.346 -13.773  1.00  0.00     0.006 C 
ENDROOT
BRANCH   1   2
ATOM      2  C   UNL     1      20.172  13.218 -15.013  1.00  0.00     0.053 C 
BRANCH   2   3
ATOM      3  C   UNL     1      21.172  14.303 -14.749  1.00  0.00     0.041 C 
ATOM      4  O   UNL     1      21.266  15.282 -15.536  1.00  0.00    -0.550 OA
ATOM      5  O   UNL     1      22.020  14.219 -13.652  1.00  0.00    -0.550 OA
ENDBRANCH   2   3
ENDBRANCH   1   2
BRANCH   1   6
ATOM      6  C   UNL     1      18.523  11.737 -13.752  1.00  0.00     0.000 C 
BRANCH   6   7
ATOM      7  C   UNL     1      18.543  10.202 -13.675  1.00  0.00    -0.000 C 
BRANCH   7   8
ATOM      8  C   UNL     1      18.455   9.540 -15.058  1.00  0.00    -0.003 C 
ATOM      9  C   UNL     1      19.845   9.212 -15.599  1.00  0.00     0.004 C 
ENDBRANCH   7   8
ENDBRANCH   6   7
ENDBRANCH   1   6
TORSDOF 5
ENDMDL
MODEL 8
REMARK VINA RESULT:    -3.037     14.142     15.348
REMARK INTER + INTRA:          -4.058
REMARK INTER:                  -3.747
REMARK INTRA:                  -0.311
REMARK UNBOUND:                -0.133
REMARK SMILES CCCCCCC(=O)[O-]
REMARK SMILES IDX 5 1 6 2 7 3 8 4 9 5 4 6 3 7 2 8 1 9
REMARK H PARENT
REMARK Flexibility Score: inf
ROOT
ATOM      1  C   UNL     1       6.506  10.274 -13.165  1.00  0.00     0.006 C 
ENDROOT
BRANCH   1   2
ATOM      2  C   UNL     1       5.724  10.012 -14.459  1.00  0.00     0.053 C 
BRANCH   2   3
ATOM      3  C   UNL     1       4.535  10.916 -14.586  1.00  0.00     0.041 C 
ATOM      4  O   UNL     1       3.620  10.883 -13.721  1.00  0.00    -0.550 OA
ATOM      5  O   UNL     1       4.424  11.773 -15.673  1.00  0.00    -0.550 OA
ENDBRANCH   2   3
ENDBRANCH   1   2
BRANCH   1   6
ATOM      6  C   UNL     1       6.837   8.974 -12.413  1.00  0.00     0.000 C 
BRANCH   6   7
ATOM      7  C   UNL     1       5.583   8.151 -12.075  1.00  0.00    -0.000 C 
BRANCH   7   8
ATOM      8  C   UNL     1       4.688   8.839 -11.033  1.00  0.00    -0.003 C 
ATOM      9  C   UNL     1       5.238   8.644  -9.622  1.00  0.00     0.004 C 
ENDBRANCH   7   8
ENDBRANCH   6   7
ENDBRANCH   1   6
TORSDOF 5
ENDMDL
MODEL 9
REMARK VINA RESULT:    -2.957      3.120      5.013
REMARK INTER + INTRA:          -3.954
REMARK INTER:                  -3.688
REMARK INTRA:                  -0.267
REMARK UNBOUND:                -0.133
REMARK SMILES CCCCCCC(=O)[O-]
REMARK SMILES IDX 5 1 6 2 7 3 8 4 9 5 4 6 3 7 2 8 1 9
REMARK H PARENT
REMARK Flexibility Score: inf
ROOT
ATOM      1  C   UNL     1      20.849  12.416 -15.753  1.00  0.00     0.006 C 
ENDROOT
BRANCH   1   2
ATOM      2  C   UNL     1      20.393  13.855 -15.479  1.00  0.00     0.053 C 
BRANCH   2   3
ATOM      3  C   UNL     1      21.518  14.711 -14.983  1.00  0.00     0.041 C 
ATOM      4  O   UNL     1      22.125  14.407 -13.922  1.00  0.00    -0.550 OA
ATOM      5  O   UNL     1      21.877  15.862 -15.674  1.00  0.00    -0.550 OA
ENDBRANCH   2   3
ENDBRANCH   1   2
BRANCH   1   6
ATOM      6  C   UNL     1      20.416  11.448 -14.639  1.00  0.00     0.000 C 
BRANCH   6   7
ATOM      7  C   UNL     1      19.371  12.064 -13.694  1.00  0.00    -0.000 C 
BRANCH   7   8
ATOM      8  C   UNL     1      18.086  11.227 -13.607  1.00  0.00    -0.003 C 
ATOM      9  C   UNL     1      18.256   9.885 -14.314  1.00  0.00     0.004 C 
ENDBRANCH   7   8
ENDBRANCH   6   7
ENDBRANCH   1   6
TORSDOF 5
ENDMDL
