MODEL 1
REMARK VINA RESULT:     3.379      0.000      0.000
REMARK INTER + INTRA:          10.550
REMARK INTER:                   6.144
REMARK INTRA:                   4.406
REMARK UNBOUND:                 4.406
REMARK SMILES CCCCCCCCCCCCCC[C@@H](C)C(=O)[O-]
REMARK SMILES IDX 9 1 10 2 11 3 12 4 13 5 14 6 15 7 16 8 17 9 18 10 19 11 8 12
REMARK SMILES IDX 7 13 6 14 5 15 4 16 3 17 2 18 1 19
REMARK H PARENT
REMARK Flexibility Score: inf
ROOT
ATOM      1  C   UNL     1      -1.713 -18.476 -25.430  1.00  0.00     0.000 C 
ENDROOT
BRANCH   1   2
ATOM      2  C   UNL     1      -2.046 -17.033 -25.847  1.00  0.00     0.000 C 
BRANCH   2   3
ATOM      3  C   UNL     1      -1.291 -16.590 -27.113  1.00  0.00     0.000 C 
BRANCH   3   4
ATOM      4  C   UNL     1      -0.929 -15.097 -27.094  1.00  0.00     0.000 C 
BRANCH   4   5
ATOM      5  C   UNL     1       0.391 -14.800 -27.826  1.00  0.00     0.001 C 
BRANCH   5   6
ATOM      6  C   UNL     1       0.581 -13.297 -28.122  1.00  0.00     0.009 C 
BRANCH   6   7
ATOM      7  C   UNL     1      -0.726 -12.479 -28.028  1.00  0.00     0.032 C 
ATOM      8  C   UNL     1      -1.915 -13.396 -27.716  1.00  0.00     0.014 C 
BRANCH   7   9
ATOM      9  C   UNL     1      -0.633 -11.403 -26.982  1.00  0.00     0.044 C 
ATOM     10  O   UNL     1      -1.677 -10.965 -26.430  1.00  0.00    -0.550 OA
ATOM     11  O   UNL     1       0.603 -10.877 -26.623  1.00  0.00    -0.550 OA
ENDBRANCH   7   9
ENDBRANCH   6   7
ENDBRANCH   5   6
ENDBRANCH   4   5
ENDBRANCH   3   4
ENDBRANCH   2   3
ENDBRANCH   1   2
BRANCH   1  12
ATOM     12  C   UNL     1      -0.361 -19.009 -25.948  1.00  0.00     0.000 C 
BRANCH  12  13
ATOM     13  C   UNL     1      -0.437 -20.332 -26.731  1.00  0.00    -0.000 C 
BRANCH  13  14
ATOM     14  C   UNL     1      -1.631 -21.235 -26.367  1.00  0.00    -0.000 C 
BRANCH  14  15
ATOM     15  C   UNL     1      -1.352 -22.192 -25.187  1.00  0.00    -0.000 C 
BRANCH  15  16
ATOM     16  C   UNL     1       0.133 -22.577 -25.077  1.00  0.00    -0.000 C 
BRANCH  16  17
ATOM     17  C   UNL     1       0.892 -21.742 -24.028  1.00  0.00    -0.000 C 
BRANCH  17  18
ATOM     18  C   UNL     1       2.082 -20.937 -24.581  1.00  0.00    -0.003 C 
ATOM     19  C   UNL     1       1.693 -19.531 -25.038  1.00  0.00     0.004 C 
ENDBRANCH  17  18
ENDBRANCH  16  17
ENDBRANCH  15  16
ENDBRANCH  14  15
ENDBRANCH  13  14
ENDBRANCH  12  13
ENDBRANCH   1  12
TORSDOF 14
ENDMDL
MODEL 2
REMARK VINA RESULT:     3.786      2.220      3.019
REMARK INTER + INTRA:          11.291
REMARK INTER:                  11.599
REMARK INTRA:                  -0.308
REMARK UNBOUND:                 4.406
REMARK SMILES CCCCCCCCCCCCCC[C@@H](C)C(=O)[O-]
REMARK SMILES IDX 9 1 10 2 11 3 12 4 13 5 14 6 15 7 16 8 17 9 18 10 19 11 8 12
REMARK SMILES IDX 7 13 6 14 5 15 4 16 3 17 2 18 1 19
REMARK H PARENT
REMARK Flexibility Score: inf
ROOT
ATOM      1  C   UNL     1      -1.341 -19.561 -25.571  1.00  0.00     0.000 C 
ENDROOT
BRANCH   1   2
ATOM      2  C   UNL     1      -2.009 -18.185 -25.398  1.00  0.00     0.000 C 
BRANCH   2   3
ATOM      3  C   UNL     1      -1.088 -17.021 -25.806  1.00  0.00     0.000 C 
BRANCH   3   4
ATOM      4  C   UNL     1      -1.856 -15.706 -26.016  1.00  0.00     0.000 C 
BRANCH   4   5
ATOM      5  C   UNL     1      -2.054 -15.371 -27.505  1.00  0.00     0.001 C 
BRANCH   5   6
ATOM      6  C   UNL     1      -0.825 -14.673 -28.125  1.00  0.00     0.009 C 
BRANCH   6   7
ATOM      7  C   UNL     1      -0.914 -13.130 -28.105  1.00  0.00     0.032 C 
ATOM      8  C   UNL     1      -1.889 -12.661 -27.019  1.00  0.00     0.014 C 
BRANCH   7   9
ATOM      9  C   UNL     1       0.432 -12.499 -27.882  1.00  0.00     0.044 C 
ATOM     10  O   UNL     1       0.524 -11.258 -27.686  1.00  0.00    -0.550 OA
ATOM     11  O   UNL     1       1.584 -13.277 -27.897  1.00  0.00    -0.550 OA
ENDBRANCH   7   9
ENDBRANCH   6   7
ENDBRANCH   5   6
ENDBRANCH   4   5
ENDBRANCH   3   4
ENDBRANCH   2   3
ENDBRANCH   1   2
BRANCH   1  12
ATOM     12  C   UNL     1       0.140 -19.517 -26.001  1.00  0.00     0.000 C 
BRANCH  12  13
ATOM     13  C   UNL     1       0.836 -20.888 -26.087  1.00  0.00    -0.000 C 
BRANCH  13  14
ATOM     14  C   UNL     1       0.125 -22.026 -25.330  1.00  0.00    -0.000 C 
BRANCH  14  15
ATOM     15  C   UNL     1       1.067 -23.173 -24.902  1.00  0.00    -0.000 C 
BRANCH  15  16
ATOM     16  C   UNL     1       0.612 -24.542 -25.436  1.00  0.00    -0.000 C 
BRANCH  16  17
ATOM     17  C   UNL     1       1.319 -25.721 -24.741  1.00  0.00    -0.000 C 
BRANCH  17  18
ATOM     18  C   UNL     1       2.213 -26.571 -25.661  1.00  0.00    -0.003 C 
ATOM     19  C   UNL     1       2.958 -27.678 -24.915  1.00  0.00     0.004 C 
ENDBRANCH  17  18
ENDBRANCH  16  17
ENDBRANCH  15  16
ENDBRANCH  14  15
ENDBRANCH  13  14
ENDBRANCH  12  13
ENDBRANCH   1  12
TORSDOF 14
ENDMDL
MODEL 3
REMARK VINA RESULT:     4.159      1.082      1.988
REMARK INTER + INTRA:          11.969
REMARK INTER:                  10.181
REMARK INTRA:                   1.787
REMARK UNBOUND:                 4.406
REMARK SMILES CCCCCCCCCCCCCC[C@@H](C)C(=O)[O-]
REMARK SMILES IDX 9 1 10 2 11 3 12 4 13 5 14 6 15 7 16 8 17 9 18 10 19 11 8 12
REMARK SMILES IDX 7 13 6 14 5 15 4 16 3 17 2 18 1 19
REMARK H PARENT
REMARK Flexibility Score: inf
ROOT
ATOM      1  C   UNL     1      -1.664 -18.368 -25.479  1.00  0.00     0.000 C 
ENDROOT
BRANCH   1   2
ATOM      2  C   UNL     1      -2.124 -16.935 -25.800  1.00  0.00     0.000 C 
BRANCH   2   3
ATOM      3  C   UNL     1      -1.537 -16.403 -27.119  1.00  0.00     0.000 C 
BRANCH   3   4
ATOM      4  C   UNL     1      -1.106 -14.931 -27.023  1.00  0.00     0.000 C 
BRANCH   4   5
ATOM      5  C   UNL     1       0.331 -14.703 -27.523  1.00  0.00     0.001 C 
BRANCH   5   6
ATOM      6  C   UNL     1       0.554 -13.272 -28.059  1.00  0.00     0.009 C 
BRANCH   6   7
ATOM      7  C   UNL     1      -0.740 -12.429 -28.125  1.00  0.00     0.032 C 
ATOM      8  C   UNL     1      -1.976 -13.331 -28.033  1.00  0.00     0.014 C 
BRANCH   7   9
ATOM      9  C   UNL     1      -0.786 -11.399 -27.031  1.00  0.00     0.044 C 
ATOM     10  O   UNL     1       0.282 -10.907 -26.581  1.00  0.00    -0.550 OA
ATOM     11  O   UNL     1      -2.005 -10.988 -26.504  1.00  0.00    -0.550 OA
ENDBRANCH   7   9
ENDBRANCH   6   7
ENDBRANCH   5   6
ENDBRANCH   4   5
ENDBRANCH   3   4
ENDBRANCH   2   3
ENDBRANCH   1   2
BRANCH   1  12
ATOM     12  C   UNL     1      -0.175 -18.653 -25.761  1.00  0.00     0.000 C 
BRANCH  12  13
ATOM     13  C   UNL     1       0.142 -20.093 -26.207  1.00  0.00    -0.000 C 
BRANCH  13  14
ATOM     14  C   UNL     1      -1.089 -20.950 -26.560  1.00  0.00    -0.000 C 
BRANCH  14  15
ATOM     15  C   UNL     1      -1.185 -22.264 -25.753  1.00  0.00    -0.000 C 
BRANCH  15  16
ATOM     16  C   UNL     1      -0.009 -22.446 -24.778  1.00  0.00    -0.000 C 
BRANCH  16  17
ATOM     17  C   UNL     1       1.088 -23.375 -25.331  1.00  0.00    -0.000 C 
BRANCH  17  18
ATOM     18  C   UNL     1       0.665 -24.845 -25.501  1.00  0.00    -0.003 C 
ATOM     19  C   UNL     1       1.543 -25.816 -24.713  1.00  0.00     0.004 C 
ENDBRANCH  17  18
ENDBRANCH  16  17
ENDBRANCH  15  16
ENDBRANCH  14  15
ENDBRANCH  13  14
ENDBRANCH  12  13
ENDBRANCH   1  12
TORSDOF 14
ENDMDL
