MODEL 1
REMARK VINA RESULT:    -4.305      0.000      0.000
REMARK INTER + INTRA:          -7.097
REMARK INTER:                  -6.192
REMARK INTRA:                  -0.905
REMARK UNBOUND:                -0.905
REMARK SMILES O=C(CO)[C@@H](O)[C@@H](O)[C@@H](O)CO
REMARK SMILES IDX 7 1 9 2 11 3 12 4 10 6 5 8 2 9 1 10 3 11 4 12 6 14 8 16
REMARK H PARENT 12 5 10 7 4 13 6 15 8 17
REMARK Flexibility Score: inf
ROOT
ATOM      1  C   UNL     1     -20.058  22.937  12.130  1.00  0.00     0.181 C 
ENDROOT
BRANCH   1   2
ATOM      2  C   UNL     1     -20.172  23.897  13.344  1.00  0.00     0.171 C 
BRANCH   2   3
ATOM      3  C   UNL     1     -20.857  23.217  14.546  1.00  0.00     0.190 C 
BRANCH   3   4
ATOM      4  O   UNL     1     -21.595  22.102  14.125  1.00  0.00    -0.394 OA
ATOM      5  H   UNL     1     -22.538  22.270  14.390  1.00  0.00     0.210 HD
ENDBRANCH   3   4
ENDBRANCH   2   3
BRANCH   2   6
ATOM      6  O   UNL     1     -20.866  25.071  12.998  1.00  0.00    -0.388 OA
ATOM      7  H   UNL     1     -21.400  25.347  13.789  1.00  0.00     0.211 HD
ENDBRANCH   2   6
ENDBRANCH   1   2
BRANCH   1   8
ATOM      8  C   UNL     1     -19.913  23.694  10.782  1.00  0.00     0.214 C 
BRANCH   8   9
ATOM      9  C   UNL     1     -18.880  23.065   9.864  1.00  0.00     0.189 C 
ATOM     10  O   UNL     1     -19.125  21.986   9.346  1.00  0.00    -0.294 OA
BRANCH   9  11
ATOM     11  C   UNL     1     -17.546  23.713   9.598  1.00  0.00     0.234 C 
BRANCH  11  12
ATOM     12  O   UNL     1     -16.717  23.596  10.723  1.00  0.00    -0.388 OA
ATOM     13  H   UNL     1     -15.816  23.355  10.387  1.00  0.00     0.211 HD
ENDBRANCH  11  12
ENDBRANCH   9  11
ENDBRANCH   8   9
BRANCH   8  14
ATOM     14  O   UNL     1     -21.157  23.821  10.136  1.00  0.00    -0.382 OA
ATOM     15  H   UNL     1     -21.575  24.672  10.427  1.00  0.00     0.211 HD
ENDBRANCH   8  14
ENDBRANCH   1   8
BRANCH   1  16
ATOM     16  O   UNL     1     -18.956  22.079  12.305  1.00  0.00    -0.387 OA
ATOM     17  H   UNL     1     -18.307  22.279  11.580  1.00  0.00     0.211 HD
ENDBRANCH   1  16
TORSDOF 10
ENDMDL
MODEL 2
REMARK VINA RESULT:    -4.238      2.314      3.525
REMARK INTER + INTRA:          -7.001
REMARK INTER:                  -6.312
REMARK INTRA:                  -0.689
REMARK UNBOUND:                -0.905
REMARK SMILES O=C(CO)[C@@H](O)[C@@H](O)[C@@H](O)CO
REMARK SMILES IDX 7 1 9 2 11 3 12 4 10 6 5 8 2 9 1 10 3 11 4 12 6 14 8 16
REMARK H PARENT 12 5 10 7 4 13 6 15 8 17
REMARK Flexibility Score: inf
ROOT
ATOM      1  C   UNL     1     -18.699  22.558  13.844  1.00  0.00     0.181 C 
ENDROOT
BRANCH   1   2
ATOM      2  C   UNL     1     -18.365  23.241  15.197  1.00  0.00     0.171 C 
BRANCH   2   3
ATOM      3  C   UNL     1     -16.851  23.234  15.481  1.00  0.00     0.190 C 
BRANCH   3   4
ATOM      4  O   UNL     1     -16.228  24.321  14.851  1.00  0.00    -0.394 OA
ATOM      5  H   UNL     1     -16.719  25.136  15.139  1.00  0.00     0.210 HD
ENDBRANCH   3   4
ENDBRANCH   2   3
BRANCH   2   6
ATOM      6  O   UNL     1     -19.054  22.627  16.259  1.00  0.00    -0.388 OA
ATOM      7  H   UNL     1     -19.951  23.049  16.317  1.00  0.00     0.211 HD
ENDBRANCH   2   6
ENDBRANCH   1   2
BRANCH   1   8
ATOM      8  C   UNL     1     -20.048  23.043  13.248  1.00  0.00     0.214 C 
BRANCH   8   9
ATOM      9  C   UNL     1     -20.027  23.114  11.731  1.00  0.00     0.189 C 
ATOM     10  O   UNL     1     -19.719  22.118  11.094  1.00  0.00    -0.294 OA
BRANCH   9  11
ATOM     11  C   UNL     1     -20.340  24.385  10.986  1.00  0.00     0.234 C 
BRANCH  11  12
ATOM     12  O   UNL     1     -21.136  25.227  11.775  1.00  0.00    -0.388 OA
ATOM     13  H   UNL     1     -21.907  25.498  11.212  1.00  0.00     0.211 HD
ENDBRANCH  11  12
ENDBRANCH   9  11
ENDBRANCH   8   9
BRANCH   8  14
ATOM     14  O   UNL     1     -21.118  22.249  13.704  1.00  0.00    -0.382 OA
ATOM     15  H   UNL     1     -21.465  22.647  14.544  1.00  0.00     0.211 HD
ENDBRANCH   8  14
ENDBRANCH   1   8
BRANCH   1  16
ATOM     16  O   UNL     1     -17.665  22.802  12.921  1.00  0.00    -0.387 OA
ATOM     17  H   UNL     1     -17.830  23.695  12.520  1.00  0.00     0.211 HD
ENDBRANCH   1  16
TORSDOF 10
ENDMDL
MODEL 3
REMARK VINA RESULT:    -4.237      2.344      4.204
REMARK INTER + INTRA:          -7.000
REMARK INTER:                  -5.943
REMARK INTRA:                  -1.057
REMARK UNBOUND:                -0.905
REMARK SMILES O=C(CO)[C@@H](O)[C@@H](O)[C@@H](O)CO
REMARK SMILES IDX 7 1 9 2 11 3 12 4 10 6 5 8 2 9 1 10 3 11 4 12 6 14 8 16
REMARK H PARENT 12 5 10 7 4 13 6 15 8 17
REMARK Flexibility Score: inf
ROOT
ATOM      1  C   UNL     1     -19.814  22.404  13.460  1.00  0.00     0.181 C 
ENDROOT
BRANCH   1   2
ATOM      2  C   UNL     1     -19.399  23.046  12.109  1.00  0.00     0.171 C 
BRANCH   2   3
ATOM      3  C   UNL     1     -20.114  22.381  10.918  1.00  0.00     0.190 C 
BRANCH   3   4
ATOM      4  O   UNL     1     -21.264  23.103  10.569  1.00  0.00    -0.394 OA
ATOM      5  H   UNL     1     -21.531  23.619  11.375  1.00  0.00     0.210 HD
ENDBRANCH   3   4
ENDBRANCH   2   3
BRANCH   2   6
ATOM      6  O   UNL     1     -18.006  22.986  11.927  1.00  0.00    -0.388 OA
ATOM      7  H   UNL     1     -17.580  23.303  12.767  1.00  0.00     0.211 HD
ENDBRANCH   2   6
ENDBRANCH   1   2
BRANCH   1   8
ATOM      8  C   UNL     1     -19.280  23.193  14.686  1.00  0.00     0.214 C 
BRANCH   8   9
ATOM      9  C   UNL     1     -18.051  22.552  15.306  1.00  0.00     0.189 C 
ATOM     10  O   UNL     1     -18.128  21.409  15.730  1.00  0.00    -0.294 OA
BRANCH   9  11
ATOM     11  C   UNL     1     -16.747  23.294  15.447  1.00  0.00     0.234 C 
BRANCH  11  12
ATOM     12  O   UNL     1     -16.288  23.712  14.190  1.00  0.00    -0.388 OA
ATOM     13  H   UNL     1     -17.081  24.048  13.697  1.00  0.00     0.211 HD
ENDBRANCH  11  12
ENDBRANCH   9  11
ENDBRANCH   8   9
BRANCH   8  14
ATOM     14  O   UNL     1     -19.038  24.540  14.355  1.00  0.00    -0.382 OA
ATOM     15  H   UNL     1     -19.687  25.105  14.850  1.00  0.00     0.211 HD
ENDBRANCH   8  14
ENDBRANCH   1   8
BRANCH   1  16
ATOM     16  O   UNL     1     -21.217  22.319  13.534  1.00  0.00    -0.387 OA
ATOM     17  H   UNL     1     -21.463  22.322  14.496  1.00  0.00     0.211 HD
ENDBRANCH   1  16
TORSDOF 10
ENDMDL
MODEL 4
REMARK VINA RESULT:    -4.234      1.410      4.355
REMARK INTER + INTRA:          -6.996
REMARK INTER:                  -5.833
REMARK INTRA:                  -1.163
REMARK UNBOUND:                -0.905
REMARK SMILES O=C(CO)[C@@H](O)[C@@H](O)[C@@H](O)CO
REMARK SMILES IDX 7 1 9 2 11 3 12 4 10 6 5 8 2 9 1 10 3 11 4 12 6 14 8 16
REMARK H PARENT 12 5 10 7 4 13 6 15 8 17
REMARK Flexibility Score: inf
ROOT
ATOM      1  C   UNL     1     -18.981  23.325   9.713  1.00  0.00     0.181 C 
ENDROOT
BRANCH   1   2
ATOM      2  C   UNL     1     -17.698  22.520   9.377  1.00  0.00     0.171 C 
BRANCH   2   3
ATOM      3  C   UNL     1     -16.422  23.334   9.664  1.00  0.00     0.190 C 
BRANCH   3   4
ATOM      4  O   UNL     1     -16.167  23.380  11.042  1.00  0.00    -0.394 OA
ATOM      5  H   UNL     1     -16.767  22.710  11.464  1.00  0.00     0.210 HD
ENDBRANCH   3   4
ENDBRANCH   2   3
BRANCH   2   6
ATOM      6  O   UNL     1     -17.704  22.093   8.037  1.00  0.00    -0.388 OA
ATOM      7  H   UNL     1     -17.344  22.835   7.484  1.00  0.00     0.211 HD
ENDBRANCH   2   6
ENDBRANCH   1   2
BRANCH   1   8
ATOM      8  C   UNL     1     -19.891  22.598  10.740  1.00  0.00     0.214 C 
BRANCH   8   9
ATOM      9  C   UNL     1     -19.472  22.852  12.178  1.00  0.00     0.189 C 
ATOM     10  O   UNL     1     -18.471  22.302  12.610  1.00  0.00    -0.294 OA
BRANCH   9  11
ATOM     11  C   UNL     1     -20.273  23.735  13.099  1.00  0.00     0.234 C 
BRANCH  11  12
ATOM     12  O   UNL     1     -20.518  24.975  12.493  1.00  0.00    -0.388 OA
ATOM     13  H   UNL     1     -21.215  25.424  13.038  1.00  0.00     0.211 HD
ENDBRANCH  11  12
ENDBRANCH   9  11
ENDBRANCH   8   9
BRANCH   8  14
ATOM     14  O   UNL     1     -21.245  22.927  10.540  1.00  0.00    -0.382 OA
ATOM     15  H   UNL     1     -21.341  23.912  10.615  1.00  0.00     0.211 HD
ENDBRANCH   8  14
ENDBRANCH   1   8
BRANCH   1  16
ATOM     16  O   UNL     1     -18.629  24.592  10.214  1.00  0.00    -0.387 OA
ATOM     17  H   UNL     1     -19.134  24.726  11.059  1.00  0.00     0.211 HD
ENDBRANCH   1  16
TORSDOF 10
ENDMDL
MODEL 5
REMARK VINA RESULT:    -4.205      1.557      2.660
REMARK INTER + INTRA:          -6.954
REMARK INTER:                  -6.161
REMARK INTRA:                  -0.793
REMARK UNBOUND:                -0.905
REMARK SMILES O=C(CO)[C@@H](O)[C@@H](O)[C@@H](O)CO
REMARK SMILES IDX 7 1 9 2 11 3 12 4 10 6 5 8 2 9 1 10 3 11 4 12 6 14 8 16
REMARK H PARENT 12 5 10 7 4 13 6 15 8 17
REMARK Flexibility Score: inf
ROOT
ATOM      1  C   UNL     1     -20.457  23.445  13.901  1.00  0.00     0.181 C 
ENDROOT
BRANCH   1   2
ATOM      2  C   UNL     1     -19.304  23.124  14.888  1.00  0.00     0.171 C 
BRANCH   2   3
ATOM      3  C   UNL     1     -19.806  23.028  16.341  1.00  0.00     0.190 C 
BRANCH   3   4
ATOM      4  O   UNL     1     -20.702  21.959  16.482  1.00  0.00    -0.394 OA
ATOM      5  H   UNL     1     -20.868  21.854  17.457  1.00  0.00     0.210 HD
ENDBRANCH   3   4
ENDBRANCH   2   3
BRANCH   2   6
ATOM      6  O   UNL     1     -18.278  24.082  14.797  1.00  0.00    -0.388 OA
ATOM      7  H   UNL     1     -18.703  24.957  14.597  1.00  0.00     0.211 HD
ENDBRANCH   2   6
ENDBRANCH   1   2
BRANCH   1   8
ATOM      8  C   UNL     1     -19.947  24.030  12.556  1.00  0.00     0.214 C 
BRANCH   8   9
ATOM      9  C   UNL     1     -19.636  22.955  11.529  1.00  0.00     0.189 C 
ATOM     10  O   UNL     1     -18.959  21.994  11.861  1.00  0.00    -0.294 OA
BRANCH   9  11
ATOM     11  C   UNL     1     -20.108  23.053  10.101  1.00  0.00     0.234 C 
BRANCH  11  12
ATOM     12  O   UNL     1     -21.507  22.986  10.046  1.00  0.00    -0.388 OA
ATOM     13  H   UNL     1     -21.784  22.307  10.715  1.00  0.00     0.211 HD
ENDBRANCH  11  12
ENDBRANCH   9  11
ENDBRANCH   8   9
BRANCH   8  14
ATOM     14  O   UNL     1     -20.851  24.978  12.041  1.00  0.00    -0.382 OA
ATOM     15  H   UNL     1     -21.728  24.533  11.906  1.00  0.00     0.211 HD
ENDBRANCH   8  14
ENDBRANCH   1   8
BRANCH   1  16
ATOM     16  O   UNL     1     -21.206  22.279  13.650  1.00  0.00    -0.387 OA
ATOM     17  H   UNL     1     -20.566  21.568  13.385  1.00  0.00     0.211 HD
ENDBRANCH   1  16
TORSDOF 10
ENDMDL
MODEL 6
REMARK VINA RESULT:    -4.180      1.479      2.137
REMARK INTER + INTRA:          -6.918
REMARK INTER:                  -6.010
REMARK INTRA:                  -0.909
REMARK UNBOUND:                -0.905
REMARK SMILES O=C(CO)[C@@H](O)[C@@H](O)[C@@H](O)CO
REMARK SMILES IDX 7 1 9 2 11 3 12 4 10 6 5 8 2 9 1 10 3 11 4 12 6 14 8 16
REMARK H PARENT 12 5 10 7 4 13 6 15 8 17
REMARK Flexibility Score: inf
ROOT
ATOM      1  C   UNL     1     -20.013  23.269  11.936  1.00  0.00     0.181 C 
ENDROOT
BRANCH   1   2
ATOM      2  C   UNL     1     -20.236  24.614  12.676  1.00  0.00     0.171 C 
BRANCH   2   3
ATOM      3  C   UNL     1     -20.486  24.402  14.182  1.00  0.00     0.190 C 
BRANCH   3   4
ATOM      4  O   UNL     1     -19.337  23.893  14.803  1.00  0.00    -0.394 OA
ATOM      5  H   UNL     1     -18.567  24.142  14.226  1.00  0.00     0.210 HD
ENDBRANCH   3   4
ENDBRANCH   2   3
BRANCH   2   6
ATOM      6  O   UNL     1     -21.304  25.333  12.109  1.00  0.00    -0.388 OA
ATOM      7  H   UNL     1     -21.320  26.231  12.534  1.00  0.00     0.211 HD
ENDBRANCH   2   6
ENDBRANCH   1   2
BRANCH   1   8
ATOM      8  C   UNL     1     -20.238  23.385  10.404  1.00  0.00     0.214 C 
BRANCH   8   9
ATOM      9  C   UNL     1     -19.255  22.552   9.601  1.00  0.00     0.189 C 
ATOM     10  O   UNL     1     -18.270  23.093   9.122  1.00  0.00    -0.294 OA
BRANCH   9  11
ATOM     11  C   UNL     1     -19.473  21.083   9.347  1.00  0.00     0.234 C 
BRANCH  11  12
ATOM     12  O   UNL     1     -20.707  20.877   8.717  1.00  0.00    -0.388 OA
ATOM     13  H   UNL     1     -20.529  20.870   7.740  1.00  0.00     0.211 HD
ENDBRANCH  11  12
ENDBRANCH   9  11
ENDBRANCH   8   9
BRANCH   8  14
ATOM     14  O   UNL     1     -21.567  23.071  10.062  1.00  0.00    -0.382 OA
ATOM     15  H   UNL     1     -21.952  23.840   9.565  1.00  0.00     0.211 HD
ENDBRANCH   8  14
ENDBRANCH   1   8
BRANCH   1  16
ATOM     16  O   UNL     1     -18.708  22.802  12.182  1.00  0.00    -0.387 OA
ATOM     17  H   UNL     1     -18.302  22.582  11.303  1.00  0.00     0.211 HD
ENDBRANCH   1  16
TORSDOF 10
ENDMDL
MODEL 7
REMARK VINA RESULT:    -4.178      2.472      3.392
REMARK INTER + INTRA:          -6.915
REMARK INTER:                  -5.763
REMARK INTRA:                  -1.152
REMARK UNBOUND:                -0.905
REMARK SMILES O=C(CO)[C@@H](O)[C@@H](O)[C@@H](O)CO
REMARK SMILES IDX 7 1 9 2 11 3 12 4 10 6 5 8 2 9 1 10 3 11 4 12 6 14 8 16
REMARK H PARENT 12 5 10 7 4 13 6 15 8 17
REMARK Flexibility Score: inf
ROOT
ATOM      1  C   UNL     1     -18.543  23.108  15.339  1.00  0.00     0.181 C 
ENDROOT
BRANCH   1   2
ATOM      2  C   UNL     1     -20.069  23.372  15.442  1.00  0.00     0.171 C 
BRANCH   2   3
ATOM      3  C   UNL     1     -20.882  22.069  15.319  1.00  0.00     0.190 C 
BRANCH   3   4
ATOM      4  O   UNL     1     -21.652  22.079  14.147  1.00  0.00    -0.394 OA
ATOM      5  H   UNL     1     -21.982  23.009  14.032  1.00  0.00     0.210 HD
ENDBRANCH   3   4
ENDBRANCH   2   3
BRANCH   2   6
ATOM      6  O   UNL     1     -20.491  24.295  14.468  1.00  0.00    -0.388 OA
ATOM      7  H   UNL     1     -21.482  24.252  14.424  1.00  0.00     0.211 HD
ENDBRANCH   2   6
ENDBRANCH   1   2
BRANCH   1   8
ATOM      8  C   UNL     1     -18.210  21.847  14.497  1.00  0.00     0.214 C 
BRANCH   8   9
ATOM      9  C   UNL     1     -18.080  22.148  13.014  1.00  0.00     0.189 C 
ATOM     10  O   UNL     1     -19.085  22.407  12.371  1.00  0.00    -0.294 OA
BRANCH   9  11
ATOM     11  C   UNL     1     -16.752  22.103  12.303  1.00  0.00     0.234 C 
BRANCH  11  12
ATOM     12  O   UNL     1     -15.873  23.044  12.857  1.00  0.00    -0.388 OA
ATOM     13  H   UNL     1     -15.026  22.564  13.045  1.00  0.00     0.211 HD
ENDBRANCH  11  12
ENDBRANCH   9  11
ENDBRANCH   8   9
BRANCH   8  14
ATOM     14  O   UNL     1     -17.060  21.200  14.987  1.00  0.00    -0.382 OA
ATOM     15  H   UNL     1     -17.126  20.234  14.767  1.00  0.00     0.211 HD
ENDBRANCH   8  14
ENDBRANCH   1   8
BRANCH   1  16
ATOM     16  O   UNL     1     -17.905  24.229  14.774  1.00  0.00    -0.387 OA
ATOM     17  H   UNL     1     -18.104  24.224  13.801  1.00  0.00     0.211 HD
ENDBRANCH   1  16
TORSDOF 10
ENDMDL
MODEL 8
REMARK VINA RESULT:    -4.150      1.660      4.330
REMARK INTER + INTRA:          -6.875
REMARK INTER:                  -6.042
REMARK INTRA:                  -0.833
REMARK UNBOUND:                -0.905
REMARK SMILES O=C(CO)[C@@H](O)[C@@H](O)[C@@H](O)CO
REMARK SMILES IDX 7 1 9 2 11 3 12 4 10 6 5 8 2 9 1 10 3 11 4 12 6 14 8 16
REMARK H PARENT 12 5 10 7 4 13 6 15 8 17
REMARK Flexibility Score: inf
ROOT
ATOM      1  C   UNL     1     -20.377  23.409  12.708  1.00  0.00     0.181 C 
ENDROOT
BRANCH   1   2
ATOM      2  C   UNL     1     -19.371  22.956  11.616  1.00  0.00     0.171 C 
BRANCH   2   3
ATOM      3  C   UNL     1     -20.091  22.444  10.354  1.00  0.00     0.190 C 
BRANCH   3   4
ATOM      4  O   UNL     1     -21.325  23.091  10.195  1.00  0.00    -0.394 OA
ATOM      5  H   UNL     1     -21.155  24.062  10.328  1.00  0.00     0.210 HD
ENDBRANCH   3   4
ENDBRANCH   2   3
BRANCH   2   6
ATOM      6  O   UNL     1     -18.503  21.964  12.108  1.00  0.00    -0.388 OA
ATOM      7  H   UNL     1     -18.306  22.183  13.057  1.00  0.00     0.211 HD
ENDBRANCH   2   6
ENDBRANCH   1   2
BRANCH   1   8
ATOM      8  C   UNL     1     -20.374  22.475  13.948  1.00  0.00     0.214 C 
BRANCH   8   9
ATOM      9  C   UNL     1     -19.715  23.112  15.159  1.00  0.00     0.189 C 
ATOM     10  O   UNL     1     -20.394  23.786  15.919  1.00  0.00    -0.294 OA
BRANCH   9  11
ATOM     11  C   UNL     1     -18.241  22.968  15.436  1.00  0.00     0.234 C 
BRANCH  11  12
ATOM     12  O   UNL     1     -17.503  23.799  14.581  1.00  0.00    -0.388 OA
ATOM     13  H   UNL     1     -16.546  23.645  14.793  1.00  0.00     0.211 HD
ENDBRANCH  11  12
ENDBRANCH   9  11
ENDBRANCH   8   9
BRANCH   8  14
ATOM     14  O   UNL     1     -21.674  22.031  14.252  1.00  0.00    -0.382 OA
ATOM     15  H   UNL     1     -22.010  21.499  13.485  1.00  0.00     0.211 HD
ENDBRANCH   8  14
ENDBRANCH   1   8
BRANCH   1  16
ATOM     16  O   UNL     1     -20.080  24.724  13.111  1.00  0.00    -0.387 OA
ATOM     17  H   UNL     1     -20.938  25.222  13.151  1.00  0.00     0.211 HD
ENDBRANCH   1  16
TORSDOF 10
ENDMDL
MODEL 9
REMARK VINA RESULT:    -4.098      3.133      5.453
REMARK INTER + INTRA:          -6.799
REMARK INTER:                  -5.848
REMARK INTRA:                  -0.951
REMARK UNBOUND:                -0.905
REMARK SMILES O=C(CO)[C@@H](O)[C@@H](O)[C@@H](O)CO
REMARK SMILES IDX 7 1 9 2 11 3 12 4 10 6 5 8 2 9 1 10 3 11 4 12 6 14 8 16
REMARK H PARENT 12 5 10 7 4 13 6 15 8 17
REMARK Flexibility Score: inf
ROOT
ATOM      1  C   UNL     1     -19.331  23.216  14.894  1.00  0.00     0.181 C 
ENDROOT
BRANCH   1   2
ATOM      2  C   UNL     1     -20.097  22.811  13.605  1.00  0.00     0.171 C 
BRANCH   2   3
ATOM      3  C   UNL     1     -20.222  23.990  12.622  1.00  0.00     0.190 C 
BRANCH   3   4
ATOM      4  O   UNL     1     -20.885  25.067  13.228  1.00  0.00    -0.394 OA
ATOM      5  H   UNL     1     -20.233  25.489  13.849  1.00  0.00     0.210 HD
ENDBRANCH   3   4
ENDBRANCH   2   3
BRANCH   2   6
ATOM      6  O   UNL     1     -21.373  22.304  13.912  1.00  0.00    -0.388 OA
ATOM      7  H   UNL     1     -21.341  21.955  14.842  1.00  0.00     0.211 HD
ENDBRANCH   2   6
ENDBRANCH   1   2
BRANCH   1   8
ATOM      8  C   UNL     1     -18.556  22.029  15.526  1.00  0.00     0.214 C 
BRANCH   8   9
ATOM      9  C   UNL     1     -17.531  22.478  16.553  1.00  0.00     0.189 C 
ATOM     10  O   UNL     1     -16.531  23.068  16.175  1.00  0.00    -0.294 OA
BRANCH   9  11
ATOM     11  C   UNL     1     -17.693  22.189  18.023  1.00  0.00     0.234 C 
BRANCH  11  12
ATOM     12  O   UNL     1     -18.924  22.678  18.481  1.00  0.00    -0.388 OA
ATOM     13  H   UNL     1     -19.624  22.089  18.096  1.00  0.00     0.211 HD
ENDBRANCH  11  12
ENDBRANCH   9  11
ENDBRANCH   8   9
BRANCH   8  14
ATOM     14  O   UNL     1     -19.440  21.079  16.072  1.00  0.00    -0.382 OA
ATOM     15  H   UNL     1     -19.270  20.205  15.633  1.00  0.00     0.211 HD
ENDBRANCH   8  14
ENDBRANCH   1   8
BRANCH   1  16
ATOM     16  O   UNL     1     -18.433  24.260  14.604  1.00  0.00    -0.387 OA
ATOM     17  H   UNL     1     -17.522  23.939  14.833  1.00  0.00     0.211 HD
ENDBRANCH   1  16
TORSDOF 10
ENDMDL
