MODEL 1
REMARK VINA RESULT:    -4.032      0.000      0.000
REMARK INTER + INTRA:          -9.072
REMARK INTER:                  -7.333
REMARK INTRA:                  -1.739
REMARK UNBOUND:                -1.739
REMARK SMILES CCCCCCCCCCCCCCCC(=O)[O-]
REMARK SMILES IDX 9 1 10 2 11 3 12 4 13 5 14 6 15 7 16 8 17 9 18 10 8 11 7 12
REMARK SMILES IDX 6 13 5 14 4 15 3 16 2 17 1 18
REMARK H PARENT
REMARK Flexibility Score: inf
ROOT
ATOM      1  C   UNL     1      32.441  33.420  22.555  1.00  0.00     0.000 C 
ENDROOT
BRANCH   1   2
ATOM      2  C   UNL     1      32.810  34.130  21.241  1.00  0.00     0.000 C 
BRANCH   2   3
ATOM      3  C   UNL     1      31.678  35.024  20.708  1.00  0.00     0.000 C 
BRANCH   3   4
ATOM      4  C   UNL     1      31.081  34.538  19.369  1.00  0.00     0.000 C 
BRANCH   4   5
ATOM      5  C   UNL     1      31.768  33.256  18.865  1.00  0.00     0.000 C 
BRANCH   5   6
ATOM      6  C   UNL     1      32.466  33.456  17.511  1.00  0.00     0.006 C 
BRANCH   6   7
ATOM      7  C   UNL     1      33.974  33.181  17.583  1.00  0.00     0.053 C 
BRANCH   7   8
ATOM      8  C   UNL     1      34.290  31.843  16.989  1.00  0.00     0.041 C 
ATOM      9  O   UNL     1      33.904  30.790  17.561  1.00  0.00    -0.550 OA
ATOM     10  O   UNL     1      35.053  31.760  15.832  1.00  0.00    -0.550 OA
ENDBRANCH   7   8
ENDBRANCH   6   7
ENDBRANCH   5   6
ENDBRANCH   4   5
ENDBRANCH   3   4
ENDBRANCH   2   3
ENDBRANCH   1   2
BRANCH   1  11
ATOM     11  C   UNL     1      31.019  33.753  23.041  1.00  0.00     0.000 C 
BRANCH  11  12
ATOM     12  C   UNL     1      30.032  32.572  23.050  1.00  0.00    -0.000 C 
BRANCH  12  13
ATOM     13  C   UNL     1      28.575  33.004  22.817  1.00  0.00    -0.000 C 
BRANCH  13  14
ATOM     14  C   UNL     1      28.454  34.497  22.466  1.00  0.00    -0.000 C 
BRANCH  14  15
ATOM     15  C   UNL     1      27.670  34.731  21.163  1.00  0.00    -0.000 C 
BRANCH  15  16
ATOM     16  C   UNL     1      27.442  33.436  20.362  1.00  0.00    -0.000 C 
BRANCH  16  17
ATOM     17  C   UNL     1      26.187  33.435  19.473  1.00  0.00    -0.003 C 
ATOM     18  C   UNL     1      24.964  32.832  20.163  1.00  0.00     0.004 C 
ENDBRANCH  16  17
ENDBRANCH  15  16
ENDBRANCH  14  15
ENDBRANCH  13  14
ENDBRANCH  12  13
ENDBRANCH  11  12
ENDBRANCH   1  11
TORSDOF 14
ENDMDL
MODEL 2
REMARK VINA RESULT:    -3.900      1.639      3.092
REMARK INTER + INTRA:          -8.831
REMARK INTER:                  -6.821
REMARK INTRA:                  -2.010
REMARK UNBOUND:                -1.739
REMARK SMILES CCCCCCCCCCCCCCCC(=O)[O-]
REMARK SMILES IDX 9 1 10 2 11 3 12 4 13 5 14 6 15 7 16 8 17 9 18 10 8 11 7 12
REMARK SMILES IDX 6 13 5 14 4 15 3 16 2 17 1 18
REMARK H PARENT
REMARK Flexibility Score: inf
ROOT
ATOM      1  C   UNL     1      30.905  35.228  24.120  1.00  0.00     0.000 C 
ENDROOT
BRANCH   1   2
ATOM      2  C   UNL     1      32.059  35.023  23.123  1.00  0.00     0.000 C 
BRANCH   2   3
ATOM      3  C   UNL     1      32.167  33.572  22.626  1.00  0.00     0.000 C 
BRANCH   3   4
ATOM      4  C   UNL     1      33.617  33.042  22.569  1.00  0.00     0.000 C 
BRANCH   4   5
ATOM      5  C   UNL     1      34.252  33.253  21.184  1.00  0.00     0.000 C 
BRANCH   5   6
ATOM      6  C   UNL     1      34.000  32.073  20.233  1.00  0.00     0.006 C 
BRANCH   6   7
ATOM      7  C   UNL     1      34.923  32.100  19.008  1.00  0.00     0.053 C 
BRANCH   7   8
ATOM      8  C   UNL     1      34.139  31.852  17.757  1.00  0.00     0.041 C 
ATOM      9  O   UNL     1      33.846  30.675  17.417  1.00  0.00    -0.550 OA
ATOM     10  O   UNL     1      33.775  32.916  16.942  1.00  0.00    -0.550 OA
ENDBRANCH   7   8
ENDBRANCH   6   7
ENDBRANCH   5   6
ENDBRANCH   4   5
ENDBRANCH   3   4
ENDBRANCH   2   3
ENDBRANCH   1   2
BRANCH   1  11
ATOM     11  C   UNL     1      29.559  35.518  23.432  1.00  0.00     0.000 C 
BRANCH  11  12
ATOM     12  C   UNL     1      28.412  34.559  23.797  1.00  0.00    -0.000 C 
BRANCH  12  13
ATOM     13  C   UNL     1      28.507  33.205  23.074  1.00  0.00    -0.000 C 
BRANCH  13  14
ATOM     14  C   UNL     1      27.913  33.254  21.656  1.00  0.00    -0.000 C 
BRANCH  14  15
ATOM     15  C   UNL     1      28.939  32.867  20.577  1.00  0.00    -0.000 C 
BRANCH  15  16
ATOM     16  C   UNL     1      29.656  34.087  19.969  1.00  0.00    -0.000 C 
BRANCH  16  17
ATOM     17  C   UNL     1      30.906  33.757  19.136  1.00  0.00    -0.003 C 
ATOM     18  C   UNL     1      31.872  34.935  19.014  1.00  0.00     0.004 C 
ENDBRANCH  16  17
ENDBRANCH  15  16
ENDBRANCH  14  15
ENDBRANCH  13  14
ENDBRANCH  12  13
ENDBRANCH  11  12
ENDBRANCH   1  11
TORSDOF 14
ENDMDL
MODEL 3
REMARK VINA RESULT:    -3.794      1.504      1.965
REMARK INTER + INTRA:          -8.639
REMARK INTER:                  -6.805
REMARK INTRA:                  -1.834
REMARK UNBOUND:                -1.739
REMARK SMILES CCCCCCCCCCCCCCCC(=O)[O-]
REMARK SMILES IDX 9 1 10 2 11 3 12 4 13 5 14 6 15 7 16 8 17 9 18 10 8 11 7 12
REMARK SMILES IDX 6 13 5 14 4 15 3 16 2 17 1 18
REMARK H PARENT
REMARK Flexibility Score: inf
ROOT
ATOM      1  C   UNL     1      32.641  35.005  21.603  1.00  0.00     0.000 C 
ENDROOT
BRANCH   1   2
ATOM      2  C   UNL     1      31.419  35.837  21.180  1.00  0.00     0.000 C 
BRANCH   2   3
ATOM      3  C   UNL     1      30.815  35.372  19.844  1.00  0.00     0.000 C 
BRANCH   3   4
ATOM      4  C   UNL     1      31.228  33.940  19.441  1.00  0.00     0.000 C 
BRANCH   4   5
ATOM      5  C   UNL     1      31.746  33.875  17.994  1.00  0.00     0.000 C 
BRANCH   5   6
ATOM      6  C   UNL     1      33.122  33.200  17.890  1.00  0.00     0.006 C 
BRANCH   6   7
ATOM      7  C   UNL     1      33.446  32.339  19.118  1.00  0.00     0.053 C 
BRANCH   7   8
ATOM      8  C   UNL     1      34.844  32.602  19.586  1.00  0.00     0.041 C 
ATOM      9  O   UNL     1      35.311  33.770  19.558  1.00  0.00    -0.550 OA
ATOM     10  O   UNL     1      35.646  31.548  20.004  1.00  0.00    -0.550 OA
ENDBRANCH   7   8
ENDBRANCH   6   7
ENDBRANCH   5   6
ENDBRANCH   4   5
ENDBRANCH   3   4
ENDBRANCH   2   3
ENDBRANCH   1   2
BRANCH   1  11
ATOM     11  C   UNL     1      32.359  34.092  22.811  1.00  0.00     0.000 C 
BRANCH  11  12
ATOM     12  C   UNL     1      30.899  34.081  23.301  1.00  0.00    -0.000 C 
BRANCH  12  13
ATOM     13  C   UNL     1      30.191  32.739  23.048  1.00  0.00    -0.000 C 
BRANCH  13  14
ATOM     14  C   UNL     1      28.661  32.884  22.986  1.00  0.00    -0.000 C 
BRANCH  14  15
ATOM     15  C   UNL     1      28.213  33.939  21.961  1.00  0.00    -0.000 C 
BRANCH  15  16
ATOM     16  C   UNL     1      27.538  33.319  20.723  1.00  0.00    -0.000 C 
BRANCH  16  17
ATOM     17  C   UNL     1      26.351  34.121  20.162  1.00  0.00    -0.003 C 
ATOM     18  C   UNL     1      25.176  33.237  19.743  1.00  0.00     0.004 C 
ENDBRANCH  16  17
ENDBRANCH  15  16
ENDBRANCH  14  15
ENDBRANCH  13  14
ENDBRANCH  12  13
ENDBRANCH  11  12
ENDBRANCH   1  11
TORSDOF 14
ENDMDL
MODEL 4
REMARK VINA RESULT:    -3.791      1.651      3.460
REMARK INTER + INTRA:          -8.633
REMARK INTER:                  -6.289
REMARK INTRA:                  -2.343
REMARK UNBOUND:                -1.739
REMARK SMILES CCCCCCCCCCCCCCCC(=O)[O-]
REMARK SMILES IDX 9 1 10 2 11 3 12 4 13 5 14 6 15 7 16 8 17 9 18 10 8 11 7 12
REMARK SMILES IDX 6 13 5 14 4 15 3 16 2 17 1 18
REMARK H PARENT
REMARK Flexibility Score: inf
ROOT
ATOM      1  C   UNL     1      29.070  32.898  20.819  1.00  0.00     0.000 C 
ENDROOT
BRANCH   1   2
ATOM      2  C   UNL     1      29.654  33.904  19.813  1.00  0.00     0.000 C 
BRANCH   2   3
ATOM      3  C   UNL     1      30.979  33.428  19.195  1.00  0.00     0.000 C 
BRANCH   3   4
ATOM      4  C   UNL     1      32.009  34.560  18.988  1.00  0.00     0.000 C 
BRANCH   4   5
ATOM      5  C   UNL     1      33.398  34.182  19.531  1.00  0.00     0.000 C 
BRANCH   5   6
ATOM      6  C   UNL     1      33.567  32.665  19.711  1.00  0.00     0.006 C 
BRANCH   6   7
ATOM      7  C   UNL     1      34.717  32.100  18.866  1.00  0.00     0.053 C 
BRANCH   7   8
ATOM      8  C   UNL     1      34.233  31.751  17.493  1.00  0.00     0.041 C 
ATOM      9  O   UNL     1      33.971  30.555  17.199  1.00  0.00    -0.550 OA
ATOM     10  O   UNL     1      34.120  32.740  16.524  1.00  0.00    -0.550 OA
ENDBRANCH   7   8
ENDBRANCH   6   7
ENDBRANCH   5   6
ENDBRANCH   4   5
ENDBRANCH   3   4
ENDBRANCH   2   3
ENDBRANCH   1   2
BRANCH   1  11
ATOM     11  C   UNL     1      28.006  33.519  21.743  1.00  0.00     0.000 C 
BRANCH  11  12
ATOM     12  C   UNL     1      28.222  33.281  23.249  1.00  0.00    -0.000 C 
BRANCH  12  13
ATOM     13  C   UNL     1      28.536  34.573  24.022  1.00  0.00    -0.000 C 
BRANCH  13  14
ATOM     14  C   UNL     1      28.794  35.769  23.089  1.00  0.00    -0.000 C 
BRANCH  14  15
ATOM     15  C   UNL     1      30.194  36.374  23.285  1.00  0.00    -0.000 C 
BRANCH  15  16
ATOM     16  C   UNL     1      31.271  35.673  22.436  1.00  0.00    -0.000 C 
BRANCH  16  17
ATOM     17  C   UNL     1      32.184  34.708  23.213  1.00  0.00    -0.003 C 
ATOM     18  C   UNL     1      31.919  33.239  22.885  1.00  0.00     0.004 C 
ENDBRANCH  16  17
ENDBRANCH  15  16
ENDBRANCH  14  15
ENDBRANCH  13  14
ENDBRANCH  12  13
ENDBRANCH  11  12
ENDBRANCH   1  11
TORSDOF 14
ENDMDL
MODEL 5
REMARK VINA RESULT:    -3.757      3.519      6.120
REMARK INTER + INTRA:          -8.570
REMARK INTER:                  -6.576
REMARK INTRA:                  -1.995
REMARK UNBOUND:                -1.739
REMARK SMILES CCCCCCCCCCCCCCCC(=O)[O-]
REMARK SMILES IDX 9 1 10 2 11 3 12 4 13 5 14 6 15 7 16 8 17 9 18 10 8 11 7 12
REMARK SMILES IDX 6 13 5 14 4 15 3 16 2 17 1 18
REMARK H PARENT
REMARK Flexibility Score: inf
ROOT
ATOM      1  C   UNL     1      31.373  35.070  23.795  1.00  0.00     0.000 C 
ENDROOT
BRANCH   1   2
ATOM      2  C   UNL     1      30.350  36.192  23.554  1.00  0.00     0.000 C 
BRANCH   2   3
ATOM      3  C   UNL     1      28.933  35.660  23.281  1.00  0.00     0.000 C 
BRANCH   3   4
ATOM      4  C   UNL     1      28.715  34.206  23.754  1.00  0.00     0.000 C 
BRANCH   4   5
ATOM      5  C   UNL     1      28.218  33.298  22.616  1.00  0.00     0.000 C 
BRANCH   5   6
ATOM      6  C   UNL     1      28.807  33.687  21.251  1.00  0.00     0.006 C 
BRANCH   6   7
ATOM      7  C   UNL     1      27.816  33.466  20.100  1.00  0.00     0.053 C 
BRANCH   7   8
ATOM      8  C   UNL     1      26.607  34.330  20.280  1.00  0.00     0.041 C 
ATOM      9  O   UNL     1      25.455  33.829  20.208  1.00  0.00    -0.550 OA
ATOM     10  O   UNL     1      26.754  35.698  20.475  1.00  0.00    -0.550 OA
ENDBRANCH   7   8
ENDBRANCH   6   7
ENDBRANCH   5   6
ENDBRANCH   4   5
ENDBRANCH   3   4
ENDBRANCH   2   3
ENDBRANCH   1   2
BRANCH   1  11
ATOM     11  C   UNL     1      32.150  34.680  22.524  1.00  0.00     0.000 C 
BRANCH  11  12
ATOM     12  C   UNL     1      32.673  33.233  22.489  1.00  0.00    -0.000 C 
BRANCH  12  13
ATOM     13  C   UNL     1      34.183  33.146  22.210  1.00  0.00    -0.000 C 
BRANCH  13  14
ATOM     14  C   UNL     1      34.508  33.213  20.708  1.00  0.00    -0.000 C 
BRANCH  14  15
ATOM     15  C   UNL     1      33.855  32.068  19.915  1.00  0.00    -0.000 C 
BRANCH  15  16
ATOM     16  C   UNL     1      33.122  32.557  18.652  1.00  0.00    -0.000 C 
BRANCH  16  17
ATOM     17  C   UNL     1      31.690  33.065  18.889  1.00  0.00    -0.003 C 
ATOM     18  C   UNL     1      31.568  34.584  18.783  1.00  0.00     0.004 C 
ENDBRANCH  16  17
ENDBRANCH  15  16
ENDBRANCH  14  15
ENDBRANCH  13  14
ENDBRANCH  12  13
ENDBRANCH  11  12
ENDBRANCH   1  11
TORSDOF 14
ENDMDL
MODEL 6
REMARK VINA RESULT:    -3.751      1.432      2.304
REMARK INTER + INTRA:          -8.559
REMARK INTER:                  -7.471
REMARK INTRA:                  -1.088
REMARK UNBOUND:                -1.739
REMARK SMILES CCCCCCCCCCCCCCCC(=O)[O-]
REMARK SMILES IDX 9 1 10 2 11 3 12 4 13 5 14 6 15 7 16 8 17 9 18 10 8 11 7 12
REMARK SMILES IDX 6 13 5 14 4 15 3 16 2 17 1 18
REMARK H PARENT
REMARK Flexibility Score: inf
ROOT
ATOM      1  C   UNL     1      31.765  34.310  20.923  1.00  0.00     0.000 C 
ENDROOT
BRANCH   1   2
ATOM      2  C   UNL     1      31.287  33.575  19.659  1.00  0.00     0.000 C 
BRANCH   2   3
ATOM      3  C   UNL     1      32.405  33.385  18.621  1.00  0.00     0.000 C 
BRANCH   3   4
ATOM      4  C   UNL     1      33.162  32.046  18.761  1.00  0.00     0.000 C 
BRANCH   4   5
ATOM      5  C   UNL     1      34.389  31.977  17.835  1.00  0.00     0.000 C 
BRANCH   5   6
ATOM      6  C   UNL     1      34.120  31.164  16.560  1.00  0.00     0.006 C 
BRANCH   6   7
ATOM      7  C   UNL     1      34.935  31.669  15.361  1.00  0.00     0.053 C 
BRANCH   7   8
ATOM      8  C   UNL     1      34.062  32.453  14.431  1.00  0.00     0.041 C 
ATOM      9  O   UNL     1      32.918  32.827  14.801  1.00  0.00    -0.550 OA
ATOM     10  O   UNL     1      34.494  32.727  13.140  1.00  0.00    -0.550 OA
ENDBRANCH   7   8
ENDBRANCH   6   7
ENDBRANCH   5   6
ENDBRANCH   4   5
ENDBRANCH   3   4
ENDBRANCH   2   3
ENDBRANCH   1   2
BRANCH   1  11
ATOM     11  C   UNL     1      32.158  33.354  22.064  1.00  0.00     0.000 C 
BRANCH  11  12
ATOM     12  C   UNL     1      31.016  32.968  23.022  1.00  0.00    -0.000 C 
BRANCH  12  13
ATOM     13  C   UNL     1      30.047  34.129  23.300  1.00  0.00    -0.000 C 
BRANCH  13  14
ATOM     14  C   UNL     1      28.573  33.694  23.229  1.00  0.00    -0.000 C 
BRANCH  14  15
ATOM     15  C   UNL     1      28.198  33.116  21.854  1.00  0.00    -0.000 C 
BRANCH  15  16
ATOM     16  C   UNL     1      27.471  34.135  20.956  1.00  0.00    -0.000 C 
BRANCH  16  17
ATOM     17  C   UNL     1      26.719  33.526  19.759  1.00  0.00    -0.003 C 
ATOM     18  C   UNL     1      25.322  33.025  20.122  1.00  0.00     0.004 C 
ENDBRANCH  16  17
ENDBRANCH  15  16
ENDBRANCH  14  15
ENDBRANCH  13  14
ENDBRANCH  12  13
ENDBRANCH  11  12
ENDBRANCH   1  11
TORSDOF 14
ENDMDL
MODEL 7
REMARK VINA RESULT:    -3.742      1.278      2.477
REMARK INTER + INTRA:          -8.543
REMARK INTER:                  -6.159
REMARK INTRA:                  -2.385
REMARK UNBOUND:                -1.739
REMARK SMILES CCCCCCCCCCCCCCCC(=O)[O-]
REMARK SMILES IDX 9 1 10 2 11 3 12 4 13 5 14 6 15 7 16 8 17 9 18 10 8 11 7 12
REMARK SMILES IDX 6 13 5 14 4 15 3 16 2 17 1 18
REMARK H PARENT
REMARK Flexibility Score: inf
ROOT
ATOM      1  C   UNL     1      33.049  36.135  20.922  1.00  0.00     0.000 C 
ENDROOT
BRANCH   1   2
ATOM      2  C   UNL     1      31.531  36.380  20.964  1.00  0.00     0.000 C 
BRANCH   2   3
ATOM      3  C   UNL     1      30.754  35.479  19.989  1.00  0.00     0.000 C 
BRANCH   3   4
ATOM      4  C   UNL     1      31.633  34.866  18.877  1.00  0.00     0.000 C 
BRANCH   4   5
ATOM      5  C   UNL     1      31.732  33.335  19.000  1.00  0.00     0.000 C 
BRANCH   5   6
ATOM      6  C   UNL     1      33.182  32.849  19.155  1.00  0.00     0.006 C 
BRANCH   6   7
ATOM      7  C   UNL     1      33.443  31.537  18.404  1.00  0.00     0.053 C 
BRANCH   7   8
ATOM      8  C   UNL     1      34.282  31.789  17.190  1.00  0.00     0.041 C 
ATOM      9  O   UNL     1      34.978  32.834  17.108  1.00  0.00    -0.550 OA
ATOM     10  O   UNL     1      34.256  30.892  16.130  1.00  0.00    -0.550 OA
ENDBRANCH   7   8
ENDBRANCH   6   7
ENDBRANCH   5   6
ENDBRANCH   4   5
ENDBRANCH   3   4
ENDBRANCH   2   3
ENDBRANCH   1   2
BRANCH   1  11
ATOM     11  C   UNL     1      33.569  35.366  22.150  1.00  0.00     0.000 C 
BRANCH  11  12
ATOM     12  C   UNL     1      32.485  34.702  23.018  1.00  0.00    -0.000 C 
BRANCH  12  13
ATOM     13  C   UNL     1      32.303  33.206  22.712  1.00  0.00    -0.000 C 
BRANCH  13  14
ATOM     14  C   UNL     1      30.862  32.727  22.954  1.00  0.00    -0.000 C 
BRANCH  14  15
ATOM     15  C   UNL     1      29.909  33.886  23.294  1.00  0.00    -0.000 C 
BRANCH  15  16
ATOM     16  C   UNL     1      28.540  33.756  22.600  1.00  0.00    -0.000 C 
BRANCH  16  17
ATOM     17  C   UNL     1      28.540  32.909  21.316  1.00  0.00    -0.003 C 
ATOM     18  C   UNL     1      27.601  33.453  20.240  1.00  0.00     0.004 C 
ENDBRANCH  16  17
ENDBRANCH  15  16
ENDBRANCH  14  15
ENDBRANCH  13  14
ENDBRANCH  12  13
ENDBRANCH  11  12
ENDBRANCH   1  11
TORSDOF 14
ENDMDL
MODEL 8
REMARK VINA RESULT:    -3.699      1.796      4.300
REMARK INTER + INTRA:          -8.465
REMARK INTER:                  -6.560
REMARK INTRA:                  -1.904
REMARK UNBOUND:                -1.739
REMARK SMILES CCCCCCCCCCCCCCCC(=O)[O-]
REMARK SMILES IDX 9 1 10 2 11 3 12 4 13 5 14 6 15 7 16 8 17 9 18 10 8 11 7 12
REMARK SMILES IDX 6 13 5 14 4 15 3 16 2 17 1 18
REMARK H PARENT
REMARK Flexibility Score: inf
ROOT
ATOM      1  C   UNL     1      28.567  33.247  21.023  1.00  0.00     0.000 C 
ENDROOT
BRANCH   1   2
ATOM      2  C   UNL     1      28.672  32.767  22.480  1.00  0.00     0.000 C 
BRANCH   2   3
ATOM      3  C   UNL     1      30.114  32.794  23.014  1.00  0.00     0.000 C 
BRANCH   3   4
ATOM      4  C   UNL     1      31.106  33.530  22.087  1.00  0.00     0.000 C 
BRANCH   4   5
ATOM      5  C   UNL     1      32.564  33.345  22.540  1.00  0.00     0.000 C 
BRANCH   5   6
ATOM      6  C   UNL     1      33.569  33.558  21.397  1.00  0.00     0.006 C 
BRANCH   6   7
ATOM      7  C   UNL     1      33.005  33.129  20.035  1.00  0.00     0.053 C 
BRANCH   7   8
ATOM      8  C   UNL     1      33.876  32.079  19.418  1.00  0.00     0.041 C 
ATOM      9  O   UNL     1      33.492  31.464  18.389  1.00  0.00    -0.550 OA
ATOM     10  O   UNL     1      35.087  31.746  20.009  1.00  0.00    -0.550 OA
ENDBRANCH   7   8
ENDBRANCH   6   7
ENDBRANCH   5   6
ENDBRANCH   4   5
ENDBRANCH   3   4
ENDBRANCH   2   3
ENDBRANCH   1   2
BRANCH   1  11
ATOM     11  C   UNL     1      27.112  33.446  20.558  1.00  0.00     0.000 C 
BRANCH  11  12
ATOM     12  C   UNL     1      26.739  34.885  20.161  1.00  0.00    -0.000 C 
BRANCH  12  13
ATOM     13  C   UNL     1      27.769  35.925  20.634  1.00  0.00    -0.000 C 
BRANCH  13  14
ATOM     14  C   UNL     1      27.411  36.525  22.005  1.00  0.00    -0.000 C 
BRANCH  14  15
ATOM     15  C   UNL     1      28.594  36.489  22.987  1.00  0.00    -0.000 C 
BRANCH  15  16
ATOM     16  C   UNL     1      28.228  35.849  24.339  1.00  0.00    -0.000 C 
BRANCH  16  17
ATOM     17  C   UNL     1      29.349  35.870  25.393  1.00  0.00    -0.003 C 
ATOM     18  C   UNL     1      30.731  36.127  24.791  1.00  0.00     0.004 C 
ENDBRANCH  16  17
ENDBRANCH  15  16
ENDBRANCH  14  15
ENDBRANCH  13  14
ENDBRANCH  12  13
ENDBRANCH  11  12
ENDBRANCH   1  11
TORSDOF 14
ENDMDL
MODEL 9
REMARK VINA RESULT:    -3.670     12.052     14.433
REMARK INTER + INTRA:          -8.413
REMARK INTER:                  -6.200
REMARK INTRA:                  -2.213
REMARK UNBOUND:                -1.739
REMARK SMILES CCCCCCCCCCCCCCCC(=O)[O-]
REMARK SMILES IDX 9 1 10 2 11 3 12 4 13 5 14 6 15 7 16 8 17 9 18 10 8 11 7 12
REMARK SMILES IDX 6 13 5 14 4 15 3 16 2 17 1 18
REMARK H PARENT
REMARK Flexibility Score: inf
ROOT
ATOM      1  C   UNL     1      36.922  34.241  32.343  1.00  0.00     0.000 C 
ENDROOT
BRANCH   1   2
ATOM      2  C   UNL     1      37.658  35.343  33.125  1.00  0.00     0.000 C 
BRANCH   2   3
ATOM      3  C   UNL     1      38.903  35.866  32.391  1.00  0.00     0.000 C 
BRANCH   3   4
ATOM      4  C   UNL     1      38.745  37.303  31.846  1.00  0.00     0.000 C 
BRANCH   4   5
ATOM      5  C   UNL     1      37.669  38.093  32.612  1.00  0.00     0.000 C 
BRANCH   5   6
ATOM      6  C   UNL     1      36.581  38.657  31.685  1.00  0.00     0.006 C 
BRANCH   6   7
ATOM      7  C   UNL     1      36.406  37.821  30.410  1.00  0.00     0.053 C 
BRANCH   7   8
ATOM      8  C   UNL     1      35.202  36.940  30.526  1.00  0.00     0.041 C 
ATOM      9  O   UNL     1      34.543  36.905  31.598  1.00  0.00    -0.550 OA
ATOM     10  O   UNL     1      34.837  36.120  29.465  1.00  0.00    -0.550 OA
ENDBRANCH   7   8
ENDBRANCH   6   7
ENDBRANCH   5   6
ENDBRANCH   4   5
ENDBRANCH   3   4
ENDBRANCH   2   3
ENDBRANCH   1   2
BRANCH   1  11
ATOM     11  C   UNL     1      36.876  32.898  33.095  1.00  0.00     0.000 C 
BRANCH  11  12
ATOM     12  C   UNL     1      37.611  31.733  32.408  1.00  0.00    -0.000 C 
BRANCH  12  13
ATOM     13  C   UNL     1      39.142  31.852  32.498  1.00  0.00    -0.000 C 
BRANCH  13  14
ATOM     14  C   UNL     1      39.825  31.699  31.128  1.00  0.00    -0.000 C 
BRANCH  14  15
ATOM     15  C   UNL     1      40.390  33.029  30.603  1.00  0.00    -0.000 C 
BRANCH  15  16
ATOM     16  C   UNL     1      40.085  33.260  29.111  1.00  0.00    -0.000 C 
BRANCH  16  17
ATOM     17  C   UNL     1      39.778  34.719  28.729  1.00  0.00    -0.003 C 
ATOM     18  C   UNL     1      38.298  35.074  28.868  1.00  0.00     0.004 C 
ENDBRANCH  16  17
ENDBRANCH  15  16
ENDBRANCH  14  15
ENDBRANCH  13  14
ENDBRANCH  12  13
ENDBRANCH  11  12
ENDBRANCH   1  11
TORSDOF 14
ENDMDL
