MODEL 1
REMARK VINA RESULT:    -5.545      0.000      0.000
REMARK INTER + INTRA:          -5.707
REMARK INTER:                  -5.707
REMARK INTRA:                   0.000
REMARK UNBOUND:                 0.000
REMARK SMILES Nc1ncnc2nc[nH]c12
REMARK SMILES IDX 8 1 7 2 6 3 5 4 4 5 3 6 2 7 10 8 9 9 1 11
REMARK H PARENT 9 10 1 12 1 13
REMARK Flexibility Score: inf
ROOT
ATOM      1  C   UNL     1      -9.354 -18.051  19.455  1.00  0.00     0.199 A 
ATOM      2  N   UNL     1     -10.323 -17.803  18.532  1.00  0.00    -0.217 NA
ATOM      3  C   UNL     1     -11.309 -18.625  18.927  1.00  0.00     0.182 A 
ATOM      4  N   UNL     1     -12.521 -18.772  18.341  1.00  0.00    -0.215 NA
ATOM      5  C   UNL     1     -13.400 -19.665  18.891  1.00  0.00     0.226 A 
ATOM      6  N   UNL     1     -13.054 -20.386  20.005  1.00  0.00    -0.217 NA
ATOM      7  C   UNL     1     -11.831 -20.239  20.597  1.00  0.00     0.152 A 
ATOM      8  C   UNL     1     -10.948 -19.327  20.026  1.00  0.00     0.127 A 
ATOM      9  N   UNL     1      -9.706 -18.978  20.381  1.00  0.00    -0.340 N 
ATOM     10  H   UNL     1      -9.132 -19.328  21.180  1.00  0.00     0.168 HD
ENDROOT
BRANCH   7  11
ATOM     11  N   UNL     1     -11.494 -21.001  21.757  1.00  0.00    -0.382 N 
ATOM     12  H   UNL     1     -11.786 -22.000  21.829  1.00  0.00     0.158 HD
ATOM     13  H   UNL     1     -10.956 -20.580  22.547  1.00  0.00     0.158 HD
ENDBRANCH   7  11
TORSDOF 1
ENDMDL
MODEL 2
REMARK VINA RESULT:    -5.357      4.311      6.474
REMARK INTER + INTRA:          -5.514
REMARK INTER:                  -5.514
REMARK INTRA:                   0.000
REMARK UNBOUND:                 0.000
REMARK SMILES Nc1ncnc2nc[nH]c12
REMARK SMILES IDX 8 1 7 2 6 3 5 4 4 5 3 6 2 7 10 8 9 9 1 11
REMARK H PARENT 9 10 1 12 1 13
REMARK Flexibility Score: inf
ROOT
ATOM      1  C   UNL     1      -9.129 -16.614  18.567  1.00  0.00     0.199 A 
ATOM      2  N   UNL     1     -10.239 -15.969  19.021  1.00  0.00    -0.217 NA
ATOM      3  C   UNL     1      -9.823 -14.693  19.078  1.00  0.00     0.182 A 
ATOM      4  N   UNL     1     -10.552 -13.623  19.475  1.00  0.00    -0.215 NA
ATOM      5  C   UNL     1      -9.952 -12.394  19.465  1.00  0.00     0.226 A 
ATOM      6  N   UNL     1      -8.648 -12.259  19.064  1.00  0.00    -0.217 NA
ATOM      7  C   UNL     1      -7.911 -13.338  18.664  1.00  0.00     0.152 A 
ATOM      8  C   UNL     1      -8.535 -14.582  18.679  1.00  0.00     0.127 A 
ATOM      9  N   UNL     1      -8.072 -15.793  18.348  1.00  0.00    -0.340 N 
ATOM     10  H   UNL     1      -7.123 -16.057  18.001  1.00  0.00     0.168 HD
ENDROOT
BRANCH   7  11
ATOM     11  N   UNL     1      -6.554 -13.172  18.250  1.00  0.00    -0.382 N 
ATOM     12  H   UNL     1      -6.302 -12.419  17.574  1.00  0.00     0.158 HD
ATOM     13  H   UNL     1      -5.796 -13.794  18.610  1.00  0.00     0.158 HD
ENDBRANCH   7  11
TORSDOF 1
ENDMDL
MODEL 3
REMARK VINA RESULT:    -5.311      7.029      7.571
REMARK INTER + INTRA:          -5.466
REMARK INTER:                  -5.466
REMARK INTRA:                   0.000
REMARK UNBOUND:                 0.000
REMARK SMILES Nc1ncnc2nc[nH]c12
REMARK SMILES IDX 8 1 7 2 6 3 5 4 4 5 3 6 2 7 10 8 9 9 1 11
REMARK H PARENT 9 10 1 12 1 13
REMARK Flexibility Score: inf
ROOT
ATOM      1  C   UNL     1     -10.727 -11.659  17.069  1.00  0.00     0.199 A 
ATOM      2  N   UNL     1      -9.643 -12.312  16.568  1.00  0.00    -0.217 NA
ATOM      3  C   UNL     1      -9.020 -12.727  17.683  1.00  0.00     0.182 A 
ATOM      4  N   UNL     1      -7.868 -13.437  17.749  1.00  0.00    -0.215 NA
ATOM      5  C   UNL     1      -7.385 -13.770  18.984  1.00  0.00     0.226 A 
ATOM      6  N   UNL     1      -8.055 -13.391  20.119  1.00  0.00    -0.217 NA
ATOM      7  C   UNL     1      -9.217 -12.675  20.055  1.00  0.00     0.152 A 
ATOM      8  C   UNL     1      -9.696 -12.343  18.791  1.00  0.00     0.127 A 
ATOM      9  N   UNL     1     -10.788 -11.662  18.425  1.00  0.00    -0.340 N 
ATOM     10  H   UNL     1     -11.521 -11.229  19.029  1.00  0.00     0.168 HD
ENDROOT
BRANCH   7  11
ATOM     11  N   UNL     1      -9.897 -12.292  21.251  1.00  0.00    -0.382 N 
ATOM     12  H   UNL     1     -10.927 -12.435  21.335  1.00  0.00     0.158 HD
ATOM     13  H   UNL     1      -9.385 -11.866  22.055  1.00  0.00     0.158 HD
ENDBRANCH   7  11
TORSDOF 1
ENDMDL
MODEL 4
REMARK VINA RESULT:    -5.089      1.413      2.623
REMARK INTER + INTRA:          -5.238
REMARK INTER:                  -5.238
REMARK INTRA:                   0.000
REMARK UNBOUND:                 0.000
REMARK SMILES Nc1ncnc2nc[nH]c12
REMARK SMILES IDX 8 1 7 2 6 3 5 4 4 5 3 6 2 7 10 8 9 9 1 11
REMARK H PARENT 9 10 1 12 1 13
REMARK Flexibility Score: inf
ROOT
ATOM      1  C   UNL     1     -10.778 -19.511  21.965  1.00  0.00     0.199 A 
ATOM      2  N   UNL     1     -12.127 -19.326  21.997  1.00  0.00    -0.217 NA
ATOM      3  C   UNL     1     -12.444 -19.327  20.692  1.00  0.00     0.182 A 
ATOM      4  N   UNL     1     -13.681 -19.176  20.162  1.00  0.00    -0.215 NA
ATOM      5  C   UNL     1     -13.808 -19.204  18.800  1.00  0.00     0.226 A 
ATOM      6  N   UNL     1     -12.707 -19.381  18.002  1.00  0.00    -0.217 NA
ATOM      7  C   UNL     1     -11.458 -19.533  18.535  1.00  0.00     0.152 A 
ATOM      8  C   UNL     1     -11.345 -19.502  19.922  1.00  0.00     0.127 A 
ATOM      9  N   UNL     1     -10.271 -19.622  20.711  1.00  0.00    -0.340 N 
ATOM     10  H   UNL     1      -9.274 -19.767  20.439  1.00  0.00     0.168 HD
ENDROOT
BRANCH   7  11
ATOM     11  N   UNL     1     -10.326 -19.716  17.683  1.00  0.00    -0.382 N 
ATOM     12  H   UNL     1      -9.504 -19.078  17.762  1.00  0.00     0.158 HD
ATOM     13  H   UNL     1     -10.297 -20.481  16.974  1.00  0.00     0.158 HD
ENDBRANCH   7  11
TORSDOF 1
ENDMDL
MODEL 5
REMARK VINA RESULT:    -5.077      7.023      7.828
REMARK INTER + INTRA:          -5.225
REMARK INTER:                  -5.225
REMARK INTRA:                   0.000
REMARK UNBOUND:                 0.000
REMARK SMILES Nc1ncnc2nc[nH]c12
REMARK SMILES IDX 8 1 7 2 6 3 5 4 4 5 3 6 2 7 10 8 9 9 1 11
REMARK H PARENT 9 10 1 12 1 13
REMARK Flexibility Score: inf
ROOT
ATOM      1  C   UNL     1     -10.214 -11.886  16.775  1.00  0.00     0.199 A 
ATOM      2  N   UNL     1     -10.881 -12.037  17.951  1.00  0.00    -0.217 NA
ATOM      3  C   UNL     1      -9.899 -12.405  18.790  1.00  0.00     0.182 A 
ATOM      4  N   UNL     1     -10.026 -12.685  20.109  1.00  0.00    -0.215 NA
ATOM      5  C   UNL     1      -8.903 -13.045  20.803  1.00  0.00     0.226 A 
ATOM      6  N   UNL     1      -7.688 -13.117  20.172  1.00  0.00    -0.217 NA
ATOM      7  C   UNL     1      -7.558 -12.835  18.841  1.00  0.00     0.152 A 
ATOM      8  C   UNL     1      -8.709 -12.470  18.149  1.00  0.00     0.127 A 
ATOM      9  N   UNL     1      -8.885 -12.144  16.863  1.00  0.00    -0.340 N 
ATOM     10  H   UNL     1      -8.175 -12.095  16.098  1.00  0.00     0.168 HD
ENDROOT
BRANCH   7  11
ATOM     11  N   UNL     1      -6.281 -12.917  18.206  1.00  0.00    -0.382 N 
ATOM     12  H   UNL     1      -5.787 -13.834  18.143  1.00  0.00     0.158 HD
ATOM     13  H   UNL     1      -5.822 -12.073  17.798  1.00  0.00     0.158 HD
ENDBRANCH   7  11
TORSDOF 1
ENDMDL
MODEL 6
REMARK VINA RESULT:    -5.001      2.117      3.026
REMARK INTER + INTRA:          -5.148
REMARK INTER:                  -5.148
REMARK INTRA:                   0.000
REMARK UNBOUND:                 0.000
REMARK SMILES Nc1ncnc2nc[nH]c12
REMARK SMILES IDX 8 1 7 2 6 3 5 4 4 5 3 6 2 7 10 8 9 9 1 11
REMARK H PARENT 9 10 1 12 1 13
REMARK Flexibility Score: inf
ROOT
ATOM      1  C   UNL     1     -13.931 -17.894  22.238  1.00  0.00     0.199 A 
ATOM      2  N   UNL     1     -13.359 -17.078  21.310  1.00  0.00    -0.217 NA
ATOM      3  C   UNL     1     -12.450 -17.888  20.742  1.00  0.00     0.182 A 
ATOM      4  N   UNL     1     -11.595 -17.566  19.743  1.00  0.00    -0.215 NA
ATOM      5  C   UNL     1     -10.736 -18.531  19.292  1.00  0.00     0.226 A 
ATOM      6  N   UNL     1     -10.748 -19.786  19.844  1.00  0.00    -0.217 NA
ATOM      7  C   UNL     1     -11.610 -20.112  20.853  1.00  0.00     0.152 A 
ATOM      8  C   UNL     1     -12.478 -19.120  21.301  1.00  0.00     0.127 A 
ATOM      9  N   UNL     1     -13.414 -19.148  22.256  1.00  0.00    -0.340 N 
ATOM     10  H   UNL     1     -13.692 -19.942  22.876  1.00  0.00     0.168 HD
ENDROOT
BRANCH   7  11
ATOM     11  N   UNL     1     -11.604 -21.427  21.412  1.00  0.00    -0.382 N 
ATOM     12  H   UNL     1     -11.374 -21.565  22.420  1.00  0.00     0.158 HD
ATOM     13  H   UNL     1     -11.828 -22.265  20.831  1.00  0.00     0.158 HD
ENDBRANCH   7  11
TORSDOF 1
ENDMDL
MODEL 7
REMARK VINA RESULT:    -4.935      5.155      6.584
REMARK INTER + INTRA:          -5.079
REMARK INTER:                  -5.079
REMARK INTRA:                   0.000
REMARK UNBOUND:                 0.000
REMARK SMILES Nc1ncnc2nc[nH]c12
REMARK SMILES IDX 8 1 7 2 6 3 5 4 4 5 3 6 2 7 10 8 9 9 1 11
REMARK H PARENT 9 10 1 12 1 13
REMARK Flexibility Score: inf
ROOT
ATOM      1  C   UNL     1      -6.988 -12.125  17.831  1.00  0.00     0.199 A 
ATOM      2  N   UNL     1      -8.077 -11.478  18.329  1.00  0.00    -0.217 NA
ATOM      3  C   UNL     1      -8.863 -12.498  18.711  1.00  0.00     0.182 A 
ATOM      4  N   UNL     1     -10.089 -12.403  19.280  1.00  0.00    -0.215 NA
ATOM      5  C   UNL     1     -10.742 -13.561  19.602  1.00  0.00     0.226 A 
ATOM      6  N   UNL     1     -10.164 -14.779  19.351  1.00  0.00    -0.217 NA
ATOM      7  C   UNL     1      -8.928 -14.876  18.776  1.00  0.00     0.152 A 
ATOM      8  C   UNL     1      -8.276 -13.689  18.455  1.00  0.00     0.127 A 
ATOM      9  N   UNL     1      -7.079 -13.477  17.894  1.00  0.00    -0.340 N 
ATOM     10  H   UNL     1      -6.374 -14.178  17.576  1.00  0.00     0.168 HD
ENDROOT
BRANCH   7  11
ATOM     11  N   UNL     1      -8.346 -16.156  18.525  1.00  0.00    -0.382 N 
ATOM     12  H   UNL     1      -7.317 -16.243  18.376  1.00  0.00     0.158 HD
ATOM     13  H   UNL     1      -8.930 -17.021  18.485  1.00  0.00     0.158 HD
ENDBRANCH   7  11
TORSDOF 1
ENDMDL
MODEL 8
REMARK VINA RESULT:    -4.897      5.143      7.454
REMARK INTER + INTRA:          -5.040
REMARK INTER:                  -5.040
REMARK INTRA:                   0.000
REMARK UNBOUND:                 0.000
REMARK SMILES Nc1ncnc2nc[nH]c12
REMARK SMILES IDX 8 1 7 2 6 3 5 4 4 5 3 6 2 7 10 8 9 9 1 11
REMARK H PARENT 9 10 1 12 1 13
REMARK Flexibility Score: inf
ROOT
ATOM      1  C   UNL     1      -9.526 -15.577  18.879  1.00  0.00     0.199 A 
ATOM      2  N   UNL     1      -8.187 -15.364  18.759  1.00  0.00    -0.217 NA
ATOM      3  C   UNL     1      -8.130 -14.046  18.507  1.00  0.00     0.182 A 
ATOM      4  N   UNL     1      -7.011 -13.311  18.301  1.00  0.00    -0.215 NA
ATOM      5  C   UNL     1      -7.154 -11.972  18.056  1.00  0.00     0.226 A 
ATOM      6  N   UNL     1      -8.400 -11.400  18.022  1.00  0.00    -0.217 NA
ATOM      7  C   UNL     1      -9.530 -12.141  18.229  1.00  0.00     0.152 A 
ATOM      8  C   UNL     1      -9.368 -13.501  18.477  1.00  0.00     0.127 A 
ATOM      9  N   UNL     1     -10.274 -14.457  18.712  1.00  0.00    -0.340 N 
ATOM     10  H   UNL     1     -11.314 -14.375  18.758  1.00  0.00     0.168 HD
ENDROOT
BRANCH   7  11
ATOM     11  N   UNL     1     -10.817 -11.523  18.189  1.00  0.00    -0.382 N 
ATOM     12  H   UNL     1     -11.679 -12.108  18.231  1.00  0.00     0.158 HD
ATOM     13  H   UNL     1     -10.920 -10.486  18.117  1.00  0.00     0.158 HD
ENDBRANCH   7  11
TORSDOF 1
ENDMDL
MODEL 9
REMARK VINA RESULT:    -4.831      3.501      4.330
REMARK INTER + INTRA:          -4.972
REMARK INTER:                  -4.972
REMARK INTRA:                   0.000
REMARK UNBOUND:                 0.000
REMARK SMILES Nc1ncnc2nc[nH]c12
REMARK SMILES IDX 8 1 7 2 6 3 5 4 4 5 3 6 2 7 10 8 9 9 1 11
REMARK H PARENT 9 10 1 12 1 13
REMARK Flexibility Score: inf
ROOT
ATOM      1  C   UNL     1     -11.979 -17.878  25.379  1.00  0.00     0.199 A 
ATOM      2  N   UNL     1     -13.198 -17.549  24.871  1.00  0.00    -0.217 NA
ATOM      3  C   UNL     1     -13.145 -18.081  23.638  1.00  0.00     0.182 A 
ATOM      4  N   UNL     1     -14.118 -18.038  22.697  1.00  0.00    -0.215 NA
ATOM      5  C   UNL     1     -13.878 -18.640  21.493  1.00  0.00     0.226 A 
ATOM      6  N   UNL     1     -12.682 -19.267  21.254  1.00  0.00    -0.217 NA
ATOM      7  C   UNL     1     -11.699 -19.311  22.202  1.00  0.00     0.152 A 
ATOM      8  C   UNL     1     -11.958 -18.694  23.423  1.00  0.00     0.127 A 
ATOM      9  N   UNL     1     -11.198 -18.578  24.518  1.00  0.00    -0.340 N 
ATOM     10  H   UNL     1     -10.232 -18.937  24.684  1.00  0.00     0.168 HD
ENDROOT
BRANCH   7  11
ATOM     11  N   UNL     1     -10.461 -19.970  21.930  1.00  0.00    -0.382 N 
ATOM     12  H   UNL     1     -10.162 -20.133  20.943  1.00  0.00     0.158 HD
ATOM     13  H   UNL     1      -9.839 -20.299  22.701  1.00  0.00     0.158 HD
ENDBRANCH   7  11
TORSDOF 1
ENDMDL
