MODEL 1
REMARK VINA RESULT:    -3.548      0.000      0.000
REMARK INTER + INTRA:          -4.330
REMARK INTER:                  -4.274
REMARK INTRA:                  -0.056
REMARK UNBOUND:                -0.056
REMARK SMILES CC[C@H](C)[C@@H]([NH3+])C(=O)[O-]
REMARK SMILES IDX 3 1 4 2 5 3 6 4 7 8 8 9 9 10 2 11 1 12
REMARK H PARENT 6 5 6 6 6 7
REMARK Flexibility Score: inf
ROOT
ATOM      1  C   UNL     1      -2.382   1.598   9.163  1.00  0.00     0.050 C 
ATOM      2  C   UNL     1      -2.153   1.058   7.739  1.00  0.00     0.014 C 
ENDROOT
BRANCH   1   3
ATOM      3  C   UNL     1      -1.225   2.579   9.556  1.00  0.00     0.230 C 
BRANCH   3   4
ATOM      4  N   UNL     1       0.034   2.264   8.863  1.00  0.00    -0.350 N 
ATOM      5  H   UNL     1       0.430   3.130   8.430  1.00  0.00     0.345 HD
ATOM      6  H   UNL     1      -0.152   1.579   8.095  1.00  0.00     0.345 HD
ATOM      7  H   UNL     1       0.742   1.851   9.508  1.00  0.00     0.345 HD
ENDBRANCH   3   4
BRANCH   3   8
ATOM      8  C   UNL     1      -1.597   4.033   9.388  1.00  0.00     0.099 C 
ATOM      9  O   UNL     1      -2.647   4.364   8.776  1.00  0.00    -0.544 OA
ATOM     10  O   UNL     1      -0.796   5.019   9.949  1.00  0.00    -0.544 OA
ENDBRANCH   3   8
ENDBRANCH   1   3
BRANCH   1  11
ATOM     11  C   UNL     1      -2.605   0.396  10.123  1.00  0.00     0.006 C 
ATOM     12  C   UNL     1      -3.225  -0.833   9.459  1.00  0.00     0.004 C 
ENDBRANCH   1  11
TORSDOF 4
ENDMDL
MODEL 2
REMARK VINA RESULT:    -3.454     11.118     12.002
REMARK INTER + INTRA:          -4.217
REMARK INTER:                  -4.128
REMARK INTRA:                  -0.089
REMARK UNBOUND:                -0.056
REMARK SMILES CC[C@H](C)[C@@H]([NH3+])C(=O)[O-]
REMARK SMILES IDX 3 1 4 2 5 3 6 4 7 8 8 9 9 10 2 11 1 12
REMARK H PARENT 6 5 6 6 6 7
REMARK Flexibility Score: inf
ROOT
ATOM      1  C   UNL     1       6.356   6.076   0.862  1.00  0.00     0.050 C 
ATOM      2  C   UNL     1       7.888   6.133   0.727  1.00  0.00     0.014 C 
ENDROOT
BRANCH   1   3
ATOM      3  C   UNL     1       5.905   4.623   1.233  1.00  0.00     0.230 C 
BRANCH   3   4
ATOM      4  N   UNL     1       6.758   3.597   0.612  1.00  0.00    -0.350 N 
ATOM      5  H   UNL     1       6.164   2.882   0.133  1.00  0.00     0.345 HD
ATOM      6  H   UNL     1       7.312   3.109   1.353  1.00  0.00     0.345 HD
ATOM      7  H   UNL     1       7.422   4.007  -0.079  1.00  0.00     0.345 HD
ENDBRANCH   3   4
BRANCH   3   8
ATOM      8  C   UNL     1       5.774   4.403   2.721  1.00  0.00     0.099 C 
ATOM      9  O   UNL     1       4.971   5.090   3.408  1.00  0.00    -0.544 OA
ATOM     10  O   UNL     1       6.517   3.405   3.340  1.00  0.00    -0.544 OA
ENDBRANCH   3   8
ENDBRANCH   1   3
BRANCH   1  11
ATOM     11  C   UNL     1       5.718   6.675  -0.422  1.00  0.00     0.006 C 
ATOM     12  C   UNL     1       4.198   6.825  -0.359  1.00  0.00     0.004 C 
ENDBRANCH   1  11
TORSDOF 4
ENDMDL
MODEL 3
REMARK VINA RESULT:    -3.414     15.460     16.211
REMARK INTER + INTRA:          -4.168
REMARK INTER:                  -4.046
REMARK INTRA:                  -0.123
REMARK UNBOUND:                -0.056
REMARK SMILES CC[C@H](C)[C@@H]([NH3+])C(=O)[O-]
REMARK SMILES IDX 3 1 4 2 5 3 6 4 7 8 8 9 9 10 2 11 1 12
REMARK H PARENT 6 5 6 6 6 7
REMARK Flexibility Score: inf
ROOT
ATOM      1  C   UNL     1       6.939  -7.347   0.803  1.00  0.00     0.050 C 
ATOM      2  C   UNL     1       6.793  -6.164   1.776  1.00  0.00     0.014 C 
ENDROOT
BRANCH   1   3
ATOM      3  C   UNL     1       6.190  -7.034  -0.537  1.00  0.00     0.230 C 
BRANCH   3   4
ATOM      4  N   UNL     1       6.443  -5.665  -1.012  1.00  0.00    -0.350 N 
ATOM      5  H   UNL     1       6.982  -5.691  -1.907  1.00  0.00     0.345 HD
ATOM      6  H   UNL     1       7.020  -5.152  -0.305  1.00  0.00     0.345 HD
ATOM      7  H   UNL     1       5.559  -5.134  -1.162  1.00  0.00     0.345 HD
ENDBRANCH   3   4
BRANCH   3   8
ATOM      8  C   UNL     1       6.461  -8.051  -1.620  1.00  0.00     0.099 C 
ATOM      9  O   UNL     1       5.514  -8.571  -2.269  1.00  0.00    -0.544 OA
ATOM     10  O   UNL     1       7.770  -8.391  -1.937  1.00  0.00    -0.544 OA
ENDBRANCH   3   8
ENDBRANCH   1   3
BRANCH   1  11
ATOM     11  C   UNL     1       6.506  -8.650   1.531  1.00  0.00     0.006 C 
ATOM     12  C   UNL     1       5.006  -8.745   1.812  1.00  0.00     0.004 C 
ENDBRANCH   1  11
TORSDOF 4
ENDMDL
MODEL 4
REMARK VINA RESULT:    -3.413     11.403     11.963
REMARK INTER + INTRA:          -4.167
REMARK INTER:                  -4.038
REMARK INTRA:                  -0.129
REMARK UNBOUND:                -0.056
REMARK SMILES CC[C@H](C)[C@@H]([NH3+])C(=O)[O-]
REMARK SMILES IDX 3 1 4 2 5 3 6 4 7 8 8 9 9 10 2 11 1 12
REMARK H PARENT 6 5 6 6 6 7
REMARK Flexibility Score: inf
ROOT
ATOM      1  C   UNL     1       4.642   8.027   1.196  1.00  0.00     0.050 C 
ATOM      2  C   UNL     1       5.191   9.202   2.026  1.00  0.00     0.014 C 
ENDROOT
BRANCH   1   3
ATOM      3  C   UNL     1       3.076   8.054   1.202  1.00  0.00     0.230 C 
BRANCH   3   4
ATOM      4  N   UNL     1       2.539   9.186   1.974  1.00  0.00    -0.350 N 
ATOM      5  H   UNL     1       3.322   9.796   2.303  1.00  0.00     0.345 HD
ATOM      6  H   UNL     1       2.037   8.826   2.818  1.00  0.00     0.345 HD
ATOM      7  H   UNL     1       1.873   9.760   1.414  1.00  0.00     0.345 HD
ENDBRANCH   3   4
BRANCH   3   8
ATOM      8  C   UNL     1       2.476   7.999  -0.183  1.00  0.00     0.099 C 
ATOM      9  O   UNL     1       3.172   7.652  -1.175  1.00  0.00    -0.544 OA
ATOM     10  O   UNL     1       1.131   8.295  -0.365  1.00  0.00    -0.544 OA
ENDBRANCH   3   8
ENDBRANCH   1   3
BRANCH   1  11
ATOM     11  C   UNL     1       5.297   6.710   1.700  1.00  0.00     0.006 C 
ATOM     12  C   UNL     1       5.616   5.704   0.594  1.00  0.00     0.004 C 
ENDBRANCH   1  11
TORSDOF 4
ENDMDL
MODEL 5
REMARK VINA RESULT:    -3.398     10.709     11.342
REMARK INTER + INTRA:          -4.149
REMARK INTER:                  -4.021
REMARK INTRA:                  -0.128
REMARK UNBOUND:                -0.056
REMARK SMILES CC[C@H](C)[C@@H]([NH3+])C(=O)[O-]
REMARK SMILES IDX 3 1 4 2 5 3 6 4 7 8 8 9 9 10 2 11 1 12
REMARK H PARENT 6 5 6 6 6 7
REMARK Flexibility Score: inf
ROOT
ATOM      1  C   UNL     1       7.640   4.290   3.183  1.00  0.00     0.050 C 
ATOM      2  C   UNL     1       7.807   5.489   4.134  1.00  0.00     0.014 C 
ENDROOT
BRANCH   1   3
ATOM      3  C   UNL     1       6.152   4.191   2.703  1.00  0.00     0.230 C 
BRANCH   3   4
ATOM      4  N   UNL     1       5.245   5.009   3.523  1.00  0.00    -0.350 N 
ATOM      5  H   UNL     1       4.604   4.390   4.071  1.00  0.00     0.345 HD
ATOM      6  H   UNL     1       4.655   5.608   2.899  1.00  0.00     0.345 HD
ATOM      7  H   UNL     1       5.764   5.629   4.180  1.00  0.00     0.345 HD
ENDBRANCH   3   4
BRANCH   3   8
ATOM      8  C   UNL     1       5.982   4.486   1.232  1.00  0.00     0.099 C 
ATOM      9  O   UNL     1       4.856   4.799   0.762  1.00  0.00    -0.544 OA
ATOM     10  O   UNL     1       7.086   4.452   0.389  1.00  0.00    -0.544 OA
ENDBRANCH   3   8
ENDBRANCH   1   3
BRANCH   1  11
ATOM     11  C   UNL     1       8.214   3.022   3.874  1.00  0.00     0.006 C 
ATOM     12  C   UNL     1       7.401   1.750   3.630  1.00  0.00     0.004 C 
ENDBRANCH   1  11
TORSDOF 4
ENDMDL
MODEL 6
REMARK VINA RESULT:    -3.366     11.440     12.106
REMARK INTER + INTRA:          -4.110
REMARK INTER:                  -4.035
REMARK INTRA:                  -0.075
REMARK UNBOUND:                -0.056
REMARK SMILES CC[C@H](C)[C@@H]([NH3+])C(=O)[O-]
REMARK SMILES IDX 3 1 4 2 5 3 6 4 7 8 8 9 9 10 2 11 1 12
REMARK H PARENT 6 5 6 6 6 7
REMARK Flexibility Score: inf
ROOT
ATOM      1  C   UNL     1       7.825   3.331   1.390  1.00  0.00     0.050 C 
ATOM      2  C   UNL     1       8.535   3.084   2.734  1.00  0.00     0.014 C 
ENDROOT
BRANCH   1   3
ATOM      3  C   UNL     1       6.322   3.698   1.639  1.00  0.00     0.230 C 
BRANCH   3   4
ATOM      4  N   UNL     1       5.975   3.690   3.069  1.00  0.00    -0.350 N 
ATOM      5  H   UNL     1       6.820   3.460   3.640  1.00  0.00     0.345 HD
ATOM      6  H   UNL     1       5.256   2.951   3.249  1.00  0.00     0.345 HD
ATOM      7  H   UNL     1       5.590   4.606   3.382  1.00  0.00     0.345 HD
ENDBRANCH   3   4
BRANCH   3   8
ATOM      8  C   UNL     1       5.909   4.991   0.979  1.00  0.00     0.099 C 
ATOM      9  O   UNL     1       4.852   5.583   1.323  1.00  0.00    -0.544 OA
ATOM     10  O   UNL     1       6.722   5.560   0.006  1.00  0.00    -0.544 OA
ENDBRANCH   3   8
ENDBRANCH   1   3
BRANCH   1  11
ATOM     11  C   UNL     1       8.080   2.113   0.459  1.00  0.00     0.006 C 
ATOM     12  C   UNL     1       8.504   0.840   1.191  1.00  0.00     0.004 C 
ENDBRANCH   1  11
TORSDOF 4
ENDMDL
MODEL 7
REMARK VINA RESULT:    -3.365     11.024     11.713
REMARK INTER + INTRA:          -4.110
REMARK INTER:                  -4.050
REMARK INTRA:                  -0.059
REMARK UNBOUND:                -0.056
REMARK SMILES CC[C@H](C)[C@@H]([NH3+])C(=O)[O-]
REMARK SMILES IDX 3 1 4 2 5 3 6 4 7 8 8 9 9 10 2 11 1 12
REMARK H PARENT 6 5 6 6 6 7
REMARK Flexibility Score: inf
ROOT
ATOM      1  C   UNL     1       5.126   7.362   2.410  1.00  0.00     0.050 C 
ATOM      2  C   UNL     1       6.236   8.427   2.380  1.00  0.00     0.014 C 
ENDROOT
BRANCH   1   3
ATOM      3  C   UNL     1       5.759   5.930   2.461  1.00  0.00     0.230 C 
BRANCH   3   4
ATOM      4  N   UNL     1       5.138   5.081   3.491  1.00  0.00    -0.350 N 
ATOM      5  H   UNL     1       4.518   5.659   4.103  1.00  0.00     0.345 HD
ATOM      6  H   UNL     1       5.884   4.662   4.093  1.00  0.00     0.345 HD
ATOM      7  H   UNL     1       4.579   4.307   3.073  1.00  0.00     0.345 HD
ENDBRANCH   3   4
BRANCH   3   8
ATOM      8  C   UNL     1       5.780   5.241   1.118  1.00  0.00     0.099 C 
ATOM      9  O   UNL     1       4.930   4.355   0.833  1.00  0.00    -0.544 OA
ATOM     10  O   UNL     1       6.721   5.612   0.166  1.00  0.00    -0.544 OA
ENDBRANCH   3   8
ENDBRANCH   1   3
BRANCH   1  11
ATOM     11  C   UNL     1       4.147   7.626   1.232  1.00  0.00     0.006 C 
ATOM     12  C   UNL     1       3.213   8.818   1.445  1.00  0.00     0.004 C 
ENDBRANCH   1  11
TORSDOF 4
ENDMDL
MODEL 8
REMARK VINA RESULT:    -3.339     11.351     12.295
REMARK INTER + INTRA:          -4.078
REMARK INTER:                  -3.952
REMARK INTRA:                  -0.125
REMARK UNBOUND:                -0.056
REMARK SMILES CC[C@H](C)[C@@H]([NH3+])C(=O)[O-]
REMARK SMILES IDX 3 1 4 2 5 3 6 4 7 8 8 9 9 10 2 11 1 12
REMARK H PARENT 6 5 6 6 6 7
REMARK Flexibility Score: inf
ROOT
ATOM      1  C   UNL     1       2.374   9.808  -0.147  1.00  0.00     0.050 C 
ATOM      2  C   UNL     1       2.769   9.863  -1.633  1.00  0.00     0.014 C 
ENDROOT
BRANCH   1   3
ATOM      3  C   UNL     1       2.430   8.329   0.367  1.00  0.00     0.230 C 
BRANCH   3   4
ATOM      4  N   UNL     1       2.619   7.364  -0.728  1.00  0.00    -0.350 N 
ATOM      5  H   UNL     1       1.839   6.667  -0.729  1.00  0.00     0.345 HD
ATOM      6  H   UNL     1       3.514   6.842  -0.582  1.00  0.00     0.345 HD
ATOM      7  H   UNL     1       2.660   7.832  -1.658  1.00  0.00     0.345 HD
ENDBRANCH   3   4
BRANCH   3   8
ATOM      8  C   UNL     1       3.443   8.119   1.467  1.00  0.00     0.099 C 
ATOM      9  O   UNL     1       3.962   6.988   1.660  1.00  0.00    -0.544 OA
ATOM     10  O   UNL     1       3.840   9.194   2.253  1.00  0.00    -0.544 OA
ENDBRANCH   3   8
ENDBRANCH   1   3
BRANCH   1  11
ATOM     11  C   UNL     1       1.014  10.537   0.037  1.00  0.00     0.006 C 
ATOM     12  C   UNL     1       0.690  10.910   1.484  1.00  0.00     0.004 C 
ENDBRANCH   1  11
TORSDOF 4
ENDMDL
MODEL 9
REMARK VINA RESULT:    -3.307     10.973     11.950
REMARK INTER + INTRA:          -4.039
REMARK INTER:                  -3.915
REMARK INTRA:                  -0.123
REMARK UNBOUND:                -0.056
REMARK SMILES CC[C@H](C)[C@@H]([NH3+])C(=O)[O-]
REMARK SMILES IDX 3 1 4 2 5 3 6 4 7 8 8 9 9 10 2 11 1 12
REMARK H PARENT 6 5 6 6 6 7
REMARK Flexibility Score: inf
ROOT
ATOM      1  C   UNL     1       6.233   5.817   0.538  1.00  0.00     0.050 C 
ATOM      2  C   UNL     1       4.928   6.536   0.150  1.00  0.00     0.014 C 
ENDROOT
BRANCH   1   3
ATOM      3  C   UNL     1       5.906   4.439   1.206  1.00  0.00     0.230 C 
BRANCH   3   4
ATOM      4  N   UNL     1       6.763   3.355   0.700  1.00  0.00    -0.350 N 
ATOM      5  H   UNL     1       7.703   3.402   1.156  1.00  0.00     0.345 HD
ATOM      6  H   UNL     1       6.900   3.471  -0.330  1.00  0.00     0.345 HD
ATOM      7  H   UNL     1       6.348   2.415   0.873  1.00  0.00     0.345 HD
ENDBRANCH   3   4
BRANCH   3   8
ATOM      8  C   UNL     1       5.918   4.492   2.715  1.00  0.00     0.099 C 
ATOM      9  O   UNL     1       4.967   5.020   3.351  1.00  0.00    -0.544 OA
ATOM     10  O   UNL     1       6.970   3.917   3.417  1.00  0.00    -0.544 OA
ENDBRANCH   3   8
ENDBRANCH   1   3
BRANCH   1  11
ATOM     11  C   UNL     1       7.107   6.787   1.381  1.00  0.00     0.006 C 
ATOM     12  C   UNL     1       6.520   8.191   1.534  1.00  0.00     0.004 C 
ENDBRANCH   1  11
TORSDOF 4
ENDMDL
