MODEL 1
REMARK VINA RESULT:    -6.221      0.000      0.000
REMARK INTER + INTRA:          -7.757
REMARK INTER:                  -7.494
REMARK INTRA:                  -0.263
REMARK UNBOUND:                -0.263
REMARK SMILES O=c1c(O)c(-c2ccc(O)c(O)c2)oc2cc(O)cc(O)c12
REMARK SMILES IDX 5 1 3 2 2 3 1 4 22 5 20 6 19 7 17 8 16 9 15 10 14 11 6 12
REMARK SMILES IDX 7 13 8 14 9 15 13 16 11 17 10 18 12 20 4 22 21 24 18 26
REMARK H PARENT 10 19 12 21 4 23 21 25 18 27
REMARK Flexibility Score: inf
ROOT
ATOM      1  C   UNL     1     -12.402  -0.402   0.309  1.00  0.00     0.180 A 
ATOM      2  C   UNL     1     -12.848  -1.330  -0.647  1.00  0.00     0.208 A 
ATOM      3  C   UNL     1     -12.064  -2.465  -0.913  1.00  0.00     0.238 A 
ATOM      4  O   UNL     1     -12.441  -3.263  -1.810  1.00  0.00    -0.285 OA
ATOM      5  C   UNL     1     -10.853  -2.665  -0.208  1.00  0.00     0.111 A 
ATOM      6  C   UNL     1     -10.001  -3.798  -0.368  1.00  0.00     0.134 A 
ATOM      7  C   UNL     1      -8.762  -3.828   0.287  1.00  0.00     0.093 A 
ATOM      8  C   UNL     1      -8.375  -2.799   1.144  1.00  0.00     0.123 A 
ATOM      9  C   UNL     1      -9.228  -1.715   1.354  1.00  0.00     0.094 A 
ATOM     10  C   UNL     1     -10.454  -1.639   0.687  1.00  0.00     0.146 A 
ATOM     11  O   UNL     1     -11.230  -0.585   0.906  1.00  0.00    -0.452 OA
ENDROOT
BRANCH   1  12
ATOM     12  C   UNL     1     -13.185   0.804   0.661  1.00  0.00     0.025 A 
ATOM     13  C   UNL     1     -13.238   1.918  -0.197  1.00  0.00     0.016 A 
ATOM     14  C   UNL     1     -14.004   3.036   0.146  1.00  0.00     0.051 A 
ATOM     15  C   UNL     1     -14.736   3.054   1.340  1.00  0.00     0.157 A 
ATOM     16  C   UNL     1     -13.937   0.819   1.847  1.00  0.00     0.062 A 
ATOM     17  C   UNL     1     -14.704   1.938   2.192  1.00  0.00     0.158 A 
BRANCH  15  18
ATOM     18  O   UNL     1     -15.497   4.172   1.678  1.00  0.00    -0.504 OA
ATOM     19  H   UNL     1     -16.249   4.116   2.355  1.00  0.00     0.293 HD
ENDBRANCH  15  18
BRANCH  17  20
ATOM     20  O   UNL     1     -15.427   1.921   3.385  1.00  0.00    -0.504 OA
ATOM     21  H   UNL     1     -16.100   1.194   3.594  1.00  0.00     0.293 HD
ENDBRANCH  17  20
ENDBRANCH   1  12
BRANCH   2  22
ATOM     22  O   UNL     1     -14.036  -1.102  -1.348  1.00  0.00    -0.502 OA
ATOM     23  H   UNL     1     -14.924  -0.960  -0.883  1.00  0.00     0.293 HD
ENDBRANCH   2  22
BRANCH   6  24
ATOM     24  O   UNL     1     -10.332  -4.923  -1.129  1.00  0.00    -0.507 OA
ATOM     25  H   UNL     1      -9.863  -5.200  -1.978  1.00  0.00     0.293 HD
ENDBRANCH   6  24
BRANCH   8  26
ATOM     26  O   UNL     1      -7.143  -2.870   1.790  1.00  0.00    -0.508 OA
ATOM     27  H   UNL     1      -7.065  -3.194   2.747  1.00  0.00     0.293 HD
ENDBRANCH   8  26
TORSDOF 6
ENDMDL
MODEL 2
REMARK VINA RESULT:    -6.183      3.367      5.338
REMARK INTER + INTRA:          -7.711
REMARK INTER:                  -7.390
REMARK INTRA:                  -0.321
REMARK UNBOUND:                -0.263
REMARK SMILES O=c1c(O)c(-c2ccc(O)c(O)c2)oc2cc(O)cc(O)c12
REMARK SMILES IDX 5 1 3 2 2 3 1 4 22 5 20 6 19 7 17 8 16 9 15 10 14 11 6 12
REMARK SMILES IDX 7 13 8 14 9 15 13 16 11 17 10 18 12 20 4 22 21 24 18 26
REMARK H PARENT 10 19 12 21 4 23 21 25 18 27
REMARK Flexibility Score: inf
ROOT
ATOM      1  C   UNL     1     -12.079  -1.929  -2.796  1.00  0.00     0.180 A 
ATOM      2  C   UNL     1     -12.693  -1.779  -1.540  1.00  0.00     0.208 A 
ATOM      3  C   UNL     1     -11.943  -2.033  -0.380  1.00  0.00     0.238 A 
ATOM      4  O   UNL     1     -12.515  -1.949   0.738  1.00  0.00    -0.285 OA
ATOM      5  C   UNL     1     -10.586  -2.419  -0.490  1.00  0.00     0.111 A 
ATOM      6  C   UNL     1      -9.722  -2.663   0.620  1.00  0.00     0.134 A 
ATOM      7  C   UNL     1      -8.434  -3.167   0.394  1.00  0.00     0.093 A 
ATOM      8  C   UNL     1      -7.958  -3.373  -0.901  1.00  0.00     0.123 A 
ATOM      9  C   UNL     1      -8.775  -3.080  -1.994  1.00  0.00     0.094 A 
ATOM     10  C   UNL     1     -10.076  -2.612  -1.800  1.00  0.00     0.146 A 
ATOM     11  O   UNL     1     -10.824  -2.356  -2.866  1.00  0.00    -0.452 OA
ENDROOT
BRANCH   1  12
ATOM     12  C   UNL     1     -12.796  -1.656  -4.061  1.00  0.00     0.025 A 
ATOM     13  C   UNL     1     -13.479  -2.675  -4.751  1.00  0.00     0.016 A 
ATOM     14  C   UNL     1     -14.170  -2.387  -5.931  1.00  0.00     0.051 A 
ATOM     15  C   UNL     1     -14.201  -1.080  -6.433  1.00  0.00     0.157 A 
ATOM     16  C   UNL     1     -12.849  -0.343  -4.557  1.00  0.00     0.062 A 
ATOM     17  C   UNL     1     -13.539  -0.053  -5.740  1.00  0.00     0.158 A 
BRANCH  15  18
ATOM     18  O   UNL     1     -14.890  -0.798  -7.611  1.00  0.00    -0.504 OA
ATOM     19  H   UNL     1     -15.893  -0.658  -7.619  1.00  0.00     0.293 HD
ENDBRANCH  15  18
BRANCH  17  20
ATOM     20  O   UNL     1     -13.557   1.261  -6.209  1.00  0.00    -0.504 OA
ATOM     21  H   UNL     1     -14.148   1.548  -6.979  1.00  0.00     0.293 HD
ENDBRANCH  17  20
ENDBRANCH   1  12
BRANCH   2  22
ATOM     22  O   UNL     1     -14.041  -1.417  -1.455  1.00  0.00    -0.502 OA
ATOM     23  H   UNL     1     -14.459  -1.073  -0.600  1.00  0.00     0.293 HD
ENDBRANCH   2  22
BRANCH   6  24
ATOM     24  O   UNL     1     -10.066  -2.404   1.950  1.00  0.00    -0.507 OA
ATOM     25  H   UNL     1      -9.985  -1.504   2.398  1.00  0.00     0.293 HD
ENDBRANCH   6  24
BRANCH   8  26
ATOM     26  O   UNL     1      -6.667  -3.860  -1.088  1.00  0.00    -0.508 OA
ATOM     27  H   UNL     1      -6.289  -4.598  -0.505  1.00  0.00     0.293 HD
ENDBRANCH   8  26
TORSDOF 6
ENDMDL
MODEL 3
REMARK VINA RESULT:    -6.116      4.161      7.081
REMARK INTER + INTRA:          -7.630
REMARK INTER:                  -7.381
REMARK INTRA:                  -0.249
REMARK UNBOUND:                -0.263
REMARK SMILES O=c1c(O)c(-c2ccc(O)c(O)c2)oc2cc(O)cc(O)c12
REMARK SMILES IDX 5 1 3 2 2 3 1 4 22 5 20 6 19 7 17 8 16 9 15 10 14 11 6 12
REMARK SMILES IDX 7 13 8 14 9 15 13 16 11 17 10 18 12 20 4 22 21 24 18 26
REMARK H PARENT 10 19 12 21 4 23 21 25 18 27
REMARK Flexibility Score: inf
ROOT
ATOM      1  C   UNL     1     -11.502  -1.586  -3.039  1.00  0.00     0.180 A 
ATOM      2  C   UNL     1     -12.804  -1.588  -3.568  1.00  0.00     0.208 A 
ATOM      3  C   UNL     1     -13.204  -0.528  -4.397  1.00  0.00     0.238 A 
ATOM      4  O   UNL     1     -14.388  -0.507  -4.823  1.00  0.00    -0.285 OA
ATOM      5  C   UNL     1     -12.293   0.512  -4.699  1.00  0.00     0.111 A 
ATOM      6  C   UNL     1     -12.578   1.615  -5.560  1.00  0.00     0.134 A 
ATOM      7  C   UNL     1     -11.646   2.653  -5.684  1.00  0.00     0.093 A 
ATOM      8  C   UNL     1     -10.415   2.598  -5.031  1.00  0.00     0.123 A 
ATOM      9  C   UNL     1     -10.102   1.495  -4.235  1.00  0.00     0.094 A 
ATOM     10  C   UNL     1     -11.026   0.462  -4.063  1.00  0.00     0.146 A 
ATOM     11  O   UNL     1     -10.693  -0.564  -3.288  1.00  0.00    -0.452 OA
ENDROOT
BRANCH   1  12
ATOM     12  C   UNL     1     -11.000  -2.681  -2.178  1.00  0.00     0.025 A 
ATOM     13  C   UNL     1     -10.721  -3.956  -2.703  1.00  0.00     0.016 A 
ATOM     14  C   UNL     1     -10.224  -4.967  -1.876  1.00  0.00     0.051 A 
ATOM     15  C   UNL     1      -9.986  -4.717  -0.518  1.00  0.00     0.157 A 
ATOM     16  C   UNL     1     -10.739  -2.430  -0.822  1.00  0.00     0.062 A 
ATOM     17  C   UNL     1     -10.242  -3.441   0.010  1.00  0.00     0.158 A 
BRANCH  15  18
ATOM     18  O   UNL     1      -9.492  -5.728   0.304  1.00  0.00    -0.504 OA
ATOM     19  H   UNL     1      -8.525  -6.028   0.254  1.00  0.00     0.293 HD
ENDBRANCH  15  18
BRANCH  17  20
ATOM     20  O   UNL     1     -10.009  -3.157   1.356  1.00  0.00    -0.504 OA
ATOM     21  H   UNL     1      -9.745  -2.232   1.671  1.00  0.00     0.293 HD
ENDBRANCH  17  20
ENDBRANCH   1  12
BRANCH   2  22
ATOM     22  O   UNL     1     -13.695  -2.614  -3.240  1.00  0.00    -0.502 OA
ATOM     23  H   UNL     1     -14.641  -2.650  -3.600  1.00  0.00     0.293 HD
ENDBRANCH   2  22
BRANCH   6  24
ATOM     24  O   UNL     1     -13.740   1.724  -6.330  1.00  0.00    -0.507 OA
ATOM     25  H   UNL     1     -14.658   1.918  -5.960  1.00  0.00     0.293 HD
ENDBRANCH   6  24
BRANCH   8  26
ATOM     26  O   UNL     1      -9.506   3.641  -5.189  1.00  0.00    -0.508 OA
ATOM     27  H   UNL     1      -8.507   3.488  -5.125  1.00  0.00     0.293 HD
ENDBRANCH   8  26
TORSDOF 6
ENDMDL
MODEL 4
REMARK VINA RESULT:    -5.982      2.904      7.217
REMARK INTER + INTRA:          -7.469
REMARK INTER:                  -7.687
REMARK INTRA:                   0.218
REMARK UNBOUND:                -0.263
REMARK SMILES O=c1c(O)c(-c2ccc(O)c(O)c2)oc2cc(O)cc(O)c12
REMARK SMILES IDX 5 1 3 2 2 3 1 4 22 5 20 6 19 7 17 8 16 9 15 10 14 11 6 12
REMARK SMILES IDX 7 13 8 14 9 15 13 16 11 17 10 18 12 20 4 22 21 24 18 26
REMARK H PARENT 10 19 12 21 4 23 21 25 18 27
REMARK Flexibility Score: inf
ROOT
ATOM      1  C   UNL     1     -11.982  -0.277  -1.505  1.00  0.00     0.180 A 
ATOM      2  C   UNL     1     -12.373   0.668  -0.540  1.00  0.00     0.208 A 
ATOM      3  C   UNL     1     -12.906   1.895  -0.965  1.00  0.00     0.238 A 
ATOM      4  O   UNL     1     -13.202   2.758  -0.098  1.00  0.00    -0.285 OA
ATOM      5  C   UNL     1     -13.057   2.157  -2.348  1.00  0.00     0.111 A 
ATOM      6  C   UNL     1     -13.622   3.350  -2.890  1.00  0.00     0.134 A 
ATOM      7  C   UNL     1     -13.602   3.556  -4.276  1.00  0.00     0.093 A 
ATOM      8  C   UNL     1     -13.098   2.585  -5.141  1.00  0.00     0.123 A 
ATOM      9  C   UNL     1     -12.597   1.389  -4.624  1.00  0.00     0.094 A 
ATOM     10  C   UNL     1     -12.570   1.171  -3.245  1.00  0.00     0.146 A 
ATOM     11  O   UNL     1     -12.076   0.024  -2.795  1.00  0.00    -0.452 OA
ENDROOT
BRANCH   1  12
ATOM     12  C   UNL     1     -11.435  -1.602  -1.134  1.00  0.00     0.025 A 
ATOM     13  C   UNL     1     -11.726  -2.751  -1.891  1.00  0.00     0.016 A 
ATOM     14  C   UNL     1     -11.179  -3.987  -1.536  1.00  0.00     0.051 A 
ATOM     15  C   UNL     1     -10.323  -4.091  -0.431  1.00  0.00     0.157 A 
ATOM     16  C   UNL     1     -10.561  -1.708  -0.041  1.00  0.00     0.062 A 
ATOM     17  C   UNL     1     -10.011  -2.945   0.317  1.00  0.00     0.158 A 
BRANCH  15  18
ATOM     18  O   UNL     1      -9.780  -5.326  -0.079  1.00  0.00    -0.504 OA
ATOM     19  H   UNL     1      -9.177  -5.429   0.728  1.00  0.00     0.293 HD
ENDBRANCH  15  18
BRANCH  17  20
ATOM     20  O   UNL     1      -9.158  -3.013   1.419  1.00  0.00    -0.504 OA
ATOM     21  H   UNL     1      -9.144  -3.814   2.038  1.00  0.00     0.293 HD
ENDBRANCH  17  20
ENDBRANCH   1  12
BRANCH   2  22
ATOM     22  O   UNL     1     -12.195   0.399   0.820  1.00  0.00    -0.502 OA
ATOM     23  H   UNL     1     -12.952   0.091   1.418  1.00  0.00     0.293 HD
ENDBRANCH   2  22
BRANCH   6  24
ATOM     24  O   UNL     1     -14.236   4.343  -2.121  1.00  0.00    -0.507 OA
ATOM     25  H   UNL     1     -15.084   4.216  -1.590  1.00  0.00     0.293 HD
ENDBRANCH   6  24
BRANCH   8  26
ATOM     26  O   UNL     1     -13.108   2.817  -6.514  1.00  0.00    -0.508 OA
ATOM     27  H   UNL     1     -13.108   2.054  -7.181  1.00  0.00     0.293 HD
ENDBRANCH   8  26
TORSDOF 6
ENDMDL
MODEL 5
REMARK VINA RESULT:    -5.935      2.437      3.548
REMARK INTER + INTRA:          -7.412
REMARK INTER:                  -7.390
REMARK INTRA:                  -0.022
REMARK UNBOUND:                -0.263
REMARK SMILES O=c1c(O)c(-c2ccc(O)c(O)c2)oc2cc(O)cc(O)c12
REMARK SMILES IDX 5 1 3 2 2 3 1 4 22 5 20 6 19 7 17 8 16 9 15 10 14 11 6 12
REMARK SMILES IDX 7 13 8 14 9 15 13 16 11 17 10 18 12 20 4 22 21 24 18 26
REMARK H PARENT 10 19 12 21 4 23 21 25 18 27
REMARK Flexibility Score: inf
ROOT
ATOM      1  C   UNL     1     -12.669  -2.037  -1.468  1.00  0.00     0.180 A 
ATOM      2  C   UNL     1     -13.276  -2.060  -2.736  1.00  0.00     0.208 A 
ATOM      3  C   UNL     1     -12.828  -2.990  -3.689  1.00  0.00     0.238 A 
ATOM      4  O   UNL     1     -13.338  -2.969  -4.839  1.00  0.00    -0.285 OA
ATOM      5  C   UNL     1     -11.790  -3.893  -3.358  1.00  0.00     0.111 A 
ATOM      6  C   UNL     1     -11.285  -4.902  -4.231  1.00  0.00     0.134 A 
ATOM      7  C   UNL     1     -10.168  -5.654  -3.845  1.00  0.00     0.093 A 
ATOM      8  C   UNL     1      -9.579  -5.479  -2.593  1.00  0.00     0.123 A 
ATOM      9  C   UNL     1     -10.104  -4.536  -1.707  1.00  0.00     0.094 A 
ATOM     10  C   UNL     1     -11.194  -3.746  -2.078  1.00  0.00     0.146 A 
ATOM     11  O   UNL     1     -11.654  -2.853  -1.211  1.00  0.00    -0.452 OA
ENDROOT
BRANCH   1  12
ATOM     12  C   UNL     1     -13.103  -1.104  -0.404  1.00  0.00     0.025 A 
ATOM     13  C   UNL     1     -13.449  -1.567   0.878  1.00  0.00     0.016 A 
ATOM     14  C   UNL     1     -13.833  -0.665   1.874  1.00  0.00     0.051 A 
ATOM     15  C   UNL     1     -13.863   0.711   1.611  1.00  0.00     0.157 A 
ATOM     16  C   UNL     1     -13.115   0.277  -0.657  1.00  0.00     0.062 A 
ATOM     17  C   UNL     1     -13.499   1.183   0.339  1.00  0.00     0.158 A 
BRANCH  15  18
ATOM     18  O   UNL     1     -14.248   1.607   2.606  1.00  0.00    -0.504 OA
ATOM     19  H   UNL     1     -15.016   2.254   2.469  1.00  0.00     0.293 HD
ENDBRANCH  15  18
BRANCH  17  20
ATOM     20  O   UNL     1     -13.512   2.547   0.045  1.00  0.00    -0.504 OA
ATOM     21  H   UNL     1     -13.494   3.252   0.771  1.00  0.00     0.293 HD
ENDBRANCH  17  20
ENDBRANCH   1  12
BRANCH   2  22
ATOM     22  O   UNL     1     -14.285  -1.145  -3.050  1.00  0.00    -0.502 OA
ATOM     23  H   UNL     1     -14.631  -1.019  -3.993  1.00  0.00     0.293 HD
ENDBRANCH   2  22
BRANCH   6  24
ATOM     24  O   UNL     1     -11.855  -5.222  -5.468  1.00  0.00    -0.507 OA
ATOM     25  H   UNL     1     -12.835  -5.413  -5.615  1.00  0.00     0.293 HD
ENDBRANCH   6  24
BRANCH   8  26
ATOM     26  O   UNL     1      -8.480  -6.256  -2.236  1.00  0.00    -0.508 OA
ATOM     27  H   UNL     1      -7.975  -6.095  -1.372  1.00  0.00     0.293 HD
ENDBRANCH   8  26
TORSDOF 6
ENDMDL
MODEL 6
REMARK VINA RESULT:    -5.925      1.981      6.933
REMARK INTER + INTRA:          -7.400
REMARK INTER:                  -7.145
REMARK INTRA:                  -0.255
REMARK UNBOUND:                -0.263
REMARK SMILES O=c1c(O)c(-c2ccc(O)c(O)c2)oc2cc(O)cc(O)c12
REMARK SMILES IDX 5 1 3 2 2 3 1 4 22 5 20 6 19 7 17 8 16 9 15 10 14 11 6 12
REMARK SMILES IDX 7 13 8 14 9 15 13 16 11 17 10 18 12 20 4 22 21 24 18 26
REMARK H PARENT 10 19 12 21 4 23 21 25 18 27
REMARK Flexibility Score: inf
ROOT
ATOM      1  C   UNL     1     -12.222  -0.834  -0.569  1.00  0.00     0.180 A 
ATOM      2  C   UNL     1     -13.055  -0.606   0.540  1.00  0.00     0.208 A 
ATOM      3  C   UNL     1     -13.516   0.696   0.790  1.00  0.00     0.238 A 
ATOM      4  O   UNL     1     -14.217   0.903   1.815  1.00  0.00    -0.285 OA
ATOM      5  C   UNL     1     -13.152   1.752  -0.080  1.00  0.00     0.111 A 
ATOM      6  C   UNL     1     -13.594   3.102   0.055  1.00  0.00     0.134 A 
ATOM      7  C   UNL     1     -13.065   4.089  -0.787  1.00  0.00     0.093 A 
ATOM      8  C   UNL     1     -12.163   3.764  -1.800  1.00  0.00     0.123 A 
ATOM      9  C   UNL     1     -11.771   2.437  -1.978  1.00  0.00     0.094 A 
ATOM     10  C   UNL     1     -12.252   1.436  -1.131  1.00  0.00     0.146 A 
ATOM     11  O   UNL     1     -11.845   0.188  -1.328  1.00  0.00    -0.452 OA
ENDROOT
BRANCH   1  12
ATOM     12  C   UNL     1     -11.717  -2.182  -0.911  1.00  0.00     0.025 A 
ATOM     13  C   UNL     1     -12.224  -2.896  -2.013  1.00  0.00     0.016 A 
ATOM     14  C   UNL     1     -11.714  -4.157  -2.331  1.00  0.00     0.051 A 
ATOM     15  C   UNL     1     -10.683  -4.719  -1.566  1.00  0.00     0.157 A 
ATOM     16  C   UNL     1     -10.670  -2.740  -0.160  1.00  0.00     0.062 A 
ATOM     17  C   UNL     1     -10.158  -4.004  -0.477  1.00  0.00     0.158 A 
BRANCH  15  18
ATOM     18  O   UNL     1     -10.179  -5.978  -1.886  1.00  0.00    -0.504 OA
ATOM     19  H   UNL     1     -10.766  -6.697  -2.291  1.00  0.00     0.293 HD
ENDBRANCH  15  18
BRANCH  17  20
ATOM     20  O   UNL     1      -9.127  -4.531   0.302  1.00  0.00    -0.504 OA
ATOM     21  H   UNL     1      -9.203  -4.613   1.308  1.00  0.00     0.293 HD
ENDBRANCH  17  20
ENDBRANCH   1  12
BRANCH   2  22
ATOM     22  O   UNL     1     -13.386  -1.658   1.399  1.00  0.00    -0.502 OA
ATOM     23  H   UNL     1     -13.759  -1.506   2.328  1.00  0.00     0.293 HD
ENDBRANCH   2  22
BRANCH   6  24
ATOM     24  O   UNL     1     -14.562   3.519   0.974  1.00  0.00    -0.507 OA
ATOM     25  H   UNL     1     -14.374   3.760   1.935  1.00  0.00     0.293 HD
ENDBRANCH   6  24
BRANCH   8  26
ATOM     26  O   UNL     1     -11.670   4.769  -2.629  1.00  0.00    -0.508 OA
ATOM     27  H   UNL     1     -12.221   5.142  -3.393  1.00  0.00     0.293 HD
ENDBRANCH   8  26
TORSDOF 6
ENDMDL
MODEL 7
REMARK VINA RESULT:    -5.897      2.407      7.073
REMARK INTER + INTRA:          -7.366
REMARK INTER:                  -7.233
REMARK INTRA:                  -0.133
REMARK UNBOUND:                -0.263
REMARK SMILES O=c1c(O)c(-c2ccc(O)c(O)c2)oc2cc(O)cc(O)c12
REMARK SMILES IDX 5 1 3 2 2 3 1 4 22 5 20 6 19 7 17 8 16 9 15 10 14 11 6 12
REMARK SMILES IDX 7 13 8 14 9 15 13 16 11 17 10 18 12 20 4 22 21 24 18 26
REMARK H PARENT 10 19 12 21 4 23 21 25 18 27
REMARK Flexibility Score: inf
ROOT
ATOM      1  C   UNL     1     -12.572  -0.581  -1.712  1.00  0.00     0.180 A 
ATOM      2  C   UNL     1     -12.655   0.515  -2.588  1.00  0.00     0.208 A 
ATOM      3  C   UNL     1     -13.135   1.742  -2.101  1.00  0.00     0.238 A 
ATOM      4  O   UNL     1     -13.258   2.704  -2.903  1.00  0.00    -0.285 OA
ATOM      5  C   UNL     1     -13.510   1.862  -0.741  1.00  0.00     0.111 A 
ATOM      6  C   UNL     1     -13.971   3.067  -0.132  1.00  0.00     0.134 A 
ATOM      7  C   UNL     1     -14.439   3.037   1.189  1.00  0.00     0.093 A 
ATOM      8  C   UNL     1     -14.401   1.863   1.940  1.00  0.00     0.123 A 
ATOM      9  C   UNL     1     -13.895   0.693   1.372  1.00  0.00     0.094 A 
ATOM     10  C   UNL     1     -13.456   0.683   0.046  1.00  0.00     0.146 A 
ATOM     11  O   UNL     1     -12.993  -0.454  -0.460  1.00  0.00    -0.452 OA
ENDROOT
BRANCH   1  12
ATOM     12  C   UNL     1     -12.054  -1.898  -2.146  1.00  0.00     0.025 A 
ATOM     13  C   UNL     1     -10.905  -2.461  -1.561  1.00  0.00     0.016 A 
ATOM     14  C   UNL     1     -10.449  -3.717  -1.969  1.00  0.00     0.051 A 
ATOM     15  C   UNL     1     -11.138  -4.435  -2.955  1.00  0.00     0.157 A 
ATOM     16  C   UNL     1     -12.753  -2.631  -3.118  1.00  0.00     0.062 A 
ATOM     17  C   UNL     1     -12.297  -3.889  -3.530  1.00  0.00     0.158 A 
BRANCH  15  18
ATOM     18  O   UNL     1     -10.679  -5.686  -3.361  1.00  0.00    -0.504 OA
ATOM     19  H   UNL     1     -11.235  -6.523  -3.231  1.00  0.00     0.293 HD
ENDBRANCH  15  18
BRANCH  17  20
ATOM     20  O   UNL     1     -13.011  -4.580  -4.509  1.00  0.00    -0.504 OA
ATOM     21  H   UNL     1     -13.984  -4.833  -4.386  1.00  0.00     0.293 HD
ENDBRANCH  17  20
ENDBRANCH   1  12
BRANCH   2  22
ATOM     22  O   UNL     1     -12.300   0.370  -3.932  1.00  0.00    -0.502 OA
ATOM     23  H   UNL     1     -11.353   0.508  -4.263  1.00  0.00     0.293 HD
ENDBRANCH   2  22
BRANCH   6  24
ATOM     24  O   UNL     1     -13.966   4.314  -0.764  1.00  0.00    -0.507 OA
ATOM     25  H   UNL     1     -14.722   4.980  -0.725  1.00  0.00     0.293 HD
ENDBRANCH   6  24
BRANCH   8  26
ATOM     26  O   UNL     1     -14.859   1.874   3.255  1.00  0.00    -0.508 OA
ATOM     27  H   UNL     1     -15.836   1.723   3.477  1.00  0.00     0.293 HD
ENDBRANCH   8  26
TORSDOF 6
ENDMDL
MODEL 8
REMARK VINA RESULT:    -5.891      2.941      4.679
REMARK INTER + INTRA:          -7.359
REMARK INTER:                  -7.242
REMARK INTRA:                  -0.117
REMARK UNBOUND:                -0.263
REMARK SMILES O=c1c(O)c(-c2ccc(O)c(O)c2)oc2cc(O)cc(O)c12
REMARK SMILES IDX 5 1 3 2 2 3 1 4 22 5 20 6 19 7 17 8 16 9 15 10 14 11 6 12
REMARK SMILES IDX 7 13 8 14 9 15 13 16 11 17 10 18 12 20 4 22 21 24 18 26
REMARK H PARENT 10 19 12 21 4 23 21 25 18 27
REMARK Flexibility Score: inf
ROOT
ATOM      1  C   UNL     1     -13.311   0.794  -1.468  1.00  0.00     0.180 A 
ATOM      2  C   UNL     1     -12.998  -0.428  -0.847  1.00  0.00     0.208 A 
ATOM      3  C   UNL     1     -12.952  -1.596  -1.625  1.00  0.00     0.238 A 
ATOM      4  O   UNL     1     -12.725  -2.694  -1.053  1.00  0.00    -0.285 OA
ATOM      5  C   UNL     1     -13.204  -1.526  -3.016  1.00  0.00     0.111 A 
ATOM      6  C   UNL     1     -13.145  -2.639  -3.907  1.00  0.00     0.134 A 
ATOM      7  C   UNL     1     -13.540  -2.478  -5.241  1.00  0.00     0.093 A 
ATOM      8  C   UNL     1     -13.929  -1.232  -5.731  1.00  0.00     0.123 A 
ATOM      9  C   UNL     1     -13.932  -0.124  -4.883  1.00  0.00     0.094 A 
ATOM     10  C   UNL     1     -13.578  -0.261  -3.538  1.00  0.00     0.146 A 
ATOM     11  O   UNL     1     -13.606   0.816  -2.763  1.00  0.00    -0.452 OA
ENDROOT
BRANCH   1  12
ATOM     12  C   UNL     1     -13.354   2.070  -0.720  1.00  0.00     0.025 A 
ATOM     13  C   UNL     1     -12.512   3.145  -1.058  1.00  0.00     0.016 A 
ATOM     14  C   UNL     1     -12.588   4.349  -0.352  1.00  0.00     0.051 A 
ATOM     15  C   UNL     1     -13.512   4.503   0.689  1.00  0.00     0.157 A 
ATOM     16  C   UNL     1     -14.293   2.237   0.311  1.00  0.00     0.062 A 
ATOM     17  C   UNL     1     -14.370   3.442   1.019  1.00  0.00     0.158 A 
BRANCH  15  18
ATOM     18  O   UNL     1     -13.584   5.705   1.391  1.00  0.00    -0.504 OA
ATOM     19  H   UNL     1     -14.125   6.489   1.046  1.00  0.00     0.293 HD
ENDBRANCH  15  18
BRANCH  17  20
ATOM     20  O   UNL     1     -15.307   3.564   2.046  1.00  0.00    -0.504 OA
ATOM     21  H   UNL     1     -15.110   3.256   2.991  1.00  0.00     0.293 HD
ENDBRANCH  17  20
ENDBRANCH   1  12
BRANCH   2  22
ATOM     22  O   UNL     1     -12.774  -0.478   0.532  1.00  0.00    -0.502 OA
ATOM     23  H   UNL     1     -12.942  -1.313   1.081  1.00  0.00     0.293 HD
ENDBRANCH   2  22
BRANCH   6  24
ATOM     24  O   UNL     1     -12.683  -3.908  -3.542  1.00  0.00    -0.507 OA
ATOM     25  H   UNL     1     -12.246  -4.128  -2.660  1.00  0.00     0.293 HD
ENDBRANCH   6  24
BRANCH   8  26
ATOM     26  O   UNL     1     -14.301  -1.105  -7.068  1.00  0.00    -0.508 OA
ATOM     27  H   UNL     1     -14.839  -0.311  -7.395  1.00  0.00     0.293 HD
ENDBRANCH   8  26
TORSDOF 6
ENDMDL
MODEL 9
REMARK VINA RESULT:    -5.881      1.600      2.221
REMARK INTER + INTRA:          -7.347
REMARK INTER:                  -7.080
REMARK INTRA:                  -0.267
REMARK UNBOUND:                -0.263
REMARK SMILES O=c1c(O)c(-c2ccc(O)c(O)c2)oc2cc(O)cc(O)c12
REMARK SMILES IDX 5 1 3 2 2 3 1 4 22 5 20 6 19 7 17 8 16 9 15 10 14 11 6 12
REMARK SMILES IDX 7 13 8 14 9 15 13 16 11 17 10 18 12 20 4 22 21 24 18 26
REMARK H PARENT 10 19 12 21 4 23 21 25 18 27
REMARK Flexibility Score: inf
ROOT
ATOM      1  C   UNL     1     -12.339  -1.335  -0.795  1.00  0.00     0.180 A 
ATOM      2  C   UNL     1     -12.999  -2.332  -1.535  1.00  0.00     0.208 A 
ATOM      3  C   UNL     1     -12.278  -3.465  -1.947  1.00  0.00     0.238 A 
ATOM      4  O   UNL     1     -12.862  -4.327  -2.655  1.00  0.00    -0.285 OA
ATOM      5  C   UNL     1     -10.912  -3.594  -1.602  1.00  0.00     0.111 A 
ATOM      6  C   UNL     1     -10.096  -4.717  -1.933  1.00  0.00     0.134 A 
ATOM      7  C   UNL     1      -8.723  -4.680  -1.654  1.00  0.00     0.093 A 
ATOM      8  C   UNL     1      -8.151  -3.590  -0.999  1.00  0.00     0.123 A 
ATOM      9  C   UNL     1      -8.952  -2.512  -0.617  1.00  0.00     0.094 A 
ATOM     10  C   UNL     1     -10.317  -2.505  -0.914  1.00  0.00     0.146 A 
ATOM     11  O   UNL     1     -11.040  -1.455  -0.544  1.00  0.00    -0.452 OA
ENDROOT
BRANCH   1  12
ATOM     12  C   UNL     1     -13.037  -0.126  -0.305  1.00  0.00     0.025 A 
ATOM     13  C   UNL     1     -13.380   0.021   1.051  1.00  0.00     0.016 A 
ATOM     14  C   UNL     1     -14.017   1.183   1.496  1.00  0.00     0.051 A 
ATOM     15  C   UNL     1     -14.307   2.219   0.599  1.00  0.00     0.157 A 
ATOM     16  C   UNL     1     -13.310   0.924  -1.196  1.00  0.00     0.062 A 
ATOM     17  C   UNL     1     -13.949   2.089  -0.753  1.00  0.00     0.158 A 
BRANCH  15  18
ATOM     18  O   UNL     1     -14.944   3.376   1.046  1.00  0.00    -0.504 OA
ATOM     19  H   UNL     1     -15.087   3.555   2.033  1.00  0.00     0.293 HD
ENDBRANCH  15  18
BRANCH  17  20
ATOM     20  O   UNL     1     -14.217   3.105  -1.671  1.00  0.00    -0.504 OA
ATOM     21  H   UNL     1     -13.714   3.183  -2.547  1.00  0.00     0.293 HD
ENDBRANCH  17  20
ENDBRANCH   1  12
BRANCH   2  22
ATOM     22  O   UNL     1     -14.343  -2.174  -1.883  1.00  0.00    -0.502 OA
ATOM     23  H   UNL     1     -15.072  -2.030  -1.194  1.00  0.00     0.293 HD
ENDBRANCH   2  22
BRANCH   6  24
ATOM     24  O   UNL     1     -10.584  -5.896  -2.506  1.00  0.00    -0.507 OA
ATOM     25  H   UNL     1     -10.065  -6.758  -2.575  1.00  0.00     0.293 HD
ENDBRANCH   6  24
BRANCH   8  26
ATOM     26  O   UNL     1      -6.786  -3.593  -0.723  1.00  0.00    -0.508 OA
ATOM     27  H   UNL     1      -6.112  -3.959  -1.386  1.00  0.00     0.293 HD
ENDBRANCH   8  26
TORSDOF 6
ENDMDL
