MODEL 1
REMARK VINA RESULT:    -2.641      0.000      0.000
REMARK INTER + INTRA:          -3.210
REMARK INTER:                  -3.104
REMARK INTRA:                  -0.105
REMARK UNBOUND:                -0.105
REMARK SMILES CCCCC(=O)[O-]
REMARK SMILES IDX 4 1 5 2 6 3 7 4 3 5 2 6 1 7
REMARK H PARENT
REMARK Flexibility Score: inf
ROOT
ATOM      1  C   UNL     1      -9.719 -17.751  20.887  1.00  0.00     0.053 C 
ENDROOT
BRANCH   1   2
ATOM      2  C   UNL     1      -9.425 -18.137  22.302  1.00  0.00     0.041 C 
ATOM      3  O   UNL     1      -8.801 -17.346  23.057  1.00  0.00    -0.550 OA
ATOM      4  O   UNL     1      -9.882 -19.350  22.802  1.00  0.00    -0.550 OA
ENDBRANCH   1   2
BRANCH   1   5
ATOM      5  C   UNL     1     -11.123 -18.222  20.485  1.00  0.00     0.006 C 
BRANCH   5   6
ATOM      6  C   UNL     1     -11.119 -19.051  19.192  1.00  0.00    -0.003 C 
ATOM      7  C   UNL     1     -10.129 -20.215  19.239  1.00  0.00     0.004 C 
ENDBRANCH   5   6
ENDBRANCH   1   5
TORSDOF 3
ENDMDL
MODEL 2
REMARK VINA RESULT:    -2.578      2.604      3.331
REMARK INTER + INTRA:          -3.136
REMARK INTER:                  -3.072
REMARK INTRA:                  -0.064
REMARK UNBOUND:                -0.105
REMARK SMILES CCCCC(=O)[O-]
REMARK SMILES IDX 4 1 5 2 6 3 7 4 3 5 2 6 1 7
REMARK H PARENT
REMARK Flexibility Score: inf
ROOT
ATOM      1  C   UNL     1     -10.470 -19.294  22.644  1.00  0.00     0.053 C 
ENDROOT
BRANCH   1   2
ATOM      2  C   UNL     1      -9.598 -18.226  22.063  1.00  0.00     0.041 C 
ATOM      3  O   UNL     1      -9.617 -17.997  20.825  1.00  0.00    -0.550 OA
ATOM      4  O   UNL     1      -8.801 -17.450  22.894  1.00  0.00    -0.550 OA
ENDBRANCH   1   2
BRANCH   1   5
ATOM      5  C   UNL     1      -9.993 -20.680  22.192  1.00  0.00     0.006 C 
BRANCH   5   6
ATOM      6  C   UNL     1      -8.828 -21.208  23.043  1.00  0.00    -0.003 C 
ATOM      7  C   UNL     1      -9.080 -22.617  23.581  1.00  0.00     0.004 C 
ENDBRANCH   5   6
ENDBRANCH   1   5
TORSDOF 3
ENDMDL
MODEL 3
REMARK VINA RESULT:    -2.568     18.793     19.420
REMARK INTER + INTRA:          -3.123
REMARK INTER:                  -3.102
REMARK INTRA:                  -0.021
REMARK UNBOUND:                -0.105
REMARK SMILES CCCCC(=O)[O-]
REMARK SMILES IDX 4 1 5 2 6 3 7 4 3 5 2 6 1 7
REMARK H PARENT
REMARK Flexibility Score: inf
ROOT
ATOM      1  C   UNL     1       8.392 -20.493  14.304  1.00  0.00     0.053 C 
ENDROOT
BRANCH   1   2
ATOM      2  C   UNL     1       7.974 -20.233  12.891  1.00  0.00     0.041 C 
ATOM      3  O   UNL     1       7.284 -21.082  12.268  1.00  0.00    -0.550 OA
ATOM      4  O   UNL     1       8.303 -19.030  12.278  1.00  0.00    -0.550 OA
ENDBRANCH   1   2
BRANCH   1   5
ATOM      5  C   UNL     1       7.533 -21.605  14.919  1.00  0.00     0.006 C 
BRANCH   5   6
ATOM      6  C   UNL     1       7.655 -21.666  16.449  1.00  0.00    -0.003 C 
ATOM      7  C   UNL     1       6.364 -21.265  17.162  1.00  0.00     0.004 C 
ENDBRANCH   5   6
ENDBRANCH   1   5
TORSDOF 3
ENDMDL
MODEL 4
REMARK VINA RESULT:    -2.560     17.903     18.540
REMARK INTER + INTRA:          -3.115
REMARK INTER:                  -3.003
REMARK INTRA:                  -0.112
REMARK UNBOUND:                -0.105
REMARK SMILES CCCCC(=O)[O-]
REMARK SMILES IDX 4 1 5 2 6 3 7 4 3 5 2 6 1 7
REMARK H PARENT
REMARK Flexibility Score: inf
ROOT
ATOM      1  C   UNL     1       7.600 -22.484  14.267  1.00  0.00     0.053 C 
ENDROOT
BRANCH   1   2
ATOM      2  C   UNL     1       6.303 -22.349  13.534  1.00  0.00     0.041 C 
ATOM      3  O   UNL     1       6.264 -21.771  12.417  1.00  0.00    -0.550 OA
ATOM      4  O   UNL     1       5.145 -22.907  14.061  1.00  0.00    -0.550 OA
ENDBRANCH   1   2
BRANCH   1   5
ATOM      5  C   UNL     1       7.759 -21.349  15.287  1.00  0.00     0.006 C 
BRANCH   5   6
ATOM      6  C   UNL     1       7.508 -21.813  16.730  1.00  0.00    -0.003 C 
ATOM      7  C   UNL     1       6.117 -21.436  17.239  1.00  0.00     0.004 C 
ENDBRANCH   5   6
ENDBRANCH   1   5
TORSDOF 3
ENDMDL
MODEL 5
REMARK VINA RESULT:    -2.417      2.548      3.243
REMARK INTER + INTRA:          -2.947
REMARK INTER:                  -2.858
REMARK INTRA:                  -0.089
REMARK UNBOUND:                -0.105
REMARK SMILES CCCCC(=O)[O-]
REMARK SMILES IDX 4 1 5 2 6 3 7 4 3 5 2 6 1 7
REMARK H PARENT
REMARK Flexibility Score: inf
ROOT
ATOM      1  C   UNL     1      -9.825 -18.553  21.959  1.00  0.00     0.053 C 
ENDROOT
BRANCH   1   2
ATOM      2  C   UNL     1     -10.198 -18.492  20.512  1.00  0.00     0.041 C 
ATOM      3  O   UNL     1      -9.917 -19.450  19.745  1.00  0.00    -0.550 OA
ATOM      4  O   UNL     1     -10.900 -17.399  20.019  1.00  0.00    -0.550 OA
ENDBRANCH   1   2
BRANCH   1   5
ATOM      5  C   UNL     1     -10.894 -19.312  22.756  1.00  0.00     0.006 C 
BRANCH   5   6
ATOM      6  C   UNL     1     -10.612 -20.820  22.833  1.00  0.00    -0.003 C 
ATOM      7  C   UNL     1      -9.121 -21.137  22.949  1.00  0.00     0.004 C 
ENDBRANCH   5   6
ENDBRANCH   1   5
TORSDOF 3
ENDMDL
MODEL 6
REMARK VINA RESULT:    -2.384     18.930     19.482
REMARK INTER + INTRA:          -2.907
REMARK INTER:                  -2.868
REMARK INTRA:                  -0.039
REMARK UNBOUND:                -0.105
REMARK SMILES CCCCC(=O)[O-]
REMARK SMILES IDX 4 1 5 2 6 3 7 4 3 5 2 6 1 7
REMARK H PARENT
REMARK Flexibility Score: inf
ROOT
ATOM      1  C   UNL     1       8.615 -21.238  14.485  1.00  0.00     0.053 C 
ENDROOT
BRANCH   1   2
ATOM      2  C   UNL     1       7.341 -21.574  15.196  1.00  0.00     0.041 C 
ATOM      3  O   UNL     1       6.463 -22.272  14.624  1.00  0.00    -0.550 OA
ATOM      4  O   UNL     1       7.145 -21.159  16.506  1.00  0.00    -0.550 OA
ENDBRANCH   1   2
BRANCH   1   5
ATOM      5  C   UNL     1       8.612 -19.767  14.049  1.00  0.00     0.006 C 
BRANCH   5   6
ATOM      6  C   UNL     1       9.015 -19.589  12.577  1.00  0.00    -0.003 C 
ATOM      7  C   UNL     1       7.813 -19.377  11.657  1.00  0.00     0.004 C 
ENDBRANCH   5   6
ENDBRANCH   1   5
TORSDOF 3
ENDMDL
MODEL 7
REMARK VINA RESULT:    -2.359      2.429      3.598
REMARK INTER + INTRA:          -2.878
REMARK INTER:                  -2.808
REMARK INTRA:                  -0.069
REMARK UNBOUND:                -0.105
REMARK SMILES CCCCC(=O)[O-]
REMARK SMILES IDX 4 1 5 2 6 3 7 4 3 5 2 6 1 7
REMARK H PARENT
REMARK Flexibility Score: inf
ROOT
ATOM      1  C   UNL     1     -10.993 -19.040  20.036  1.00  0.00     0.053 C 
ENDROOT
BRANCH   1   2
ATOM      2  C   UNL     1     -10.409 -20.388  19.754  1.00  0.00     0.041 C 
ATOM      3  O   UNL     1      -9.496 -20.516  18.896  1.00  0.00    -0.550 OA
ATOM      4  O   UNL     1     -10.836 -21.496  20.475  1.00  0.00    -0.550 OA
ENDBRANCH   1   2
BRANCH   1   5
ATOM      5  C   UNL     1      -9.966 -18.149  20.745  1.00  0.00     0.006 C 
BRANCH   5   6
ATOM      6  C   UNL     1      -9.859 -18.453  22.247  1.00  0.00    -0.003 C 
ATOM      7  C   UNL     1      -8.861 -17.544  22.965  1.00  0.00     0.004 C 
ENDBRANCH   5   6
ENDBRANCH   1   5
TORSDOF 3
ENDMDL
MODEL 8
REMARK VINA RESULT:    -2.298     19.760     20.381
REMARK INTER + INTRA:          -2.806
REMARK INTER:                  -2.726
REMARK INTRA:                  -0.081
REMARK UNBOUND:                -0.105
REMARK SMILES CCCCC(=O)[O-]
REMARK SMILES IDX 4 1 5 2 6 3 7 4 3 5 2 6 1 7
REMARK H PARENT
REMARK Flexibility Score: inf
ROOT
ATOM      1  C   UNL     1       8.735 -20.762  12.430  1.00  0.00     0.053 C 
ENDROOT
BRANCH   1   2
ATOM      2  C   UNL     1       8.195 -19.917  11.320  1.00  0.00     0.041 C 
ATOM      3  O   UNL     1       7.549 -18.868  11.580  1.00  0.00    -0.550 OA
ATOM      4  O   UNL     1       8.448 -20.259   9.998  1.00  0.00    -0.550 OA
ENDBRANCH   1   2
BRANCH   1   5
ATOM      5  C   UNL     1       8.645 -20.013  13.766  1.00  0.00     0.006 C 
BRANCH   5   6
ATOM      6  C   UNL     1       7.936 -20.834  14.854  1.00  0.00    -0.003 C 
ATOM      7  C   UNL     1       7.135 -22.004  14.285  1.00  0.00     0.004 C 
ENDBRANCH   5   6
ENDBRANCH   1   5
TORSDOF 3
ENDMDL
MODEL 9
REMARK VINA RESULT:    -2.255      3.096      3.990
REMARK INTER + INTRA:          -2.755
REMARK INTER:                  -2.739
REMARK INTRA:                  -0.016
REMARK UNBOUND:                -0.105
REMARK SMILES CCCCC(=O)[O-]
REMARK SMILES IDX 4 1 5 2 6 3 7 4 3 5 2 6 1 7
REMARK H PARENT
REMARK Flexibility Score: inf
ROOT
ATOM      1  C   UNL     1     -11.083 -19.691  17.944  1.00  0.00     0.053 C 
ENDROOT
BRANCH   1   2
ATOM      2  C   UNL     1     -10.377 -19.881  19.249  1.00  0.00     0.041 C 
ATOM      3  O   UNL     1     -10.069 -18.884  19.954  1.00  0.00    -0.550 OA
ATOM      4  O   UNL     1     -10.103 -21.162  19.712  1.00  0.00    -0.550 OA
ENDBRANCH   1   2
BRANCH   1   5
ATOM      5  C   UNL     1     -10.492 -20.620  16.876  1.00  0.00     0.006 C 
BRANCH   5   6
ATOM      6  C   UNL     1     -10.948 -20.251  15.456  1.00  0.00    -0.003 C 
ATOM      7  C   UNL     1      -9.783 -20.126  14.475  1.00  0.00     0.004 C 
ENDBRANCH   5   6
ENDBRANCH   1   5
TORSDOF 3
ENDMDL
