MODEL 1
REMARK VINA RESULT:    -3.438      0.000      0.000
REMARK INTER + INTRA:          -3.959
REMARK INTER:                  -3.941
REMARK INTRA:                  -0.019
REMARK UNBOUND:                -0.019
REMARK SMILES CC(C)[C@H]([NH3+])C(=O)[O-]
REMARK SMILES IDX 4 1 5 2 6 6 7 7 8 8 2 9 1 10 3 11
REMARK H PARENT 5 3 5 4 5 5
REMARK Flexibility Score: inf
ROOT
ATOM      1  C   UNL     1     114.028 119.379 109.948  1.00  0.00     0.230 C 
ENDROOT
BRANCH   1   2
ATOM      2  N   UNL     1     113.709 120.666 110.587  1.00  0.00    -0.350 N 
ATOM      3  H   UNL     1     113.861 121.466 109.934  1.00  0.00     0.345 HD
ATOM      4  H   UNL     1     112.718 120.673 110.920  1.00  0.00     0.345 HD
ATOM      5  H   UNL     1     114.323 120.799 111.424  1.00  0.00     0.345 HD
ENDBRANCH   1   2
BRANCH   1   6
ATOM      6  C   UNL     1     115.093 119.556 108.893  1.00  0.00     0.099 C 
ATOM      7  O   UNL     1     115.937 120.484 109.003  1.00  0.00    -0.544 OA
ATOM      8  O   UNL     1     115.183 118.676 107.821  1.00  0.00    -0.544 OA
ENDBRANCH   1   6
BRANCH   1   9
ATOM      9  C   UNL     1     112.775 118.665 109.357  1.00  0.00     0.047 C 
ATOM     10  C   UNL     1     112.752 117.168 109.704  1.00  0.00     0.014 C 
ATOM     11  C   UNL     1     111.444 119.322 109.759  1.00  0.00     0.014 C 
ENDBRANCH   1   9
TORSDOF 3
ENDMDL
MODEL 2
REMARK VINA RESULT:    -3.402      2.310      2.889
REMARK INTER + INTRA:          -3.917
REMARK INTER:                  -3.853
REMARK INTRA:                  -0.064
REMARK UNBOUND:                -0.019
REMARK SMILES CC(C)[C@H]([NH3+])C(=O)[O-]
REMARK SMILES IDX 4 1 5 2 6 6 7 7 8 8 2 9 1 10 3 11
REMARK H PARENT 5 3 5 4 5 5
REMARK Flexibility Score: inf
ROOT
ATOM      1  C   UNL     1     113.593 119.933 110.033  1.00  0.00     0.230 C 
ENDROOT
BRANCH   1   2
ATOM      2  N   UNL     1     114.886 119.232 109.970  1.00  0.00    -0.350 N 
ATOM      3  H   UNL     1     115.596 119.785 109.440  1.00  0.00     0.345 HD
ATOM      4  H   UNL     1     115.244 119.039 110.932  1.00  0.00     0.345 HD
ATOM      5  H   UNL     1     114.758 118.311 109.490  1.00  0.00     0.345 HD
ENDBRANCH   1   2
BRANCH   1   6
ATOM      6  C   UNL     1     113.602 120.971 111.130  1.00  0.00     0.099 C 
ATOM      7  O   UNL     1     113.920 122.160 110.867  1.00  0.00    -0.544 OA
ATOM      8  O   UNL     1     113.216 120.639 112.424  1.00  0.00    -0.544 OA
ENDBRANCH   1   6
BRANCH   1   9
ATOM      9  C   UNL     1     112.382 118.966 110.195  1.00  0.00     0.047 C 
ATOM     10  C   UNL     1     111.096 119.554 109.594  1.00  0.00     0.014 C 
ATOM     11  C   UNL     1     112.637 117.559 109.627  1.00  0.00     0.014 C 
ENDBRANCH   1   9
TORSDOF 3
ENDMDL
MODEL 3
REMARK VINA RESULT:    -3.399      3.096      3.763
REMARK INTER + INTRA:          -3.914
REMARK INTER:                  -3.860
REMARK INTRA:                  -0.054
REMARK UNBOUND:                -0.019
REMARK SMILES CC(C)[C@H]([NH3+])C(=O)[O-]
REMARK SMILES IDX 4 1 5 2 6 6 7 7 8 8 2 9 1 10 3 11
REMARK H PARENT 5 3 5 4 5 5
REMARK Flexibility Score: inf
ROOT
ATOM      1  C   UNL     1     113.482 117.376 111.084  1.00  0.00     0.230 C 
ENDROOT
BRANCH   1   2
ATOM      2  N   UNL     1     114.654 118.231 111.336  1.00  0.00    -0.350 N 
ATOM      3  H   UNL     1     114.510 118.842 112.170  1.00  0.00     0.345 HD
ATOM      4  H   UNL     1     115.508 117.646 111.476  1.00  0.00     0.345 HD
ATOM      5  H   UNL     1     114.823 118.841 110.503  1.00  0.00     0.345 HD
ENDBRANCH   1   2
BRANCH   1   6
ATOM      6  C   UNL     1     113.853 115.916 111.191  1.00  0.00     0.099 C 
ATOM      7  O   UNL     1     113.188 115.052 110.561  1.00  0.00    -0.544 OA
ATOM      8  O   UNL     1     114.954 115.517 111.940  1.00  0.00    -0.544 OA
ENDBRANCH   1   6
BRANCH   1   9
ATOM      9  C   UNL     1     112.792 117.674 109.719  1.00  0.00     0.047 C 
ATOM     10  C   UNL     1     111.813 118.854 109.819  1.00  0.00     0.014 C 
ATOM     11  C   UNL     1     113.782 117.903 108.565  1.00  0.00     0.014 C 
ENDBRANCH   1   9
TORSDOF 3
ENDMDL
MODEL 4
REMARK VINA RESULT:    -3.398     11.217     11.763
REMARK INTER + INTRA:          -3.914
REMARK INTER:                  -3.860
REMARK INTRA:                  -0.054
REMARK UNBOUND:                -0.019
REMARK SMILES CC(C)[C@H]([NH3+])C(=O)[O-]
REMARK SMILES IDX 4 1 5 2 6 6 7 7 8 8 2 9 1 10 3 11
REMARK H PARENT 5 3 5 4 5 5
REMARK Flexibility Score: inf
ROOT
ATOM      1  C   UNL     1     123.357 125.208 110.119  1.00  0.00     0.230 C 
ENDROOT
BRANCH   1   2
ATOM      2  N   UNL     1     122.270 124.406 109.534  1.00  0.00    -0.350 N 
ATOM      3  H   UNL     1     121.651 124.004 110.273  1.00  0.00     0.345 HD
ATOM      4  H   UNL     1     121.699 124.988 108.881  1.00  0.00     0.345 HD
ATOM      5  H   UNL     1     122.679 123.619 108.980  1.00  0.00     0.345 HD
ENDBRANCH   1   2
BRANCH   1   6
ATOM      6  C   UNL     1     123.761 124.658 111.466  1.00  0.00     0.099 C 
ATOM      7  O   UNL     1     123.118 124.988 112.496  1.00  0.00    -0.544 OA
ATOM      8  O   UNL     1     124.808 123.751 111.577  1.00  0.00    -0.544 OA
ENDBRANCH   1   6
BRANCH   1   9
ATOM      9  C   UNL     1     123.011 126.724 110.220  1.00  0.00     0.047 C 
ATOM     10  C   UNL     1     124.117 127.605 109.621  1.00  0.00     0.014 C 
ATOM     11  C   UNL     1     121.651 127.088 109.601  1.00  0.00     0.014 C 
ENDBRANCH   1   9
TORSDOF 3
ENDMDL
MODEL 5
REMARK VINA RESULT:    -3.397      9.644     10.700
REMARK INTER + INTRA:          -3.912
REMARK INTER:                  -3.894
REMARK INTRA:                  -0.018
REMARK UNBOUND:                -0.019
REMARK SMILES CC(C)[C@H]([NH3+])C(=O)[O-]
REMARK SMILES IDX 4 1 5 2 6 6 7 7 8 8 2 9 1 10 3 11
REMARK H PARENT 5 3 5 4 5 5
REMARK Flexibility Score: inf
ROOT
ATOM      1  C   UNL     1     122.970 115.027 109.861  1.00  0.00     0.230 C 
ENDROOT
BRANCH   1   2
ATOM      2  N   UNL     1     121.983 114.101 110.439  1.00  0.00    -0.350 N 
ATOM      3  H   UNL     1     122.357 113.127 110.492  1.00  0.00     0.345 HD
ATOM      4  H   UNL     1     121.701 114.417 111.394  1.00  0.00     0.345 HD
ATOM      5  H   UNL     1     121.123 114.094 109.843  1.00  0.00     0.345 HD
ENDBRANCH   1   2
BRANCH   1   6
ATOM      6  C   UNL     1     122.336 115.885 108.794  1.00  0.00     0.099 C 
ATOM      7  O   UNL     1     121.106 116.150 108.850  1.00  0.00    -0.544 OA
ATOM      8  O   UNL     1     123.104 116.429 107.771  1.00  0.00    -0.544 OA
ENDBRANCH   1   6
BRANCH   1   9
ATOM      9  C   UNL     1     124.236 114.303 109.311  1.00  0.00     0.047 C 
ATOM     10  C   UNL     1     125.531 115.016 109.731  1.00  0.00     0.014 C 
ATOM     11  C   UNL     1     124.306 112.813 109.686  1.00  0.00     0.014 C 
ENDBRANCH   1   9
TORSDOF 3
ENDMDL
MODEL 6
REMARK VINA RESULT:    -3.396      9.592     10.600
REMARK INTER + INTRA:          -3.911
REMARK INTER:                  -3.876
REMARK INTRA:                  -0.035
REMARK UNBOUND:                -0.019
REMARK SMILES CC(C)[C@H]([NH3+])C(=O)[O-]
REMARK SMILES IDX 4 1 5 2 6 6 7 7 8 8 2 9 1 10 3 11
REMARK H PARENT 5 3 5 4 5 5
REMARK Flexibility Score: inf
ROOT
ATOM      1  C   UNL     1     122.165 124.868 109.729  1.00  0.00     0.230 C 
ENDROOT
BRANCH   1   2
ATOM      2  N   UNL     1     123.413 124.467 110.396  1.00  0.00    -0.350 N 
ATOM      3  H   UNL     1     123.286 124.385 111.430  1.00  0.00     0.345 HD
ATOM      4  H   UNL     1     123.755 123.556 110.015  1.00  0.00     0.345 HD
ATOM      5  H   UNL     1     124.152 125.184 110.210  1.00  0.00     0.345 HD
ENDBRANCH   1   2
BRANCH   1   6
ATOM      6  C   UNL     1     121.831 123.918 108.604  1.00  0.00     0.099 C 
ATOM      7  O   UNL     1     122.223 122.723 108.656  1.00  0.00    -0.544 OA
ATOM      8  O   UNL     1     121.054 124.335 107.529  1.00  0.00    -0.544 OA
ENDBRANCH   1   6
BRANCH   1   9
ATOM      9  C   UNL     1     122.191 126.342 109.220  1.00  0.00     0.047 C 
ATOM     10  C   UNL     1     120.925 127.110 109.626  1.00  0.00     0.014 C 
ATOM     11  C   UNL     1     123.445 127.120 109.653  1.00  0.00     0.014 C 
ENDBRANCH   1   9
TORSDOF 3
ENDMDL
MODEL 7
REMARK VINA RESULT:    -3.385     10.205     11.141
REMARK INTER + INTRA:          -3.898
REMARK INTER:                  -3.838
REMARK INTRA:                  -0.060
REMARK UNBOUND:                -0.019
REMARK SMILES CC(C)[C@H]([NH3+])C(=O)[O-]
REMARK SMILES IDX 4 1 5 2 6 6 7 7 8 8 2 9 1 10 3 11
REMARK H PARENT 5 3 5 4 5 5
REMARK Flexibility Score: inf
ROOT
ATOM      1  C   UNL     1     122.681 114.026 110.007  1.00  0.00     0.230 C 
ENDROOT
BRANCH   1   2
ATOM      2  N   UNL     1     122.515 115.352 109.391  1.00  0.00    -0.350 N 
ATOM      3  H   UNL     1     122.702 116.118 110.076  1.00  0.00     0.345 HD
ATOM      4  H   UNL     1     123.153 115.456 108.571  1.00  0.00     0.345 HD
ATOM      5  H   UNL     1     121.534 115.452 109.042  1.00  0.00     0.345 HD
ENDBRANCH   1   2
BRANCH   1   6
ATOM      6  C   UNL     1     121.910 113.937 111.302  1.00  0.00     0.099 C 
ATOM      7  O   UNL     1     120.657 114.062 111.295  1.00  0.00    -0.544 OA
ATOM      8  O   UNL     1     122.562 113.671 112.500  1.00  0.00    -0.544 OA
ENDBRANCH   1   6
BRANCH   1   9
ATOM      9  C   UNL     1     124.175 113.637 110.224  1.00  0.00     0.047 C 
ATOM     10  C   UNL     1     124.482 112.227 109.697  1.00  0.00     0.014 C 
ATOM     11  C   UNL     1     125.168 114.651 109.632  1.00  0.00     0.014 C 
ENDBRANCH   1   9
TORSDOF 3
ENDMDL
MODEL 8
REMARK VINA RESULT:    -3.328      2.314      2.713
REMARK INTER + INTRA:          -3.832
REMARK INTER:                  -3.777
REMARK INTRA:                  -0.056
REMARK UNBOUND:                -0.019
REMARK SMILES CC(C)[C@H]([NH3+])C(=O)[O-]
REMARK SMILES IDX 4 1 5 2 6 6 7 7 8 8 2 9 1 10 3 11
REMARK H PARENT 5 3 5 4 5 5
REMARK Flexibility Score: inf
ROOT
ATOM      1  C   UNL     1     113.714 119.057 111.032  1.00  0.00     0.230 C 
ENDROOT
BRANCH   1   2
ATOM      2  N   UNL     1     113.406 118.143 112.143  1.00  0.00    -0.350 N 
ATOM      3  H   UNL     1     112.394 118.181 112.401  1.00  0.00     0.345 HD
ATOM      4  H   UNL     1     113.663 117.162 111.891  1.00  0.00     0.345 HD
ATOM      5  H   UNL     1     113.972 118.411 112.981  1.00  0.00     0.345 HD
ENDBRANCH   1   2
BRANCH   1   6
ATOM      6  C   UNL     1     113.588 120.496 111.474  1.00  0.00     0.099 C 
ATOM      7  O   UNL     1     113.146 120.763 112.623  1.00  0.00    -0.544 OA
ATOM      8  O   UNL     1     114.000 121.532 110.644  1.00  0.00    -0.544 OA
ENDBRANCH   1   6
BRANCH   1   9
ATOM      9  C   UNL     1     112.850 118.789 109.764  1.00  0.00     0.047 C 
ATOM     10  C   UNL     1     112.802 117.295 109.409  1.00  0.00     0.014 C 
ATOM     11  C   UNL     1     111.424 119.357 109.859  1.00  0.00     0.014 C 
ENDBRANCH   1   9
TORSDOF 3
ENDMDL
MODEL 9
REMARK VINA RESULT:    -3.324      9.586     10.493
REMARK INTER + INTRA:          -3.829
REMARK INTER:                  -3.772
REMARK INTRA:                  -0.057
REMARK UNBOUND:                -0.019
REMARK SMILES CC(C)[C@H]([NH3+])C(=O)[O-]
REMARK SMILES IDX 4 1 5 2 6 6 7 7 8 8 2 9 1 10 3 11
REMARK H PARENT 5 3 5 4 5 5
REMARK Flexibility Score: inf
ROOT
ATOM      1  C   UNL     1     120.788 126.404 111.022  1.00  0.00     0.230 C 
ENDROOT
BRANCH   1   2
ATOM      2  N   UNL     1     120.939 124.954 111.221  1.00  0.00    -0.350 N 
ATOM      3  H   UNL     1     121.319 124.488 110.367  1.00  0.00     0.345 HD
ATOM      4  H   UNL     1     121.568 124.760 112.032  1.00  0.00     0.345 HD
ATOM      5  H   UNL     1     120.006 124.535 111.439  1.00  0.00     0.345 HD
ENDBRANCH   1   2
BRANCH   1   6
ATOM      6  C   UNL     1     119.340 126.813 111.149  1.00  0.00     0.099 C 
ATOM      7  O   UNL     1     118.569 126.163 111.902  1.00  0.00    -0.544 OA
ATOM      8  O   UNL     1     118.857 127.931 110.479  1.00  0.00    -0.544 OA
ENDBRANCH   1   6
BRANCH   1   9
ATOM      9  C   UNL     1     121.388 126.900 109.672  1.00  0.00     0.047 C 
ATOM     10  C   UNL     1     122.897 127.166 109.779  1.00  0.00     0.014 C 
ATOM     11  C   UNL     1     121.098 125.963 108.487  1.00  0.00     0.014 C 
ENDBRANCH   1   9
TORSDOF 3
ENDMDL
