MODEL 1
REMARK VINA RESULT:    -2.611      0.000      0.000
REMARK INTER + INTRA:          -3.607
REMARK INTER:                  -3.451
REMARK INTRA:                  -0.157
REMARK UNBOUND:                -0.157
REMARK SMILES CCCCCCCO
REMARK SMILES IDX 5 1 4 2 3 3 2 4 1 5 6 6 7 7 8 8
REMARK H PARENT 8 9
REMARK Flexibility Score: inf
ROOT
ATOM      1  C   UNL     1     113.128 106.331 108.713  1.00  0.00     0.002 C 
ENDROOT
BRANCH   1   2
ATOM      2  C   UNL     1     112.549 107.291 107.659  1.00  0.00     0.000 C 
BRANCH   2   3
ATOM      3  C   UNL     1     113.395 107.356 106.379  1.00  0.00    -0.000 C 
BRANCH   3   4
ATOM      4  C   UNL     1     112.817 108.375 105.390  1.00  0.00    -0.003 C 
ATOM      5  C   UNL     1     113.497 108.269 104.028  1.00  0.00     0.004 C 
ENDBRANCH   3   4
ENDBRANCH   2   3
ENDBRANCH   1   2
BRANCH   1   6
ATOM      6  C   UNL     1     114.259 105.417 108.208  1.00  0.00     0.028 C 
BRANCH   6   7
ATOM      7  C   UNL     1     113.844 103.947 108.113  1.00  0.00     0.156 C 
BRANCH   7   8
ATOM      8  O   UNL     1     113.911 103.530 106.777  1.00  0.00    -0.396 OA
ATOM      9  H   UNL     1     113.344 104.162 106.263  1.00  0.00     0.210 HD
ENDBRANCH   7   8
ENDBRANCH   6   7
ENDBRANCH   1   6
TORSDOF 6
ENDMDL
MODEL 2
REMARK VINA RESULT:    -2.595      3.572      6.565
REMARK INTER + INTRA:          -3.586
REMARK INTER:                  -3.404
REMARK INTRA:                  -0.183
REMARK UNBOUND:                -0.157
REMARK SMILES CCCCCCCO
REMARK SMILES IDX 5 1 4 2 3 3 2 4 1 5 6 6 7 7 8 8
REMARK H PARENT 8 9
REMARK Flexibility Score: inf
ROOT
ATOM      1  C   UNL     1     114.677 101.677 108.657  1.00  0.00     0.002 C 
ENDROOT
BRANCH   1   2
ATOM      2  C   UNL     1     116.127 101.715 109.174  1.00  0.00     0.000 C 
BRANCH   2   3
ATOM      3  C   UNL     1     117.166 101.637 108.046  1.00  0.00    -0.000 C 
BRANCH   3   4
ATOM      4  C   UNL     1     118.425 100.894 108.510  1.00  0.00    -0.003 C 
ATOM      5  C   UNL     1     118.239 100.313 109.909  1.00  0.00     0.004 C 
ENDBRANCH   3   4
ENDBRANCH   2   3
ENDBRANCH   1   2
BRANCH   1   6
ATOM      6  C   UNL     1     113.816 102.891 109.049  1.00  0.00     0.028 C 
BRANCH   6   7
ATOM      7  C   UNL     1     113.868 104.022 108.019  1.00  0.00     0.156 C 
BRANCH   7   8
ATOM      8  O   UNL     1     113.912 103.474 106.730  1.00  0.00    -0.396 OA
ATOM      9  H   UNL     1     113.716 104.221 106.107  1.00  0.00     0.210 HD
ENDBRANCH   7   8
ENDBRANCH   6   7
ENDBRANCH   1   6
TORSDOF 6
ENDMDL
MODEL 3
REMARK VINA RESULT:    -2.592      2.436      5.333
REMARK INTER + INTRA:          -3.582
REMARK INTER:                  -3.411
REMARK INTRA:                  -0.170
REMARK UNBOUND:                -0.157
REMARK SMILES CCCCCCCO
REMARK SMILES IDX 5 1 4 2 3 3 2 4 1 5 6 6 7 7 8 8
REMARK H PARENT 8 9
REMARK Flexibility Score: inf
ROOT
ATOM      1  C   UNL     1     113.897 104.013 107.885  1.00  0.00     0.002 C 
ENDROOT
BRANCH   1   2
ATOM      2  C   UNL     1     113.851 102.942 108.990  1.00  0.00     0.000 C 
BRANCH   2   3
ATOM      3  C   UNL     1     114.637 101.674 108.629  1.00  0.00    -0.000 C 
BRANCH   3   4
ATOM      4  C   UNL     1     116.059 101.728 109.201  1.00  0.00    -0.003 C 
ATOM      5  C   UNL     1     117.100 101.787 108.088  1.00  0.00     0.004 C 
ENDBRANCH   3   4
ENDBRANCH   2   3
ENDBRANCH   1   2
BRANCH   1   6
ATOM      6  C   UNL     1     114.126 105.451 108.383  1.00  0.00     0.028 C 
BRANCH   6   7
ATOM      7  C   UNL     1     113.464 106.506 107.494  1.00  0.00     0.156 C 
BRANCH   7   8
ATOM      8  O   UNL     1     114.370 106.921 106.510  1.00  0.00    -0.396 OA
ATOM      9  H   UNL     1     114.665 107.831 106.774  1.00  0.00     0.210 HD
ENDBRANCH   7   8
ENDBRANCH   6   7
ENDBRANCH   1   6
TORSDOF 6
ENDMDL
MODEL 4
REMARK VINA RESULT:    -2.588     10.613     11.566
REMARK INTER + INTRA:          -3.576
REMARK INTER:                  -3.248
REMARK INTRA:                  -0.329
REMARK UNBOUND:                -0.157
REMARK SMILES CCCCCCCO
REMARK SMILES IDX 5 1 4 2 3 3 2 4 1 5 6 6 7 7 8 8
REMARK H PARENT 8 9
REMARK Flexibility Score: inf
ROOT
ATOM      1  C   UNL     1     101.643 105.365 108.768  1.00  0.00     0.002 C 
ENDROOT
BRANCH   1   2
ATOM      2  C   UNL     1     101.704 103.902 109.246  1.00  0.00     0.000 C 
BRANCH   2   3
ATOM      3  C   UNL     1     101.703 102.894 108.087  1.00  0.00    -0.000 C 
BRANCH   3   4
ATOM      4  C   UNL     1     102.901 101.942 108.187  1.00  0.00    -0.003 C 
ATOM      5  C   UNL     1     103.997 102.526 109.073  1.00  0.00     0.004 C 
ENDBRANCH   3   4
ENDBRANCH   2   3
ENDBRANCH   1   2
BRANCH   1   6
ATOM      6  C   UNL     1     102.873 106.217 109.126  1.00  0.00     0.028 C 
BRANCH   6   7
ATOM      7  C   UNL     1     103.984 106.138 108.075  1.00  0.00     0.156 C 
BRANCH   7   8
ATOM      8  O   UNL     1     103.412 106.089 106.797  1.00  0.00    -0.396 OA
ATOM      9  H   UNL     1     104.123 106.375 106.167  1.00  0.00     0.210 HD
ENDBRANCH   7   8
ENDBRANCH   6   7
ENDBRANCH   1   6
TORSDOF 6
ENDMDL
MODEL 5
REMARK VINA RESULT:    -2.584      7.160      7.588
REMARK INTER + INTRA:          -3.572
REMARK INTER:                  -3.423
REMARK INTRA:                  -0.149
REMARK UNBOUND:                -0.157
REMARK SMILES CCCCCCCO
REMARK SMILES IDX 5 1 4 2 3 3 2 4 1 5 6 6 7 7 8 8
REMARK H PARENT 8 9
REMARK Flexibility Score: inf
ROOT
ATOM      1  C   UNL     1     113.824 113.650 107.402  1.00  0.00     0.002 C 
ENDROOT
BRANCH   1   2
ATOM      2  C   UNL     1     112.493 112.940 107.711  1.00  0.00     0.000 C 
BRANCH   2   3
ATOM      3  C   UNL     1     111.650 112.677 106.454  1.00  0.00    -0.000 C 
BRANCH   3   4
ATOM      4  C   UNL     1     112.339 113.237 105.204  1.00  0.00    -0.003 C 
ATOM      5  C   UNL     1     111.409 113.192 103.995  1.00  0.00     0.004 C 
ENDBRANCH   3   4
ENDBRANCH   2   3
ENDBRANCH   1   2
BRANCH   1   6
ATOM      6  C   UNL     1     114.790 113.766 108.595  1.00  0.00     0.028 C 
BRANCH   6   7
ATOM      7  C   UNL     1     116.233 114.050 108.173  1.00  0.00     0.156 C 
BRANCH   7   8
ATOM      8  O   UNL     1     116.380 113.779 106.806  1.00  0.00    -0.396 OA
ATOM      9  H   UNL     1     116.601 112.814 106.739  1.00  0.00     0.210 HD
ENDBRANCH   7   8
ENDBRANCH   6   7
ENDBRANCH   1   6
TORSDOF 6
ENDMDL
MODEL 6
REMARK VINA RESULT:    -2.577     13.648     14.783
REMARK INTER + INTRA:          -3.562
REMARK INTER:                  -3.365
REMARK INTRA:                  -0.197
REMARK UNBOUND:                -0.157
REMARK SMILES CCCCCCCO
REMARK SMILES IDX 5 1 4 2 3 3 2 4 1 5 6 6 7 7 8 8
REMARK H PARENT 8 9
REMARK Flexibility Score: inf
ROOT
ATOM      1  C   UNL     1     105.433 118.320 108.800  1.00  0.00     0.002 C 
ENDROOT
BRANCH   1   2
ATOM      2  C   UNL     1     104.162 118.377 109.667  1.00  0.00     0.000 C 
BRANCH   2   3
ATOM      3  C   UNL     1     102.941 118.911 108.904  1.00  0.00    -0.000 C 
BRANCH   3   4
ATOM      4  C   UNL     1     102.697 118.102 107.624  1.00  0.00    -0.003 C 
ATOM      5  C   UNL     1     101.448 118.588 106.894  1.00  0.00     0.004 C 
ENDBRANCH   3   4
ENDBRANCH   2   3
ENDBRANCH   1   2
BRANCH   1   6
ATOM      6  C   UNL     1     106.353 117.117 109.073  1.00  0.00     0.028 C 
BRANCH   6   7
ATOM      7  C   UNL     1     106.299 116.057 107.971  1.00  0.00     0.156 C 
BRANCH   7   8
ATOM      8  O   UNL     1     106.159 116.687 106.727  1.00  0.00    -0.396 OA
ATOM      9  H   UNL     1     106.524 117.603 106.840  1.00  0.00     0.210 HD
ENDBRANCH   7   8
ENDBRANCH   6   7
ENDBRANCH   1   6
TORSDOF 6
ENDMDL
MODEL 7
REMARK VINA RESULT:    -2.569      9.437     10.436
REMARK INTER + INTRA:          -3.552
REMARK INTER:                  -3.398
REMARK INTRA:                  -0.154
REMARK UNBOUND:                -0.157
REMARK SMILES CCCCCCCO
REMARK SMILES IDX 5 1 4 2 3 3 2 4 1 5 6 6 7 7 8 8
REMARK H PARENT 8 9
REMARK Flexibility Score: inf
ROOT
ATOM      1  C   UNL     1     104.024 106.159 108.035  1.00  0.00     0.002 C 
ENDROOT
BRANCH   1   2
ATOM      2  C   UNL     1     102.915 106.091 109.101  1.00  0.00     0.000 C 
BRANCH   2   3
ATOM      3  C   UNL     1     101.647 105.383 108.601  1.00  0.00    -0.000 C 
BRANCH   3   4
ATOM      4  C   UNL     1     101.923 103.901 108.315  1.00  0.00    -0.003 C 
ATOM      5  C   UNL     1     101.310 103.009 109.390  1.00  0.00     0.004 C 
ENDBRANCH   3   4
ENDBRANCH   2   3
ENDBRANCH   1   2
BRANCH   1   6
ATOM      6  C   UNL     1     105.402 105.655 108.500  1.00  0.00     0.028 C 
BRANCH   6   7
ATOM      7  C   UNL     1     106.566 106.377 107.817  1.00  0.00     0.156 C 
BRANCH   7   8
ATOM      8  O   UNL     1     106.837 105.764 106.587  1.00  0.00    -0.396 OA
ATOM      9  H   UNL     1     107.097 106.494 105.967  1.00  0.00     0.210 HD
ENDBRANCH   7   8
ENDBRANCH   6   7
ENDBRANCH   1   6
TORSDOF 6
ENDMDL
MODEL 8
REMARK VINA RESULT:    -2.565      6.593      7.206
REMARK INTER + INTRA:          -3.547
REMARK INTER:                  -3.417
REMARK INTRA:                  -0.130
REMARK UNBOUND:                -0.157
REMARK SMILES CCCCCCCO
REMARK SMILES IDX 5 1 4 2 3 3 2 4 1 5 6 6 7 7 8 8
REMARK H PARENT 8 9
REMARK Flexibility Score: inf
ROOT
ATOM      1  C   UNL     1     106.784 106.863 107.820  1.00  0.00     0.002 C 
ENDROOT
BRANCH   1   2
ATOM      2  C   UNL     1     107.311 106.833 106.373  1.00  0.00     0.000 C 
BRANCH   2   3
ATOM      3  C   UNL     1     108.650 107.565 106.209  1.00  0.00    -0.000 C 
BRANCH   3   4
ATOM      4  C   UNL     1     109.015 107.716 104.727  1.00  0.00    -0.003 C 
ATOM      5  C   UNL     1     108.316 106.659 103.877  1.00  0.00     0.004 C 
ENDBRANCH   3   4
ENDBRANCH   2   3
ENDBRANCH   1   2
BRANCH   1   6
ATOM      6  C   UNL     1     105.772 105.756 108.166  1.00  0.00     0.028 C 
BRANCH   6   7
ATOM      7  C   UNL     1     104.324 106.252 108.183  1.00  0.00     0.156 C 
BRANCH   7   8
ATOM      8  O   UNL     1     103.817 106.253 106.877  1.00  0.00    -0.396 OA
ATOM      9  H   UNL     1     103.385 105.368 106.749  1.00  0.00     0.210 HD
ENDBRANCH   7   8
ENDBRANCH   6   7
ENDBRANCH   1   6
TORSDOF 6
ENDMDL
MODEL 9
REMARK VINA RESULT:    -2.529      7.394      8.219
REMARK INTER + INTRA:          -3.498
REMARK INTER:                  -3.350
REMARK INTRA:                  -0.148
REMARK UNBOUND:                -0.157
REMARK SMILES CCCCCCCO
REMARK SMILES IDX 5 1 4 2 3 3 2 4 1 5 6 6 7 7 8 8
REMARK H PARENT 8 9
REMARK Flexibility Score: inf
ROOT
ATOM      1  C   UNL     1     110.971 112.340 105.019  1.00  0.00     0.002 C 
ENDROOT
BRANCH   1   2
ATOM      2  C   UNL     1     109.997 112.680 103.876  1.00  0.00     0.000 C 
BRANCH   2   3
ATOM      3  C   UNL     1     108.558 112.225 104.160  1.00  0.00    -0.000 C 
BRANCH   3   4
ATOM      4  C   UNL     1     108.331 112.030 105.664  1.00  0.00    -0.003 C 
ATOM      5  C   UNL     1     106.899 112.381 106.056  1.00  0.00     0.004 C 
ENDBRANCH   3   4
ENDBRANCH   2   3
ENDBRANCH   1   2
BRANCH   1   6
ATOM      6  C   UNL     1     112.127 113.338 105.206  1.00  0.00     0.028 C 
BRANCH   6   7
ATOM      7  C   UNL     1     112.773 113.255 106.591  1.00  0.00     0.156 C 
BRANCH   7   8
ATOM      8  O   UNL     1     113.441 114.455 106.866  1.00  0.00    -0.396 OA
ATOM      9  H   UNL     1     113.957 114.677 106.048  1.00  0.00     0.210 HD
ENDBRANCH   7   8
ENDBRANCH   6   7
ENDBRANCH   1   6
TORSDOF 6
ENDMDL
