MODEL 1
REMARK VINA RESULT:    -5.016      0.000      0.000
REMARK INTER + INTRA:          -5.699
REMARK INTER:                  -5.456
REMARK INTRA:                  -0.243
REMARK UNBOUND:                -0.243
REMARK SMILES O=C([O-])c1ccccc1O
REMARK SMILES IDX 4 1 9 2 5 3 8 4 6 5 7 6 2 7 1 8 3 9 10 10
REMARK H PARENT 10 11
REMARK Flexibility Score: inf
ROOT
ATOM      1  C   UNL     1      47.351  48.939  34.623  1.00  0.00     0.039 A 
ATOM      2  C   UNL     1      47.947  47.855  33.928  1.00  0.00     0.124 A 
ATOM      3  C   UNL     1      46.197  48.701  35.391  1.00  0.00     0.014 A 
ATOM      4  C   UNL     1      47.416  46.567  34.067  1.00  0.00     0.047 A 
ATOM      5  C   UNL     1      45.669  47.413  35.505  1.00  0.00     0.001 A 
ATOM      6  C   UNL     1      46.283  46.346  34.851  1.00  0.00     0.004 A 
ENDROOT
BRANCH   1   7
ATOM      7  C   UNL     1      47.910  50.310  34.603  1.00  0.00     0.075 C 
ATOM      8  O   UNL     1      47.184  51.300  34.330  1.00  0.00    -0.545 OA
ATOM      9  O   UNL     1      49.268  50.510  34.820  1.00  0.00    -0.545 OA
ENDBRANCH   1   7
BRANCH   2  10
ATOM     10  O   UNL     1      49.036  48.018  33.067  1.00  0.00    -0.507 OA
ATOM     11  H   UNL     1      49.899  48.466  33.337  1.00  0.00     0.293 HD
ENDBRANCH   2  10
TORSDOF 2
ENDMDL
MODEL 2
REMARK VINA RESULT:    -4.982      2.505      3.694
REMARK INTER + INTRA:          -5.661
REMARK INTER:                  -5.421
REMARK INTRA:                  -0.240
REMARK UNBOUND:                -0.243
REMARK SMILES O=C([O-])c1ccccc1O
REMARK SMILES IDX 4 1 9 2 5 3 8 4 6 5 7 6 2 7 1 8 3 9 10 10
REMARK H PARENT 10 11
REMARK Flexibility Score: inf
ROOT
ATOM      1  C   UNL     1      47.145  48.735  35.426  1.00  0.00     0.039 A 
ATOM      2  C   UNL     1      48.326  48.330  36.102  1.00  0.00     0.124 A 
ATOM      3  C   UNL     1      47.163  49.932  34.687  1.00  0.00     0.014 A 
ATOM      4  C   UNL     1      49.494  49.091  35.971  1.00  0.00     0.047 A 
ATOM      5  C   UNL     1      48.331  50.689  34.582  1.00  0.00     0.001 A 
ATOM      6  C   UNL     1      49.498  50.264  35.216  1.00  0.00     0.004 A 
ENDROOT
BRANCH   1   7
ATOM      7  C   UNL     1      45.900  47.935  35.436  1.00  0.00     0.075 C 
ATOM      8  O   UNL     1      44.799  48.456  35.753  1.00  0.00    -0.545 OA
ATOM      9  O   UNL     1      45.947  46.573  35.161  1.00  0.00    -0.545 OA
ENDBRANCH   1   7
BRANCH   2  10
ATOM     10  O   UNL     1      48.372  47.210  36.935  1.00  0.00    -0.507 OA
ATOM     11  H   UNL     1      48.108  46.281  36.637  1.00  0.00     0.293 HD
ENDBRANCH   2  10
TORSDOF 2
ENDMDL
MODEL 3
REMARK VINA RESULT:    -4.870      2.651      3.793
REMARK INTER + INTRA:          -5.539
REMARK INTER:                  -5.309
REMARK INTRA:                  -0.230
REMARK UNBOUND:                -0.243
REMARK SMILES O=C([O-])c1ccccc1O
REMARK SMILES IDX 4 1 9 2 5 3 8 4 6 5 7 6 2 7 1 8 3 9 10 10
REMARK H PARENT 10 11
REMARK Flexibility Score: inf
ROOT
ATOM      1  C   UNL     1      47.426  48.371  35.708  1.00  0.00     0.039 A 
ATOM      2  C   UNL     1      48.779  48.454  36.126  1.00  0.00     0.124 A 
ATOM      3  C   UNL     1      46.897  49.403  34.910  1.00  0.00     0.014 A 
ATOM      4  C   UNL     1      49.575  49.520  35.690  1.00  0.00     0.047 A 
ATOM      5  C   UNL     1      47.699  50.469  34.500  1.00  0.00     0.001 A 
ATOM      6  C   UNL     1      49.039  50.523  34.881  1.00  0.00     0.004 A 
ENDROOT
BRANCH   1   7
ATOM      7  C   UNL     1      46.550  47.227  36.046  1.00  0.00     0.075 C 
ATOM      8  O   UNL     1      45.522  46.976  35.365  1.00  0.00    -0.545 OA
ATOM      9  O   UNL     1      46.817  46.455  37.171  1.00  0.00    -0.545 OA
ENDBRANCH   1   7
BRANCH   2  10
ATOM     10  O   UNL     1      49.358  47.526  36.996  1.00  0.00    -0.507 OA
ATOM     11  H   UNL     1      49.238  46.527  36.907  1.00  0.00     0.293 HD
ENDBRANCH   2  10
TORSDOF 2
ENDMDL
MODEL 4
REMARK VINA RESULT:    -4.785      1.539      2.068
REMARK INTER + INTRA:          -5.448
REMARK INTER:                  -5.232
REMARK INTRA:                  -0.215
REMARK UNBOUND:                -0.243
REMARK SMILES O=C([O-])c1ccccc1O
REMARK SMILES IDX 4 1 9 2 5 3 8 4 6 5 7 6 2 7 1 8 3 9 10 10
REMARK H PARENT 10 11
REMARK Flexibility Score: inf
ROOT
ATOM      1  C   UNL     1      47.729  49.106  35.405  1.00  0.00     0.039 A 
ATOM      2  C   UNL     1      48.545  48.335  36.273  1.00  0.00     0.124 A 
ATOM      3  C   UNL     1      46.430  48.651  35.112  1.00  0.00     0.014 A 
ATOM      4  C   UNL     1      48.026  47.178  36.866  1.00  0.00     0.047 A 
ATOM      5  C   UNL     1      45.934  47.484  35.696  1.00  0.00     0.001 A 
ATOM      6  C   UNL     1      46.728  46.753  36.580  1.00  0.00     0.004 A 
ENDROOT
BRANCH   1   7
ATOM      7  C   UNL     1      48.172  50.390  34.817  1.00  0.00     0.075 C 
ATOM      8  O   UNL     1      49.377  50.748  34.878  1.00  0.00    -0.545 OA
ATOM      9  O   UNL     1      47.242  51.251  34.248  1.00  0.00    -0.545 OA
ENDBRANCH   1   7
BRANCH   2  10
ATOM     10  O   UNL     1      49.877  48.660  36.542  1.00  0.00    -0.507 OA
ATOM     11  H   UNL     1      50.317  48.514  37.439  1.00  0.00     0.293 HD
ENDBRANCH   2  10
TORSDOF 2
ENDMDL
MODEL 5
REMARK VINA RESULT:    -4.758      2.267      3.395
REMARK INTER + INTRA:          -5.418
REMARK INTER:                  -5.197
REMARK INTRA:                  -0.220
REMARK UNBOUND:                -0.243
REMARK SMILES O=C([O-])c1ccccc1O
REMARK SMILES IDX 4 1 9 2 5 3 8 4 6 5 7 6 2 7 1 8 3 9 10 10
REMARK H PARENT 10 11
REMARK Flexibility Score: inf
ROOT
ATOM      1  C   UNL     1      46.981  48.205  34.755  1.00  0.00     0.039 A 
ATOM      2  C   UNL     1      47.797  47.459  33.866  1.00  0.00     0.124 A 
ATOM      3  C   UNL     1      47.339  49.533  35.053  1.00  0.00     0.014 A 
ATOM      4  C   UNL     1      48.900  48.071  33.259  1.00  0.00     0.047 A 
ATOM      5  C   UNL     1      48.454  50.122  34.454  1.00  0.00     0.001 A 
ATOM      6  C   UNL     1      49.228  49.396  33.550  1.00  0.00     0.004 A 
ENDROOT
BRANCH   1   7
ATOM      7  C   UNL     1      45.745  47.659  35.360  1.00  0.00     0.075 C 
ATOM      8  O   UNL     1      45.530  46.419  35.385  1.00  0.00    -0.545 OA
ATOM      9  O   UNL     1      44.771  48.521  35.848  1.00  0.00    -0.545 OA
ENDBRANCH   1   7
BRANCH   2  10
ATOM     10  O   UNL     1      47.571  46.108  33.589  1.00  0.00    -0.507 OA
ATOM     11  H   UNL     1      46.669  45.663  33.677  1.00  0.00     0.293 HD
ENDBRANCH   2  10
TORSDOF 2
ENDMDL
MODEL 6
REMARK VINA RESULT:    -4.691      2.671      4.175
REMARK INTER + INTRA:          -5.346
REMARK INTER:                  -5.095
REMARK INTRA:                  -0.250
REMARK UNBOUND:                -0.243
REMARK SMILES O=C([O-])c1ccccc1O
REMARK SMILES IDX 4 1 9 2 5 3 8 4 6 5 7 6 2 7 1 8 3 9 10 10
REMARK H PARENT 10 11
REMARK Flexibility Score: inf
ROOT
ATOM      1  C   UNL     1      47.300  46.989  34.208  1.00  0.00     0.039 A 
ATOM      2  C   UNL     1      46.261  47.521  35.015  1.00  0.00     0.124 A 
ATOM      3  C   UNL     1      48.287  47.859  33.709  1.00  0.00     0.014 A 
ATOM      4  C   UNL     1      46.271  48.881  35.349  1.00  0.00     0.047 A 
ATOM      5  C   UNL     1      48.272  49.216  34.036  1.00  0.00     0.001 A 
ATOM      6  C   UNL     1      47.271  49.725  34.863  1.00  0.00     0.004 A 
ENDROOT
BRANCH   1   7
ATOM      7  C   UNL     1      47.412  45.547  33.892  1.00  0.00     0.075 C 
ATOM      8  O   UNL     1      47.642  45.158  32.717  1.00  0.00    -0.545 OA
ATOM      9  O   UNL     1      47.194  44.599  34.884  1.00  0.00    -0.545 OA
ENDBRANCH   1   7
BRANCH   2  10
ATOM     10  O   UNL     1      45.190  46.749  35.472  1.00  0.00    -0.507 OA
ATOM     11  H   UNL     1      45.033  45.792  35.193  1.00  0.00     0.293 HD
ENDBRANCH   2  10
TORSDOF 2
ENDMDL
MODEL 7
REMARK VINA RESULT:    -4.647      1.763      2.633
REMARK INTER + INTRA:          -5.297
REMARK INTER:                  -5.059
REMARK INTRA:                  -0.238
REMARK UNBOUND:                -0.243
REMARK SMILES O=C([O-])c1ccccc1O
REMARK SMILES IDX 4 1 9 2 5 3 8 4 6 5 7 6 2 7 1 8 3 9 10 10
REMARK H PARENT 10 11
REMARK Flexibility Score: inf
ROOT
ATOM      1  C   UNL     1      48.799  49.087  35.689  1.00  0.00     0.039 A 
ATOM      2  C   UNL     1      47.721  49.717  35.015  1.00  0.00     0.124 A 
ATOM      3  C   UNL     1      48.545  47.917  36.430  1.00  0.00     0.014 A 
ATOM      4  C   UNL     1      46.448  49.135  35.047  1.00  0.00     0.047 A 
ATOM      5  C   UNL     1      47.266  47.360  36.468  1.00  0.00     0.001 A 
ATOM      6  C   UNL     1      46.220  47.963  35.770  1.00  0.00     0.004 A 
ENDROOT
BRANCH   1   7
ATOM      7  C   UNL     1      50.190  49.587  35.622  1.00  0.00     0.075 C 
ATOM      8  O   UNL     1      50.465  50.776  35.928  1.00  0.00    -0.545 OA
ATOM      9  O   UNL     1      51.203  48.761  35.149  1.00  0.00    -0.545 OA
ENDBRANCH   1   7
BRANCH   2  10
ATOM     10  O   UNL     1      47.862  50.931  34.337  1.00  0.00    -0.507 OA
ATOM     11  H   UNL     1      48.731  51.246  33.932  1.00  0.00     0.293 HD
ENDBRANCH   2  10
TORSDOF 2
ENDMDL
MODEL 8
REMARK VINA RESULT:    -4.600      1.208      3.031
REMARK INTER + INTRA:          -5.246
REMARK INTER:                  -4.997
REMARK INTRA:                  -0.249
REMARK UNBOUND:                -0.243
REMARK SMILES O=C([O-])c1ccccc1O
REMARK SMILES IDX 4 1 9 2 5 3 8 4 6 5 7 6 2 7 1 8 3 9 10 10
REMARK H PARENT 10 11
REMARK Flexibility Score: inf
ROOT
ATOM      1  C   UNL     1      48.465  48.140  33.610  1.00  0.00     0.039 A 
ATOM      2  C   UNL     1      48.148  49.396  34.187  1.00  0.00     0.124 A 
ATOM      3  C   UNL     1      47.683  47.020  33.949  1.00  0.00     0.014 A 
ATOM      4  C   UNL     1      47.034  49.511  35.028  1.00  0.00     0.047 A 
ATOM      5  C   UNL     1      46.587  47.148  34.804  1.00  0.00     0.001 A 
ATOM      6  C   UNL     1      46.257  48.394  35.335  1.00  0.00     0.004 A 
ENDROOT
BRANCH   1   7
ATOM      7  C   UNL     1      49.567  47.958  32.638  1.00  0.00     0.075 C 
ATOM      8  O   UNL     1      50.700  48.465  32.843  1.00  0.00    -0.545 OA
ATOM      9  O   UNL     1      49.338  47.278  31.448  1.00  0.00    -0.545 OA
ENDBRANCH   1   7
BRANCH   2  10
ATOM     10  O   UNL     1      48.927  50.538  33.983  1.00  0.00    -0.507 OA
ATOM     11  H   UNL     1      48.632  51.469  34.242  1.00  0.00     0.293 HD
ENDBRANCH   2  10
TORSDOF 2
ENDMDL
MODEL 9
REMARK VINA RESULT:    -4.543      3.168      4.182
REMARK INTER + INTRA:          -5.184
REMARK INTER:                  -4.932
REMARK INTRA:                  -0.252
REMARK UNBOUND:                -0.243
REMARK SMILES O=C([O-])c1ccccc1O
REMARK SMILES IDX 4 1 9 2 5 3 8 4 6 5 7 6 2 7 1 8 3 9 10 10
REMARK H PARENT 10 11
REMARK Flexibility Score: inf
ROOT
ATOM      1  C   UNL     1      47.993  47.761  36.516  1.00  0.00     0.039 A 
ATOM      2  C   UNL     1      46.720  47.968  35.925  1.00  0.00     0.124 A 
ATOM      3  C   UNL     1      49.056  48.612  36.157  1.00  0.00     0.014 A 
ATOM      4  C   UNL     1      46.530  49.044  35.049  1.00  0.00     0.047 A 
ATOM      5  C   UNL     1      48.854  49.668  35.267  1.00  0.00     0.001 A 
ATOM      6  C   UNL     1      47.590  49.891  34.721  1.00  0.00     0.004 A 
ENDROOT
BRANCH   1   7
ATOM      7  C   UNL     1      48.249  46.707  37.524  1.00  0.00     0.075 C 
ATOM      8  O   UNL     1      48.955  46.940  38.539  1.00  0.00    -0.545 OA
ATOM      9  O   UNL     1      47.764  45.421  37.322  1.00  0.00    -0.545 OA
ENDBRANCH   1   7
BRANCH   2  10
ATOM     10  O   UNL     1      45.637  47.116  36.150  1.00  0.00    -0.507 OA
ATOM     11  H   UNL     1      45.130  46.650  35.411  1.00  0.00     0.293 HD
ENDBRANCH   2  10
TORSDOF 2
ENDMDL
