MODEL 1
REMARK VINA RESULT:    -3.569      0.000      0.000
REMARK INTER + INTRA:          -4.886
REMARK INTER:                  -4.613
REMARK INTRA:                  -0.274
REMARK UNBOUND:                -0.274
REMARK SMILES C=CC(=O)CCCCC
REMARK SMILES IDX 6 1 7 2 8 3 9 4 5 5 3 6 4 7 2 8 1 9
REMARK H PARENT
REMARK Flexibility Score: inf
ROOT
ATOM      1  C   UNL     1       2.938  39.349  -8.280  1.00  0.00     0.008 C 
ENDROOT
BRANCH   1   2
ATOM      2  C   UNL     1       1.923  40.487  -8.074  1.00  0.00     0.000 C 
BRANCH   2   3
ATOM      3  C   UNL     1       0.958  40.637  -9.260  1.00  0.00    -0.003 C 
ATOM      4  C   UNL     1       0.917  39.396 -10.150  1.00  0.00     0.004 C 
ENDBRANCH   2   3
ENDBRANCH   1   2
BRANCH   1   5
ATOM      5  C   UNL     1       2.975  38.384  -7.082  1.00  0.00     0.080 C 
BRANCH   5   6
ATOM      6  C   UNL     1       1.627  37.787  -6.739  1.00  0.00     0.155 C 
ATOM      7  O   UNL     1       0.896  38.343  -5.875  1.00  0.00    -0.295 OA
BRANCH   6   8
ATOM      8  C   UNL     1       1.151  36.526  -7.342  1.00  0.00     0.039 C 
ATOM      9  C   UNL     1       1.419  35.319  -6.844  1.00  0.00     0.012 C 
ENDBRANCH   6   8
ENDBRANCH   5   6
ENDBRANCH   1   5
TORSDOF 5
ENDMDL
MODEL 2
REMARK VINA RESULT:    -3.322     12.751     13.769
REMARK INTER + INTRA:          -4.567
REMARK INTER:                  -4.511
REMARK INTRA:                  -0.056
REMARK UNBOUND:                -0.274
REMARK SMILES C=CC(=O)CCCCC
REMARK SMILES IDX 6 1 7 2 8 3 9 4 5 5 3 6 4 7 2 8 1 9
REMARK H PARENT
REMARK Flexibility Score: inf
ROOT
ATOM      1  C   UNL     1      12.136  39.476 -16.979  1.00  0.00     0.008 C 
ENDROOT
BRANCH   1   2
ATOM      2  C   UNL     1      11.419  39.468 -15.618  1.00  0.00     0.000 C 
BRANCH   2   3
ATOM      3  C   UNL     1      10.730  40.806 -15.307  1.00  0.00    -0.003 C 
ATOM      4  C   UNL     1      11.723  41.922 -14.989  1.00  0.00     0.004 C 
ENDBRANCH   2   3
ENDBRANCH   1   2
BRANCH   1   5
ATOM      5  C   UNL     1      12.126  38.089 -17.645  1.00  0.00     0.080 C 
BRANCH   5   6
ATOM      6  C   UNL     1      12.523  36.963 -16.715  1.00  0.00     0.155 C 
ATOM      7  O   UNL     1      11.681  36.076 -16.409  1.00  0.00    -0.295 OA
BRANCH   6   8
ATOM      8  C   UNL     1      13.862  36.891 -16.096  1.00  0.00     0.039 C 
ATOM      9  C   UNL     1      14.192  37.528 -14.972  1.00  0.00     0.012 C 
ENDBRANCH   6   8
ENDBRANCH   5   6
ENDBRANCH   1   5
TORSDOF 5
ENDMDL
MODEL 3
REMARK VINA RESULT:    -2.955     18.821     20.173
REMARK INTER + INTRA:          -4.092
REMARK INTER:                  -3.919
REMARK INTRA:                  -0.173
REMARK UNBOUND:                -0.274
REMARK SMILES C=CC(=O)CCCCC
REMARK SMILES IDX 6 1 7 2 8 3 9 4 5 5 3 6 4 7 2 8 1 9
REMARK H PARENT
REMARK Flexibility Score: inf
ROOT
ATOM      1  C   UNL     1       7.359  31.703 -24.869  1.00  0.00     0.008 C 
ENDROOT
BRANCH   1   2
ATOM      2  C   UNL     1       8.317  30.525 -24.618  1.00  0.00     0.000 C 
BRANCH   2   3
ATOM      3  C   UNL     1       8.694  29.787 -25.912  1.00  0.00    -0.003 C 
ATOM      4  C   UNL     1      10.205  29.685 -26.116  1.00  0.00     0.004 C 
ENDBRANCH   2   3
ENDBRANCH   1   2
BRANCH   1   5
ATOM      5  C   UNL     1       6.488  31.482 -26.118  1.00  0.00     0.080 C 
BRANCH   5   6
ATOM      6  C   UNL     1       5.074  32.004 -25.976  1.00  0.00     0.155 C 
ATOM      7  O   UNL     1       4.108  31.195 -25.936  1.00  0.00    -0.295 OA
BRANCH   6   8
ATOM      8  C   UNL     1       4.771  33.449 -25.938  1.00  0.00     0.039 C 
ATOM      9  C   UNL     1       4.725  34.166 -24.815  1.00  0.00     0.012 C 
ENDBRANCH   6   8
ENDBRANCH   5   6
ENDBRANCH   1   5
TORSDOF 5
ENDMDL
MODEL 4
REMARK VINA RESULT:    -2.863     13.487     14.412
REMARK INTER + INTRA:          -3.974
REMARK INTER:                  -3.797
REMARK INTRA:                  -0.177
REMARK UNBOUND:                -0.274
REMARK SMILES C=CC(=O)CCCCC
REMARK SMILES IDX 6 1 7 2 8 3 9 4 5 5 3 6 4 7 2 8 1 9
REMARK H PARENT
REMARK Flexibility Score: inf
ROOT
ATOM      1  C   UNL     1      12.874  38.377 -15.811  1.00  0.00     0.008 C 
ENDROOT
BRANCH   1   2
ATOM      2  C   UNL     1      12.206  39.633 -16.397  1.00  0.00     0.000 C 
BRANCH   2   3
ATOM      3  C   UNL     1      11.193  40.268 -15.431  1.00  0.00    -0.003 C 
ATOM      4  C   UNL     1      11.533  41.718 -15.088  1.00  0.00     0.004 C 
ENDBRANCH   2   3
ENDBRANCH   1   2
BRANCH   1   5
ATOM      5  C   UNL     1      12.198  37.084 -16.297  1.00  0.00     0.080 C 
BRANCH   5   6
ATOM      6  C   UNL     1      12.652  36.638 -17.671  1.00  0.00     0.155 C 
ATOM      7  O   UNL     1      13.855  36.312 -17.859  1.00  0.00    -0.295 OA
BRANCH   6   8
ATOM      8  C   UNL     1      11.739  36.624 -18.832  1.00  0.00     0.039 C 
ATOM      9  C   UNL     1      11.847  35.766 -19.847  1.00  0.00     0.012 C 
ENDBRANCH   6   8
ENDBRANCH   5   6
ENDBRANCH   1   5
TORSDOF 5
ENDMDL
MODEL 5
REMARK VINA RESULT:    -2.775     15.302     16.048
REMARK INTER + INTRA:          -3.860
REMARK INTER:                  -3.719
REMARK INTRA:                  -0.141
REMARK UNBOUND:                -0.274
REMARK SMILES C=CC(=O)CCCCC
REMARK SMILES IDX 6 1 7 2 8 3 9 4 5 5 3 6 4 7 2 8 1 9
REMARK H PARENT
REMARK Flexibility Score: inf
ROOT
ATOM      1  C   UNL     1       4.655  22.985  -9.702  1.00  0.00     0.008 C 
ENDROOT
BRANCH   1   2
ATOM      2  C   UNL     1       4.100  22.248 -10.933  1.00  0.00     0.000 C 
BRANCH   2   3
ATOM      3  C   UNL     1       3.450  23.201 -11.948  1.00  0.00    -0.003 C 
ATOM      4  C   UNL     1       2.154  23.823 -11.429  1.00  0.00     0.004 C 
ENDBRANCH   2   3
ENDBRANCH   1   2
BRANCH   1   5
ATOM      5  C   UNL     1       5.225  22.013  -8.655  1.00  0.00     0.080 C 
BRANCH   5   6
ATOM      6  C   UNL     1       5.227  22.565  -7.246  1.00  0.00     0.155 C 
ATOM      7  O   UNL     1       4.756  21.875  -6.302  1.00  0.00    -0.295 OA
BRANCH   6   8
ATOM      8  C   UNL     1       5.713  23.925  -6.937  1.00  0.00     0.039 C 
ATOM      9  C   UNL     1       6.480  24.215  -5.886  1.00  0.00     0.012 C 
ENDBRANCH   6   8
ENDBRANCH   5   6
ENDBRANCH   1   5
TORSDOF 5
ENDMDL
MODEL 6
REMARK VINA RESULT:    -2.759     16.728     18.480
REMARK INTER + INTRA:          -3.840
REMARK INTER:                  -3.690
REMARK INTRA:                  -0.150
REMARK UNBOUND:                -0.274
REMARK SMILES C=CC(=O)CCCCC
REMARK SMILES IDX 6 1 7 2 8 3 9 4 5 5 3 6 4 7 2 8 1 9
REMARK H PARENT
REMARK Flexibility Score: inf
ROOT
ATOM      1  C   UNL     1       3.527  34.357 -25.234  1.00  0.00     0.008 C 
ENDROOT
BRANCH   1   2
ATOM      2  C   UNL     1       4.607  33.710 -26.117  1.00  0.00     0.000 C 
BRANCH   2   3
ATOM      3  C   UNL     1       4.674  32.184 -25.944  1.00  0.00    -0.003 C 
ATOM      4  C   UNL     1       6.107  31.661 -25.856  1.00  0.00     0.004 C 
ENDBRANCH   2   3
ENDBRANCH   1   2
BRANCH   1   5
ATOM      5  C   UNL     1       2.334  34.866 -26.061  1.00  0.00     0.080 C 
BRANCH   5   6
ATOM      6  C   UNL     1       1.545  35.965 -25.382  1.00  0.00     0.155 C 
ATOM      7  O   UNL     1       0.884  36.783 -26.077  1.00  0.00    -0.295 OA
BRANCH   6   8
ATOM      8  C   UNL     1       1.567  36.157 -23.918  1.00  0.00     0.039 C 
ATOM      9  C   UNL     1       1.440  37.345 -23.326  1.00  0.00     0.012 C 
ENDBRANCH   6   8
ENDBRANCH   5   6
ENDBRANCH   1   5
TORSDOF 5
ENDMDL
MODEL 7
REMARK VINA RESULT:    -2.725     13.437     14.535
REMARK INTER + INTRA:          -3.795
REMARK INTER:                  -3.803
REMARK INTRA:                   0.009
REMARK UNBOUND:                -0.274
REMARK SMILES C=CC(=O)CCCCC
REMARK SMILES IDX 6 1 7 2 8 3 9 4 5 5 3 6 4 7 2 8 1 9
REMARK H PARENT
REMARK Flexibility Score: inf
ROOT
ATOM      1  C   UNL     1      12.409  36.702 -16.464  1.00  0.00     0.008 C 
ENDROOT
BRANCH   1   2
ATOM      2  C   UNL     1      12.863  36.538 -17.925  1.00  0.00     0.000 C 
BRANCH   2   3
ATOM      3  C   UNL     1      11.681  36.391 -18.896  1.00  0.00    -0.003 C 
ATOM      4  C   UNL     1      12.014  35.516 -20.104  1.00  0.00     0.004 C 
ENDBRANCH   2   3
ENDBRANCH   1   2
BRANCH   1   5
ATOM      5  C   UNL     1      12.892  38.029 -15.855  1.00  0.00     0.080 C 
BRANCH   5   6
ATOM      6  C   UNL     1      12.158  39.244 -16.381  1.00  0.00     0.155 C 
ATOM      7  O   UNL     1      12.310  39.598 -17.581  1.00  0.00    -0.295 OA
BRANCH   6   8
ATOM      8  C   UNL     1      11.301  40.079 -15.514  1.00  0.00     0.039 C 
ATOM      9  C   UNL     1      11.565  41.353 -15.221  1.00  0.00     0.012 C 
ENDBRANCH   6   8
ENDBRANCH   5   6
ENDBRANCH   1   5
TORSDOF 5
ENDMDL
MODEL 8
REMARK VINA RESULT:    -2.722     16.226     17.785
REMARK INTER + INTRA:          -3.791
REMARK INTER:                  -3.652
REMARK INTRA:                  -0.139
REMARK UNBOUND:                -0.274
REMARK SMILES C=CC(=O)CCCCC
REMARK SMILES IDX 6 1 7 2 8 3 9 4 5 5 3 6 4 7 2 8 1 9
REMARK H PARENT
REMARK Flexibility Score: inf
ROOT
ATOM      1  C   UNL     1       2.560  35.333 -24.454  1.00  0.00     0.008 C 
ENDROOT
BRANCH   1   2
ATOM      2  C   UNL     1       1.254  36.061 -24.816  1.00  0.00     0.000 C 
BRANCH   2   3
ATOM      3  C   UNL     1       0.944  37.225 -23.862  1.00  0.00    -0.003 C 
ATOM      4  C   UNL     1       1.914  37.298 -22.683  1.00  0.00     0.004 C 
ENDBRANCH   2   3
ENDBRANCH   1   2
BRANCH   1   5
ATOM      5  C   UNL     1       3.153  34.579 -25.657  1.00  0.00     0.080 C 
BRANCH   5   6
ATOM      6  C   UNL     1       4.477  33.908 -25.364  1.00  0.00     0.155 C 
ATOM      7  O   UNL     1       5.268  34.419 -24.526  1.00  0.00    -0.295 OA
BRANCH   6   8
ATOM      8  C   UNL     1       4.913  32.688 -26.074  1.00  0.00     0.039 C 
ATOM      9  C   UNL     1       4.274  31.520 -25.998  1.00  0.00     0.012 C 
ENDBRANCH   6   8
ENDBRANCH   5   6
ENDBRANCH   1   5
TORSDOF 5
ENDMDL
