MODEL 1
REMARK VINA RESULT:    -2.941      0.000      0.000
REMARK INTER + INTRA:          -3.027
REMARK INTER:                  -3.027
REMARK INTRA:                   0.000
REMARK UNBOUND:                 0.000
REMARK SMILES O=c1ccc2ccc(O)cc2o1
REMARK SMILES IDX 6 1 7 2 8 3 10 4 11 5 5 6 4 7 3 8 2 9 1 10 12 11 9 12
REMARK H PARENT 9 13
REMARK Flexibility Score: inf
ROOT
ATOM      1  C   UNL     1       0.371  -1.639   2.066  1.00  0.00     0.016 A 
ATOM      2  C   UNL     1       1.550  -0.955   2.382  1.00  0.00     0.047 A 
ATOM      3  C   UNL     1       2.463  -0.619   1.375  1.00  0.00     0.119 A 
ATOM      4  C   UNL     1       2.196  -0.969   0.042  1.00  0.00     0.094 A 
ATOM      5  C   UNL     1       1.020  -1.652  -0.282  1.00  0.00     0.142 A 
ATOM      6  C   UNL     1       0.101  -1.991   0.736  1.00  0.00     0.018 A 
ATOM      7  C   UNL     1      -1.067  -2.674   0.382  1.00  0.00     0.019 A 
ATOM      8  C   UNL     1      -1.288  -2.999  -0.956  1.00  0.00     0.094 A 
ATOM      9  C   UNL     1      -0.334  -2.633  -1.911  1.00  0.00     0.336 A 
ATOM     10  O   UNL     1      -0.516  -2.919  -3.123  1.00  0.00    -0.246 OA
ATOM     11  O   UNL     1       0.769  -1.983  -1.547  1.00  0.00    -0.423 OA
ENDROOT
BRANCH   3  12
ATOM     12  O   UNL     1       3.632   0.062   1.708  1.00  0.00    -0.508 OA
ATOM     13  H   UNL     1       3.892   0.926   1.248  1.00  0.00     0.293 HD
ENDBRANCH   3  12
TORSDOF 1
ENDMDL
MODEL 2
REMARK VINA RESULT:    -1.974      0.761      4.224
REMARK INTER + INTRA:          -2.032
REMARK INTER:                  -2.032
REMARK INTRA:                   0.000
REMARK UNBOUND:                 0.000
REMARK SMILES O=c1ccc2ccc(O)cc2o1
REMARK SMILES IDX 6 1 7 2 8 3 10 4 11 5 5 6 4 7 3 8 2 9 1 10 12 11 9 12
REMARK H PARENT 9 13
REMARK Flexibility Score: inf
ROOT
ATOM      1  C   UNL     1      -1.030  -2.761   0.552  1.00  0.00     0.016 A 
ATOM      2  C   UNL     1      -1.400  -3.119  -0.749  1.00  0.00     0.047 A 
ATOM      3  C   UNL     1      -0.596  -2.759  -1.836  1.00  0.00     0.119 A 
ATOM      4  C   UNL     1       0.587  -2.035  -1.623  1.00  0.00     0.094 A 
ATOM      5  C   UNL     1       0.964  -1.671  -0.327  1.00  0.00     0.142 A 
ATOM      6  C   UNL     1       0.150  -2.036   0.769  1.00  0.00     0.018 A 
ATOM      7  C   UNL     1       0.553  -1.659   2.054  1.00  0.00     0.019 A 
ATOM      8  C   UNL     1       1.736  -0.940   2.216  1.00  0.00     0.094 A 
ATOM      9  C   UNL     1       2.492  -0.613   1.085  1.00  0.00     0.336 A 
ATOM     10  O   UNL     1       3.562   0.037   1.211  1.00  0.00    -0.246 OA
ATOM     11  O   UNL     1       2.086  -0.984  -0.127  1.00  0.00    -0.423 OA
ENDROOT
BRANCH   3  12
ATOM     12  O   UNL     1      -0.980  -3.125  -3.125  1.00  0.00    -0.508 OA
ATOM     13  H   UNL     1      -1.657  -3.861  -3.288  1.00  0.00     0.293 HD
ENDBRANCH   3  12
TORSDOF 1
ENDMDL
