MODEL 1
REMARK VINA RESULT:    -1.613      0.000      0.000
REMARK INTER + INTRA:          -5.807
REMARK INTER:                  -3.121
REMARK INTRA:                  -2.686
REMARK UNBOUND:                -2.686
REMARK SMILES CCCCCCCCCCCCCCCCCC(=O)[O-]
REMARK SMILES IDX 10 1 11 2 12 3 13 4 14 5 15 6 16 7 17 8 18 9 19 10 20 11
REMARK SMILES IDX 9 12 8 13 7 14 6 15 5 16 4 17 3 18 2 19 1 20
REMARK H PARENT
REMARK Flexibility Score: inf
ROOT
ATOM      1  C   UNL     1      22.522  27.950  12.593  1.00  0.00     0.000 C 
ENDROOT
BRANCH   1   2
ATOM      2  C   UNL     1      22.171  26.456  12.747  1.00  0.00     0.000 C 
BRANCH   2   3
ATOM      3  C   UNL     1      23.371  25.524  12.996  1.00  0.00     0.000 C 
BRANCH   3   4
ATOM      4  C   UNL     1      23.121  24.520  14.130  1.00  0.00     0.000 C 
BRANCH   4   5
ATOM      5  C   UNL     1      24.296  23.540  14.264  1.00  0.00     0.000 C 
BRANCH   5   6
ATOM      6  C   UNL     1      25.495  24.148  15.009  1.00  0.00     0.000 C 
BRANCH   6   7
ATOM      7  C   UNL     1      26.125  23.168  16.014  1.00  0.00     0.006 C 
BRANCH   7   8
ATOM      8  C   UNL     1      25.192  21.994  16.339  1.00  0.00     0.053 C 
BRANCH   8   9
ATOM      9  C   UNL     1      25.791  20.680  15.939  1.00  0.00     0.041 C 
ATOM     10  O   UNL     1      26.103  20.465  14.739  1.00  0.00    -0.550 OA
ATOM     11  O   UNL     1      26.030  19.704  16.898  1.00  0.00    -0.550 OA
ENDBRANCH   8   9
ENDBRANCH   7   8
ENDBRANCH   6   7
ENDBRANCH   5   6
ENDBRANCH   4   5
ENDBRANCH   3   4
ENDBRANCH   2   3
ENDBRANCH   1   2
BRANCH   1  12
ATOM     12  C   UNL     1      23.852  28.240  11.876  1.00  0.00     0.000 C 
BRANCH  12  13
ATOM     13  C   UNL     1      24.800  29.119  12.710  1.00  0.00    -0.000 C 
BRANCH  13  14
ATOM     14  C   UNL     1      24.679  28.848  14.218  1.00  0.00    -0.000 C 
BRANCH  14  15
ATOM     15  C   UNL     1      25.711  27.820  14.716  1.00  0.00    -0.000 C 
BRANCH  15  16
ATOM     16  C   UNL     1      25.590  27.531  16.224  1.00  0.00    -0.000 C 
BRANCH  16  17
ATOM     17  C   UNL     1      24.170  27.656  16.804  1.00  0.00    -0.000 C 
BRANCH  17  18
ATOM     18  C   UNL     1      23.663  26.347  17.435  1.00  0.00    -0.000 C 
BRANCH  18  19
ATOM     19  C   UNL     1      22.156  26.136  17.220  1.00  0.00    -0.003 C 
ATOM     20  C   UNL     1      21.532  27.192  16.308  1.00  0.00     0.004 C 
ENDBRANCH  18  19
ENDBRANCH  17  18
ENDBRANCH  16  17
ENDBRANCH  15  16
ENDBRANCH  14  15
ENDBRANCH  13  14
ENDBRANCH  12  13
ENDBRANCH   1  12
TORSDOF 16
ENDMDL
MODEL 2
REMARK VINA RESULT:    -1.604     21.398     23.570
REMARK INTER + INTRA:          -5.790
REMARK INTER:                  -3.023
REMARK INTRA:                  -2.767
REMARK UNBOUND:                -2.686
REMARK SMILES CCCCCCCCCCCCCCCCCC(=O)[O-]
REMARK SMILES IDX 10 1 11 2 12 3 13 4 14 5 15 6 16 7 17 8 18 9 19 10 20 11
REMARK SMILES IDX 9 12 8 13 7 14 6 15 5 16 4 17 3 18 2 19 1 20
REMARK H PARENT
REMARK Flexibility Score: inf
ROOT
ATOM      1  C   UNL     1       6.514  13.989  25.096  1.00  0.00     0.000 C 
ENDROOT
BRANCH   1   2
ATOM      2  C   UNL     1       6.072  12.546  24.784  1.00  0.00     0.000 C 
BRANCH   2   3
ATOM      3  C   UNL     1       7.194  11.606  24.306  1.00  0.00     0.000 C 
BRANCH   3   4
ATOM      4  C   UNL     1       7.570  10.547  25.352  1.00  0.00     0.000 C 
BRANCH   4   5
ATOM      5  C   UNL     1       6.667  10.655  26.590  1.00  0.00     0.000 C 
BRANCH   5   6
ATOM      6  C   UNL     1       7.451  10.987  27.870  1.00  0.00     0.000 C 
BRANCH   6   7
ATOM      7  C   UNL     1       8.890  10.445  27.840  1.00  0.00     0.006 C 
BRANCH   7   8
ATOM      8  C   UNL     1       9.907  11.472  28.356  1.00  0.00     0.053 C 
BRANCH   8   9
ATOM      9  C   UNL     1      11.110  10.812  28.957  1.00  0.00     0.041 C 
ATOM     10  O   UNL     1      11.460  11.083  30.135  1.00  0.00    -0.550 OA
ATOM     11  O   UNL     1      11.827   9.875  28.224  1.00  0.00    -0.550 OA
ENDBRANCH   8   9
ENDBRANCH   7   8
ENDBRANCH   6   7
ENDBRANCH   5   6
ENDBRANCH   4   5
ENDBRANCH   3   4
ENDBRANCH   2   3
ENDBRANCH   1   2
BRANCH   1  12
ATOM     12  C   UNL     1       8.026  14.252  24.976  1.00  0.00     0.000 C 
BRANCH  12  13
ATOM     13  C   UNL     1       8.716  14.396  26.343  1.00  0.00    -0.000 C 
BRANCH  13  14
ATOM     14  C   UNL     1       7.711  14.577  27.493  1.00  0.00    -0.000 C 
BRANCH  14  15
ATOM     15  C   UNL     1       8.133  15.684  28.475  1.00  0.00    -0.000 C 
BRANCH  15  16
ATOM     16  C   UNL     1       7.131  16.852  28.529  1.00  0.00    -0.000 C 
BRANCH  16  17
ATOM     17  C   UNL     1       5.918  16.719  27.591  1.00  0.00    -0.000 C 
BRANCH  17  18
ATOM     18  C   UNL     1       6.098  17.479  26.265  1.00  0.00    -0.000 C 
BRANCH  18  19
ATOM     19  C   UNL     1       7.352  18.367  26.262  1.00  0.00    -0.003 C 
ATOM     20  C   UNL     1       8.324  18.019  25.135  1.00  0.00     0.004 C 
ENDBRANCH  18  19
ENDBRANCH  17  18
ENDBRANCH  16  17
ENDBRANCH  15  16
ENDBRANCH  14  15
ENDBRANCH  13  14
ENDBRANCH  12  13
ENDBRANCH   1  12
TORSDOF 16
ENDMDL
MODEL 3
REMARK VINA RESULT:    -1.592      3.250      6.098
REMARK INTER + INTRA:          -5.767
REMARK INTER:                  -2.917
REMARK INTRA:                  -2.850
REMARK UNBOUND:                -2.686
REMARK SMILES CCCCCCCCCCCCCCCCCC(=O)[O-]
REMARK SMILES IDX 10 1 11 2 12 3 13 4 14 5 15 6 16 7 17 8 18 9 19 10 20 11
REMARK SMILES IDX 9 12 8 13 7 14 6 15 5 16 4 17 3 18 2 19 1 20
REMARK H PARENT
REMARK Flexibility Score: inf
ROOT
ATOM      1  C   UNL     1      24.604  25.627  14.923  1.00  0.00     0.000 C 
ENDROOT
BRANCH   1   2
ATOM      2  C   UNL     1      25.986  25.685  15.604  1.00  0.00     0.000 C 
BRANCH   2   3
ATOM      3  C   UNL     1      25.991  26.278  17.025  1.00  0.00     0.000 C 
BRANCH   3   4
ATOM      4  C   UNL     1      25.766  27.797  17.038  1.00  0.00     0.000 C 
BRANCH   4   5
ATOM      5  C   UNL     1      24.388  28.142  17.622  1.00  0.00     0.000 C 
BRANCH   5   6
ATOM      6  C   UNL     1      23.561  29.048  16.697  1.00  0.00     0.000 C 
BRANCH   6   7
ATOM      7  C   UNL     1      24.254  29.309  15.349  1.00  0.00     0.006 C 
BRANCH   7   8
ATOM      8  C   UNL     1      23.317  29.059  14.159  1.00  0.00     0.053 C 
BRANCH   8   9
ATOM      9  C   UNL     1      24.058  29.063  12.857  1.00  0.00     0.041 C 
ATOM     10  O   UNL     1      24.582  30.125  12.429  1.00  0.00    -0.550 OA
ATOM     11  O   UNL     1      24.193  27.887  12.130  1.00  0.00    -0.550 OA
ENDBRANCH   8   9
ENDBRANCH   7   8
ENDBRANCH   6   7
ENDBRANCH   5   6
ENDBRANCH   4   5
ENDBRANCH   3   4
ENDBRANCH   2   3
ENDBRANCH   1   2
BRANCH   1  12
ATOM     12  C   UNL     1      24.264  24.289  14.243  1.00  0.00     0.000 C 
BRANCH  12  13
ATOM     13  C   UNL     1      25.284  23.182  14.563  1.00  0.00    -0.000 C 
BRANCH  13  14
ATOM     14  C   UNL     1      24.773  22.203  15.633  1.00  0.00    -0.000 C 
BRANCH  14  15
ATOM     15  C   UNL     1      23.251  21.990  15.557  1.00  0.00    -0.000 C 
BRANCH  15  16
ATOM     16  C   UNL     1      22.515  22.475  16.820  1.00  0.00    -0.000 C 
BRANCH  16  17
ATOM     17  C   UNL     1      23.420  23.023  17.938  1.00  0.00    -0.000 C 
BRANCH  17  18
ATOM     18  C   UNL     1      23.191  24.520  18.216  1.00  0.00    -0.000 C 
BRANCH  18  19
ATOM     19  C   UNL     1      22.039  25.103  17.382  1.00  0.00    -0.003 C 
ATOM     20  C   UNL     1      21.225  26.148  18.145  1.00  0.00     0.004 C 
ENDBRANCH  18  19
ENDBRANCH  17  18
ENDBRANCH  16  17
ENDBRANCH  15  16
ENDBRANCH  14  15
ENDBRANCH  13  14
ENDBRANCH  12  13
ENDBRANCH   1  12
TORSDOF 16
ENDMDL
MODEL 4
REMARK VINA RESULT:    -1.578      3.464      5.910
REMARK INTER + INTRA:          -5.740
REMARK INTER:                  -2.585
REMARK INTRA:                  -3.155
REMARK UNBOUND:                -2.686
REMARK SMILES CCCCCCCCCCCCCCCCCC(=O)[O-]
REMARK SMILES IDX 10 1 11 2 12 3 13 4 14 5 15 6 16 7 17 8 18 9 19 10 20 11
REMARK SMILES IDX 9 12 8 13 7 14 6 15 5 16 4 17 3 18 2 19 1 20
REMARK H PARENT
REMARK Flexibility Score: inf
ROOT
ATOM      1  C   UNL     1      23.927  28.028  16.460  1.00  0.00     0.000 C 
ENDROOT
BRANCH   1   2
ATOM      2  C   UNL     1      24.304  28.964  15.294  1.00  0.00     0.000 C 
BRANCH   2   3
ATOM      3  C   UNL     1      25.145  28.316  14.180  1.00  0.00     0.000 C 
BRANCH   3   4
ATOM      4  C   UNL     1      25.022  29.050  12.837  1.00  0.00     0.000 C 
BRANCH   4   5
ATOM      5  C   UNL     1      23.750  28.620  12.092  1.00  0.00     0.000 C 
BRANCH   5   6
ATOM      6  C   UNL     1      23.471  27.114  12.211  1.00  0.00     0.000 C 
BRANCH   6   7
ATOM      7  C   UNL     1      22.022  26.812  12.631  1.00  0.00     0.006 C 
BRANCH   7   8
ATOM      8  C   UNL     1      21.308  28.054  13.181  1.00  0.00     0.053 C 
BRANCH   8   9
ATOM      9  C   UNL     1      20.124  27.688  14.022  1.00  0.00     0.041 C 
ATOM     10  O   UNL     1      19.188  27.002  13.534  1.00  0.00    -0.550 OA
ATOM     11  O   UNL     1      20.066  28.082  15.353  1.00  0.00    -0.550 OA
ENDBRANCH   8   9
ENDBRANCH   7   8
ENDBRANCH   6   7
ENDBRANCH   5   6
ENDBRANCH   4   5
ENDBRANCH   3   4
ENDBRANCH   2   3
ENDBRANCH   1   2
BRANCH   1  12
ATOM     12  C   UNL     1      23.270  26.699  16.048  1.00  0.00     0.000 C 
BRANCH  12  13
ATOM     13  C   UNL     1      24.037  25.470  16.564  1.00  0.00    -0.000 C 
BRANCH  13  14
ATOM     14  C   UNL     1      25.084  24.965  15.558  1.00  0.00    -0.000 C 
BRANCH  14  15
ATOM     15  C   UNL     1      24.706  23.602  14.950  1.00  0.00    -0.000 C 
BRANCH  15  16
ATOM     16  C   UNL     1      24.030  23.727  13.572  1.00  0.00    -0.000 C 
BRANCH  16  17
ATOM     17  C   UNL     1      22.664  23.029  13.444  1.00  0.00    -0.000 C 
BRANCH  17  18
ATOM     18  C   UNL     1      21.869  23.022  14.762  1.00  0.00    -0.000 C 
BRANCH  18  19
ATOM     19  C   UNL     1      20.747  24.072  14.778  1.00  0.00    -0.003 C 
ATOM     20  C   UNL     1      20.338  24.481  16.193  1.00  0.00     0.004 C 
ENDBRANCH  18  19
ENDBRANCH  17  18
ENDBRANCH  16  17
ENDBRANCH  15  16
ENDBRANCH  14  15
ENDBRANCH  13  14
ENDBRANCH  12  13
ENDBRANCH   1  12
TORSDOF 16
ENDMDL
MODEL 5
REMARK VINA RESULT:    -1.578      1.596      2.843
REMARK INTER + INTRA:          -5.739
REMARK INTER:                  -3.037
REMARK INTRA:                  -2.702
REMARK UNBOUND:                -2.686
REMARK SMILES CCCCCCCCCCCCCCCCCC(=O)[O-]
REMARK SMILES IDX 10 1 11 2 12 3 13 4 14 5 15 6 16 7 17 8 18 9 19 10 20 11
REMARK SMILES IDX 9 12 8 13 7 14 6 15 5 16 4 17 3 18 2 19 1 20
REMARK H PARENT
REMARK Flexibility Score: inf
ROOT
ATOM      1  C   UNL     1      21.573  25.718  12.976  1.00  0.00     0.000 C 
ENDROOT
BRANCH   1   2
ATOM      2  C   UNL     1      20.964  25.899  14.380  1.00  0.00     0.000 C 
BRANCH   2   3
ATOM      3  C   UNL     1      21.833  26.691  15.374  1.00  0.00     0.000 C 
BRANCH   3   4
ATOM      4  C   UNL     1      22.199  25.879  16.625  1.00  0.00     0.000 C 
BRANCH   4   5
ATOM      5  C   UNL     1      22.585  24.440  16.250  1.00  0.00     0.000 C 
BRANCH   5   6
ATOM      6  C   UNL     1      24.071  24.138  16.504  1.00  0.00     0.000 C 
BRANCH   6   7
ATOM      7  C   UNL     1      24.906  24.151  15.213  1.00  0.00     0.006 C 
BRANCH   7   8
ATOM      8  C   UNL     1      25.539  22.783  14.920  1.00  0.00     0.053 C 
BRANCH   8   9
ATOM      9  C   UNL     1      25.283  22.342  13.511  1.00  0.00     0.041 C 
ATOM     10  O   UNL     1      26.125  21.626  12.908  1.00  0.00    -0.550 OA
ATOM     11  O   UNL     1      24.101  22.699  12.874  1.00  0.00    -0.550 OA
ENDBRANCH   8   9
ENDBRANCH   7   8
ENDBRANCH   6   7
ENDBRANCH   5   6
ENDBRANCH   4   5
ENDBRANCH   3   4
ENDBRANCH   2   3
ENDBRANCH   1   2
BRANCH   1  12
ATOM     12  C   UNL     1      23.061  26.094  12.854  1.00  0.00     0.000 C 
BRANCH  12  13
ATOM     13  C   UNL     1      23.303  27.256  11.875  1.00  0.00    -0.000 C 
BRANCH  13  14
ATOM     14  C   UNL     1      23.069  28.630  12.524  1.00  0.00    -0.000 C 
BRANCH  14  15
ATOM     15  C   UNL     1      24.368  29.253  13.066  1.00  0.00    -0.000 C 
BRANCH  15  16
ATOM     16  C   UNL     1      24.577  28.991  14.569  1.00  0.00    -0.000 C 
BRANCH  16  17
ATOM     17  C   UNL     1      25.566  27.861  14.906  1.00  0.00    -0.000 C 
BRANCH  17  18
ATOM     18  C   UNL     1      25.540  27.465  16.393  1.00  0.00    -0.000 C 
BRANCH  18  19
ATOM     19  C   UNL     1      25.062  28.611  17.299  1.00  0.00    -0.003 C 
ATOM     20  C   UNL     1      24.615  28.130  18.679  1.00  0.00     0.004 C 
ENDBRANCH  18  19
ENDBRANCH  17  18
ENDBRANCH  16  17
ENDBRANCH  15  16
ENDBRANCH  14  15
ENDBRANCH  13  14
ENDBRANCH  12  13
ENDBRANCH   1  12
TORSDOF 16
ENDMDL
MODEL 6
REMARK VINA RESULT:    -1.551      1.654      2.312
REMARK INTER + INTRA:          -5.688
REMARK INTER:                  -2.666
REMARK INTRA:                  -3.022
REMARK UNBOUND:                -2.686
REMARK SMILES CCCCCCCCCCCCCCCCCC(=O)[O-]
REMARK SMILES IDX 10 1 11 2 12 3 13 4 14 5 15 6 16 7 17 8 18 9 19 10 20 11
REMARK SMILES IDX 9 12 8 13 7 14 6 15 5 16 4 17 3 18 2 19 1 20
REMARK H PARENT
REMARK Flexibility Score: inf
ROOT
ATOM      1  C   UNL     1      21.393  26.737  15.162  1.00  0.00     0.000 C 
ENDROOT
BRANCH   1   2
ATOM      2  C   UNL     1      21.984  26.156  13.862  1.00  0.00     0.000 C 
BRANCH   2   3
ATOM      3  C   UNL     1      23.041  25.054  14.060  1.00  0.00     0.000 C 
BRANCH   3   4
ATOM      4  C   UNL     1      22.722  24.126  15.241  1.00  0.00     0.000 C 
BRANCH   4   5
ATOM      5  C   UNL     1      23.984  23.390  15.715  1.00  0.00     0.000 C 
BRANCH   5   6
ATOM      6  C   UNL     1      25.256  23.868  14.998  1.00  0.00     0.000 C 
BRANCH   6   7
ATOM      7  C   UNL     1      26.125  22.702  14.495  1.00  0.00     0.006 C 
BRANCH   7   8
ATOM      8  C   UNL     1      25.374  21.364  14.529  1.00  0.00     0.053 C 
BRANCH   8   9
ATOM      9  C   UNL     1      25.034  20.882  13.152  1.00  0.00     0.041 C 
ATOM     10  O   UNL     1      24.577  21.683  12.294  1.00  0.00    -0.550 OA
ATOM     11  O   UNL     1      25.249  19.554  12.807  1.00  0.00    -0.550 OA
ENDBRANCH   8   9
ENDBRANCH   7   8
ENDBRANCH   6   7
ENDBRANCH   5   6
ENDBRANCH   4   5
ENDBRANCH   3   4
ENDBRANCH   2   3
ENDBRANCH   1   2
BRANCH   1  12
ATOM     12  C   UNL     1      21.609  28.247  15.363  1.00  0.00     0.000 C 
BRANCH  12  13
ATOM     13  C   UNL     1      22.339  28.907  14.180  1.00  0.00    -0.000 C 
BRANCH  13  14
ATOM     14  C   UNL     1      23.728  29.439  14.570  1.00  0.00    -0.000 C 
BRANCH  14  15
ATOM     15  C   UNL     1      24.869  28.620  13.942  1.00  0.00    -0.000 C 
BRANCH  15  16
ATOM     16  C   UNL     1      25.559  27.682  14.950  1.00  0.00    -0.000 C 
BRANCH  16  17
ATOM     17  C   UNL     1      25.239  27.960  16.430  1.00  0.00    -0.000 C 
BRANCH  17  18
ATOM     18  C   UNL     1      24.987  26.676  17.240  1.00  0.00    -0.000 C 
BRANCH  18  19
ATOM     19  C   UNL     1      23.944  26.876  18.351  1.00  0.00    -0.003 C 
ATOM     20  C   UNL     1      23.118  25.620  18.623  1.00  0.00     0.004 C 
ENDBRANCH  18  19
ENDBRANCH  17  18
ENDBRANCH  16  17
ENDBRANCH  15  16
ENDBRANCH  14  15
ENDBRANCH  13  14
ENDBRANCH  12  13
ENDBRANCH   1  12
TORSDOF 16
ENDMDL
MODEL 7
REMARK VINA RESULT:    -1.468      1.732      3.608
REMARK INTER + INTRA:          -5.527
REMARK INTER:                  -2.870
REMARK INTRA:                  -2.657
REMARK UNBOUND:                -2.686
REMARK SMILES CCCCCCCCCCCCCCCCCC(=O)[O-]
REMARK SMILES IDX 10 1 11 2 12 3 13 4 14 5 15 6 16 7 17 8 18 9 19 10 20 11
REMARK SMILES IDX 9 12 8 13 7 14 6 15 5 16 4 17 3 18 2 19 1 20
REMARK H PARENT
REMARK Flexibility Score: inf
ROOT
ATOM      1  C   UNL     1      25.079  28.641  13.625  1.00  0.00     0.000 C 
ENDROOT
BRANCH   1   2
ATOM      2  C   UNL     1      24.581  29.006  15.039  1.00  0.00     0.000 C 
BRANCH   2   3
ATOM      3  C   UNL     1      24.898  27.968  16.132  1.00  0.00     0.000 C 
BRANCH   3   4
ATOM      4  C   UNL     1      26.008  26.990  15.721  1.00  0.00     0.000 C 
BRANCH   4   5
ATOM      5  C   UNL     1      25.465  25.557  15.621  1.00  0.00     0.000 C 
BRANCH   5   6
ATOM      6  C   UNL     1      23.932  25.494  15.709  1.00  0.00     0.000 C 
BRANCH   6   7
ATOM      7  C   UNL     1      23.374  24.112  15.326  1.00  0.00     0.006 C 
BRANCH   7   8
ATOM      8  C   UNL     1      24.479  23.053  15.214  1.00  0.00     0.053 C 
BRANCH   8   9
ATOM      9  C   UNL     1      24.765  22.695  13.788  1.00  0.00     0.041 C 
ATOM     10  O   UNL     1      23.884  22.864  12.903  1.00  0.00    -0.550 OA
ATOM     11  O   UNL     1      26.013  22.202  13.430  1.00  0.00    -0.550 OA
ENDBRANCH   8   9
ENDBRANCH   7   8
ENDBRANCH   6   7
ENDBRANCH   5   6
ENDBRANCH   4   5
ENDBRANCH   3   4
ENDBRANCH   2   3
ENDBRANCH   1   2
BRANCH   1  12
ATOM     12  C   UNL     1      24.281  29.267  12.468  1.00  0.00     0.000 C 
BRANCH  12  13
ATOM     13  C   UNL     1      23.237  28.305  11.875  1.00  0.00    -0.000 C 
BRANCH  13  14
ATOM     14  C   UNL     1      23.510  26.838  12.248  1.00  0.00    -0.000 C 
BRANCH  14  15
ATOM     15  C   UNL     1      22.220  26.005  12.343  1.00  0.00    -0.000 C 
BRANCH  15  16
ATOM     16  C   UNL     1      20.962  26.870  12.551  1.00  0.00    -0.000 C 
BRANCH  16  17
ATOM     17  C   UNL     1      20.371  26.837  13.972  1.00  0.00    -0.000 C 
BRANCH  17  18
ATOM     18  C   UNL     1      19.922  28.224  14.467  1.00  0.00    -0.000 C 
BRANCH  18  19
ATOM     19  C   UNL     1      20.955  28.880  15.397  1.00  0.00    -0.003 C 
ATOM     20  C   UNL     1      21.263  28.034  16.632  1.00  0.00     0.004 C 
ENDBRANCH  18  19
ENDBRANCH  17  18
ENDBRANCH  16  17
ENDBRANCH  15  16
ENDBRANCH  14  15
ENDBRANCH  13  14
ENDBRANCH  12  13
ENDBRANCH   1  12
TORSDOF 16
ENDMDL
