MODEL 1
REMARK VINA RESULT:     0.000      0.000      0.000
REMARK INTER + INTRA:          -0.276
REMARK INTER:                   0.000
REMARK INTRA:                  -0.276
REMARK UNBOUND:                -0.276
REMARK SMILES C=C1CC[C@H](C(C)C)[C@H]2C=C(C)CC[C@H]12
REMARK SMILES IDX 12 1 11 2 10 3 9 4 15 5 14 6 13 7 2 8 1 9 3 10 4 11 5 12
REMARK SMILES IDX 6 13 7 14 8 15
REMARK H PARENT
REMARK Flexibility Score: inf
ROOT
ATOM      1  C   UNL     1       9.585  20.868  27.847  1.00  0.00     0.039 C 
ATOM      2  C   UNL     1       8.616  21.468  26.864  1.00  0.00    -0.077 C 
ATOM      3  C   UNL     1       8.141  22.714  27.089  1.00  0.00    -0.024 C 
ATOM      4  C   UNL     1       7.228  23.453  26.119  1.00  0.00     0.022 C 
ATOM      5  C   UNL     1       6.477  22.437  25.217  1.00  0.00     0.022 C 
ATOM      6  C   UNL     1       7.470  21.435  24.604  1.00  0.00     0.013 C 
ATOM      7  C   UNL     1       8.127  20.614  25.714  1.00  0.00     0.031 C 
ATOM      8  C   UNL     1       5.623  23.193  24.216  1.00  0.00    -0.074 C 
ATOM      9  C   UNL     1       5.791  23.145  22.881  1.00  0.00     0.008 C 
ATOM     10  C   UNL     1       4.600  24.112  24.822  1.00  0.00     0.031 C 
ATOM     11  C   UNL     1       5.303  25.106  25.750  1.00  0.00     0.009 C 
ATOM     12  C   UNL     1       6.197  24.415  26.822  1.00  0.00    -0.001 C 
ENDROOT
BRANCH  12  13
ATOM     13  C   UNL     1       6.796  25.532  27.758  1.00  0.00    -0.014 C 
ATOM     14  C   UNL     1       5.754  26.296  28.591  1.00  0.00     0.007 C 
ATOM     15  C   UNL     1       7.760  26.486  27.032  1.00  0.00     0.007 C 
ENDBRANCH  12  13
TORSDOF 1
ENDMDL
MODEL 2
REMARK VINA RESULT:     0.000      3.440      5.661
REMARK INTER + INTRA:          -0.276
REMARK INTER:                   0.000
REMARK INTRA:                  -0.276
REMARK UNBOUND:                -0.276
REMARK SMILES C=C1CC[C@H](C(C)C)[C@H]2C=C(C)CC[C@H]12
REMARK SMILES IDX 12 1 11 2 10 3 9 4 15 5 14 6 13 7 2 8 1 9 3 10 4 11 5 12
REMARK SMILES IDX 6 13 7 14 8 15
REMARK H PARENT
REMARK Flexibility Score: inf
ROOT
ATOM      1  C   UNL     1       9.170  21.716  25.182  1.00  0.00     0.039 C 
ATOM      2  C   UNL     1       7.752  21.219  25.246  1.00  0.00    -0.077 C 
ATOM      3  C   UNL     1       7.462  20.163  26.040  1.00  0.00    -0.024 C 
ATOM      4  C   UNL     1       6.050  19.632  26.251  1.00  0.00     0.022 C 
ATOM      5  C   UNL     1       5.147  20.032  25.053  1.00  0.00     0.022 C 
ATOM      6  C   UNL     1       5.284  21.536  24.764  1.00  0.00     0.013 C 
ATOM      7  C   UNL     1       6.719  21.852  24.339  1.00  0.00     0.031 C 
ATOM      8  C   UNL     1       3.731  19.551  25.312  1.00  0.00    -0.074 C 
ATOM      9  C   UNL     1       2.664  20.360  25.445  1.00  0.00     0.008 C 
ATOM     10  C   UNL     1       3.593  18.069  25.516  1.00  0.00     0.031 C 
ATOM     11  C   UNL     1       4.501  17.632  26.668  1.00  0.00     0.009 C 
ATOM     12  C   UNL     1       5.983  18.075  26.482  1.00  0.00    -0.001 C 
ENDROOT
BRANCH  12  13
ATOM     13  C   UNL     1       6.824  17.500  27.683  1.00  0.00    -0.014 C 
ATOM     14  C   UNL     1       6.906  15.966  27.731  1.00  0.00     0.007 C 
ATOM     15  C   UNL     1       6.429  18.096  29.046  1.00  0.00     0.007 C 
ENDBRANCH  12  13
TORSDOF 1
ENDMDL
MODEL 3
REMARK VINA RESULT:     0.000      5.806      7.653
REMARK INTER + INTRA:          -0.276
REMARK INTER:                   0.000
REMARK INTRA:                  -0.276
REMARK UNBOUND:                -0.276
REMARK SMILES C=C1CC[C@H](C(C)C)[C@H]2C=C(C)CC[C@H]12
REMARK SMILES IDX 12 1 11 2 10 3 9 4 15 5 14 6 13 7 2 8 1 9 3 10 4 11 5 12
REMARK SMILES IDX 6 13 7 14 8 15
REMARK H PARENT
REMARK Flexibility Score: inf
ROOT
ATOM      1  C   UNL     1       6.980  23.732  29.185  1.00  0.00     0.039 C 
ATOM      2  C   UNL     1       6.752  22.527  30.057  1.00  0.00    -0.077 C 
ATOM      3  C   UNL     1       6.918  22.645  31.395  1.00  0.00    -0.024 C 
ATOM      4  C   UNL     1       6.629  21.519  32.380  1.00  0.00     0.022 C 
ATOM      5  C   UNL     1       6.712  20.147  31.659  1.00  0.00     0.022 C 
ATOM      6  C   UNL     1       5.870  20.172  30.371  1.00  0.00     0.013 C 
ATOM      7  C   UNL     1       6.447  21.201  29.397  1.00  0.00     0.031 C 
ATOM      8  C   UNL     1       6.358  19.044  32.639  1.00  0.00    -0.074 C 
ATOM      9  C   UNL     1       5.298  18.225  32.514  1.00  0.00     0.008 C 
ATOM     10  C   UNL     1       7.233  18.975  33.858  1.00  0.00     0.031 C 
ATOM     11  C   UNL     1       7.206  20.328  34.575  1.00  0.00     0.009 C 
ATOM     12  C   UNL     1       7.569  21.522  33.644  1.00  0.00    -0.001 C 
ENDROOT
BRANCH  12  13
ATOM     13  C   UNL     1       7.585  22.836  34.512  1.00  0.00    -0.014 C 
ATOM     14  C   UNL     1       8.674  22.876  35.596  1.00  0.00     0.007 C 
ATOM     15  C   UNL     1       6.203  23.214  35.074  1.00  0.00     0.007 C 
ENDBRANCH  12  13
TORSDOF 1
ENDMDL
MODEL 4
REMARK VINA RESULT:     0.000      6.431      9.672
REMARK INTER + INTRA:          -0.276
REMARK INTER:                   0.000
REMARK INTRA:                  -0.276
REMARK UNBOUND:                -0.276
REMARK SMILES C=C1CC[C@H](C(C)C)[C@H]2C=C(C)CC[C@H]12
REMARK SMILES IDX 12 1 11 2 10 3 9 4 15 5 14 6 13 7 2 8 1 9 3 10 4 11 5 12
REMARK SMILES IDX 6 13 7 14 8 15
REMARK H PARENT
REMARK Flexibility Score: inf
ROOT
ATOM      1  C   UNL     1      10.543  25.221  28.369  1.00  0.00     0.039 C 
ATOM      2  C   UNL     1      11.215  25.248  29.715  1.00  0.00    -0.077 C 
ATOM      3  C   UNL     1      12.257  24.417  29.944  1.00  0.00    -0.024 C 
ATOM      4  C   UNL     1      13.066  24.420  31.234  1.00  0.00     0.022 C 
ATOM      5  C   UNL     1      12.221  25.017  32.392  1.00  0.00     0.022 C 
ATOM      6  C   UNL     1      11.602  26.357  31.960  1.00  0.00     0.013 C 
ATOM      7  C   UNL     1      10.633  26.129  30.799  1.00  0.00     0.031 C 
ATOM      8  C   UNL     1      13.065  25.072  33.651  1.00  0.00    -0.074 C 
ATOM      9  C   UNL     1      13.406  26.206  34.291  1.00  0.00     0.008 C 
ATOM     10  C   UNL     1      13.602  23.747  34.113  1.00  0.00     0.031 C 
ATOM     11  C   UNL     1      14.412  23.110  32.980  1.00  0.00     0.009 C 
ATOM     12  C   UNL     1      13.618  23.002  31.645  1.00  0.00    -0.001 C 
ENDROOT
BRANCH  12  13
ATOM     13  C   UNL     1      14.525  22.263  30.590  1.00  0.00    -0.014 C 
ATOM     14  C   UNL     1      14.852  20.802  30.938  1.00  0.00     0.007 C 
ATOM     15  C   UNL     1      15.786  23.056  30.206  1.00  0.00     0.007 C 
ENDBRANCH  12  13
TORSDOF 1
ENDMDL
MODEL 5
REMARK VINA RESULT:     0.000      3.019      5.549
REMARK INTER + INTRA:          -0.276
REMARK INTER:                   0.000
REMARK INTRA:                  -0.276
REMARK UNBOUND:                -0.276
REMARK SMILES C=C1CC[C@H](C(C)C)[C@H]2C=C(C)CC[C@H]12
REMARK SMILES IDX 12 1 11 2 10 3 9 4 15 5 14 6 13 7 2 8 1 9 3 10 4 11 5 12
REMARK SMILES IDX 6 13 7 14 8 15
REMARK H PARENT
REMARK Flexibility Score: inf
ROOT
ATOM      1  C   UNL     1      12.195  24.412  26.388  1.00  0.00     0.039 C 
ATOM      2  C   UNL     1      10.975  23.545  26.533  1.00  0.00    -0.077 C 
ATOM      3  C   UNL     1      10.878  22.419  25.789  1.00  0.00    -0.024 C 
ATOM      4  C   UNL     1       9.734  21.423  25.917  1.00  0.00     0.022 C 
ATOM      5  C   UNL     1       8.483  22.122  26.515  1.00  0.00     0.022 C 
ATOM      6  C   UNL     1       8.868  22.901  27.785  1.00  0.00     0.013 C 
ATOM      7  C   UNL     1       9.851  24.017  27.429  1.00  0.00     0.031 C 
ATOM      8  C   UNL     1       7.377  21.100  26.695  1.00  0.00    -0.074 C 
ATOM      9  C   UNL     1       6.848  20.751  27.882  1.00  0.00     0.008 C 
ATOM     10  C   UNL     1       6.951  20.398  25.437  1.00  0.00     0.031 C 
ATOM     11  C   UNL     1       8.170  19.727  24.797  1.00  0.00     0.009 C 
ATOM     12  C   UNL     1       9.357  20.708  24.564  1.00  0.00    -0.001 C 
ENDROOT
BRANCH  12  13
ATOM     13  C   UNL     1      10.509  19.921  23.834  1.00  0.00    -0.014 C 
ATOM     14  C   UNL     1      10.156  19.434  22.419  1.00  0.00     0.007 C 
ATOM     15  C   UNL     1      11.121  18.799  24.690  1.00  0.00     0.007 C 
ENDBRANCH  12  13
TORSDOF 1
ENDMDL
MODEL 6
REMARK VINA RESULT:     0.000      2.975      4.648
REMARK INTER + INTRA:          -0.276
REMARK INTER:                   0.000
REMARK INTRA:                  -0.276
REMARK UNBOUND:                -0.276
REMARK SMILES C=C1CC[C@H](C(C)C)[C@H]2C=C(C)CC[C@H]12
REMARK SMILES IDX 12 1 11 2 10 3 9 4 15 5 14 6 13 7 2 8 1 9 3 10 4 11 5 12
REMARK SMILES IDX 6 13 7 14 8 15
REMARK H PARENT
REMARK Flexibility Score: inf
ROOT
ATOM      1  C   UNL     1       7.728  22.474  32.702  1.00  0.00     0.039 C 
ATOM      2  C   UNL     1       8.258  23.156  31.470  1.00  0.00    -0.077 C 
ATOM      3  C   UNL     1       7.385  23.729  30.610  1.00  0.00    -0.024 C 
ATOM      4  C   UNL     1       7.812  24.521  29.381  1.00  0.00     0.022 C 
ATOM      5  C   UNL     1       9.237  24.090  28.940  1.00  0.00     0.022 C 
ATOM      6  C   UNL     1      10.195  24.111  30.143  1.00  0.00     0.013 C 
ATOM      7  C   UNL     1       9.742  23.084  31.182  1.00  0.00     0.031 C 
ATOM      8  C   UNL     1       9.670  24.934  27.755  1.00  0.00    -0.074 C 
ATOM      9  C   UNL     1      10.719  25.777  27.764  1.00  0.00     0.008 C 
ATOM     10  C   UNL     1       8.772  24.848  26.554  1.00  0.00     0.031 C 
ATOM     11  C   UNL     1       7.347  25.230  26.962  1.00  0.00     0.009 C 
ATOM     12  C   UNL     1       6.813  24.404  28.169  1.00  0.00    -0.001 C 
ENDROOT
BRANCH  12  13
ATOM     13  C   UNL     1       5.321  24.831  28.437  1.00  0.00    -0.014 C 
ATOM     14  C   UNL     1       4.343  24.490  27.301  1.00  0.00     0.007 C 
ATOM     15  C   UNL     1       5.177  26.291  28.898  1.00  0.00     0.007 C 
ENDBRANCH  12  13
TORSDOF 1
ENDMDL
MODEL 7
REMARK VINA RESULT:     0.000      9.348     12.033
REMARK INTER + INTRA:          -0.276
REMARK INTER:                   0.000
REMARK INTRA:                  -0.276
REMARK UNBOUND:                -0.276
REMARK SMILES C=C1CC[C@H](C(C)C)[C@H]2C=C(C)CC[C@H]12
REMARK SMILES IDX 12 1 11 2 10 3 9 4 15 5 14 6 13 7 2 8 1 9 3 10 4 11 5 12
REMARK SMILES IDX 6 13 7 14 8 15
REMARK H PARENT
REMARK Flexibility Score: inf
ROOT
ATOM      1  C   UNL     1       8.246  28.444  38.825  1.00  0.00     0.039 C 
ATOM      2  C   UNL     1       8.655  27.519  37.712  1.00  0.00    -0.077 C 
ATOM      3  C   UNL     1       9.101  26.279  38.020  1.00  0.00    -0.024 C 
ATOM      4  C   UNL     1       9.457  25.230  36.975  1.00  0.00     0.022 C 
ATOM      5  C   UNL     1       9.807  25.918  35.628  1.00  0.00     0.022 C 
ATOM      6  C   UNL     1       8.712  26.929  35.248  1.00  0.00     0.013 C 
ATOM      7  C   UNL     1       8.653  28.044  36.293  1.00  0.00     0.031 C 
ATOM      8  C   UNL     1      10.095  24.856  34.584  1.00  0.00    -0.074 C 
ATOM      9  C   UNL     1       9.371  24.672  33.464  1.00  0.00     0.008 C 
ATOM     10  C   UNL     1      11.219  23.919  34.926  1.00  0.00     0.031 C 
ATOM     11  C   UNL     1      10.924  23.249  36.271  1.00  0.00     0.009 C 
ATOM     12  C   UNL     1      10.626  24.268  37.410  1.00  0.00    -0.001 C 
ENDROOT
BRANCH  12  13
ATOM     13  C   UNL     1      10.421  23.464  38.749  1.00  0.00    -0.014 C 
ATOM     14  C   UNL     1      11.669  22.718  39.246  1.00  0.00     0.007 C 
ATOM     15  C   UNL     1       9.179  22.556  38.733  1.00  0.00     0.007 C 
ENDBRANCH  12  13
TORSDOF 1
ENDMDL
MODEL 8
REMARK VINA RESULT:     0.000      9.173     11.516
REMARK INTER + INTRA:          -0.276
REMARK INTER:                   0.000
REMARK INTRA:                  -0.276
REMARK UNBOUND:                -0.276
REMARK SMILES C=C1CC[C@H](C(C)C)[C@H]2C=C(C)CC[C@H]12
REMARK SMILES IDX 12 1 11 2 10 3 9 4 15 5 14 6 13 7 2 8 1 9 3 10 4 11 5 12
REMARK SMILES IDX 6 13 7 14 8 15
REMARK H PARENT
REMARK Flexibility Score: inf
ROOT
ATOM      1  C   UNL     1      15.382  25.327  29.953  1.00  0.00     0.039 C 
ATOM      2  C   UNL     1      15.320  26.071  31.260  1.00  0.00    -0.077 C 
ATOM      3  C   UNL     1      14.233  26.827  31.533  1.00  0.00    -0.024 C 
ATOM      4  C   UNL     1      14.023  27.550  32.858  1.00  0.00     0.022 C 
ATOM      5  C   UNL     1      15.389  27.793  33.554  1.00  0.00     0.022 C 
ATOM      6  C   UNL     1      16.202  26.487  33.599  1.00  0.00     0.013 C 
ATOM      7  C   UNL     1      16.524  26.029  32.176  1.00  0.00     0.031 C 
ATOM      8  C   UNL     1      15.155  28.454  34.899  1.00  0.00    -0.074 C 
ATOM      9  C   UNL     1      15.475  27.903  36.085  1.00  0.00     0.008 C 
ATOM     10  C   UNL     1      14.430  29.769  34.841  1.00  0.00     0.031 C 
ATOM     11  C   UNL     1      13.091  29.574  34.125  1.00  0.00     0.009 C 
ATOM     12  C   UNL     1      13.236  28.908  32.725  1.00  0.00    -0.001 C 
ENDROOT
BRANCH  12  13
ATOM     13  C   UNL     1      11.808  28.838  32.063  1.00  0.00    -0.014 C 
ATOM     14  C   UNL     1      11.178  30.205  31.752  1.00  0.00     0.007 C 
ATOM     15  C   UNL     1      10.832  27.914  32.811  1.00  0.00     0.007 C 
ENDBRANCH  12  13
TORSDOF 1
ENDMDL
MODEL 9
REMARK VINA RESULT:     0.000      7.123      8.931
REMARK INTER + INTRA:          -0.276
REMARK INTER:                   0.000
REMARK INTRA:                  -0.276
REMARK UNBOUND:                -0.276
REMARK SMILES C=C1CC[C@H](C(C)C)[C@H]2C=C(C)CC[C@H]12
REMARK SMILES IDX 12 1 11 2 10 3 9 4 15 5 14 6 13 7 2 8 1 9 3 10 4 11 5 12
REMARK SMILES IDX 6 13 7 14 8 15
REMARK H PARENT
REMARK Flexibility Score: inf
ROOT
ATOM      1  C   UNL     1       6.491  21.022  29.955  1.00  0.00     0.039 C 
ATOM      2  C   UNL     1       5.716  21.651  31.081  1.00  0.00    -0.077 C 
ATOM      3  C   UNL     1       5.032  20.853  31.932  1.00  0.00    -0.024 C 
ATOM      4  C   UNL     1       4.288  21.371  33.156  1.00  0.00     0.022 C 
ATOM      5  C   UNL     1       3.926  22.868  32.964  1.00  0.00     0.022 C 
ATOM      6  C   UNL     1       5.168  23.662  32.522  1.00  0.00     0.013 C 
ATOM      7  C   UNL     1       5.643  23.160  31.158  1.00  0.00     0.031 C 
ATOM      8  C   UNL     1       3.244  23.383  34.218  1.00  0.00    -0.074 C 
ATOM      9  C   UNL     1       3.735  24.356  35.008  1.00  0.00     0.008 C 
ATOM     10  C   UNL     1       1.988  22.653  34.601  1.00  0.00     0.031 C 
ATOM     11  C   UNL     1       2.300  21.163  34.762  1.00  0.00     0.009 C 
ATOM     12  C   UNL     1       2.994  20.545  33.513  1.00  0.00    -0.001 C 
ENDROOT
BRANCH  12  13
ATOM     13  C   UNL     1       3.187  19.003  33.769  1.00  0.00    -0.014 C 
ATOM     14  C   UNL     1       1.879  18.205  33.890  1.00  0.00     0.007 C 
ATOM     15  C   UNL     1       4.157  18.691  34.922  1.00  0.00     0.007 C 
ENDBRANCH  12  13
TORSDOF 1
ENDMDL
