MODEL 1
REMARK VINA RESULT:    -2.522      0.000      0.000
REMARK INTER + INTRA:          -2.522
REMARK INTER:                  -2.522
REMARK INTRA:                   0.000
REMARK UNBOUND:                 0.000
REMARK SMILES CC(=O)[O-]
REMARK SMILES IDX 1 1 2 2 3 3 4 4
REMARK H PARENT
REMARK Flexibility Score: inf
ROOT
ATOM      1  C   UNL     1      -4.114   2.166  -7.736  1.00  0.00     0.063 C 
ATOM      2  C   UNL     1      -4.680   3.254  -6.888  1.00  0.00     0.038 C 
ATOM      3  O   UNL     1      -3.991   4.277  -6.631  1.00  0.00    -0.550 OA
ATOM      4  O   UNL     1      -5.946   3.119  -6.335  1.00  0.00    -0.550 OA
ENDROOT
TORSDOF 0
ENDMDL
MODEL 2
REMARK VINA RESULT:    -2.498      1.471      1.932
REMARK INTER + INTRA:          -2.498
REMARK INTER:                  -2.498
REMARK INTRA:                   0.000
REMARK UNBOUND:                 0.000
REMARK SMILES CC(=O)[O-]
REMARK SMILES IDX 1 1 2 2 3 3 4 4
REMARK H PARENT
REMARK Flexibility Score: inf
ROOT
ATOM      1  C   UNL     1      -6.096   2.737  -7.330  1.00  0.00     0.063 C 
ATOM      2  C   UNL     1      -4.624   2.952  -7.231  1.00  0.00     0.038 C 
ATOM      3  O   UNL     1      -3.827   2.066  -7.638  1.00  0.00    -0.550 OA
ATOM      4  O   UNL     1      -4.127   4.106  -6.639  1.00  0.00    -0.550 OA
ENDROOT
TORSDOF 0
ENDMDL
MODEL 3
REMARK VINA RESULT:    -2.471     12.737     13.051
REMARK INTER + INTRA:          -2.471
REMARK INTER:                  -2.471
REMARK INTRA:                   0.000
REMARK UNBOUND:                 0.000
REMARK SMILES CC(=O)[O-]
REMARK SMILES IDX 1 1 2 2 3 3 4 4
REMARK H PARENT
REMARK Flexibility Score: inf
ROOT
ATOM      1  C   UNL     1      -2.225   7.265   4.972  1.00  0.00     0.063 C 
ATOM      2  C   UNL     1      -2.969   6.117   5.565  1.00  0.00     0.038 C 
ATOM      3  O   UNL     1      -3.300   5.139   4.845  1.00  0.00    -0.550 OA
ATOM      4  O   UNL     1      -3.349   6.149   6.901  1.00  0.00    -0.550 OA
ENDROOT
TORSDOF 0
ENDMDL
MODEL 4
REMARK VINA RESULT:    -2.461     13.013     13.459
REMARK INTER + INTRA:          -2.461
REMARK INTER:                  -2.461
REMARK INTRA:                   0.000
REMARK UNBOUND:                 0.000
REMARK SMILES CC(=O)[O-]
REMARK SMILES IDX 1 1 2 2 3 3 4 4
REMARK H PARENT
REMARK Flexibility Score: inf
ROOT
ATOM      1  C   UNL     1      -1.956  -7.783  -2.889  1.00  0.00     0.063 C 
ATOM      2  C   UNL     1      -2.223  -9.250  -2.898  1.00  0.00     0.038 C 
ATOM      3  O   UNL     1      -3.289  -9.695  -3.398  1.00  0.00    -0.550 OA
ATOM      4  O   UNL     1      -1.323 -10.125  -2.304  1.00  0.00    -0.550 OA
ENDROOT
TORSDOF 0
ENDMDL
MODEL 5
REMARK VINA RESULT:    -2.403     12.169     12.510
REMARK INTER + INTRA:          -2.403
REMARK INTER:                  -2.403
REMARK INTRA:                   0.000
REMARK UNBOUND:                 0.000
REMARK SMILES CC(=O)[O-]
REMARK SMILES IDX 1 1 2 2 3 3 4 4
REMARK H PARENT
REMARK Flexibility Score: inf
ROOT
ATOM      1  C   UNL     1      -3.841  -7.565  -1.698  1.00  0.00     0.063 C 
ATOM      2  C   UNL     1      -2.859  -8.264  -2.576  1.00  0.00     0.038 C 
ATOM      3  O   UNL     1      -1.773  -7.703  -2.881  1.00  0.00    -0.550 OA
ATOM      4  O   UNL     1      -3.162  -9.512  -3.104  1.00  0.00    -0.550 OA
ENDROOT
TORSDOF 0
ENDMDL
MODEL 6
REMARK VINA RESULT:    -2.377     11.987     12.321
REMARK INTER + INTRA:          -2.377
REMARK INTER:                  -2.377
REMARK INTRA:                   0.000
REMARK UNBOUND:                 0.000
REMARK SMILES CC(=O)[O-]
REMARK SMILES IDX 1 1 2 2 3 3 4 4
REMARK H PARENT
REMARK Flexibility Score: inf
ROOT
ATOM      1  C   UNL     1      -2.236  -9.483  -2.982  1.00  0.00     0.063 C 
ATOM      2  C   UNL     1      -2.568  -8.082  -2.594  1.00  0.00     0.038 C 
ATOM      3  O   UNL     1      -1.807  -7.137  -2.929  1.00  0.00    -0.550 OA
ATOM      4  O   UNL     1      -3.688  -7.823  -1.815  1.00  0.00    -0.550 OA
ENDROOT
TORSDOF 0
ENDMDL
MODEL 7
REMARK VINA RESULT:    -2.358     13.887     14.268
REMARK INTER + INTRA:          -2.358
REMARK INTER:                  -2.358
REMARK INTRA:                   0.000
REMARK UNBOUND:                 0.000
REMARK SMILES CC(=O)[O-]
REMARK SMILES IDX 1 1 2 2 3 3 4 4
REMARK H PARENT
REMARK Flexibility Score: inf
ROOT
ATOM      1  C   UNL     1      -2.235   7.508   5.004  1.00  0.00     0.063 C 
ATOM      2  C   UNL     1      -2.566   8.227   6.268  1.00  0.00     0.038 C 
ATOM      3  O   UNL     1      -2.585   7.605   7.362  1.00  0.00    -0.550 OA
ATOM      4  O   UNL     1      -2.909   9.572   6.234  1.00  0.00    -0.550 OA
ENDROOT
TORSDOF 0
ENDMDL
MODEL 8
REMARK VINA RESULT:    -2.354      2.443      2.753
REMARK INTER + INTRA:          -2.354
REMARK INTER:                  -2.354
REMARK INTRA:                   0.000
REMARK UNBOUND:                 0.000
REMARK SMILES CC(=O)[O-]
REMARK SMILES IDX 1 1 2 2 3 3 4 4
REMARK H PARENT
REMARK Flexibility Score: inf
ROOT
ATOM      1  C   UNL     1      -2.075   3.760  -9.113  1.00  0.00     0.063 C 
ATOM      2  C   UNL     1      -2.944   4.686  -8.331  1.00  0.00     0.038 C 
ATOM      3  O   UNL     1      -2.921   5.923  -8.566  1.00  0.00    -0.550 OA
ATOM      4  O   UNL     1      -3.739   4.194  -7.305  1.00  0.00    -0.550 OA
ENDROOT
TORSDOF 0
ENDMDL
MODEL 9
REMARK VINA RESULT:    -2.337     12.727     13.140
REMARK INTER + INTRA:          -2.337
REMARK INTER:                  -2.337
REMARK INTRA:                   0.000
REMARK UNBOUND:                 0.000
REMARK SMILES CC(=O)[O-]
REMARK SMILES IDX 1 1 2 2 3 3 4 4
REMARK H PARENT
REMARK Flexibility Score: inf
ROOT
ATOM      1  C   UNL     1      -2.263   8.202   6.434  1.00  0.00     0.063 C 
ATOM      2  C   UNL     1      -2.490   7.597   5.089  1.00  0.00     0.038 C 
ATOM      3  O   UNL     1      -2.971   8.293   4.157  1.00  0.00    -0.550 OA
ATOM      4  O   UNL     1      -2.223   6.251   4.877  1.00  0.00    -0.550 OA
ENDROOT
TORSDOF 0
ENDMDL
