MODEL 1
REMARK VINA RESULT:    -2.833      0.000      0.000
REMARK INTER + INTRA:          -4.304
REMARK INTER:                  -4.324
REMARK INTRA:                   0.020
REMARK UNBOUND:                 0.020
REMARK SMILES CC1=CCC[C@@H](C)C(=O)C[C@H](C(C)C)C(=O)C1
REMARK SMILES IDX 8 1 9 2 6 3 7 4 5 5 4 6 3 7 2 8 1 9 10 11 11 12 15 13 16 14
REMARK SMILES IDX 17 15 12 17 13 18 14 19
REMARK H PARENT
REMARK Flexibility Score: 70.00
ROOT
ATOM      1  C   UNL     1      20.164   3.148  22.951  1.00  0.00     0.136 C 
ATOM      2  O   UNL     1      21.228   3.573  22.523  1.00  0.00    -0.299 OA
ENDROOT
BRANCH   1   3
ATOM      3  C   UNL     1      19.896   3.149  24.442  1.00  0.00     0.053 C 
ATOM      4  C   UNL     1      20.615   4.338  25.086  1.00  0.00     0.016 C 
BRANCH   3   5
ATOM      5  C   UNL     1      20.341   1.828  25.109  1.00  0.00     0.015 C 
BRANCH   5   6
ATOM      6  C   UNL     1      19.285   0.716  25.020  1.00  0.00     0.028 C 
BRANCH   6   7
ATOM      7  C   UNL     1      19.827  -0.501  24.310  1.00  0.00    -0.028 C 
ATOM      8  C   UNL     1      19.546  -0.866  23.039  1.00  0.00    -0.070 CG0
ATOM      9  C   UNL     1      20.182  -2.126  22.509  1.00  0.00     0.039 C 
ATOM     10  G   UNL     1      18.596  -0.097  22.141  1.00  0.00     0.000 G0
ENDBRANCH   6   7
ENDBRANCH   5   6
ENDBRANCH   3   5
ENDBRANCH   1   3
BRANCH   1  11
ATOM     11  C   UNL     1      19.122   2.669  21.974  1.00  0.00     0.087 C 
BRANCH  11  12
ATOM     12  C   UNL     1      19.750   1.854  20.814  1.00  0.00     0.066 C 
BRANCH  12  13
ATOM     13  C   UNL     1      19.276   0.412  20.903  1.00  0.00     0.140 C 
ATOM     14  O   UNL     1      19.527  -0.360  19.988  1.00  0.00    -0.299 OA
BRANCH  13  15
ATOM     15  C   UNL     1      18.584  -0.116  22.135  1.00  0.00     0.106 CG0
ATOM     16  G   UNL     1      19.554  -0.866  23.027  1.00  0.00     0.000 G0
ENDBRANCH  13  15
ENDBRANCH  12  13
BRANCH  12  17
ATOM     17  C   UNL     1      19.407   2.454  19.411  1.00  0.00    -0.006 C 
ATOM     18  C   UNL     1      17.928   2.882  19.307  1.00  0.00     0.008 C 
ATOM     19  C   UNL     1      20.292   3.673  19.084  1.00  0.00     0.008 C 
ENDBRANCH  12  17
ENDBRANCH  11  12
ENDBRANCH   1  11
TORSDOF 1
ENDMDL
MODEL 2
REMARK VINA RESULT:    -2.828      1.721      3.766
REMARK INTER + INTRA:          -4.296
REMARK INTER:                  -5.219
REMARK INTRA:                   0.923
REMARK UNBOUND:                 0.020
REMARK SMILES CC1=CCC[C@@H](C)C(=O)C[C@H](C(C)C)C(=O)C1
REMARK SMILES IDX 8 1 9 2 6 3 7 4 5 5 4 6 3 7 2 8 1 9 10 11 11 12 15 13 16 14
REMARK SMILES IDX 17 15 12 17 13 18 14 19
REMARK H PARENT
REMARK Flexibility Score: 70.00
ROOT
ATOM      1  C   UNL     1      19.004  -0.070  22.160  1.00  0.00     0.136 C 
ATOM      2  O   UNL     1      17.850  -0.175  22.551  1.00  0.00    -0.299 OA
ENDROOT
BRANCH   1   3
ATOM      3  C   UNL     1      20.125  -0.750  22.918  1.00  0.00     0.053 C 
ATOM      4  C   UNL     1      20.045  -2.263  22.692  1.00  0.00     0.016 C 
BRANCH   3   5
ATOM      5  C   UNL     1      20.074  -0.432  24.430  1.00  0.00     0.015 C 
BRANCH   5   6
ATOM      6  C   UNL     1      19.561   0.984  24.736  1.00  0.00     0.028 C 
BRANCH   6   7
ATOM      7  C   UNL     1      20.694   1.979  24.792  1.00  0.00    -0.028 C 
ATOM      8  C   UNL     1      20.769   3.132  24.091  1.00  0.00    -0.070 CG0
ATOM      9  C   UNL     1      21.992   3.994  24.278  1.00  0.00     0.039 C 
ATOM     10  G   UNL     1      19.710   3.578  23.101  1.00  0.00     0.000 G0
ENDBRANCH   6   7
ENDBRANCH   5   6
ENDBRANCH   3   5
ENDBRANCH   1   3
BRANCH   1  11
ATOM     11  C   UNL     1      19.280   0.706  20.897  1.00  0.00     0.087 C 
BRANCH  11  12
ATOM     12  C   UNL     1      18.842   2.187  21.024  1.00  0.00     0.066 C 
BRANCH  12  13
ATOM     13  C   UNL     1      19.933   2.972  21.735  1.00  0.00     0.140 C 
ATOM     14  O   UNL     1      20.996   3.175  21.163  1.00  0.00    -0.299 OA
BRANCH  13  15
ATOM     15  C   UNL     1      19.706   3.587  23.093  1.00  0.00     0.106 CG0
ATOM     16  G   UNL     1      20.761   3.130  24.082  1.00  0.00     0.000 G0
ENDBRANCH  13  15
ENDBRANCH  12  13
BRANCH  12  17
ATOM     17  C   UNL     1      18.522   2.835  19.636  1.00  0.00    -0.006 C 
ATOM     18  C   UNL     1      19.130   4.246  19.500  1.00  0.00     0.008 C 
ATOM     19  C   UNL     1      19.040   1.966  18.473  1.00  0.00     0.008 C 
ENDBRANCH  12  17
ENDBRANCH  11  12
ENDBRANCH   1  11
TORSDOF 1
ENDMDL
MODEL 3
REMARK VINA RESULT:    -2.480      1.760      4.426
REMARK INTER + INTRA:          -3.765
REMARK INTER:                  -3.593
REMARK INTRA:                  -0.172
REMARK UNBOUND:                 0.020
REMARK SMILES CC1=CCC[C@@H](C)C(=O)C[C@H](C(C)C)C(=O)C1
REMARK SMILES IDX 8 1 9 2 6 3 7 4 5 5 4 6 3 7 2 8 1 9 10 11 11 12 15 13 16 14
REMARK SMILES IDX 17 15 12 17 13 18 14 19
REMARK H PARENT
REMARK Flexibility Score: 70.00
ROOT
ATOM      1  C   UNL     1      19.233   1.201  19.873  1.00  0.00     0.136 C 
ATOM      2  O   UNL     1      20.034   0.988  18.973  1.00  0.00    -0.299 OA
ENDROOT
BRANCH   1   3
ATOM      3  C   UNL     1      18.868   2.625  20.238  1.00  0.00     0.053 C 
ATOM      4  C   UNL     1      18.227   3.311  19.028  1.00  0.00     0.016 C 
BRANCH   3   5
ATOM      5  C   UNL     1      20.096   3.429  20.722  1.00  0.00     0.015 C 
BRANCH   5   6
ATOM      6  C   UNL     1      20.593   3.002  22.111  1.00  0.00     0.028 C 
BRANCH   6   7
ATOM      7  C   UNL     1      19.570   3.309  23.178  1.00  0.00    -0.028 C 
ATOM      8  C   UNL     1      19.071   2.426  24.072  1.00  0.00    -0.070 CG0
ATOM      9  C   UNL     1      18.046   2.923  25.060  1.00  0.00     0.039 C 
ATOM     10  G   UNL     1      19.458   0.960  24.102  1.00  0.00     0.000 G0
ENDBRANCH   6   7
ENDBRANCH   5   6
ENDBRANCH   3   5
ENDBRANCH   1   3
BRANCH   1  11
ATOM     11  C   UNL     1      18.592   0.030  20.572  1.00  0.00     0.087 C 
BRANCH  11  12
ATOM     12  C   UNL     1      19.390  -0.397  21.831  1.00  0.00     0.066 C 
BRANCH  12  13
ATOM     13  C   UNL     1      18.700   0.153  23.069  1.00  0.00     0.140 C 
ATOM     14  O   UNL     1      17.525  -0.120  23.274  1.00  0.00    -0.299 OA
BRANCH  13  15
ATOM     15  C   UNL     1      19.455   0.951  24.103  1.00  0.00     0.106 CG0
ATOM     16  G   UNL     1      19.063   2.416  24.055  1.00  0.00     0.000 G0
ENDBRANCH  13  15
ENDBRANCH  12  13
BRANCH  12  17
ATOM     17  C   UNL     1      19.545  -1.950  21.940  1.00  0.00    -0.006 C 
ATOM     18  C   UNL     1      20.065  -2.575  20.629  1.00  0.00     0.008 C 
ATOM     19  C   UNL     1      20.501  -2.344  23.082  1.00  0.00     0.008 C 
ENDBRANCH  12  17
ENDBRANCH  11  12
ENDBRANCH   1  11
TORSDOF 1
ENDMDL
MODEL 4
REMARK VINA RESULT:    -2.441      1.602      4.051
REMARK INTER + INTRA:          -3.705
REMARK INTER:                  -3.793
REMARK INTRA:                   0.088
REMARK UNBOUND:                 0.020
REMARK SMILES CC1=CCC[C@@H](C)C(=O)C[C@H](C(C)C)C(=O)C1
REMARK SMILES IDX 8 1 9 2 6 3 7 4 5 5 4 6 3 7 2 8 1 9 10 11 11 12 15 13 16 14
REMARK SMILES IDX 17 15 12 17 13 18 14 19
REMARK H PARENT
REMARK Flexibility Score: 70.00
ROOT
ATOM      1  C   UNL     1      19.123   2.500  21.040  1.00  0.00     0.136 C 
ATOM      2  O   UNL     1      17.941   2.727  21.257  1.00  0.00    -0.299 OA
ENDROOT
BRANCH   1   3
ATOM      3  C   UNL     1      19.600   2.275  19.620  1.00  0.00     0.053 C 
ATOM      4  C   UNL     1      18.606   2.911  18.644  1.00  0.00     0.016 C 
BRANCH   3   5
ATOM      5  C   UNL     1      19.776   0.772  19.302  1.00  0.00     0.015 C 
BRANCH   5   6
ATOM      6  C   UNL     1      18.856  -0.136  20.131  1.00  0.00     0.028 C 
BRANCH   6   7
ATOM      7  C   UNL     1      19.651  -1.140  20.930  1.00  0.00    -0.028 C 
ATOM      8  C   UNL     1      19.623  -1.282  22.274  1.00  0.00    -0.070 CG0
ATOM      9  C   UNL     1      20.499  -2.343  22.891  1.00  0.00     0.039 C 
ATOM     10  G   UNL     1      18.790  -0.405  23.189  1.00  0.00     0.000 G0
ENDBRANCH   6   7
ENDBRANCH   5   6
ENDBRANCH   3   5
ENDBRANCH   1   3
BRANCH   1  11
ATOM     11  C   UNL     1      20.090   2.490  22.195  1.00  0.00     0.087 C 
BRANCH  11  12
ATOM     12  C   UNL     1      19.387   2.145  23.533  1.00  0.00     0.066 C 
BRANCH  12  13
ATOM     13  C   UNL     1      19.619   0.677  23.855  1.00  0.00     0.140 C 
ATOM     14  O   UNL     1      20.440   0.372  24.711  1.00  0.00    -0.299 OA
BRANCH  13  15
ATOM     15  C   UNL     1      18.796  -0.411  23.213  1.00  0.00     0.106 CG0
ATOM     16  G   UNL     1      19.642  -1.260  22.284  1.00  0.00     0.000 G0
ENDBRANCH  13  15
ENDBRANCH  12  13
BRANCH  12  17
ATOM     17  C   UNL     1      19.879   3.045  24.714  1.00  0.00    -0.006 C 
ATOM     18  C   UNL     1      21.180   3.799  24.368  1.00  0.00     0.008 C 
ATOM     19  C   UNL     1      18.810   4.078  25.122  1.00  0.00     0.008 C 
ENDBRANCH  12  17
ENDBRANCH  11  12
ENDBRANCH   1  11
TORSDOF 1
ENDMDL
MODEL 5
REMARK VINA RESULT:    -1.948      1.350      1.570
REMARK INTER + INTRA:          -2.953
REMARK INTER:                  -4.112
REMARK INTRA:                   1.160
REMARK UNBOUND:                 0.020
REMARK SMILES CC1=CCC[C@@H](C)C(=O)C[C@H](C(C)C)C(=O)C1
REMARK SMILES IDX 8 1 9 2 6 3 7 4 5 5 4 6 3 7 2 8 1 9 10 11 11 12 15 13 16 14
REMARK SMILES IDX 17 15 12 17 13 18 14 19
REMARK H PARENT
REMARK Flexibility Score: 70.00
ROOT
ATOM      1  C   UNL     1      18.555   2.226  23.246  1.00  0.00     0.136 C 
ATOM      2  O   UNL     1      19.351   3.059  23.657  1.00  0.00    -0.299 OA
ENDROOT
BRANCH   1   3
ATOM      3  C   UNL     1      17.809   1.345  24.226  1.00  0.00     0.053 C 
ATOM      4  C   UNL     1      16.924   2.218  25.121  1.00  0.00     0.016 C 
BRANCH   3   5
ATOM      5  C   UNL     1      18.773   0.498  25.089  1.00  0.00     0.015 C 
BRANCH   5   6
ATOM      6  C   UNL     1      20.173   0.355  24.474  1.00  0.00     0.028 C 
BRANCH   6   7
ATOM      7  C   UNL     1      20.386  -1.028  23.908  1.00  0.00    -0.028 C 
ATOM      8  C   UNL     1      19.758  -1.546  22.828  1.00  0.00    -0.070 CG0
ATOM      9  C   UNL     1      20.102  -2.956  22.421  1.00  0.00     0.039 C 
ATOM     10  G   UNL     1      18.703  -0.797  22.038  1.00  0.00     0.000 G0
ENDBRANCH   6   7
ENDBRANCH   5   6
ENDBRANCH   3   5
ENDBRANCH   1   3
BRANCH   1  11
ATOM     11  C   UNL     1      18.304   2.125  21.763  1.00  0.00     0.087 C 
BRANCH  11  12
ATOM     12  C   UNL     1      19.517   1.517  21.013  1.00  0.00     0.066 C 
BRANCH  12  13
ATOM     13  C   UNL     1      19.337   0.011  20.909  1.00  0.00     0.140 C 
ATOM     14  O   UNL     1      19.787  -0.583  19.938  1.00  0.00    -0.299 OA
BRANCH  13  15
ATOM     15  C   UNL     1      18.698  -0.785  22.020  1.00  0.00     0.106 CG0
ATOM     16  G   UNL     1      19.741  -1.551  22.812  1.00  0.00     0.000 G0
ENDBRANCH  13  15
ENDBRANCH  12  13
BRANCH  12  17
ATOM     17  C   UNL     1      19.711   2.140  19.591  1.00  0.00    -0.006 C 
ATOM     18  C   UNL     1      18.441   2.018  18.724  1.00  0.00     0.008 C 
ATOM     19  C   UNL     1      20.104   3.629  19.674  1.00  0.00     0.008 C 
ENDBRANCH  12  17
ENDBRANCH  11  12
ENDBRANCH   1  11
TORSDOF 1
ENDMDL
MODEL 6
REMARK VINA RESULT:    -1.726      1.853      4.097
REMARK INTER + INTRA:          -2.615
REMARK INTER:                  -4.823
REMARK INTRA:                   2.208
REMARK UNBOUND:                 0.020
REMARK SMILES CC1=CCC[C@@H](C)C(=O)C[C@H](C(C)C)C(=O)C1
REMARK SMILES IDX 8 1 9 2 6 3 7 4 5 5 4 6 3 7 2 8 1 9 10 11 11 12 15 13 16 14
REMARK SMILES IDX 17 15 12 17 13 18 14 19
REMARK H PARENT
REMARK Flexibility Score: 70.00
ROOT
ATOM      1  C   UNL     1      17.875   0.438  24.003  1.00  0.00     0.136 C 
ATOM      2  O   UNL     1      16.845  -0.124  23.659  1.00  0.00    -0.299 OA
ENDROOT
BRANCH   1   3
ATOM      3  C   UNL     1      17.813   1.603  24.970  1.00  0.00     0.053 C 
ATOM      4  C   UNL     1      16.359   2.057  25.125  1.00  0.00     0.016 C 
BRANCH   3   5
ATOM      5  C   UNL     1      18.697   2.784  24.507  1.00  0.00     0.015 C 
BRANCH   5   6
ATOM      6  C   UNL     1      20.034   2.339  23.896  1.00  0.00     0.028 C 
BRANCH   6   7
ATOM      7  C   UNL     1      20.310   3.056  22.596  1.00  0.00    -0.028 C 
ATOM      8  C   UNL     1      19.695   2.818  21.416  1.00  0.00    -0.070 CG0
ATOM      9  C   UNL     1      20.116   3.637  20.222  1.00  0.00     0.039 C 
ATOM     10  G   UNL     1      18.639   1.746  21.226  1.00  0.00     0.000 G0
ENDBRANCH   6   7
ENDBRANCH   5   6
ENDBRANCH   3   5
ENDBRANCH   1   3
BRANCH   1  11
ATOM     11  C   UNL     1      19.194  -0.073  23.485  1.00  0.00     0.087 C 
BRANCH  11  12
ATOM     12  C   UNL     1      19.056  -0.699  22.074  1.00  0.00     0.066 C 
BRANCH  12  13
ATOM     13  C   UNL     1      19.220   0.390  21.026  1.00  0.00     0.140 C 
ATOM     14  O   UNL     1      19.779   0.128  19.969  1.00  0.00    -0.299 OA
BRANCH  13  15
ATOM     15  C   UNL     1      18.629   1.764  21.218  1.00  0.00     0.106 CG0
ATOM     16  G   UNL     1      19.717   2.806  21.398  1.00  0.00     0.000 G0
ENDBRANCH  13  15
ENDBRANCH  12  13
BRANCH  12  17
ATOM     17  C   UNL     1      20.089  -1.849  21.829  1.00  0.00    -0.006 C 
ATOM     18  C   UNL     1      20.133  -2.851  23.001  1.00  0.00     0.008 C 
ATOM     19  C   UNL     1      19.774  -2.626  20.535  1.00  0.00     0.008 C 
ENDBRANCH  12  17
ENDBRANCH  11  12
ENDBRANCH   1  11
TORSDOF 1
ENDMDL
MODEL 7
REMARK VINA RESULT:    -1.410      2.516      3.895
REMARK INTER + INTRA:          -2.133
REMARK INTER:                  -3.846
REMARK INTRA:                   1.713
REMARK UNBOUND:                 0.020
REMARK SMILES CC1=CCC[C@@H](C)C(=O)C[C@H](C(C)C)C(=O)C1
REMARK SMILES IDX 8 1 9 2 6 3 7 4 5 5 4 6 3 7 2 8 1 9 10 11 11 12 15 13 16 14
REMARK SMILES IDX 17 15 12 17 13 18 14 19
REMARK H PARENT
REMARK Flexibility Score: 70.00
ROOT
ATOM      1  C   UNL     1      19.710   1.859  24.591  1.00  0.00     0.136 C 
ATOM      2  O   UNL     1      20.128   0.841  25.124  1.00  0.00    -0.299 OA
ENDROOT
BRANCH   1   3
ATOM      3  C   UNL     1      20.505   2.510  23.478  1.00  0.00     0.053 C 
ATOM      4  C   UNL     1      21.450   3.557  24.076  1.00  0.00     0.016 C 
BRANCH   3   5
ATOM      5  C   UNL     1      19.587   3.161  22.418  1.00  0.00     0.015 C 
BRANCH   5   6
ATOM      6  C   UNL     1      19.112   2.177  21.338  1.00  0.00     0.028 C 
BRANCH   6   7
ATOM      7  C   UNL     1      19.709   0.805  21.545  1.00  0.00    -0.028 C 
ATOM      8  C   UNL     1      19.066  -0.267  22.059  1.00  0.00    -0.070 CG0
ATOM      9  C   UNL     1      19.838  -1.555  22.195  1.00  0.00     0.039 C 
ATOM     10  G   UNL     1      17.628  -0.227  22.541  1.00  0.00     0.000 G0
ENDBRANCH   6   7
ENDBRANCH   5   6
ENDBRANCH   3   5
ENDBRANCH   1   3
BRANCH   1  11
ATOM     11  C   UNL     1      18.382   2.421  25.029  1.00  0.00     0.087 C 
BRANCH  11  12
ATOM     12  C   UNL     1      17.198   1.740  24.297  1.00  0.00     0.066 C 
BRANCH  12  13
ATOM     13  C   UNL     1      17.564   0.297  23.988  1.00  0.00     0.140 C 
ATOM     14  O   UNL     1      17.731  -0.491  24.910  1.00  0.00    -0.299 OA
BRANCH  13  15
ATOM     15  C   UNL     1      17.636  -0.213  22.571  1.00  0.00     0.106 CG0
ATOM     16  G   UNL     1      19.071  -0.267  22.082  1.00  0.00     0.000 G0
ENDBRANCH  13  15
ENDBRANCH  12  13
BRANCH  12  17
ATOM     17  C   UNL     1      15.872   1.799  25.125  1.00  0.00    -0.006 C 
ATOM     18  C   UNL     1      15.190   3.180  25.034  1.00  0.00     0.008 C 
ATOM     19  C   UNL     1      14.866   0.727  24.660  1.00  0.00     0.008 C 
ENDBRANCH  12  17
ENDBRANCH  11  12
ENDBRANCH   1  11
TORSDOF 1
ENDMDL
MODEL 8
REMARK VINA RESULT:    -1.121      1.860      4.304
REMARK INTER + INTRA:          -1.691
REMARK INTER:                  -3.537
REMARK INTRA:                   1.846
REMARK UNBOUND:                 0.020
REMARK SMILES CC1=CCC[C@@H](C)C(=O)C[C@H](C(C)C)C(=O)C1
REMARK SMILES IDX 8 1 9 2 6 3 7 4 5 5 4 6 3 7 2 8 1 9 10 11 11 12 15 13 16 14
REMARK SMILES IDX 17 15 12 17 13 18 14 19
REMARK H PARENT
REMARK Flexibility Score: 70.00
ROOT
ATOM      1  C   UNL     1      19.777   2.480  21.646  1.00  0.00     0.136 C 
ATOM      2  O   UNL     1      18.916   3.119  21.058  1.00  0.00    -0.299 OA
ENDROOT
BRANCH   1   3
ATOM      3  C   UNL     1      20.099   1.066  21.210  1.00  0.00     0.053 C 
ATOM      4  C   UNL     1      19.325   0.741  19.929  1.00  0.00     0.016 C 
BRANCH   3   5
ATOM      5  C   UNL     1      19.770   0.033  22.312  1.00  0.00     0.015 C 
BRANCH   5   6
ATOM      6  C   UNL     1      18.301  -0.419  22.301  1.00  0.00     0.028 C 
BRANCH   6   7
ATOM      7  C   UNL     1      17.438   0.498  23.133  1.00  0.00    -0.028 C 
ATOM      8  C   UNL     1      17.751   0.988  24.354  1.00  0.00    -0.070 CG0
ATOM      9  C   UNL     1      16.749   1.887  25.032  1.00  0.00     0.039 C 
ATOM     10  G   UNL     1      19.033   0.645  25.087  1.00  0.00     0.000 G0
ENDBRANCH   6   7
ENDBRANCH   5   6
ENDBRANCH   3   5
ENDBRANCH   1   3
BRANCH   1  11
ATOM     11  C   UNL     1      20.531   3.137  22.774  1.00  0.00     0.087 C 
BRANCH  11  12
ATOM     12  C   UNL     1      19.774   3.015  24.122  1.00  0.00     0.066 C 
BRANCH  12  13
ATOM     13  C   UNL     1      20.110   1.678  24.763  1.00  0.00     0.140 C 
ATOM     14  O   UNL     1      21.264   1.443  25.096  1.00  0.00    -0.299 OA
BRANCH  13  15
ATOM     15  C   UNL     1      19.038   0.667  25.086  1.00  0.00     0.106 CG0
ATOM     16  G   UNL     1      17.748   0.985  24.355  1.00  0.00     0.000 G0
ENDBRANCH  13  15
ENDBRANCH  12  13
BRANCH  12  17
ATOM     17  C   UNL     1      20.110   4.187  25.101  1.00  0.00    -0.006 C 
ATOM     18  C   UNL     1      21.524   4.758  24.863  1.00  0.00     0.008 C 
ATOM     19  C   UNL     1      19.092   5.338  24.977  1.00  0.00     0.008 C 
ENDBRANCH  12  17
ENDBRANCH  11  12
ENDBRANCH   1  11
TORSDOF 1
ENDMDL
MODEL 9
REMARK VINA RESULT:    -0.735      1.735      4.066
REMARK INTER + INTRA:          -1.102
REMARK INTER:                  -2.980
REMARK INTRA:                   1.878
REMARK UNBOUND:                 0.020
REMARK SMILES CC1=CCC[C@@H](C)C(=O)C[C@H](C(C)C)C(=O)C1
REMARK SMILES IDX 8 1 9 2 6 3 7 4 5 5 4 6 3 7 2 8 1 9 10 11 11 12 15 13 16 14
REMARK SMILES IDX 17 15 12 17 13 18 14 19
REMARK H PARENT
REMARK Flexibility Score: 70.00
ROOT
ATOM      1  C   UNL     1      19.987   1.647  24.125  1.00  0.00     0.136 C 
ATOM      2  O   UNL     1      19.019   1.774  24.861  1.00  0.00    -0.299 OA
ENDROOT
BRANCH   1   3
ATOM      3  C   UNL     1      20.751   2.869  23.663  1.00  0.00     0.053 C 
ATOM      4  C   UNL     1      21.123   3.725  24.878  1.00  0.00     0.016 C 
BRANCH   3   5
ATOM      5  C   UNL     1      19.941   3.706  22.647  1.00  0.00     0.015 C 
BRANCH   5   6
ATOM      6  C   UNL     1      20.622   3.821  21.274  1.00  0.00     0.028 C 
BRANCH   6   7
ATOM      7  C   UNL     1      19.667   3.480  20.157  1.00  0.00    -0.028 C 
ATOM      8  C   UNL     1      19.257   2.237  19.818  1.00  0.00    -0.070 CG0
ATOM      9  C   UNL     1      18.301   2.099  18.660  1.00  0.00     0.039 C 
ATOM     10  G   UNL     1      19.741   0.980  20.515  1.00  0.00     0.000 G0
ENDBRANCH   6   7
ENDBRANCH   5   6
ENDBRANCH   3   5
ENDBRANCH   1   3
BRANCH   1  11
ATOM     11  C   UNL     1      20.425   0.260  23.728  1.00  0.00     0.087 C 
BRANCH  11  12
ATOM     12  C   UNL     1      19.429  -0.398  22.739  1.00  0.00     0.066 C 
BRANCH  12  13
ATOM     13  C   UNL     1      18.953   0.647  21.741  1.00  0.00     0.140 C 
ATOM     14  O   UNL     1      17.941   1.291  21.983  1.00  0.00    -0.299 OA
BRANCH  13  15
ATOM     15  C   UNL     1      19.749   0.975  20.503  1.00  0.00     0.106 CG0
ATOM     16  G   UNL     1      19.239   2.244  19.847  1.00  0.00     0.000 G0
ENDBRANCH  13  15
ENDBRANCH  12  13
BRANCH  12  17
ATOM     17  C   UNL     1      20.054  -1.620  21.989  1.00  0.00    -0.006 C 
ATOM     18  C   UNL     1      20.155  -2.867  22.893  1.00  0.00     0.008 C 
ATOM     19  C   UNL     1      19.238  -1.992  20.735  1.00  0.00     0.008 C 
ENDBRANCH  12  17
ENDBRANCH  11  12
ENDBRANCH   1  11
TORSDOF 1
ENDMDL
