MODEL 1
REMARK VINA RESULT:    -4.241      0.000      0.000
REMARK INTER + INTRA:          -5.084
REMARK INTER:                  -4.985
REMARK INTRA:                  -0.099
REMARK UNBOUND:                -0.099
REMARK SMILES O=C([O-])CCC(=O)[O-]
REMARK SMILES IDX 4 1 2 2 1 3 3 4 5 5 6 6 7 7 8 8
REMARK H PARENT
REMARK Flexibility Score: inf
ROOT
ATOM      1  C   UNL     1      23.572  26.565  33.920  1.00  0.00     0.059 C 
ENDROOT
BRANCH   1   2
ATOM      2  C   UNL     1      24.755  27.472  34.074  1.00  0.00     0.042 C 
ATOM      3  O   UNL     1      25.868  27.005  34.430  1.00  0.00    -0.550 OA
ATOM      4  O   UNL     1      24.636  28.825  33.786  1.00  0.00    -0.550 OA
ENDBRANCH   1   2
BRANCH   1   5
ATOM      5  C   UNL     1      22.667  27.009  32.766  1.00  0.00     0.059 C 
BRANCH   5   6
ATOM      6  C   UNL     1      21.414  27.663  33.266  1.00  0.00     0.042 C 
ATOM      7  O   UNL     1      21.315  28.918  33.280  1.00  0.00    -0.550 OA
ATOM      8  O   UNL     1      20.374  26.884  33.757  1.00  0.00    -0.550 OA
ENDBRANCH   5   6
ENDBRANCH   1   5
TORSDOF 3
ENDMDL
MODEL 2
REMARK VINA RESULT:    -4.193      0.357      3.891
REMARK INTER + INTRA:          -5.027
REMARK INTER:                  -4.937
REMARK INTRA:                  -0.090
REMARK UNBOUND:                -0.099
REMARK SMILES O=C([O-])CCC(=O)[O-]
REMARK SMILES IDX 4 1 2 2 1 3 3 4 5 5 6 6 7 7 8 8
REMARK H PARENT
REMARK Flexibility Score: inf
ROOT
ATOM      1  C   UNL     1      22.926  27.003  32.855  1.00  0.00     0.059 C 
ENDROOT
BRANCH   1   2
ATOM      2  C   UNL     1      21.624  27.553  33.351  1.00  0.00     0.042 C 
ATOM      3  O   UNL     1      20.775  26.790  33.882  1.00  0.00    -0.550 OA
ATOM      4  O   UNL     1      21.365  28.915  33.262  1.00  0.00    -0.550 OA
ENDBRANCH   1   2
BRANCH   1   5
ATOM      5  C   UNL     1      23.847  26.600  34.011  1.00  0.00     0.059 C 
BRANCH   5   6
ATOM      6  C   UNL     1      25.103  27.418  34.027  1.00  0.00     0.042 C 
ATOM      7  O   UNL     1      26.227  26.854  34.082  1.00  0.00    -0.550 OA
ATOM      8  O   UNL     1      25.028  28.805  34.024  1.00  0.00    -0.550 OA
ENDBRANCH   5   6
ENDBRANCH   1   5
TORSDOF 3
ENDMDL
MODEL 3
REMARK VINA RESULT:    -4.170      2.109      3.281
REMARK INTER + INTRA:          -5.000
REMARK INTER:                  -4.964
REMARK INTRA:                  -0.036
REMARK UNBOUND:                -0.099
REMARK SMILES O=C([O-])CCC(=O)[O-]
REMARK SMILES IDX 4 1 2 2 1 3 3 4 5 5 6 6 7 7 8 8
REMARK H PARENT
REMARK Flexibility Score: inf
ROOT
ATOM      1  C   UNL     1      24.858  26.895  34.062  1.00  0.00     0.059 C 
ENDROOT
BRANCH   1   2
ATOM      2  C   UNL     1      24.585  28.346  33.807  1.00  0.00     0.042 C 
ATOM      3  O   UNL     1      23.400  28.766  33.740  1.00  0.00    -0.550 OA
ATOM      4  O   UNL     1      25.641  29.241  33.682  1.00  0.00    -0.550 OA
ENDBRANCH   1   2
BRANCH   1   5
ATOM      5  C   UNL     1      23.585  26.051  33.936  1.00  0.00     0.059 C 
BRANCH   5   6
ATOM      6  C   UNL     1      23.808  24.645  34.405  1.00  0.00     0.042 C 
ATOM      7  O   UNL     1      24.879  24.045  34.128  1.00  0.00    -0.550 OA
ATOM      8  O   UNL     1      22.812  23.984  35.114  1.00  0.00    -0.550 OA
ENDBRANCH   5   6
ENDBRANCH   1   5
TORSDOF 3
ENDMDL
MODEL 4
REMARK VINA RESULT:    -4.118      2.204      3.636
REMARK INTER + INTRA:          -4.938
REMARK INTER:                  -4.902
REMARK INTRA:                  -0.037
REMARK UNBOUND:                -0.099
REMARK SMILES O=C([O-])CCC(=O)[O-]
REMARK SMILES IDX 4 1 2 2 1 3 3 4 5 5 6 6 7 7 8 8
REMARK H PARENT
REMARK Flexibility Score: inf
ROOT
ATOM      1  C   UNL     1      23.869  25.961  33.985  1.00  0.00     0.059 C 
ENDROOT
BRANCH   1   2
ATOM      2  C   UNL     1      24.241  24.572  34.407  1.00  0.00     0.042 C 
ATOM      3  O   UNL     1      23.617  23.581  33.946  1.00  0.00    -0.550 OA
ATOM      4  O   UNL     1      25.303  24.371  35.280  1.00  0.00    -0.550 OA
ENDBRANCH   1   2
BRANCH   1   5
ATOM      5  C   UNL     1      25.065  26.915  34.067  1.00  0.00     0.059 C 
BRANCH   5   6
ATOM      6  C   UNL     1      24.656  28.335  33.817  1.00  0.00     0.042 C 
ATOM      7  O   UNL     1      23.437  28.639  33.737  1.00  0.00    -0.550 OA
ATOM      8  O   UNL     1      25.624  29.314  33.632  1.00  0.00    -0.550 OA
ENDBRANCH   5   6
ENDBRANCH   1   5
TORSDOF 3
ENDMDL
MODEL 5
REMARK VINA RESULT:    -4.072      1.885      2.926
REMARK INTER + INTRA:          -4.885
REMARK INTER:                  -4.837
REMARK INTRA:                  -0.048
REMARK UNBOUND:                -0.099
REMARK SMILES O=C([O-])CCC(=O)[O-]
REMARK SMILES IDX 4 1 2 2 1 3 3 4 5 5 6 6 7 7 8 8
REMARK H PARENT
REMARK Flexibility Score: inf
ROOT
ATOM      1  C   UNL     1      24.591  25.811  34.396  1.00  0.00     0.059 C 
ENDROOT
BRANCH   1   2
ATOM      2  C   UNL     1      26.071  25.610  34.285  1.00  0.00     0.042 C 
ATOM      3  O   UNL     1      26.580  25.227  33.199  1.00  0.00    -0.550 OA
ATOM      4  O   UNL     1      26.893  25.882  35.372  1.00  0.00    -0.550 OA
ENDBRANCH   1   2
BRANCH   1   5
ATOM      5  C   UNL     1      24.057  26.705  33.271  1.00  0.00     0.059 C 
BRANCH   5   6
ATOM      6  C   UNL     1      24.053  28.149  33.669  1.00  0.00     0.042 C 
ATOM      7  O   UNL     1      22.976  28.802  33.679  1.00  0.00    -0.550 OA
ATOM      8  O   UNL     1      25.246  28.784  33.990  1.00  0.00    -0.550 OA
ENDBRANCH   5   6
ENDBRANCH   1   5
TORSDOF 3
ENDMDL
MODEL 6
REMARK VINA RESULT:    -3.999      6.085      7.062
REMARK INTER + INTRA:          -4.799
REMARK INTER:                  -4.691
REMARK INTRA:                  -0.108
REMARK UNBOUND:                -0.099
REMARK SMILES O=C([O-])CCC(=O)[O-]
REMARK SMILES IDX 4 1 2 2 1 3 3 4 5 5 6 6 7 7 8 8
REMARK H PARENT
REMARK Flexibility Score: inf
ROOT
ATOM      1  C   UNL     1      28.513  25.064  31.227  1.00  0.00     0.059 C 
ENDROOT
BRANCH   1   2
ATOM      2  C   UNL     1      28.562  23.757  31.959  1.00  0.00     0.042 C 
ATOM      3  O   UNL     1      29.331  22.840  31.570  1.00  0.00    -0.550 OA
ATOM      4  O   UNL     1      27.786  23.568  33.096  1.00  0.00    -0.550 OA
ENDBRANCH   1   2
BRANCH   1   5
ATOM      5  C   UNL     1      29.731  25.937  31.548  1.00  0.00     0.059 C 
BRANCH   5   6
ATOM      6  C   UNL     1      29.353  27.126  32.378  1.00  0.00     0.042 C 
ATOM      7  O   UNL     1      30.075  28.157  32.375  1.00  0.00    -0.550 OA
ATOM      8  O   UNL     1      28.224  27.078  33.187  1.00  0.00    -0.550 OA
ENDBRANCH   5   6
ENDBRANCH   1   5
TORSDOF 3
ENDMDL
MODEL 7
REMARK VINA RESULT:    -3.993      1.885      4.409
REMARK INTER + INTRA:          -4.792
REMARK INTER:                  -4.688
REMARK INTRA:                  -0.103
REMARK UNBOUND:                -0.099
REMARK SMILES O=C([O-])CCC(=O)[O-]
REMARK SMILES IDX 4 1 2 2 1 3 3 4 5 5 6 6 7 7 8 8
REMARK H PARENT
REMARK Flexibility Score: inf
ROOT
ATOM      1  C   UNL     1      24.251  26.622  33.404  1.00  0.00     0.059 C 
ENDROOT
BRANCH   1   2
ATOM      2  C   UNL     1      24.066  28.087  33.658  1.00  0.00     0.042 C 
ATOM      3  O   UNL     1      22.917  28.598  33.610  1.00  0.00    -0.550 OA
ATOM      4  O   UNL     1      25.159  28.879  33.985  1.00  0.00    -0.550 OA
ENDBRANCH   1   2
BRANCH   1   5
ATOM      5  C   UNL     1      25.268  26.006  34.371  1.00  0.00     0.059 C 
BRANCH   5   6
ATOM      6  C   UNL     1      26.556  25.675  33.680  1.00  0.00     0.042 C 
ATOM      7  O   UNL     1      26.753  24.519  33.223  1.00  0.00    -0.550 OA
ATOM      8  O   UNL     1      27.555  26.635  33.577  1.00  0.00    -0.550 OA
ENDBRANCH   5   6
ENDBRANCH   1   5
TORSDOF 3
ENDMDL
MODEL 8
REMARK VINA RESULT:    -3.987      1.246      3.873
REMARK INTER + INTRA:          -4.785
REMARK INTER:                  -4.703
REMARK INTRA:                  -0.081
REMARK UNBOUND:                -0.099
REMARK SMILES O=C([O-])CCC(=O)[O-]
REMARK SMILES IDX 4 1 2 2 1 3 3 4 5 5 6 6 7 7 8 8
REMARK H PARENT
REMARK Flexibility Score: inf
ROOT
ATOM      1  C   UNL     1      23.523  26.594  32.864  1.00  0.00     0.059 C 
ENDROOT
BRANCH   1   2
ATOM      2  C   UNL     1      22.550  27.645  33.303  1.00  0.00     0.042 C 
ATOM      3  O   UNL     1      22.963  28.771  33.687  1.00  0.00    -0.550 OA
ATOM      4  O   UNL     1      21.185  27.394  33.251  1.00  0.00    -0.550 OA
ENDBRANCH   1   2
BRANCH   1   5
ATOM      5  C   UNL     1      24.033  25.766  34.048  1.00  0.00     0.059 C 
BRANCH   5   6
ATOM      6  C   UNL     1      25.406  26.192  34.469  1.00  0.00     0.042 C 
ATOM      7  O   UNL     1      25.867  27.304  34.100  1.00  0.00    -0.550 OA
ATOM      8  O   UNL     1      26.192  25.341  35.236  1.00  0.00    -0.550 OA
ENDBRANCH   5   6
ENDBRANCH   1   5
TORSDOF 3
ENDMDL
MODEL 9
REMARK VINA RESULT:    -3.965      6.015      6.947
REMARK INTER + INTRA:          -4.759
REMARK INTER:                  -4.658
REMARK INTRA:                  -0.101
REMARK UNBOUND:                -0.099
REMARK SMILES O=C([O-])CCC(=O)[O-]
REMARK SMILES IDX 4 1 2 2 1 3 3 4 5 5 6 6 7 7 8 8
REMARK H PARENT
REMARK Flexibility Score: inf
ROOT
ATOM      1  C   UNL     1      29.589  25.855  31.597  1.00  0.00     0.059 C 
ENDROOT
BRANCH   1   2
ATOM      2  C   UNL     1      29.254  27.067  32.411  1.00  0.00     0.042 C 
ATOM      3  O   UNL     1      28.221  27.082  33.130  1.00  0.00    -0.550 OA
ATOM      4  O   UNL     1      30.103  28.166  32.404  1.00  0.00    -0.550 OA
ENDBRANCH   1   2
BRANCH   1   5
ATOM      5  C   UNL     1      28.361  24.966  31.375  1.00  0.00     0.059 C 
BRANCH   5   6
ATOM      6  C   UNL     1      28.487  23.660  32.097  1.00  0.00     0.042 C 
ATOM      7  O   UNL     1      27.795  23.433  33.124  1.00  0.00    -0.550 OA
ATOM      8  O   UNL     1      29.400  22.709  31.658  1.00  0.00    -0.550 OA
ENDBRANCH   5   6
ENDBRANCH   1   5
TORSDOF 3
ENDMDL
