MODEL 1
REMARK VINA RESULT:    -3.595      0.000      0.000
REMARK INTER + INTRA:          -6.786
REMARK INTER:                  -5.697
REMARK INTRA:                  -1.089
REMARK UNBOUND:                -1.089
REMARK SMILES CCCCCCCCCCCC(=O)[O-]
REMARK SMILES IDX 7 1 8 2 9 3 10 4 11 5 12 6 13 7 14 8 6 9 5 10 4 11 3 12 2 13
REMARK SMILES IDX 1 14
REMARK H PARENT
REMARK Flexibility Score: inf
ROOT
ATOM      1  C   UNL     1      -2.711  -0.048   8.789  1.00  0.00     0.000 C 
ENDROOT
BRANCH   1   2
ATOM      2  C   UNL     1      -2.151  -0.401  10.178  1.00  0.00     0.000 C 
BRANCH   2   3
ATOM      3  C   UNL     1      -2.704  -1.729  10.717  1.00  0.00     0.000 C 
BRANCH   3   4
ATOM      4  C   UNL     1      -4.117  -2.037  10.192  1.00  0.00     0.006 C 
BRANCH   4   5
ATOM      5  C   UNL     1      -4.995  -2.711  11.255  1.00  0.00     0.053 C 
BRANCH   5   6
ATOM      6  C   UNL     1      -5.980  -3.658  10.641  1.00  0.00     0.041 C 
ATOM      7  O   UNL     1      -5.670  -4.316   9.613  1.00  0.00    -0.550 OA
ATOM      8  O   UNL     1      -7.227  -3.840  11.225  1.00  0.00    -0.550 OA
ENDBRANCH   5   6
ENDBRANCH   4   5
ENDBRANCH   3   4
ENDBRANCH   2   3
ENDBRANCH   1   2
BRANCH   1   9
ATOM      9  C   UNL     1      -1.664  -0.193   7.672  1.00  0.00     0.000 C 
BRANCH   9  10
ATOM     10  C   UNL     1      -2.202  -0.968   6.457  1.00  0.00    -0.000 C 
BRANCH  10  11
ATOM     11  C   UNL     1      -1.451  -2.288   6.218  1.00  0.00    -0.000 C 
BRANCH  11  12
ATOM     12  C   UNL     1      -1.883  -3.399   7.190  1.00  0.00    -0.000 C 
BRANCH  12  13
ATOM     13  C   UNL     1      -3.363  -3.782   7.026  1.00  0.00    -0.003 C 
ATOM     14  C   UNL     1      -3.557  -5.260   6.683  1.00  0.00     0.004 C 
ENDBRANCH  12  13
ENDBRANCH  11  12
ENDBRANCH  10  11
ENDBRANCH   9  10
ENDBRANCH   1   9
TORSDOF 10
ENDMDL
MODEL 2
REMARK VINA RESULT:    -3.557      2.256      3.845
REMARK INTER + INTRA:          -6.725
REMARK INTER:                  -5.981
REMARK INTRA:                  -0.745
REMARK UNBOUND:                -1.089
REMARK SMILES CCCCCCCCCCCC(=O)[O-]
REMARK SMILES IDX 7 1 8 2 9 3 10 4 11 5 12 6 13 7 14 8 6 9 5 10 4 11 3 12 2 13
REMARK SMILES IDX 1 14
REMARK H PARENT
REMARK Flexibility Score: inf
ROOT
ATOM      1  C   UNL     1      -6.066  -3.090   8.712  1.00  0.00     0.000 C 
ENDROOT
BRANCH   1   2
ATOM      2  C   UNL     1      -5.833  -4.003   9.929  1.00  0.00     0.000 C 
BRANCH   2   3
ATOM      3  C   UNL     1      -6.351  -3.386  11.237  1.00  0.00     0.000 C 
BRANCH   3   4
ATOM      4  C   UNL     1      -5.562  -2.132  11.652  1.00  0.00     0.006 C 
BRANCH   4   5
ATOM      5  C   UNL     1      -4.065  -2.421  11.822  1.00  0.00     0.053 C 
BRANCH   5   6
ATOM      6  C   UNL     1      -3.219  -1.352  11.201  1.00  0.00     0.041 C 
ATOM      7  O   UNL     1      -3.233  -0.183  11.667  1.00  0.00    -0.550 OA
ATOM      8  O   UNL     1      -2.388  -1.656  10.129  1.00  0.00    -0.550 OA
ENDBRANCH   5   6
ENDBRANCH   4   5
ENDBRANCH   3   4
ENDBRANCH   2   3
ENDBRANCH   1   2
BRANCH   1   9
ATOM      9  C   UNL     1      -4.818  -2.953   7.825  1.00  0.00     0.000 C 
BRANCH   9  10
ATOM     10  C   UNL     1      -4.270  -4.315   7.365  1.00  0.00    -0.000 C 
BRANCH  10  11
ATOM     11  C   UNL     1      -3.045  -4.179   6.446  1.00  0.00    -0.000 C 
BRANCH  11  12
ATOM     12  C   UNL     1      -1.902  -3.384   7.098  1.00  0.00    -0.000 C 
BRANCH  12  13
ATOM     13  C   UNL     1      -1.667  -2.025   6.419  1.00  0.00    -0.003 C 
ATOM     14  C   UNL     1      -0.405  -2.006   5.554  1.00  0.00     0.004 C 
ENDBRANCH  12  13
ENDBRANCH  11  12
ENDBRANCH  10  11
ENDBRANCH   9  10
ENDBRANCH   1   9
TORSDOF 10
ENDMDL
MODEL 3
REMARK VINA RESULT:    -3.471      2.754      4.359
REMARK INTER + INTRA:          -6.590
REMARK INTER:                  -5.564
REMARK INTRA:                  -1.026
REMARK UNBOUND:                -1.089
REMARK SMILES CCCCCCCCCCCC(=O)[O-]
REMARK SMILES IDX 7 1 8 2 9 3 10 4 11 5 12 6 13 7 14 8 6 9 5 10 4 11 3 12 2 13
REMARK SMILES IDX 1 14
REMARK H PARENT
REMARK Flexibility Score: inf
ROOT
ATOM      1  C   UNL     1      -5.859  -3.676   9.756  1.00  0.00     0.000 C 
ENDROOT
BRANCH   1   2
ATOM      2  C   UNL     1      -5.363  -3.162  11.119  1.00  0.00     0.000 C 
BRANCH   2   3
ATOM      3  C   UNL     1      -4.682  -1.788  11.020  1.00  0.00     0.000 C 
BRANCH   3   4
ATOM      4  C   UNL     1      -3.162  -1.865  11.247  1.00  0.00     0.006 C 
BRANCH   4   5
ATOM      5  C   UNL     1      -2.371  -1.284  10.068  1.00  0.00     0.053 C 
BRANCH   5   6
ATOM      6  C   UNL     1      -1.755   0.038  10.410  1.00  0.00     0.041 C 
ATOM      7  O   UNL     1      -1.905   0.528  11.561  1.00  0.00    -0.550 OA
ATOM      8  O   UNL     1      -0.987   0.713   9.470  1.00  0.00    -0.550 OA
ENDBRANCH   5   6
ENDBRANCH   4   5
ENDBRANCH   3   4
ENDBRANCH   2   3
ENDBRANCH   1   2
BRANCH   1   9
ATOM      9  C   UNL     1      -5.611  -2.672   8.618  1.00  0.00     0.000 C 
BRANCH   9  10
ATOM     10  C   UNL     1      -5.334  -3.364   7.272  1.00  0.00    -0.000 C 
BRANCH  10  11
ATOM     11  C   UNL     1      -4.381  -4.563   7.408  1.00  0.00    -0.000 C 
BRANCH  11  12
ATOM     12  C   UNL     1      -3.119  -4.416   6.542  1.00  0.00    -0.000 C 
BRANCH  12  13
ATOM     13  C   UNL     1      -2.062  -3.507   7.191  1.00  0.00    -0.003 C 
ATOM     14  C   UNL     1      -1.609  -2.373   6.271  1.00  0.00     0.004 C 
ENDBRANCH  12  13
ENDBRANCH  11  12
ENDBRANCH  10  11
ENDBRANCH   9  10
ENDBRANCH   1   9
TORSDOF 10
ENDMDL
MODEL 4
REMARK VINA RESULT:    -3.463      2.816      5.738
REMARK INTER + INTRA:          -6.577
REMARK INTER:                  -5.378
REMARK INTRA:                  -1.199
REMARK UNBOUND:                -1.089
REMARK SMILES CCCCCCCCCCCC(=O)[O-]
REMARK SMILES IDX 7 1 8 2 9 3 10 4 11 5 12 6 13 7 14 8 6 9 5 10 4 11 3 12 2 13
REMARK SMILES IDX 1 14
REMARK H PARENT
REMARK Flexibility Score: inf
ROOT
ATOM      1  C   UNL     1      -5.967  -2.744   8.551  1.00  0.00     0.000 C 
ENDROOT
BRANCH   1   2
ATOM      2  C   UNL     1      -5.050  -2.852   7.320  1.00  0.00     0.000 C 
BRANCH   2   3
ATOM      3  C   UNL     1      -4.066  -4.029   7.419  1.00  0.00     0.000 C 
BRANCH   3   4
ATOM      4  C   UNL     1      -2.902  -3.910   6.420  1.00  0.00     0.006 C 
BRANCH   4   5
ATOM      5  C   UNL     1      -1.666  -3.252   7.047  1.00  0.00     0.053 C 
BRANCH   5   6
ATOM      6  C   UNL     1      -1.275  -2.000   6.323  1.00  0.00     0.041 C 
ATOM      7  O   UNL     1      -1.768  -0.892   6.662  1.00  0.00    -0.550 OA
ATOM      8  O   UNL     1      -0.341  -2.052   5.296  1.00  0.00    -0.550 OA
ENDBRANCH   5   6
ENDBRANCH   4   5
ENDBRANCH   3   4
ENDBRANCH   2   3
ENDBRANCH   1   2
BRANCH   1   9
ATOM      9  C   UNL     1      -5.801  -3.925   9.521  1.00  0.00     0.000 C 
BRANCH   9  10
ATOM     10  C   UNL     1      -5.588  -3.469  10.975  1.00  0.00    -0.000 C 
BRANCH  10  11
ATOM     11  C   UNL     1      -5.192  -1.987  11.077  1.00  0.00    -0.000 C 
BRANCH  11  12
ATOM     12  C   UNL     1      -3.719  -1.795  11.478  1.00  0.00    -0.000 C 
BRANCH  12  13
ATOM     13  C   UNL     1      -2.791  -1.660  10.260  1.00  0.00    -0.003 C 
ATOM     14  C   UNL     1      -2.009  -0.346  10.255  1.00  0.00     0.004 C 
ENDBRANCH  12  13
ENDBRANCH  11  12
ENDBRANCH  10  11
ENDBRANCH   9  10
ENDBRANCH   1   9
TORSDOF 10
ENDMDL
MODEL 5
REMARK VINA RESULT:    -3.434      1.352      2.292
REMARK INTER + INTRA:          -6.530
REMARK INTER:                  -5.504
REMARK INTRA:                  -1.026
REMARK UNBOUND:                -1.089
REMARK SMILES CCCCCCCCCCCC(=O)[O-]
REMARK SMILES IDX 7 1 8 2 9 3 10 4 11 5 12 6 13 7 14 8 6 9 5 10 4 11 3 12 2 13
REMARK SMILES IDX 1 14
REMARK H PARENT
REMARK Flexibility Score: inf
ROOT
ATOM      1  C   UNL     1      -2.506  -0.545   8.893  1.00  0.00     0.000 C 
ENDROOT
BRANCH   1   2
ATOM      2  C   UNL     1      -2.401  -1.388  10.177  1.00  0.00     0.000 C 
BRANCH   2   3
ATOM      3  C   UNL     1      -3.077  -0.715  11.382  1.00  0.00     0.000 C 
BRANCH   3   4
ATOM      4  C   UNL     1      -4.548  -1.135  11.543  1.00  0.00     0.006 C 
BRANCH   4   5
ATOM      5  C   UNL     1      -4.740  -2.648  11.377  1.00  0.00     0.053 C 
BRANCH   5   6
ATOM      6  C   UNL     1      -5.899  -2.966  10.483  1.00  0.00     0.041 C 
ATOM      7  O   UNL     1      -6.259  -2.147   9.597  1.00  0.00    -0.550 OA
ATOM      8  O   UNL     1      -6.559  -4.183  10.604  1.00  0.00    -0.550 OA
ENDBRANCH   5   6
ENDBRANCH   4   5
ENDBRANCH   3   4
ENDBRANCH   2   3
ENDBRANCH   1   2
BRANCH   1   9
ATOM      9  C   UNL     1      -3.261  -1.270   7.768  1.00  0.00     0.000 C 
BRANCH   9  10
ATOM     10  C   UNL     1      -3.120  -2.799   7.853  1.00  0.00    -0.000 C 
BRANCH  10  11
ATOM     11  C   UNL     1      -1.915  -3.327   7.057  1.00  0.00    -0.000 C 
BRANCH  11  12
ATOM     12  C   UNL     1      -1.758  -2.632   5.694  1.00  0.00    -0.000 C 
BRANCH  12  13
ATOM     13  C   UNL     1      -0.380  -1.971   5.525  1.00  0.00    -0.003 C 
ATOM     14  C   UNL     1      -0.033  -1.691   4.062  1.00  0.00     0.004 C 
ENDBRANCH  12  13
ENDBRANCH  11  12
ENDBRANCH  10  11
ENDBRANCH   9  10
ENDBRANCH   1   9
TORSDOF 10
ENDMDL
MODEL 6
REMARK VINA RESULT:    -3.432      2.050      3.704
REMARK INTER + INTRA:          -6.527
REMARK INTER:                  -5.396
REMARK INTRA:                  -1.131
REMARK UNBOUND:                -1.089
REMARK SMILES CCCCCCCCCCCC(=O)[O-]
REMARK SMILES IDX 7 1 8 2 9 3 10 4 11 5 12 6 13 7 14 8 6 9 5 10 4 11 3 12 2 13
REMARK SMILES IDX 1 14
REMARK H PARENT
REMARK Flexibility Score: inf
ROOT
ATOM      1  C   UNL     1      -5.260  -3.175   7.248  1.00  0.00     0.000 C 
ENDROOT
BRANCH   1   2
ATOM      2  C   UNL     1      -5.811  -2.740   8.618  1.00  0.00     0.000 C 
BRANCH   2   3
ATOM      3  C   UNL     1      -5.554  -3.785   9.716  1.00  0.00     0.000 C 
BRANCH   3   4
ATOM      4  C   UNL     1      -5.664  -3.193  11.131  1.00  0.00     0.006 C 
BRANCH   4   5
ATOM      5  C   UNL     1      -4.319  -2.659  11.641  1.00  0.00     0.053 C 
BRANCH   5   6
ATOM      6  C   UNL     1      -4.437  -1.258  12.158  1.00  0.00     0.041 C 
ATOM      7  O   UNL     1      -5.138  -1.016  13.176  1.00  0.00    -0.550 OA
ATOM      8  O   UNL     1      -3.745  -0.226  11.537  1.00  0.00    -0.550 OA
ENDBRANCH   5   6
ENDBRANCH   4   5
ENDBRANCH   3   4
ENDBRANCH   2   3
ENDBRANCH   1   2
BRANCH   1   9
ATOM      9  C   UNL     1      -4.401  -4.446   7.331  1.00  0.00     0.000 C 
BRANCH   9  10
ATOM     10  C   UNL     1      -3.120  -4.348   6.484  1.00  0.00    -0.000 C 
BRANCH  10  11
ATOM     11  C   UNL     1      -2.012  -3.542   7.182  1.00  0.00    -0.000 C 
BRANCH  11  12
ATOM     12  C   UNL     1      -1.549  -2.333   6.351  1.00  0.00    -0.000 C 
BRANCH  12  13
ATOM     13  C   UNL     1      -1.938  -0.992   6.997  1.00  0.00    -0.003 C 
ATOM     14  C   UNL     1      -2.398  -1.145   8.447  1.00  0.00     0.004 C 
ENDBRANCH  12  13
ENDBRANCH  11  12
ENDBRANCH  10  11
ENDBRANCH   9  10
ENDBRANCH   1   9
TORSDOF 10
ENDMDL
MODEL 7
REMARK VINA RESULT:    -3.409      1.868      2.988
REMARK INTER + INTRA:          -6.491
REMARK INTER:                  -5.240
REMARK INTRA:                  -1.251
REMARK UNBOUND:                -1.089
REMARK SMILES CCCCCCCCCCCC(=O)[O-]
REMARK SMILES IDX 7 1 8 2 9 3 10 4 11 5 12 6 13 7 14 8 6 9 5 10 4 11 3 12 2 13
REMARK SMILES IDX 1 14
REMARK H PARENT
REMARK Flexibility Score: inf
ROOT
ATOM      1  C   UNL     1      -2.195  -1.050   6.331  1.00  0.00     0.000 C 
ENDROOT
BRANCH   1   2
ATOM      2  C   UNL     1      -2.807  -0.777   7.717  1.00  0.00     0.000 C 
BRANCH   2   3
ATOM      3  C   UNL     1      -1.943   0.169   8.566  1.00  0.00     0.000 C 
BRANCH   3   4
ATOM      4  C   UNL     1      -1.854  -0.275  10.037  1.00  0.00     0.006 C 
BRANCH   4   5
ATOM      5  C   UNL     1      -2.570  -1.609  10.283  1.00  0.00     0.053 C 
BRANCH   5   6
ATOM      6  C   UNL     1      -3.587  -1.500  11.378  1.00  0.00     0.041 C 
ATOM      7  O   UNL     1      -4.109  -0.387  11.649  1.00  0.00    -0.550 OA
ATOM      8  O   UNL     1      -3.983  -2.634  12.076  1.00  0.00    -0.550 OA
ENDBRANCH   5   6
ENDBRANCH   4   5
ENDBRANCH   3   4
ENDBRANCH   2   3
ENDBRANCH   1   2
BRANCH   1   9
ATOM      9  C   UNL     1      -1.338  -2.325   6.301  1.00  0.00     0.000 C 
BRANCH   9  10
ATOM     10  C   UNL     1      -1.970  -3.479   7.097  1.00  0.00    -0.000 C 
BRANCH  10  11
ATOM     11  C   UNL     1      -3.051  -4.225   6.298  1.00  0.00    -0.000 C 
BRANCH  11  12
ATOM     12  C   UNL     1      -4.080  -4.924   7.204  1.00  0.00    -0.000 C 
BRANCH  12  13
ATOM     13  C   UNL     1      -4.955  -3.926   7.979  1.00  0.00    -0.003 C 
ATOM     14  C   UNL     1      -5.754  -3.000   7.061  1.00  0.00     0.004 C 
ENDBRANCH  12  13
ENDBRANCH  11  12
ENDBRANCH  10  11
ENDBRANCH   9  10
ENDBRANCH   1   9
TORSDOF 10
ENDMDL
MODEL 8
REMARK VINA RESULT:    -3.384      3.359      5.614
REMARK INTER + INTRA:          -6.451
REMARK INTER:                  -5.261
REMARK INTRA:                  -1.189
REMARK UNBOUND:                -1.089
REMARK SMILES CCCCCCCCCCCC(=O)[O-]
REMARK SMILES IDX 7 1 8 2 9 3 10 4 11 5 12 6 13 7 14 8 6 9 5 10 4 11 3 12 2 13
REMARK SMILES IDX 1 14
REMARK H PARENT
REMARK Flexibility Score: inf
ROOT
ATOM      1  C   UNL     1      -3.523  -0.738   8.742  1.00  0.00     0.000 C 
ENDROOT
BRANCH   1   2
ATOM      2  C   UNL     1      -3.732  -1.709   7.567  1.00  0.00     0.000 C 
BRANCH   2   3
ATOM      3  C   UNL     1      -2.924  -3.008   7.723  1.00  0.00     0.000 C 
BRANCH   3   4
ATOM      4  C   UNL     1      -1.968  -3.253   6.543  1.00  0.00     0.006 C 
BRANCH   4   5
ATOM      5  C   UNL     1      -1.000  -2.083   6.330  1.00  0.00     0.053 C 
BRANCH   5   6
ATOM      6  C   UNL     1      -0.975  -1.635   4.901  1.00  0.00     0.041 C 
ATOM      7  O   UNL     1      -1.929  -0.957   4.434  1.00  0.00    -0.550 OA
ATOM      8  O   UNL     1       0.115  -1.935   4.095  1.00  0.00    -0.550 OA
ENDBRANCH   5   6
ENDBRANCH   4   5
ENDBRANCH   3   4
ENDBRANCH   2   3
ENDBRANCH   1   2
BRANCH   1   9
ATOM      9  C   UNL     1      -2.593  -1.309   9.825  1.00  0.00     0.000 C 
BRANCH   9  10
ATOM     10  C   UNL     1      -2.854  -0.693  11.211  1.00  0.00    -0.000 C 
BRANCH  10  11
ATOM     11  C   UNL     1      -4.118  -1.257  11.879  1.00  0.00    -0.000 C 
BRANCH  11  12
ATOM     12  C   UNL     1      -4.287  -2.768  11.644  1.00  0.00    -0.000 C 
BRANCH  12  13
ATOM     13  C   UNL     1      -5.703  -3.137  11.173  1.00  0.00    -0.003 C 
ATOM     14  C   UNL     1      -5.701  -3.991   9.905  1.00  0.00     0.004 C 
ENDBRANCH  12  13
ENDBRANCH  11  12
ENDBRANCH  10  11
ENDBRANCH   9  10
ENDBRANCH   1   9
TORSDOF 10
ENDMDL
MODEL 9
REMARK VINA RESULT:    -3.359      2.072      4.710
REMARK INTER + INTRA:          -6.412
REMARK INTER:                  -5.351
REMARK INTRA:                  -1.061
REMARK UNBOUND:                -1.089
REMARK SMILES CCCCCCCCCCCC(=O)[O-]
REMARK SMILES IDX 7 1 8 2 9 3 10 4 11 5 12 6 13 7 14 8 6 9 5 10 4 11 3 12 2 13
REMARK SMILES IDX 1 14
REMARK H PARENT
REMARK Flexibility Score: inf
ROOT
ATOM      1  C   UNL     1      -3.511  -1.629   7.861  1.00  0.00     0.000 C 
ENDROOT
BRANCH   1   2
ATOM      2  C   UNL     1      -2.114  -2.088   7.409  1.00  0.00     0.000 C 
BRANCH   2   3
ATOM      3  C   UNL     1      -2.062  -3.589   7.084  1.00  0.00     0.000 C 
BRANCH   3   4
ATOM      4  C   UNL     1      -3.452  -4.247   7.114  1.00  0.00     0.006 C 
BRANCH   4   5
ATOM      5  C   UNL     1      -3.707  -5.118   5.876  1.00  0.00     0.053 C 
BRANCH   5   6
ATOM      6  C   UNL     1      -3.914  -6.556   6.242  1.00  0.00     0.041 C 
ATOM      7  O   UNL     1      -4.631  -6.860   7.231  1.00  0.00    -0.550 OA
ATOM      8  O   UNL     1      -3.345  -7.560   5.469  1.00  0.00    -0.550 OA
ENDBRANCH   5   6
ENDBRANCH   4   5
ENDBRANCH   3   4
ENDBRANCH   2   3
ENDBRANCH   1   2
BRANCH   1   9
ATOM      9  C   UNL     1      -3.480  -0.847   9.184  1.00  0.00     0.000 C 
BRANCH   9  10
ATOM     10  C   UNL     1      -2.630  -1.544  10.260  1.00  0.00    -0.000 C 
BRANCH  10  11
ATOM     11  C   UNL     1      -3.441  -1.898  11.517  1.00  0.00    -0.000 C 
BRANCH  11  12
ATOM     12  C   UNL     1      -4.955  -1.947  11.248  1.00  0.00    -0.000 C 
BRANCH  12  13
ATOM     13  C   UNL     1      -5.482  -3.385  11.108  1.00  0.00    -0.003 C 
ATOM     14  C   UNL     1      -6.053  -3.674   9.719  1.00  0.00     0.004 C 
ENDBRANCH  12  13
ENDBRANCH  11  12
ENDBRANCH  10  11
ENDBRANCH   9  10
ENDBRANCH   1   9
TORSDOF 10
ENDMDL
