MODEL 1
REMARK VINA RESULT:    -4.176      0.000      0.000
REMARK INTER + INTRA:          -9.829
REMARK INTER:                  -7.837
REMARK INTRA:                  -1.991
REMARK UNBOUND:                -1.991
REMARK SMILES O=C([O-])CCCCCCCCCCCCCCC(=O)[O-]
REMARK SMILES IDX 10 1 9 2 8 3 7 4 6 5 5 6 4 7 2 8 1 9 3 10 11 11 12 12 13 13
REMARK SMILES IDX 14 14 15 15 16 16 17 17 18 18 19 19 20 20
REMARK H PARENT
REMARK Flexibility Score: inf
ROOT
ATOM      1  C   UNL     1     154.541 172.031 163.386  1.00  0.00     0.000 C 
ENDROOT
BRANCH   1   2
ATOM      2  C   UNL     1     153.225 172.614 162.833  1.00  0.00     0.000 C 
BRANCH   2   3
ATOM      3  C   UNL     1     153.388 173.769 161.829  1.00  0.00     0.000 C 
BRANCH   3   4
ATOM      4  C   UNL     1     154.093 174.994 162.436  1.00  0.00     0.000 C 
BRANCH   4   5
ATOM      5  C   UNL     1     155.333 175.419 161.634  1.00  0.00     0.000 C 
BRANCH   5   6
ATOM      6  C   UNL     1     155.958 174.255 160.845  1.00  0.00     0.006 C 
BRANCH   6   7
ATOM      7  C   UNL     1     157.036 174.734 159.863  1.00  0.00     0.053 C 
BRANCH   7   8
ATOM      8  C   UNL     1     156.601 174.567 158.440  1.00  0.00     0.041 C 
ATOM      9  O   UNL     1     157.448 174.316 157.542  1.00  0.00    -0.550 OA
ATOM     10  O   UNL     1     155.263 174.722 158.098  1.00  0.00    -0.550 OA
ENDBRANCH   7   8
ENDBRANCH   6   7
ENDBRANCH   5   6
ENDBRANCH   4   5
ENDBRANCH   3   4
ENDBRANCH   2   3
ENDBRANCH   1   2
BRANCH   1  11
ATOM     11  C   UNL     1     154.372 170.888 164.403  1.00  0.00     0.000 C 
BRANCH  11  12
ATOM     12  C   UNL     1     153.916 171.382 165.785  1.00  0.00     0.000 C 
BRANCH  12  13
ATOM     13  C   UNL     1     155.013 171.159 166.836  1.00  0.00     0.000 C 
BRANCH  13  14
ATOM     14  C   UNL     1     155.891 172.404 167.059  1.00  0.00     0.000 C 
BRANCH  14  15
ATOM     15  C   UNL     1     155.297 173.727 166.538  1.00  0.00     0.000 C 
BRANCH  15  16
ATOM     16  C   UNL     1     156.169 174.488 165.522  1.00  0.00     0.006 C 
BRANCH  16  17
ATOM     17  C   UNL     1     157.577 173.891 165.335  1.00  0.00     0.053 C 
BRANCH  17  18
ATOM     18  C   UNL     1     158.006 173.863 163.900  1.00  0.00     0.041 C 
ATOM     19  O   UNL     1     157.987 172.782 163.252  1.00  0.00    -0.550 OA
ATOM     20  O   UNL     1     158.464 175.022 163.285  1.00  0.00    -0.550 OA
ENDBRANCH  17  18
ENDBRANCH  16  17
ENDBRANCH  15  16
ENDBRANCH  14  15
ENDBRANCH  13  14
ENDBRANCH  12  13
ENDBRANCH  11  12
ENDBRANCH   1  11
TORSDOF 15
ENDMDL
MODEL 2
REMARK VINA RESULT:    -3.882      2.380      3.442
REMARK INTER + INTRA:          -9.278
REMARK INTER:                  -7.475
REMARK INTRA:                  -1.803
REMARK UNBOUND:                -1.991
REMARK SMILES O=C([O-])CCCCCCCCCCCCCCC(=O)[O-]
REMARK SMILES IDX 10 1 9 2 8 3 7 4 6 5 5 6 4 7 2 8 1 9 3 10 11 11 12 12 13 13
REMARK SMILES IDX 14 14 15 15 16 16 17 17 18 18 19 19 20 20
REMARK H PARENT
REMARK Flexibility Score: inf
ROOT
ATOM      1  C   UNL     1     155.273 172.031 164.197  1.00  0.00     0.000 C 
ENDROOT
BRANCH   1   2
ATOM      2  C   UNL     1     153.945 171.441 163.680  1.00  0.00     0.000 C 
BRANCH   2   3
ATOM      3  C   UNL     1     152.878 172.474 163.279  1.00  0.00     0.000 C 
BRANCH   3   4
ATOM      4  C   UNL     1     153.292 173.320 162.064  1.00  0.00     0.000 C 
BRANCH   4   5
ATOM      5  C   UNL     1     153.470 174.807 162.412  1.00  0.00     0.000 C 
BRANCH   5   6
ATOM      6  C   UNL     1     154.865 175.341 162.041  1.00  0.00     0.006 C 
BRANCH   6   7
ATOM      7  C   UNL     1     155.723 174.279 161.341  1.00  0.00     0.053 C 
BRANCH   7   8
ATOM      8  C   UNL     1     157.164 174.384 161.735  1.00  0.00     0.041 C 
ATOM      9  O   UNL     1     157.801 173.359 162.095  1.00  0.00    -0.550 OA
ATOM     10  O   UNL     1     157.796 175.622 161.740  1.00  0.00    -0.550 OA
ENDBRANCH   7   8
ENDBRANCH   6   7
ENDBRANCH   5   6
ENDBRANCH   4   5
ENDBRANCH   3   4
ENDBRANCH   2   3
ENDBRANCH   1   2
BRANCH   1  11
ATOM     11  C   UNL     1     155.211 172.640 165.609  1.00  0.00     0.000 C 
BRANCH  11  12
ATOM     12  C   UNL     1     155.264 174.175 165.600  1.00  0.00     0.000 C 
BRANCH  12  13
ATOM     13  C   UNL     1     156.689 174.673 165.318  1.00  0.00     0.000 C 
BRANCH  13  14
ATOM     14  C   UNL     1     157.767 173.843 166.037  1.00  0.00     0.000 C 
BRANCH  14  15
ATOM     15  C   UNL     1     159.221 174.251 165.732  1.00  0.00     0.000 C 
BRANCH  15  16
ATOM     16  C   UNL     1     160.181 174.227 166.936  1.00  0.00     0.006 C 
BRANCH  16  17
ATOM     17  C   UNL     1     161.613 174.685 166.603  1.00  0.00     0.053 C 
BRANCH  17  18
ATOM     18  C   UNL     1     162.269 173.823 165.569  1.00  0.00     0.041 C 
ATOM     19  O   UNL     1     162.805 172.731 165.898  1.00  0.00    -0.550 OA
ATOM     20  O   UNL     1     162.325 174.241 164.244  1.00  0.00    -0.550 OA
ENDBRANCH  17  18
ENDBRANCH  16  17
ENDBRANCH  15  16
ENDBRANCH  14  15
ENDBRANCH  13  14
ENDBRANCH  12  13
ENDBRANCH  11  12
ENDBRANCH   1  11
TORSDOF 15
ENDMDL
MODEL 3
REMARK VINA RESULT:    -3.658      3.709      5.802
REMARK INTER + INTRA:          -8.857
REMARK INTER:                  -7.054
REMARK INTRA:                  -1.804
REMARK UNBOUND:                -1.991
REMARK SMILES O=C([O-])CCCCCCCCCCCCCCC(=O)[O-]
REMARK SMILES IDX 10 1 9 2 8 3 7 4 6 5 5 6 4 7 2 8 1 9 3 10 11 11 12 12 13 13
REMARK SMILES IDX 14 14 15 15 16 16 17 17 18 18 19 19 20 20
REMARK H PARENT
REMARK Flexibility Score: inf
ROOT
ATOM      1  C   UNL     1     159.108 173.496 163.638  1.00  0.00     0.000 C 
ENDROOT
BRANCH   1   2
ATOM      2  C   UNL     1     158.124 173.126 162.510  1.00  0.00     0.000 C 
BRANCH   2   3
ATOM      3  C   UNL     1     157.729 174.283 161.575  1.00  0.00     0.000 C 
BRANCH   3   4
ATOM      4  C   UNL     1     156.207 174.454 161.446  1.00  0.00     0.000 C 
BRANCH   4   5
ATOM      5  C   UNL     1     155.609 175.299 162.582  1.00  0.00     0.000 C 
BRANCH   5   6
ATOM      6  C   UNL     1     154.694 174.483 163.513  1.00  0.00     0.006 C 
BRANCH   6   7
ATOM      7  C   UNL     1     154.472 173.055 162.997  1.00  0.00     0.053 C 
BRANCH   7   8
ATOM      8  C   UNL     1     154.958 172.031 163.977  1.00  0.00     0.041 C 
ATOM      9  O   UNL     1     155.581 172.388 165.012  1.00  0.00    -0.550 OA
ATOM     10  O   UNL     1     154.753 170.680 163.729  1.00  0.00    -0.550 OA
ENDBRANCH   7   8
ENDBRANCH   6   7
ENDBRANCH   5   6
ENDBRANCH   4   5
ENDBRANCH   3   4
ENDBRANCH   2   3
ENDBRANCH   1   2
BRANCH   1  11
ATOM     11  C   UNL     1     158.515 174.362 164.764  1.00  0.00     0.000 C 
BRANCH  11  12
ATOM     12  C   UNL     1     159.071 175.794 164.771  1.00  0.00     0.000 C 
BRANCH  12  13
ATOM     13  C   UNL     1     160.548 175.806 165.193  1.00  0.00     0.000 C 
BRANCH  13  14
ATOM     14  C   UNL     1     160.753 175.414 166.667  1.00  0.00     0.000 C 
BRANCH  14  15
ATOM     15  C   UNL     1     161.694 174.217 166.902  1.00  0.00     0.000 C 
BRANCH  15  16
ATOM     16  C   UNL     1     162.180 173.499 165.628  1.00  0.00     0.006 C 
BRANCH  16  17
ATOM     17  C   UNL     1     163.673 173.118 165.657  1.00  0.00     0.053 C 
BRANCH  17  18
ATOM     18  C   UNL     1     164.473 173.842 164.618  1.00  0.00     0.041 C 
ATOM     19  O   UNL     1     164.127 174.992 164.236  1.00  0.00    -0.550 OA
ATOM     20  O   UNL     1     165.581 173.234 164.041  1.00  0.00    -0.550 OA
ENDBRANCH  17  18
ENDBRANCH  16  17
ENDBRANCH  15  16
ENDBRANCH  14  15
ENDBRANCH  13  14
ENDBRANCH  12  13
ENDBRANCH  11  12
ENDBRANCH   1  11
TORSDOF 15
ENDMDL
MODEL 4
REMARK VINA RESULT:    -3.568     14.890     18.091
REMARK INTER + INTRA:          -8.689
REMARK INTER:                  -6.082
REMARK INTRA:                  -2.607
REMARK UNBOUND:                -1.991
REMARK SMILES O=C([O-])CCCCCCCCCCCCCCC(=O)[O-]
REMARK SMILES IDX 10 1 9 2 8 3 7 4 6 5 5 6 4 7 2 8 1 9 3 10 11 11 12 12 13 13
REMARK SMILES IDX 14 14 15 15 16 16 17 17 18 18 19 19 20 20
REMARK H PARENT
REMARK Flexibility Score: inf
ROOT
ATOM      1  C   UNL     1     172.002 172.880 151.886  1.00  0.00     0.000 C 
ENDROOT
BRANCH   1   2
ATOM      2  C   UNL     1     171.943 172.245 153.291  1.00  0.00     0.000 C 
BRANCH   2   3
ATOM      3  C   UNL     1     170.829 172.780 154.208  1.00  0.00     0.000 C 
BRANCH   3   4
ATOM      4  C   UNL     1     169.946 173.837 153.522  1.00  0.00     0.000 C 
BRANCH   4   5
ATOM      5  C   UNL     1     168.503 173.352 153.310  1.00  0.00     0.000 C 
BRANCH   5   6
ATOM      6  C   UNL     1     168.357 171.829 153.474  1.00  0.00     0.006 C 
BRANCH   6   7
ATOM      7  C   UNL     1     167.202 171.264 152.636  1.00  0.00     0.053 C 
BRANCH   7   8
ATOM      8  C   UNL     1     166.338 170.340 153.438  1.00  0.00     0.041 C 
ATOM      9  O   UNL     1     165.175 170.059 153.046  1.00  0.00    -0.550 OA
ATOM     10  O   UNL     1     166.805 169.816 154.637  1.00  0.00    -0.550 OA
ENDBRANCH   7   8
ENDBRANCH   6   7
ENDBRANCH   5   6
ENDBRANCH   4   5
ENDBRANCH   3   4
ENDBRANCH   2   3
ENDBRANCH   1   2
BRANCH   1  11
ATOM     11  C   UNL     1     172.051 171.879 150.719  1.00  0.00     0.000 C 
BRANCH  11  12
ATOM     12  C   UNL     1     170.656 171.508 150.193  1.00  0.00     0.000 C 
BRANCH  12  13
ATOM     13  C   UNL     1     170.239 170.113 150.682  1.00  0.00     0.000 C 
BRANCH  13  14
ATOM     14  C   UNL     1     171.441 169.190 150.955  1.00  0.00     0.000 C 
BRANCH  14  15
ATOM     15  C   UNL     1     171.533 168.644 152.392  1.00  0.00     0.000 C 
BRANCH  15  16
ATOM     16  C   UNL     1     170.250 168.776 153.234  1.00  0.00     0.006 C 
BRANCH  16  17
ATOM     17  C   UNL     1     170.505 169.098 154.718  1.00  0.00     0.053 C 
BRANCH  17  18
ATOM     18  C   UNL     1     170.243 167.927 155.616  1.00  0.00     0.041 C 
ATOM     19  O   UNL     1     169.061 167.586 155.886  1.00  0.00    -0.550 OA
ATOM     20  O   UNL     1     171.304 167.234 156.186  1.00  0.00    -0.550 OA
ENDBRANCH  17  18
ENDBRANCH  16  17
ENDBRANCH  15  16
ENDBRANCH  14  15
ENDBRANCH  13  14
ENDBRANCH  12  13
ENDBRANCH  11  12
ENDBRANCH   1  11
TORSDOF 15
ENDMDL
MODEL 5
REMARK VINA RESULT:    -3.567     14.619     16.999
REMARK INTER + INTRA:          -8.686
REMARK INTER:                  -6.275
REMARK INTRA:                  -2.412
REMARK UNBOUND:                -1.991
REMARK SMILES O=C([O-])CCCCCCCCCCCCCCC(=O)[O-]
REMARK SMILES IDX 10 1 9 2 8 3 7 4 6 5 5 6 4 7 2 8 1 9 3 10 11 11 12 12 13 13
REMARK SMILES IDX 14 14 15 15 16 16 17 17 18 18 19 19 20 20
REMARK H PARENT
REMARK Flexibility Score: inf
ROOT
ATOM      1  C   UNL     1     171.750 172.522 152.265  1.00  0.00     0.000 C 
ENDROOT
BRANCH   1   2
ATOM      2  C   UNL     1     171.261 171.784 151.002  1.00  0.00     0.000 C 
BRANCH   2   3
ATOM      3  C   UNL     1     170.545 170.446 151.258  1.00  0.00     0.000 C 
BRANCH   3   4
ATOM      4  C   UNL     1     169.058 170.480 150.868  1.00  0.00     0.000 C 
BRANCH   4   5
ATOM      5  C   UNL     1     168.136 170.043 152.017  1.00  0.00     0.000 C 
BRANCH   5   6
ATOM      6  C   UNL     1     167.314 171.209 152.596  1.00  0.00     0.006 C 
BRANCH   6   7
ATOM      7  C   UNL     1     165.871 170.797 152.916  1.00  0.00     0.053 C 
BRANCH   7   8
ATOM      8  C   UNL     1     165.206 170.153 151.739  1.00  0.00     0.041 C 
ATOM      9  O   UNL     1     164.763 168.977 151.824  1.00  0.00    -0.550 OA
ATOM     10  O   UNL     1     165.106 170.840 150.535  1.00  0.00    -0.550 OA
ENDBRANCH   7   8
ENDBRANCH   6   7
ENDBRANCH   5   6
ENDBRANCH   4   5
ENDBRANCH   3   4
ENDBRANCH   2   3
ENDBRANCH   1   2
BRANCH   1  11
ATOM     11  C   UNL     1     170.738 173.505 152.880  1.00  0.00     0.000 C 
BRANCH  11  12
ATOM     12  C   UNL     1     170.116 172.981 154.183  1.00  0.00     0.000 C 
BRANCH  12  13
ATOM     13  C   UNL     1     170.920 171.797 154.738  1.00  0.00     0.000 C 
BRANCH  13  14
ATOM     14  C   UNL     1     170.029 170.622 155.181  1.00  0.00     0.000 C 
BRANCH  14  15
ATOM     15  C   UNL     1     170.554 169.223 154.806  1.00  0.00     0.000 C 
BRANCH  15  16
ATOM     16  C   UNL     1     169.769 168.040 155.403  1.00  0.00     0.006 C 
BRANCH  16  17
ATOM     17  C   UNL     1     168.376 167.835 154.778  1.00  0.00     0.053 C 
BRANCH  17  18
ATOM     18  C   UNL     1     167.264 168.115 155.741  1.00  0.00     0.041 C 
ATOM     19  O   UNL     1     166.801 169.281 155.856  1.00  0.00    -0.550 OA
ATOM     20  O   UNL     1     166.761 167.096 156.543  1.00  0.00    -0.550 OA
ENDBRANCH  17  18
ENDBRANCH  16  17
ENDBRANCH  15  16
ENDBRANCH  14  15
ENDBRANCH  13  14
ENDBRANCH  12  13
ENDBRANCH  11  12
ENDBRANCH   1  11
TORSDOF 15
ENDMDL
MODEL 6
REMARK VINA RESULT:    -3.493     14.657     17.798
REMARK INTER + INTRA:          -8.548
REMARK INTER:                  -6.254
REMARK INTRA:                  -2.294
REMARK UNBOUND:                -1.991
REMARK SMILES O=C([O-])CCCCCCCCCCCCCCC(=O)[O-]
REMARK SMILES IDX 10 1 9 2 8 3 7 4 6 5 5 6 4 7 2 8 1 9 3 10 11 11 12 12 13 13
REMARK SMILES IDX 14 14 15 15 16 16 17 17 18 18 19 19 20 20
REMARK H PARENT
REMARK Flexibility Score: inf
ROOT
ATOM      1  C   UNL     1     170.877 172.575 154.259  1.00  0.00     0.000 C 
ENDROOT
BRANCH   1   2
ATOM      2  C   UNL     1     170.037 173.717 153.652  1.00  0.00     0.000 C 
BRANCH   2   3
ATOM      3  C   UNL     1     168.598 173.338 153.260  1.00  0.00     0.000 C 
BRANCH   3   4
ATOM      4  C   UNL     1     168.284 171.852 153.501  1.00  0.00     0.000 C 
BRANCH   4   5
ATOM      5  C   UNL     1     167.197 171.317 152.555  1.00  0.00     0.000 C 
BRANCH   5   6
ATOM      6  C   UNL     1     166.170 170.424 153.275  1.00  0.00     0.006 C 
BRANCH   6   7
ATOM      7  C   UNL     1     164.767 170.550 152.667  1.00  0.00     0.053 C 
BRANCH   7   8
ATOM      8  C   UNL     1     164.737 170.087 151.243  1.00  0.00     0.041 C 
ATOM      9  O   UNL     1     164.513 170.906 150.313  1.00  0.00    -0.550 OA
ATOM     10  O   UNL     1     164.923 168.743 150.945  1.00  0.00    -0.550 OA
ENDBRANCH   7   8
ENDBRANCH   6   7
ENDBRANCH   5   6
ENDBRANCH   4   5
ENDBRANCH   3   4
ENDBRANCH   2   3
ENDBRANCH   1   2
BRANCH   1  11
ATOM     11  C   UNL     1     172.004 172.043 153.357  1.00  0.00     0.000 C 
BRANCH  11  12
ATOM     12  C   UNL     1     172.005 172.687 151.962  1.00  0.00     0.000 C 
BRANCH  12  13
ATOM     13  C   UNL     1     171.861 171.622 150.866  1.00  0.00     0.000 C 
BRANCH  13  14
ATOM     14  C   UNL     1     170.401 171.194 150.634  1.00  0.00     0.000 C 
BRANCH  14  15
ATOM     15  C   UNL     1     170.145 169.676 150.693  1.00  0.00     0.000 C 
BRANCH  15  16
ATOM     16  C   UNL     1     170.863 168.929 151.833  1.00  0.00     0.006 C 
BRANCH  16  17
ATOM     17  C   UNL     1     170.027 168.799 153.120  1.00  0.00     0.053 C 
BRANCH  17  18
ATOM     18  C   UNL     1     170.873 168.739 154.355  1.00  0.00     0.041 C 
ATOM     19  O   UNL     1     172.026 168.234 154.311  1.00  0.00    -0.550 OA
ATOM     20  O   UNL     1     170.375 169.207 155.565  1.00  0.00    -0.550 OA
ENDBRANCH  17  18
ENDBRANCH  16  17
ENDBRANCH  15  16
ENDBRANCH  14  15
ENDBRANCH  13  14
ENDBRANCH  12  13
ENDBRANCH  11  12
ENDBRANCH   1  11
TORSDOF 15
ENDMDL
MODEL 7
REMARK VINA RESULT:    -3.470     13.974     17.164
REMARK INTER + INTRA:          -8.505
REMARK INTER:                  -6.382
REMARK INTRA:                  -2.123
REMARK UNBOUND:                -1.991
REMARK SMILES O=C([O-])CCCCCCCCCCCCCCC(=O)[O-]
REMARK SMILES IDX 10 1 9 2 8 3 7 4 6 5 5 6 4 7 2 8 1 9 3 10 11 11 12 12 13 13
REMARK SMILES IDX 14 14 15 15 16 16 17 17 18 18 19 19 20 20
REMARK H PARENT
REMARK Flexibility Score: inf
ROOT
ATOM      1  C   UNL     1     170.393 170.610 151.324  1.00  0.00     0.000 C 
ENDROOT
BRANCH   1   2
ATOM      2  C   UNL     1     169.117 170.492 150.466  1.00  0.00     0.000 C 
BRANCH   2   3
ATOM      3  C   UNL     1     167.809 170.300 151.254  1.00  0.00     0.000 C 
BRANCH   3   4
ATOM      4  C   UNL     1     167.623 171.346 152.366  1.00  0.00     0.000 C 
BRANCH   4   5
ATOM      5  C   UNL     1     166.515 170.960 153.360  1.00  0.00     0.000 C 
BRANCH   5   6
ATOM      6  C   UNL     1     165.961 169.546 153.112  1.00  0.00     0.006 C 
BRANCH   6   7
ATOM      7  C   UNL     1     164.428 169.516 153.115  1.00  0.00     0.053 C 
BRANCH   7   8
ATOM      8  C   UNL     1     163.855 170.394 152.045  1.00  0.00     0.041 C 
ATOM      9  O   UNL     1     164.221 170.257 150.848  1.00  0.00    -0.550 OA
ATOM     10  O   UNL     1     162.943 171.389 152.376  1.00  0.00    -0.550 OA
ENDBRANCH   7   8
ENDBRANCH   6   7
ENDBRANCH   5   6
ENDBRANCH   4   5
ENDBRANCH   3   4
ENDBRANCH   2   3
ENDBRANCH   1   2
BRANCH   1  11
ATOM     11  C   UNL     1     171.299 171.807 150.986  1.00  0.00     0.000 C 
BRANCH  11  12
ATOM     12  C   UNL     1     171.870 172.494 152.236  1.00  0.00     0.000 C 
BRANCH  12  13
ATOM     13  C   UNL     1     170.887 173.538 152.785  1.00  0.00     0.000 C 
BRANCH  13  14
ATOM     14  C   UNL     1     170.297 173.146 154.151  1.00  0.00     0.000 C 
BRANCH  14  15
ATOM     15  C   UNL     1     170.824 171.822 154.737  1.00  0.00     0.000 C 
BRANCH  15  16
ATOM     16  C   UNL     1     169.743 170.791 155.116  1.00  0.00     0.006 C 
BRANCH  16  17
ATOM     17  C   UNL     1     170.306 169.413 155.513  1.00  0.00     0.053 C 
BRANCH  17  18
ATOM     18  C   UNL     1     170.546 168.525 154.331  1.00  0.00     0.041 C 
ATOM     19  O   UNL     1     171.720 168.291 153.940  1.00  0.00    -0.550 OA
ATOM     20  O   UNL     1     169.471 167.985 153.634  1.00  0.00    -0.550 OA
ENDBRANCH  17  18
ENDBRANCH  16  17
ENDBRANCH  15  16
ENDBRANCH  14  15
ENDBRANCH  13  14
ENDBRANCH  12  13
ENDBRANCH  11  12
ENDBRANCH   1  11
TORSDOF 15
ENDMDL
MODEL 8
REMARK VINA RESULT:    -3.462     14.309     17.746
REMARK INTER + INTRA:          -8.489
REMARK INTER:                  -6.079
REMARK INTRA:                  -2.410
REMARK UNBOUND:                -1.991
REMARK SMILES O=C([O-])CCCCCCCCCCCCCCC(=O)[O-]
REMARK SMILES IDX 10 1 9 2 8 3 7 4 6 5 5 6 4 7 2 8 1 9 3 10 11 11 12 12 13 13
REMARK SMILES IDX 14 14 15 15 16 16 17 17 18 18 19 19 20 20
REMARK H PARENT
REMARK Flexibility Score: inf
ROOT
ATOM      1  C   UNL     1     171.763 171.626 151.408  1.00  0.00     0.000 C 
ENDROOT
BRANCH   1   2
ATOM      2  C   UNL     1     171.758 173.030 152.046  1.00  0.00     0.000 C 
BRANCH   2   3
ATOM      3  C   UNL     1     170.767 173.221 153.208  1.00  0.00     0.000 C 
BRANCH   3   4
ATOM      4  C   UNL     1     171.042 172.275 154.389  1.00  0.00     0.000 C 
BRANCH   4   5
ATOM      5  C   UNL     1     169.858 171.340 154.685  1.00  0.00     0.000 C 
BRANCH   5   6
ATOM      6  C   UNL     1     170.269 170.099 155.496  1.00  0.00     0.006 C 
BRANCH   6   7
ATOM      7  C   UNL     1     170.723 168.943 154.596  1.00  0.00     0.053 C 
BRANCH   7   8
ATOM      8  C   UNL     1     169.804 167.765 154.701  1.00  0.00     0.041 C 
ATOM      9  O   UNL     1     169.754 166.913 153.775  1.00  0.00    -0.550 OA
ATOM     10  O   UNL     1     168.976 167.626 155.808  1.00  0.00    -0.550 OA
ENDBRANCH   7   8
ENDBRANCH   6   7
ENDBRANCH   5   6
ENDBRANCH   4   5
ENDBRANCH   3   4
ENDBRANCH   2   3
ENDBRANCH   1   2
BRANCH   1  11
ATOM     11  C   UNL     1     171.097 171.536 150.023  1.00  0.00     0.000 C 
BRANCH  11  12
ATOM     12  C   UNL     1     169.728 170.840 150.063  1.00  0.00     0.000 C 
BRANCH  12  13
ATOM     13  C   UNL     1     169.701 169.746 151.140  1.00  0.00     0.000 C 
BRANCH  13  14
ATOM     14  C   UNL     1     168.311 169.563 151.774  1.00  0.00     0.000 C 
BRANCH  14  15
ATOM     15  C   UNL     1     167.481 170.853 151.918  1.00  0.00     0.000 C 
BRANCH  15  16
ATOM     16  C   UNL     1     166.476 170.866 153.085  1.00  0.00     0.006 C 
BRANCH  16  17
ATOM     17  C   UNL     1     166.609 169.664 154.039  1.00  0.00     0.053 C 
BRANCH  17  18
ATOM     18  C   UNL     1     165.308 168.956 154.260  1.00  0.00     0.041 C 
ATOM     19  O   UNL     1     165.251 167.954 155.022  1.00  0.00    -0.550 OA
ATOM     20  O   UNL     1     164.162 169.377 153.595  1.00  0.00    -0.550 OA
ENDBRANCH  17  18
ENDBRANCH  16  17
ENDBRANCH  15  16
ENDBRANCH  14  15
ENDBRANCH  13  14
ENDBRANCH  12  13
ENDBRANCH  11  12
ENDBRANCH   1  11
TORSDOF 15
ENDMDL
MODEL 9
REMARK VINA RESULT:    -3.442     15.323     18.016
REMARK INTER + INTRA:          -8.452
REMARK INTER:                  -6.704
REMARK INTRA:                  -1.748
REMARK UNBOUND:                -1.991
REMARK SMILES O=C([O-])CCCCCCCCCCCCCCC(=O)[O-]
REMARK SMILES IDX 10 1 9 2 8 3 7 4 6 5 5 6 4 7 2 8 1 9 3 10 11 11 12 12 13 13
REMARK SMILES IDX 14 14 15 15 16 16 17 17 18 18 19 19 20 20
REMARK H PARENT
REMARK Flexibility Score: inf
ROOT
ATOM      1  C   UNL     1     170.445 171.177 150.155  1.00  0.00     0.000 C 
ENDROOT
BRANCH   1   2
ATOM      2  C   UNL     1     171.671 172.014 150.572  1.00  0.00     0.000 C 
BRANCH   2   3
ATOM      3  C   UNL     1     171.925 172.098 152.088  1.00  0.00     0.000 C 
BRANCH   3   4
ATOM      4  C   UNL     1     171.215 173.293 152.747  1.00  0.00     0.000 C 
BRANCH   4   5
ATOM      5  C   UNL     1     170.329 172.872 153.931  1.00  0.00     0.000 C 
BRANCH   5   6
ATOM      6  C   UNL     1     170.806 171.569 154.597  1.00  0.00     0.006 C 
BRANCH   6   7
ATOM      7  C   UNL     1     169.635 170.675 155.023  1.00  0.00     0.053 C 
BRANCH   7   8
ATOM      8  C   UNL     1     169.913 169.229 154.747  1.00  0.00     0.041 C 
ATOM      9  O   UNL     1     168.967 168.436 154.499  1.00  0.00    -0.550 OA
ATOM     10  O   UNL     1     171.216 168.750 154.797  1.00  0.00    -0.550 OA
ENDBRANCH   7   8
ENDBRANCH   6   7
ENDBRANCH   5   6
ENDBRANCH   4   5
ENDBRANCH   3   4
ENDBRANCH   2   3
ENDBRANCH   1   2
BRANCH   1  11
ATOM     11  C   UNL     1     170.103 170.006 151.094  1.00  0.00     0.000 C 
BRANCH  11  12
ATOM     12  C   UNL     1     168.593 169.741 151.191  1.00  0.00     0.000 C 
BRANCH  12  13
ATOM     13  C   UNL     1     167.889 170.865 151.966  1.00  0.00     0.000 C 
BRANCH  13  14
ATOM     14  C   UNL     1     166.356 170.723 151.965  1.00  0.00     0.000 C 
BRANCH  14  15
ATOM     15  C   UNL     1     165.725 170.427 150.592  1.00  0.00     0.000 C 
BRANCH  15  16
ATOM     16  C   UNL     1     164.212 170.137 150.608  1.00  0.00     0.006 C 
BRANCH  16  17
ATOM     17  C   UNL     1     163.334 171.391 150.434  1.00  0.00     0.053 C 
BRANCH  17  18
ATOM     18  C   UNL     1     163.119 171.750 148.996  1.00  0.00     0.041 C 
ATOM     19  O   UNL     1     163.097 172.958 148.639  1.00  0.00    -0.550 OA
ATOM     20  O   UNL     1     162.904 170.753 148.052  1.00  0.00    -0.550 OA
ENDBRANCH  17  18
ENDBRANCH  16  17
ENDBRANCH  15  16
ENDBRANCH  14  15
ENDBRANCH  13  14
ENDBRANCH  12  13
ENDBRANCH  11  12
ENDBRANCH   1  11
TORSDOF 15
ENDMDL
