MODEL 1
REMARK VINA RESULT:    -3.690      0.000      0.000
REMARK INTER + INTRA:          -5.826
REMARK INTER:                  -5.632
REMARK INTRA:                  -0.194
REMARK UNBOUND:                -0.194
REMARK SMILES CC1=CCC[C@@H](C)C(=O)C[C@H](C(C)C)C(=O)C1
REMARK SMILES IDX 8 1 9 2 6 3 7 4 5 5 4 6 3 7 2 8 1 9 10 11 11 12 15 13 16 14
REMARK SMILES IDX 17 15 12 17 13 18 14 19
REMARK H PARENT
REMARK Flexibility Score: 70.00
ROOT
ATOM      1  C   UNL     1      16.870  42.609  19.388  1.00  0.00     0.136 C 
ATOM      2  O   UNL     1      15.996  41.785  19.616  1.00  0.00    -0.299 OA
ENDROOT
BRANCH   1   3
ATOM      3  C   UNL     1      18.311  42.225  19.715  1.00  0.00     0.053 C 
ATOM      4  C   UNL     1      18.657  40.924  18.976  1.00  0.00     0.016 C 
BRANCH   3   5
ATOM      5  C   UNL     1      18.678  42.070  21.218  1.00  0.00     0.015 C 
BRANCH   5   6
ATOM      6  C   UNL     1      18.824  43.374  22.024  1.00  0.00     0.028 C 
BRANCH   6   7
ATOM      7  C   UNL     1      19.596  44.439  21.285  1.00  0.00    -0.028 C 
ATOM      8  C   UNL     1      19.124  45.671  20.983  1.00  0.00    -0.070 CG0
ATOM      9  C   UNL     1      20.033  46.616  20.239  1.00  0.00     0.039 C 
ATOM     10  G   UNL     1      17.718  46.125  21.333  1.00  0.00     0.000 G0
ENDBRANCH   6   7
ENDBRANCH   5   6
ENDBRANCH   3   5
ENDBRANCH   1   3
BRANCH   1  11
ATOM     11  C   UNL     1      16.441  43.943  18.812  1.00  0.00     0.087 C 
BRANCH  11  12
ATOM     12  C   UNL     1      15.872  44.951  19.866  1.00  0.00     0.066 C 
BRANCH  12  13
ATOM     13  C   UNL     1      16.801  46.129  20.159  1.00  0.00     0.140 C 
ATOM     14  O   UNL     1      16.806  47.103  19.421  1.00  0.00    -0.299 OA
BRANCH  13  15
ATOM     15  C   UNL     1      17.712  46.143  21.361  1.00  0.00     0.106 CG0
ATOM     16  G   UNL     1      19.102  45.665  20.979  1.00  0.00     0.000 G0
ENDBRANCH  13  15
ENDBRANCH  12  13
BRANCH  12  17
ATOM     17  C   UNL     1      14.413  45.431  19.576  1.00  0.00    -0.006 C 
ATOM     18  C   UNL     1      13.514  44.370  18.913  1.00  0.00     0.008 C 
ATOM     19  C   UNL     1      13.735  45.973  20.844  1.00  0.00     0.008 C 
ENDBRANCH  12  17
ENDBRANCH  11  12
ENDBRANCH   1  11
TORSDOF 1
ENDMDL
MODEL 2
REMARK VINA RESULT:    -3.527      1.834      3.979
REMARK INTER + INTRA:          -5.577
REMARK INTER:                  -5.631
REMARK INTRA:                   0.054
REMARK UNBOUND:                -0.194
REMARK SMILES CC1=CCC[C@@H](C)C(=O)C[C@H](C(C)C)C(=O)C1
REMARK SMILES IDX 8 1 9 2 6 3 7 4 5 5 4 6 3 7 2 8 1 9 10 11 11 12 15 13 16 14
REMARK SMILES IDX 17 15 12 17 13 18 14 19
REMARK H PARENT
REMARK Flexibility Score: 70.00
ROOT
ATOM      1  C   UNL     1      15.925  45.850  20.017  1.00  0.00     0.136 C 
ATOM      2  O   UNL     1      15.309  46.222  21.004  1.00  0.00    -0.299 OA
ENDROOT
BRANCH   1   3
ATOM      3  C   UNL     1      15.433  44.590  19.307  1.00  0.00     0.053 C 
ATOM      4  C   UNL     1      13.986  44.815  18.844  1.00  0.00     0.016 C 
BRANCH   3   5
ATOM      5  C   UNL     1      15.513  43.255  20.098  1.00  0.00     0.015 C 
BRANCH   5   6
ATOM      6  C   UNL     1      16.826  42.460  19.967  1.00  0.00     0.028 C 
BRANCH   6   7
ATOM      7  C   UNL     1      17.727  42.613  21.169  1.00  0.00    -0.028 C 
ATOM      8  C   UNL     1      18.748  43.496  21.264  1.00  0.00    -0.070 CG0
ATOM      9  C   UNL     1      19.549  43.518  22.542  1.00  0.00     0.039 C 
ATOM     10  G   UNL     1      19.137  44.434  20.136  1.00  0.00     0.000 G0
ENDBRANCH   6   7
ENDBRANCH   5   6
ENDBRANCH   3   5
ENDBRANCH   1   3
BRANCH   1  11
ATOM     11  C   UNL     1      17.129  46.665  19.594  1.00  0.00     0.087 C 
BRANCH  11  12
ATOM     12  C   UNL     1      18.213  46.847  20.709  1.00  0.00     0.066 C 
BRANCH  12  13
ATOM     13  C   UNL     1      19.366  45.847  20.620  1.00  0.00     0.140 C 
ATOM     14  O   UNL     1      20.490  46.176  20.969  1.00  0.00    -0.299 OA
BRANCH  13  15
ATOM     15  C   UNL     1      19.158  44.436  20.128  1.00  0.00     0.106 CG0
ATOM     16  G   UNL     1      18.743  43.530  21.274  1.00  0.00     0.000 G0
ENDBRANCH  13  15
ENDBRANCH  12  13
BRANCH  12  17
ATOM     17  C   UNL     1      18.737  48.311  20.864  1.00  0.00    -0.006 C 
ATOM     18  C   UNL     1      18.479  49.213  19.642  1.00  0.00     0.008 C 
ATOM     19  C   UNL     1      18.179  48.978  22.132  1.00  0.00     0.008 C 
ENDBRANCH  12  17
ENDBRANCH  11  12
ENDBRANCH   1  11
TORSDOF 1
ENDMDL
MODEL 3
REMARK VINA RESULT:    -3.416      1.643      4.055
REMARK INTER + INTRA:          -5.407
REMARK INTER:                  -5.599
REMARK INTRA:                   0.192
REMARK UNBOUND:                -0.194
REMARK SMILES CC1=CCC[C@@H](C)C(=O)C[C@H](C(C)C)C(=O)C1
REMARK SMILES IDX 8 1 9 2 6 3 7 4 5 5 4 6 3 7 2 8 1 9 10 11 11 12 15 13 16 14
REMARK SMILES IDX 17 15 12 17 13 18 14 19
REMARK H PARENT
REMARK Flexibility Score: 70.00
ROOT
ATOM      1  C   UNL     1      18.242  47.665  20.432  1.00  0.00     0.136 C 
ATOM      2  O   UNL     1      18.068  48.312  19.410  1.00  0.00    -0.299 OA
ENDROOT
BRANCH   1   3
ATOM      3  C   UNL     1      19.594  47.789  21.129  1.00  0.00     0.053 C 
ATOM      4  C   UNL     1      20.288  49.071  20.643  1.00  0.00     0.016 C 
BRANCH   3   5
ATOM      5  C   UNL     1      20.577  46.593  20.985  1.00  0.00     0.015 C 
BRANCH   5   6
ATOM      6  C   UNL     1      20.278  45.595  19.851  1.00  0.00     0.028 C 
BRANCH   6   7
ATOM      7  C   UNL     1      20.437  44.156  20.278  1.00  0.00    -0.028 C 
ATOM      8  C   UNL     1      19.584  43.490  21.090  1.00  0.00    -0.070 CG0
ATOM      9  C   UNL     1      19.893  42.050  21.415  1.00  0.00     0.039 C 
ATOM     10  G   UNL     1      18.357  44.137  21.708  1.00  0.00     0.000 G0
ENDBRANCH   6   7
ENDBRANCH   5   6
ENDBRANCH   3   5
ENDBRANCH   1   3
BRANCH   1  11
ATOM     11  C   UNL     1      17.102  46.789  20.907  1.00  0.00     0.087 C 
BRANCH  11  12
ATOM     12  C   UNL     1      16.847  45.521  20.025  1.00  0.00     0.066 C 
BRANCH  12  13
ATOM     13  C   UNL     1      17.221  44.206  20.709  1.00  0.00     0.140 C 
ATOM     14  O   UNL     1      16.611  43.181  20.440  1.00  0.00    -0.299 OA
BRANCH  13  15
ATOM     15  C   UNL     1      18.348  44.122  21.707  1.00  0.00     0.106 CG0
ATOM     16  G   UNL     1      19.572  43.485  21.074  1.00  0.00     0.000 G0
ENDBRANCH  13  15
ENDBRANCH  12  13
BRANCH  12  17
ATOM     17  C   UNL     1      15.418  45.452  19.394  1.00  0.00    -0.006 C 
ATOM     18  C   UNL     1      14.293  45.972  20.308  1.00  0.00     0.008 C 
ATOM     19  C   UNL     1      15.365  46.173  18.038  1.00  0.00     0.008 C 
ENDBRANCH  12  17
ENDBRANCH  11  12
ENDBRANCH   1  11
TORSDOF 1
ENDMDL
MODEL 4
REMARK VINA RESULT:    -3.352      2.003      5.024
REMARK INTER + INTRA:          -5.309
REMARK INTER:                  -5.168
REMARK INTRA:                  -0.141
REMARK UNBOUND:                -0.194
REMARK SMILES CC1=CCC[C@@H](C)C(=O)C[C@H](C(C)C)C(=O)C1
REMARK SMILES IDX 8 1 9 2 6 3 7 4 5 5 4 6 3 7 2 8 1 9 10 11 11 12 15 13 16 14
REMARK SMILES IDX 17 15 12 17 13 18 14 19
REMARK H PARENT
REMARK Flexibility Score: 70.00
ROOT
ATOM      1  C   UNL     1      19.849  45.140  20.725  1.00  0.00     0.136 C 
ATOM      2  O   UNL     1      20.553  45.082  21.722  1.00  0.00    -0.299 OA
ENDROOT
BRANCH   1   3
ATOM      3  C   UNL     1      19.370  46.518  20.274  1.00  0.00     0.053 C 
ATOM      4  C   UNL     1      20.533  47.514  20.404  1.00  0.00     0.016 C 
BRANCH   3   5
ATOM      5  C   UNL     1      18.119  47.102  20.987  1.00  0.00     0.015 C 
BRANCH   5   6
ATOM      6  C   UNL     1      16.940  46.134  21.202  1.00  0.00     0.028 C 
BRANCH   6   7
ATOM      7  C   UNL     1      16.187  45.834  19.929  1.00  0.00    -0.028 C 
ATOM      8  C   UNL     1      15.720  44.615  19.574  1.00  0.00    -0.070 CG0
ATOM      9  C   UNL     1      14.984  44.491  18.263  1.00  0.00     0.039 C 
ATOM     10  G   UNL     1      15.932  43.370  20.418  1.00  0.00     0.000 G0
ENDBRANCH   6   7
ENDBRANCH   5   6
ENDBRANCH   3   5
ENDBRANCH   1   3
BRANCH   1  11
ATOM     11  C   UNL     1      19.504  43.838  20.034  1.00  0.00     0.087 C 
BRANCH  11  12
ATOM     12  C   UNL     1      18.507  42.927  20.826  1.00  0.00     0.066 C 
BRANCH  12  13
ATOM     13  C   UNL     1      17.204  42.642  20.081  1.00  0.00     0.140 C 
ATOM     14  O   UNL     1      17.179  41.808  19.188  1.00  0.00    -0.299 OA
BRANCH  13  15
ATOM     15  C   UNL     1      15.919  43.352  20.428  1.00  0.00     0.106 CG0
ATOM     16  G   UNL     1      15.750  44.594  19.572  1.00  0.00     0.000 G0
ENDBRANCH  13  15
ENDBRANCH  12  13
BRANCH  12  17
ATOM     17  C   UNL     1      19.142  41.615  21.390  1.00  0.00    -0.006 C 
ATOM     18  C   UNL     1      20.680  41.639  21.480  1.00  0.00     0.008 C 
ATOM     19  C   UNL     1      18.545  41.240  22.755  1.00  0.00     0.008 C 
ENDBRANCH  12  17
ENDBRANCH  11  12
ENDBRANCH   1  11
TORSDOF 1
ENDMDL
MODEL 5
REMARK VINA RESULT:    -3.196      1.980      4.113
REMARK INTER + INTRA:          -5.071
REMARK INTER:                  -5.233
REMARK INTRA:                   0.162
REMARK UNBOUND:                -0.194
REMARK SMILES CC1=CCC[C@@H](C)C(=O)C[C@H](C(C)C)C(=O)C1
REMARK SMILES IDX 8 1 9 2 6 3 7 4 5 5 4 6 3 7 2 8 1 9 10 11 11 12 15 13 16 14
REMARK SMILES IDX 17 15 12 17 13 18 14 19
REMARK H PARENT
REMARK Flexibility Score: 70.00
ROOT
ATOM      1  C   UNL     1      16.623  46.626  20.031  1.00  0.00     0.136 C 
ATOM      2  O   UNL     1      16.920  47.333  19.080  1.00  0.00    -0.299 OA
ENDROOT
BRANCH   1   3
ATOM      3  C   UNL     1      17.744  46.197  20.974  1.00  0.00     0.053 C 
ATOM      4  C   UNL     1      18.824  47.289  20.990  1.00  0.00     0.016 C 
BRANCH   3   5
ATOM      5  C   UNL     1      18.414  44.822  20.699  1.00  0.00     0.015 C 
BRANCH   5   6
ATOM      6  C   UNL     1      18.015  44.117  19.389  1.00  0.00     0.028 C 
BRANCH   6   7
ATOM      7  C   UNL     1      17.605  42.679  19.597  1.00  0.00    -0.028 C 
ATOM      8  C   UNL     1      16.430  42.278  20.135  1.00  0.00    -0.070 CG0
ATOM      9  C   UNL     1      16.181  40.797  20.270  1.00  0.00     0.039 C 
ATOM     10  G   UNL     1      15.376  43.250  20.635  1.00  0.00     0.000 G0
ENDBRANCH   6   7
ENDBRANCH   5   6
ENDBRANCH   3   5
ENDBRANCH   1   3
BRANCH   1  11
ATOM     11  C   UNL     1      15.169  46.229  20.180  1.00  0.00     0.087 C 
BRANCH  11  12
ATOM     12  C   UNL     1      14.646  45.254  19.072  1.00  0.00     0.066 C 
BRANCH  12  13
ATOM     13  C   UNL     1      14.527  43.801  19.532  1.00  0.00     0.140 C 
ATOM     14  O   UNL     1      13.742  43.046  18.978  1.00  0.00    -0.299 OA
BRANCH  13  15
ATOM     15  C   UNL     1      15.374  43.251  20.653  1.00  0.00     0.106 CG0
ATOM     16  G   UNL     1      16.407  42.280  20.110  1.00  0.00     0.000 G0
ENDBRANCH  13  15
ENDBRANCH  12  13
BRANCH  12  17
ATOM     17  C   UNL     1      13.343  45.735  18.354  1.00  0.00    -0.006 C 
ATOM     18  C   UNL     1      12.192  46.109  19.307  1.00  0.00     0.008 C 
ATOM     19  C   UNL     1      13.626  46.902  17.394  1.00  0.00     0.008 C 
ENDBRANCH  12  17
ENDBRANCH  11  12
ENDBRANCH   1  11
TORSDOF 1
ENDMDL
MODEL 6
REMARK VINA RESULT:    -3.131      2.547      4.866
REMARK INTER + INTRA:          -4.972
REMARK INTER:                  -5.088
REMARK INTRA:                   0.116
REMARK UNBOUND:                -0.194
REMARK SMILES CC1=CCC[C@@H](C)C(=O)C[C@H](C(C)C)C(=O)C1
REMARK SMILES IDX 8 1 9 2 6 3 7 4 5 5 4 6 3 7 2 8 1 9 10 11 11 12 15 13 16 14
REMARK SMILES IDX 17 15 12 17 13 18 14 19
REMARK H PARENT
REMARK Flexibility Score: 70.00
ROOT
ATOM      1  C   UNL     1      17.608  43.973  20.070  1.00  0.00     0.136 C 
ATOM      2  O   UNL     1      17.254  44.285  18.943  1.00  0.00    -0.299 OA
ENDROOT
BRANCH   1   3
ATOM      3  C   UNL     1      18.342  45.024  20.900  1.00  0.00     0.053 C 
ATOM      4  C   UNL     1      17.522  46.323  20.893  1.00  0.00     0.016 C 
BRANCH   3   5
ATOM      5  C   UNL     1      19.808  45.346  20.497  1.00  0.00     0.015 C 
BRANCH   5   6
ATOM      6  C   UNL     1      20.823  44.194  20.631  1.00  0.00     0.028 C 
BRANCH   6   7
ATOM      7  C   UNL     1      21.264  43.963  22.055  1.00  0.00    -0.028 C 
ATOM      8  C   UNL     1      21.240  42.768  22.690  1.00  0.00    -0.070 CG0
ATOM      9  C   UNL     1      21.720  42.714  24.118  1.00  0.00     0.039 C 
ATOM     10  G   UNL     1      20.722  41.498  22.040  1.00  0.00     0.000 G0
ENDBRANCH   6   7
ENDBRANCH   5   6
ENDBRANCH   3   5
ENDBRANCH   1   3
BRANCH   1  11
ATOM     11  C   UNL     1      17.296  42.567  20.538  1.00  0.00     0.087 C 
BRANCH  11  12
ATOM     12  C   UNL     1      18.526  41.599  20.547  1.00  0.00     0.066 C 
BRANCH  12  13
ATOM     13  C   UNL     1      19.218  41.490  21.906  1.00  0.00     0.140 C 
ATOM     14  O   UNL     1      18.552  41.383  22.925  1.00  0.00    -0.299 OA
BRANCH  13  15
ATOM     15  C   UNL     1      20.721  41.489  22.034  1.00  0.00     0.106 CG0
ATOM     16  G   UNL     1      21.198  42.768  22.699  1.00  0.00     0.000 G0
ENDBRANCH  13  15
ENDBRANCH  12  13
BRANCH  12  17
ATOM     17  C   UNL     1      18.240  40.188  19.937  1.00  0.00    -0.006 C 
ATOM     18  C   UNL     1      16.759  39.928  19.603  1.00  0.00     0.008 C 
ATOM     19  C   UNL     1      19.110  39.924  18.697  1.00  0.00     0.008 C 
ENDBRANCH  12  17
ENDBRANCH  11  12
ENDBRANCH   1  11
TORSDOF 1
ENDMDL
MODEL 7
REMARK VINA RESULT:    -3.087      3.324      6.172
REMARK INTER + INTRA:          -4.905
REMARK INTER:                  -4.635
REMARK INTRA:                  -0.270
REMARK UNBOUND:                -0.194
REMARK SMILES CC1=CCC[C@@H](C)C(=O)C[C@H](C(C)C)C(=O)C1
REMARK SMILES IDX 8 1 9 2 6 3 7 4 5 5 4 6 3 7 2 8 1 9 10 11 11 12 15 13 16 14
REMARK SMILES IDX 17 15 12 17 13 18 14 19
REMARK H PARENT
REMARK Flexibility Score: 70.00
ROOT
ATOM      1  C   UNL     1      18.641  43.324  20.349  1.00  0.00     0.136 C 
ATOM      2  O   UNL     1      18.628  44.457  20.808  1.00  0.00    -0.299 OA
ENDROOT
BRANCH   1   3
ATOM      3  C   UNL     1      17.408  42.856  19.580  1.00  0.00     0.053 C 
ATOM      4  C   UNL     1      16.874  44.026  18.739  1.00  0.00     0.016 C 
BRANCH   3   5
ATOM      5  C   UNL     1      16.242  42.253  20.411  1.00  0.00     0.015 C 
BRANCH   5   6
ATOM      6  C   UNL     1      16.328  40.746  20.719  1.00  0.00     0.028 C 
BRANCH   6   7
ATOM      7  C   UNL     1      17.107  39.979  19.678  1.00  0.00    -0.028 C 
ATOM      8  C   UNL     1      18.210  39.236  19.928  1.00  0.00    -0.070 CG0
ATOM      9  C   UNL     1      18.867  38.530  18.769  1.00  0.00     0.039 C 
ATOM     10  G   UNL     1      18.827  39.112  21.310  1.00  0.00     0.000 G0
ENDBRANCH   6   7
ENDBRANCH   5   6
ENDBRANCH   3   5
ENDBRANCH   1   3
BRANCH   1  11
ATOM     11  C   UNL     1      19.876  42.483  20.595  1.00  0.00     0.087 C 
BRANCH  11  12
ATOM     12  C   UNL     1      19.772  41.525  21.829  1.00  0.00     0.066 C 
BRANCH  12  13
ATOM     13  C   UNL     1      19.991  40.051  21.489  1.00  0.00     0.140 C 
ATOM     14  O   UNL     1      21.125  39.610  21.377  1.00  0.00    -0.299 OA
BRANCH  13  15
ATOM     15  C   UNL     1      18.836  39.099  21.303  1.00  0.00     0.106 CG0
ATOM     16  G   UNL     1      18.230  39.263  19.920  1.00  0.00     0.000 G0
ENDBRANCH  13  15
ENDBRANCH  12  13
BRANCH  12  17
ATOM     17  C   UNL     1      20.635  41.962  23.058  1.00  0.00    -0.006 C 
ATOM     18  C   UNL     1      21.887  42.783  22.697  1.00  0.00     0.008 C 
ATOM     19  C   UNL     1      19.794  42.722  24.096  1.00  0.00     0.008 C 
ENDBRANCH  12  17
ENDBRANCH  11  12
ENDBRANCH   1  11
TORSDOF 1
ENDMDL
MODEL 8
REMARK VINA RESULT:    -3.024      1.686      2.317
REMARK INTER + INTRA:          -4.809
REMARK INTER:                  -4.959
REMARK INTRA:                   0.149
REMARK UNBOUND:                -0.194
REMARK SMILES CC1=CCC[C@@H](C)C(=O)C[C@H](C(C)C)C(=O)C1
REMARK SMILES IDX 8 1 9 2 6 3 7 4 5 5 4 6 3 7 2 8 1 9 10 11 11 12 15 13 16 14
REMARK SMILES IDX 17 15 12 17 13 18 14 19
REMARK H PARENT
REMARK Flexibility Score: 70.00
ROOT
ATOM      1  C   UNL     1      17.373  41.377  19.672  1.00  0.00     0.136 C 
ATOM      2  O   UNL     1      16.359  41.125  20.305  1.00  0.00    -0.299 OA
ENDROOT
BRANCH   1   3
ATOM      3  C   UNL     1      18.382  40.249  19.470  1.00  0.00     0.053 C 
ATOM      4  C   UNL     1      17.680  39.073  18.775  1.00  0.00     0.016 C 
BRANCH   3   5
ATOM      5  C   UNL     1      19.121  39.725  20.734  1.00  0.00     0.015 C 
BRANCH   5   6
ATOM      6  C   UNL     1      19.300  40.730  21.887  1.00  0.00     0.028 C 
BRANCH   6   7
ATOM      7  C   UNL     1      20.364  41.763  21.607  1.00  0.00    -0.028 C 
ATOM      8  C   UNL     1      20.193  43.101  21.712  1.00  0.00    -0.070 CG0
ATOM      9  C   UNL     1      21.367  43.993  21.395  1.00  0.00     0.039 C 
ATOM     10  G   UNL     1      18.870  43.736  22.101  1.00  0.00     0.000 G0
ENDBRANCH   6   7
ENDBRANCH   5   6
ENDBRANCH   3   5
ENDBRANCH   1   3
BRANCH   1  11
ATOM     11  C   UNL     1      17.543  42.789  19.154  1.00  0.00     0.087 C 
BRANCH  11  12
ATOM     12  C   UNL     1      17.095  43.906  20.156  1.00  0.00     0.066 C 
BRANCH  12  13
ATOM     13  C   UNL     1      18.241  44.494  20.980  1.00  0.00     0.140 C 
ATOM     14  O   UNL     1      18.668  45.610  20.725  1.00  0.00    -0.299 OA
BRANCH  13  15
ATOM     15  C   UNL     1      18.861  43.740  22.130  1.00  0.00     0.106 CG0
ATOM     16  G   UNL     1      20.185  43.127  21.711  1.00  0.00     0.000 G0
ENDBRANCH  13  15
ENDBRANCH  12  13
BRANCH  12  17
ATOM     17  C   UNL     1      16.215  45.029  19.518  1.00  0.00    -0.006 C 
ATOM     18  C   UNL     1      15.318  44.553  18.359  1.00  0.00     0.008 C 
ATOM     19  C   UNL     1      15.363  45.748  20.576  1.00  0.00     0.008 C 
ENDBRANCH  12  17
ENDBRANCH  11  12
ENDBRANCH   1  11
TORSDOF 1
ENDMDL
MODEL 9
REMARK VINA RESULT:    -3.013      2.674      5.856
REMARK INTER + INTRA:          -4.791
REMARK INTER:                  -4.868
REMARK INTRA:                   0.076
REMARK UNBOUND:                -0.194
REMARK SMILES CC1=CCC[C@@H](C)C(=O)C[C@H](C(C)C)C(=O)C1
REMARK SMILES IDX 8 1 9 2 6 3 7 4 5 5 4 6 3 7 2 8 1 9 10 11 11 12 15 13 16 14
REMARK SMILES IDX 17 15 12 17 13 18 14 19
REMARK H PARENT
REMARK Flexibility Score: 70.00
ROOT
ATOM      1  C   UNL     1      19.291  45.084  20.547  1.00  0.00     0.136 C 
ATOM      2  O   UNL     1      19.742  46.090  21.072  1.00  0.00    -0.299 OA
ENDROOT
BRANCH   1   3
ATOM      3  C   UNL     1      17.890  45.165  19.944  1.00  0.00     0.053 C 
ATOM      4  C   UNL     1      16.949  45.824  20.964  1.00  0.00     0.016 C 
BRANCH   3   5
ATOM      5  C   UNL     1      17.254  43.837  19.448  1.00  0.00     0.015 C 
BRANCH   5   6
ATOM      6  C   UNL     1      16.330  43.108  20.443  1.00  0.00     0.028 C 
BRANCH   6   7
ATOM      7  C   UNL     1      16.441  41.605  20.353  1.00  0.00    -0.028 C 
ATOM      8  C   UNL     1      17.204  40.835  21.164  1.00  0.00    -0.070 CG0
ATOM      9  C   UNL     1      17.197  39.344  20.937  1.00  0.00     0.039 C 
ATOM     10  G   UNL     1      18.083  41.408  22.261  1.00  0.00     0.000 G0
ENDBRANCH   6   7
ENDBRANCH   5   6
ENDBRANCH   3   5
ENDBRANCH   1   3
BRANCH   1  11
ATOM     11  C   UNL     1      20.157  43.841  20.553  1.00  0.00     0.087 C 
BRANCH  11  12
ATOM     12  C   UNL     1      20.131  43.039  21.897  1.00  0.00     0.066 C 
BRANCH  12  13
ATOM     13  C   UNL     1      19.487  41.658  21.781  1.00  0.00     0.140 C 
ATOM     14  O   UNL     1      20.113  40.731  21.288  1.00  0.00    -0.299 OA
BRANCH  13  15
ATOM     15  C   UNL     1      18.090  41.387  22.281  1.00  0.00     0.106 CG0
ATOM     16  G   UNL     1      17.222  40.842  21.162  1.00  0.00     0.000 G0
ENDBRANCH  13  15
ENDBRANCH  12  13
BRANCH  12  17
ATOM     17  C   UNL     1      21.509  42.968  22.631  1.00  0.00    -0.006 C 
ATOM     18  C   UNL     1      22.260  44.311  22.708  1.00  0.00     0.008 C 
ATOM     19  C   UNL     1      21.368  42.368  24.039  1.00  0.00     0.008 C 
ENDBRANCH  12  17
ENDBRANCH  11  12
ENDBRANCH   1  11
TORSDOF 1
ENDMDL
