MODEL 1
REMARK VINA RESULT:    -6.003      0.000      0.000
REMARK INTER + INTRA:          -6.003
REMARK INTER:                  -6.003
REMARK INTRA:                   0.000
REMARK UNBOUND:                 0.000
REMARK SMILES CC(C)=C1CC[C@H](C)CC1=O
REMARK SMILES IDX 8 1 7 2 6 3 5 4 4 5 2 6 1 7 3 8 10 9 11 10 9 11
REMARK H PARENT
REMARK Flexibility Score: inf
ROOT
ATOM      1  C   UNL     1     -13.627 -16.277  26.695  1.00  0.00     0.008 C 
ATOM      2  C   UNL     1     -12.244 -16.427  27.349  1.00  0.00    -0.006 C 
ATOM      3  C   UNL     1     -12.124 -15.617  28.652  1.00  0.00     0.008 C 
ATOM      4  C   UNL     1     -13.029 -16.147  29.776  1.00  0.00     0.039 C 
ATOM      5  C   UNL     1     -12.906 -17.650  29.980  1.00  0.00    -0.006 C 
ATOM      6  C   UNL     1     -13.104 -18.216  31.206  1.00  0.00    -0.070 C 
ATOM      7  C   UNL     1     -13.473 -17.374  32.407  1.00  0.00     0.039 C 
ATOM      8  C   UNL     1     -12.931 -19.699  31.437  1.00  0.00     0.039 C 
ATOM      9  C   UNL     1     -12.678 -18.468  28.751  1.00  0.00     0.159 C 
ATOM     10  O   UNL     1     -13.143 -19.634  28.645  1.00  0.00    -0.295 OA
ATOM     11  C   UNL     1     -11.892 -17.901  27.605  1.00  0.00     0.084 C 
ENDROOT
TORSDOF 0
ENDMDL
MODEL 2
REMARK VINA RESULT:    -5.558      1.820      4.337
REMARK INTER + INTRA:          -5.558
REMARK INTER:                  -5.558
REMARK INTRA:                   0.000
REMARK UNBOUND:                 0.000
REMARK SMILES CC(C)=C1CC[C@H](C)CC1=O
REMARK SMILES IDX 8 1 7 2 6 3 5 4 4 5 2 6 1 7 3 8 10 9 11 10 9 11
REMARK H PARENT
REMARK Flexibility Score: inf
ROOT
ATOM      1  C   UNL     1     -12.961 -19.560  31.826  1.00  0.00     0.008 C 
ATOM      2  C   UNL     1     -11.730 -18.679  31.558  1.00  0.00    -0.006 C 
ATOM      3  C   UNL     1     -11.150 -18.900  30.149  1.00  0.00     0.008 C 
ATOM      4  C   UNL     1     -12.091 -18.422  29.031  1.00  0.00     0.039 C 
ATOM      5  C   UNL     1     -12.619 -17.013  29.259  1.00  0.00    -0.006 C 
ATOM      6  C   UNL     1     -12.933 -16.197  28.211  1.00  0.00    -0.070 C 
ATOM      7  C   UNL     1     -12.787 -16.667  26.781  1.00  0.00     0.039 C 
ATOM      8  C   UNL     1     -13.406 -14.776  28.420  1.00  0.00     0.039 C 
ATOM      9  C   UNL     1     -12.883 -16.627  30.678  1.00  0.00     0.159 C 
ATOM     10  O   UNL     1     -13.819 -15.838  30.978  1.00  0.00    -0.295 OA
ATOM     11  C   UNL     1     -12.036 -17.190  31.781  1.00  0.00     0.084 C 
ENDROOT
TORSDOF 0
ENDMDL
MODEL 3
REMARK VINA RESULT:    -5.533      1.859      2.445
REMARK INTER + INTRA:          -5.533
REMARK INTER:                  -5.533
REMARK INTRA:                   0.000
REMARK UNBOUND:                 0.000
REMARK SMILES CC(C)=C1CC[C@H](C)CC1=O
REMARK SMILES IDX 8 1 7 2 6 3 5 4 4 5 2 6 1 7 3 8 10 9 11 10 9 11
REMARK H PARENT
REMARK Flexibility Score: inf
ROOT
ATOM      1  C   UNL     1     -11.372 -17.374  26.371  1.00  0.00     0.008 C 
ATOM      2  C   UNL     1     -12.259 -16.626  27.378  1.00  0.00    -0.006 C 
ATOM      3  C   UNL     1     -13.433 -17.488  27.876  1.00  0.00     0.008 C 
ATOM      4  C   UNL     1     -12.981 -18.684  28.729  1.00  0.00     0.039 C 
ATOM      5  C   UNL     1     -12.002 -18.295  29.828  1.00  0.00    -0.006 C 
ATOM      6  C   UNL     1     -11.945 -18.989  31.002  1.00  0.00    -0.070 C 
ATOM      7  C   UNL     1     -12.839 -20.183  31.251  1.00  0.00     0.039 C 
ATOM      8  C   UNL     1     -11.018 -18.581  32.124  1.00  0.00     0.039 C 
ATOM      9  C   UNL     1     -11.040 -17.201  29.499  1.00  0.00     0.159 C 
ATOM     10  O   UNL     1      -9.875 -17.187  29.981  1.00  0.00    -0.295 OA
ATOM     11  C   UNL     1     -11.446 -16.095  28.569  1.00  0.00     0.084 C 
ENDROOT
TORSDOF 0
ENDMDL
MODEL 4
REMARK VINA RESULT:    -5.496      1.593      4.037
REMARK INTER + INTRA:          -5.496
REMARK INTER:                  -5.496
REMARK INTRA:                   0.000
REMARK UNBOUND:                 0.000
REMARK SMILES CC(C)=C1CC[C@H](C)CC1=O
REMARK SMILES IDX 8 1 7 2 6 3 5 4 4 5 2 6 1 7 3 8 10 9 11 10 9 11
REMARK H PARENT
REMARK Flexibility Score: inf
ROOT
ATOM      1  C   UNL     1     -11.077 -16.934  32.807  1.00  0.00     0.008 C 
ATOM      2  C   UNL     1     -12.235 -17.749  32.208  1.00  0.00    -0.006 C 
ATOM      3  C   UNL     1     -13.478 -16.883  31.934  1.00  0.00     0.008 C 
ATOM      4  C   UNL     1     -13.255 -15.846  30.822  1.00  0.00     0.039 C 
ATOM      5  C   UNL     1     -12.640 -16.445  29.565  1.00  0.00    -0.006 C 
ATOM      6  C   UNL     1     -12.900 -15.920  28.332  1.00  0.00    -0.070 C 
ATOM      7  C   UNL     1     -13.795 -14.712  28.167  1.00  0.00     0.039 C 
ATOM      8  C   UNL     1     -12.343 -16.536  27.069  1.00  0.00     0.039 C 
ATOM      9  C   UNL     1     -11.654 -17.547  29.771  1.00  0.00     0.159 C 
ATOM     10  O   UNL     1     -10.675 -17.704  28.992  1.00  0.00    -0.295 OA
ATOM     11  C   UNL     1     -11.809 -18.488  30.930  1.00  0.00     0.084 C 
ENDROOT
TORSDOF 0
ENDMDL
MODEL 5
REMARK VINA RESULT:    -5.376      2.206      3.784
REMARK INTER + INTRA:          -5.376
REMARK INTER:                  -5.376
REMARK INTRA:                   0.000
REMARK UNBOUND:                 0.000
REMARK SMILES CC(C)=C1CC[C@H](C)CC1=O
REMARK SMILES IDX 8 1 7 2 6 3 5 4 4 5 2 6 1 7 3 8 10 9 11 10 9 11
REMARK H PARENT
REMARK Flexibility Score: inf
ROOT
ATOM      1  C   UNL     1     -10.580 -18.046  30.580  1.00  0.00     0.008 C 
ATOM      2  C   UNL     1     -12.035 -18.540  30.518  1.00  0.00    -0.006 C 
ATOM      3  C   UNL     1     -12.729 -18.486  31.891  1.00  0.00     0.008 C 
ATOM      4  C   UNL     1     -12.937 -17.052  32.404  1.00  0.00     0.039 C 
ATOM      5  C   UNL     1     -13.567 -16.134  31.365  1.00  0.00    -0.006 C 
ATOM      6  C   UNL     1     -14.360 -15.086  31.736  1.00  0.00    -0.070 C 
ATOM      7  C   UNL     1     -14.628 -14.784  33.194  1.00  0.00     0.039 C 
ATOM      8  C   UNL     1     -15.038 -14.200  30.717  1.00  0.00     0.039 C 
ATOM      9  C   UNL     1     -13.174 -16.373  29.945  1.00  0.00     0.159 C 
ATOM     10  O   UNL     1     -13.090 -15.424  29.120  1.00  0.00    -0.295 OA
ATOM     11  C   UNL     1     -12.855 -17.763  29.476  1.00  0.00     0.084 C 
ENDROOT
TORSDOF 0
ENDMDL
MODEL 6
REMARK VINA RESULT:    -5.251      2.203      2.637
REMARK INTER + INTRA:          -5.251
REMARK INTER:                  -5.251
REMARK INTRA:                   0.000
REMARK UNBOUND:                 0.000
REMARK SMILES CC(C)=C1CC[C@H](C)CC1=O
REMARK SMILES IDX 8 1 7 2 6 3 5 4 4 5 2 6 1 7 3 8 10 9 11 10 9 11
REMARK H PARENT
REMARK Flexibility Score: inf
ROOT
ATOM      1  C   UNL     1     -11.742 -17.704  27.543  1.00  0.00     0.008 C 
ATOM      2  C   UNL     1     -11.479 -16.239  27.929  1.00  0.00    -0.006 C 
ATOM      3  C   UNL     1     -12.743 -15.541  28.464  1.00  0.00     0.008 C 
ATOM      4  C   UNL     1     -13.219 -16.108  29.811  1.00  0.00     0.039 C 
ATOM      5  C   UNL     1     -12.101 -16.219  30.839  1.00  0.00    -0.006 C 
ATOM      6  C   UNL     1     -12.357 -16.107  32.175  1.00  0.00    -0.070 C 
ATOM      7  C   UNL     1     -13.762 -15.887  32.689  1.00  0.00     0.039 C 
ATOM      8  C   UNL     1     -11.252 -16.157  33.205  1.00  0.00     0.039 C 
ATOM      9  C   UNL     1     -10.750 -16.572  30.311  1.00  0.00     0.159 C 
ATOM     10  O   UNL     1      -9.943 -17.263  30.989  1.00  0.00    -0.295 OA
ATOM     11  C   UNL     1     -10.332 -16.115  28.944  1.00  0.00     0.084 C 
ENDROOT
TORSDOF 0
ENDMDL
MODEL 7
REMARK VINA RESULT:    -5.222      1.644      2.429
REMARK INTER + INTRA:          -5.222
REMARK INTER:                  -5.222
REMARK INTRA:                   0.000
REMARK UNBOUND:                 0.000
REMARK SMILES CC(C)=C1CC[C@H](C)CC1=O
REMARK SMILES IDX 8 1 7 2 6 3 5 4 4 5 2 6 1 7 3 8 10 9 11 10 9 11
REMARK H PARENT
REMARK Flexibility Score: inf
ROOT
ATOM      1  C   UNL     1     -11.982 -17.914  27.649  1.00  0.00     0.008 C 
ATOM      2  C   UNL     1     -11.142 -17.175  28.704  1.00  0.00    -0.006 C 
ATOM      3  C   UNL     1     -11.522 -15.687  28.814  1.00  0.00     0.008 C 
ATOM      4  C   UNL     1     -12.937 -15.467  29.372  1.00  0.00     0.039 C 
ATOM      5  C   UNL     1     -13.205 -16.261  30.644  1.00  0.00    -0.006 C 
ATOM      6  C   UNL     1     -14.072 -15.803  31.593  1.00  0.00    -0.070 C 
ATOM      7  C   UNL     1     -14.814 -14.497  31.412  1.00  0.00     0.039 C 
ATOM      8  C   UNL     1     -14.307 -16.550  32.886  1.00  0.00     0.039 C 
ATOM      9  C   UNL     1     -12.565 -17.607  30.730  1.00  0.00     0.159 C 
ATOM     10  O   UNL     1     -13.126 -18.561  31.334  1.00  0.00    -0.295 OA
ATOM     11  C   UNL     1     -11.234 -17.852  30.080  1.00  0.00     0.084 C 
ENDROOT
TORSDOF 0
ENDMDL
MODEL 8
REMARK VINA RESULT:    -5.165      1.852      2.907
REMARK INTER + INTRA:          -5.165
REMARK INTER:                  -5.165
REMARK INTRA:                   0.000
REMARK UNBOUND:                 0.000
REMARK SMILES CC(C)=C1CC[C@H](C)CC1=O
REMARK SMILES IDX 8 1 7 2 6 3 5 4 4 5 2 6 1 7 3 8 10 9 11 10 9 11
REMARK H PARENT
REMARK Flexibility Score: inf
ROOT
ATOM      1  C   UNL     1     -10.023 -15.749  29.002  1.00  0.00     0.008 C 
ATOM      2  C   UNL     1     -11.405 -15.581  29.654  1.00  0.00    -0.006 C 
ATOM      3  C   UNL     1     -12.543 -16.082  28.747  1.00  0.00     0.008 C 
ATOM      4  C   UNL     1     -12.514 -17.604  28.531  1.00  0.00     0.039 C 
ATOM      5  C   UNL     1     -12.379 -18.387  29.830  1.00  0.00    -0.006 C 
ATOM      6  C   UNL     1     -12.913 -19.637  29.960  1.00  0.00    -0.070 C 
ATOM      7  C   UNL     1     -13.643 -20.300  28.814  1.00  0.00     0.039 C 
ATOM      8  C   UNL     1     -12.837 -20.404  31.260  1.00  0.00     0.039 C 
ATOM      9  C   UNL     1     -11.537 -17.763  30.894  1.00  0.00     0.159 C 
ATOM     10  O   UNL     1     -10.858 -18.469  31.688  1.00  0.00    -0.295 OA
ATOM     11  C   UNL     1     -11.475 -16.270  31.026  1.00  0.00     0.084 C 
ENDROOT
TORSDOF 0
ENDMDL
MODEL 9
REMARK VINA RESULT:    -5.135      1.378      3.768
REMARK INTER + INTRA:          -5.135
REMARK INTER:                  -5.135
REMARK INTRA:                   0.000
REMARK UNBOUND:                 0.000
REMARK SMILES CC(C)=C1CC[C@H](C)CC1=O
REMARK SMILES IDX 8 1 7 2 6 3 5 4 4 5 2 6 1 7 3 8 10 9 11 10 9 11
REMARK H PARENT
REMARK Flexibility Score: inf
ROOT
ATOM      1  C   UNL     1     -11.639 -16.213  32.798  1.00  0.00     0.008 C 
ATOM      2  C   UNL     1     -13.133 -16.318  32.453  1.00  0.00    -0.006 C 
ATOM      3  C   UNL     1     -13.476 -15.624  31.123  1.00  0.00     0.008 C 
ATOM      4  C   UNL     1     -12.853 -16.320  29.902  1.00  0.00     0.039 C 
ATOM      5  C   UNL     1     -13.097 -17.823  29.886  1.00  0.00    -0.006 C 
ATOM      6  C   UNL     1     -13.187 -18.512  28.711  1.00  0.00    -0.070 C 
ATOM      7  C   UNL     1     -13.030 -17.813  27.379  1.00  0.00     0.039 C 
ATOM      8  C   UNL     1     -13.485 -19.993  28.676  1.00  0.00     0.039 C 
ATOM      9  C   UNL     1     -13.110 -18.505  31.215  1.00  0.00     0.159 C 
ATOM     10  O   UNL     1     -12.697 -19.689  31.347  1.00  0.00    -0.295 OA
ATOM     11  C   UNL     1     -13.610 -17.779  32.429  1.00  0.00     0.084 C 
ENDROOT
TORSDOF 0
ENDMDL
