MODEL 1
REMARK VINA RESULT:    -4.465      0.000      0.000
REMARK INTER + INTRA:          -6.300
REMARK INTER:                  -5.901
REMARK INTRA:                  -0.399
REMARK UNBOUND:                -0.399
REMARK SMILES C=C[C@H](O)CCCCC
REMARK SMILES IDX 6 1 7 2 8 3 9 4 5 5 3 6 2 7 1 8 4 9
REMARK H PARENT 4 10
REMARK Flexibility Score: inf
ROOT
ATOM      1  C   UNL     1     135.592 127.340 133.714  1.00  0.00     0.003 C 
ENDROOT
BRANCH   1   2
ATOM      2  C   UNL     1     136.133 125.922 133.974  1.00  0.00    -0.000 C 
BRANCH   2   3
ATOM      3  C   UNL     1     137.215 125.832 135.066  1.00  0.00    -0.003 C 
ATOM      4  C   UNL     1     136.887 124.806 136.150  1.00  0.00     0.004 C 
ENDBRANCH   2   3
ENDBRANCH   1   2
BRANCH   1   5
ATOM      5  C   UNL     1     134.579 127.800 134.776  1.00  0.00     0.036 C 
BRANCH   5   6
ATOM      6  C   UNL     1     135.088 129.014 135.580  1.00  0.00     0.136 C 
BRANCH   6   7
ATOM      7  C   UNL     1     136.087 129.831 134.798  1.00  0.00    -0.004 C 
ATOM      8  C   UNL     1     136.723 130.882 135.326  1.00  0.00     0.007 C 
ENDBRANCH   6   7
BRANCH   6   9
ATOM      9  O   UNL     1     135.685 128.581 136.776  1.00  0.00    -0.389 OA
ATOM     10  H   UNL     1     136.600 128.270 136.546  1.00  0.00     0.211 HD
ENDBRANCH   6   9
ENDBRANCH   5   6
ENDBRANCH   1   5
TORSDOF 6
ENDMDL
MODEL 2
REMARK VINA RESULT:    -4.417      1.272      4.361
REMARK INTER + INTRA:          -6.237
REMARK INTER:                  -6.063
REMARK INTRA:                  -0.173
REMARK UNBOUND:                -0.399
REMARK SMILES C=C[C@H](O)CCCCC
REMARK SMILES IDX 6 1 7 2 8 3 9 4 5 5 3 6 2 7 1 8 4 9
REMARK H PARENT 4 10
REMARK Flexibility Score: inf
ROOT
ATOM      1  C   UNL     1     135.780 128.586 133.995  1.00  0.00     0.003 C 
ENDROOT
BRANCH   1   2
ATOM      2  C   UNL     1     136.091 129.358 135.290  1.00  0.00    -0.000 C 
BRANCH   2   3
ATOM      3  C   UNL     1     136.668 130.770 135.078  1.00  0.00    -0.003 C 
ATOM      4  C   UNL     1     135.802 131.868 135.695  1.00  0.00     0.004 C 
ENDBRANCH   2   3
ENDBRANCH   1   2
BRANCH   1   5
ATOM      5  C   UNL     1     135.219 127.177 134.257  1.00  0.00     0.036 C 
BRANCH   5   6
ATOM      6  C   UNL     1     135.894 126.497 135.466  1.00  0.00     0.136 C 
BRANCH   6   7
ATOM      7  C   UNL     1     136.659 125.260 135.065  1.00  0.00    -0.004 C 
ATOM      8  C   UNL     1     136.928 124.275 135.926  1.00  0.00     0.007 C 
ENDBRANCH   6   7
BRANCH   6   9
ATOM      9  O   UNL     1     134.926 126.149 136.422  1.00  0.00    -0.389 OA
ATOM     10  H   UNL     1     134.496 126.993 136.719  1.00  0.00     0.211 HD
ENDBRANCH   6   9
ENDBRANCH   5   6
ENDBRANCH   1   5
TORSDOF 6
ENDMDL
MODEL 3
REMARK VINA RESULT:    -4.320      1.363      3.910
REMARK INTER + INTRA:          -6.107
REMARK INTER:                  -5.633
REMARK INTRA:                  -0.475
REMARK UNBOUND:                -0.399
REMARK SMILES C=C[C@H](O)CCCCC
REMARK SMILES IDX 6 1 7 2 8 3 9 4 5 5 3 6 2 7 1 8 4 9
REMARK H PARENT 4 10
REMARK Flexibility Score: inf
ROOT
ATOM      1  C   UNL     1     135.666 126.210 134.382  1.00  0.00     0.003 C 
ENDROOT
BRANCH   1   2
ATOM      2  C   UNL     1     135.502 127.635 133.824  1.00  0.00    -0.000 C 
BRANCH   2   3
ATOM      3  C   UNL     1     135.099 128.696 134.865  1.00  0.00    -0.003 C 
ATOM      4  C   UNL     1     136.123 129.822 134.999  1.00  0.00     0.004 C 
ENDBRANCH   2   3
ENDBRANCH   1   2
BRANCH   1   5
ATOM      5  C   UNL     1     137.070 125.949 134.955  1.00  0.00     0.036 C 
BRANCH   5   6
ATOM      6  C   UNL     1     137.057 125.822 136.492  1.00  0.00     0.136 C 
BRANCH   6   7
ATOM      7  C   UNL     1     135.780 125.197 136.998  1.00  0.00    -0.004 C 
ATOM      8  C   UNL     1     135.118 125.678 138.055  1.00  0.00     0.007 C 
ENDBRANCH   6   7
BRANCH   6   9
ATOM      9  O   UNL     1     137.213 127.089 137.080  1.00  0.00    -0.389 OA
ATOM     10  H   UNL     1     136.496 127.668 136.710  1.00  0.00     0.211 HD
ENDBRANCH   6   9
ENDBRANCH   5   6
ENDBRANCH   1   5
TORSDOF 6
ENDMDL
MODEL 4
REMARK VINA RESULT:    -4.237      2.184      3.668
REMARK INTER + INTRA:          -5.998
REMARK INTER:                  -5.575
REMARK INTRA:                  -0.423
REMARK UNBOUND:                -0.399
REMARK SMILES C=C[C@H](O)CCCCC
REMARK SMILES IDX 6 1 7 2 8 3 9 4 5 5 3 6 2 7 1 8 4 9
REMARK H PARENT 4 10
REMARK Flexibility Score: inf
ROOT
ATOM      1  C   UNL     1     136.568 130.634 135.097  1.00  0.00     0.003 C 
ENDROOT
BRANCH   1   2
ATOM      2  C   UNL     1     136.156 129.177 135.374  1.00  0.00    -0.000 C 
BRANCH   2   3
ATOM      3  C   UNL     1     135.065 128.623 134.439  1.00  0.00    -0.003 C 
ATOM      4  C   UNL     1     135.536 127.429 133.611  1.00  0.00     0.004 C 
ENDBRANCH   2   3
ENDBRANCH   1   2
BRANCH   1   5
ATOM      5  C   UNL     1     135.706 131.656 135.857  1.00  0.00     0.036 C 
BRANCH   5   6
ATOM      6  C   UNL     1     135.197 131.102 137.204  1.00  0.00     0.136 C 
BRANCH   6   7
ATOM      7  C   UNL     1     133.706 131.277 137.359  1.00  0.00    -0.004 C 
ATOM      8  C   UNL     1     132.876 131.305 136.312  1.00  0.00     0.007 C 
ENDBRANCH   6   7
BRANCH   6   9
ATOM      9  O   UNL     1     135.849 131.750 138.266  1.00  0.00    -0.389 OA
ATOM     10  H   UNL     1     136.497 131.101 138.646  1.00  0.00     0.211 HD
ENDBRANCH   6   9
ENDBRANCH   5   6
ENDBRANCH   1   5
TORSDOF 6
ENDMDL
MODEL 5
REMARK VINA RESULT:    -4.163      1.941      3.000
REMARK INTER + INTRA:          -5.900
REMARK INTER:                  -5.634
REMARK INTRA:                  -0.266
REMARK UNBOUND:                -0.399
REMARK SMILES C=C[C@H](O)CCCCC
REMARK SMILES IDX 6 1 7 2 8 3 9 4 5 5 3 6 2 7 1 8 4 9
REMARK H PARENT 4 10
REMARK Flexibility Score: inf
ROOT
ATOM      1  C   UNL     1     136.162 129.558 134.906  1.00  0.00     0.003 C 
ENDROOT
BRANCH   1   2
ATOM      2  C   UNL     1     135.062 128.512 134.644  1.00  0.00    -0.000 C 
BRANCH   2   3
ATOM      3  C   UNL     1     135.434 127.422 133.622  1.00  0.00    -0.003 C 
ATOM      4  C   UNL     1     136.182 126.246 134.247  1.00  0.00     0.004 C 
ENDBRANCH   2   3
ENDBRANCH   1   2
BRANCH   1   5
ATOM      5  C   UNL     1     135.624 130.843 135.557  1.00  0.00     0.036 C 
BRANCH   5   6
ATOM      6  C   UNL     1     135.013 130.580 136.948  1.00  0.00     0.136 C 
BRANCH   6   7
ATOM      7  C   UNL     1     133.550 130.947 137.002  1.00  0.00    -0.004 C 
ATOM      8  C   UNL     1     132.863 131.308 135.914  1.00  0.00     0.007 C 
ENDBRANCH   6   7
BRANCH   6   9
ATOM      9  O   UNL     1     135.707 131.314 137.924  1.00  0.00    -0.389 OA
ATOM     10  H   UNL     1     136.099 132.104 137.467  1.00  0.00     0.211 HD
ENDBRANCH   6   9
ENDBRANCH   5   6
ENDBRANCH   1   5
TORSDOF 6
ENDMDL
MODEL 6
REMARK VINA RESULT:    -4.079      5.351      7.165
REMARK INTER + INTRA:          -5.790
REMARK INTER:                  -5.234
REMARK INTRA:                  -0.556
REMARK UNBOUND:                -0.399
REMARK SMILES C=C[C@H](O)CCCCC
REMARK SMILES IDX 6 1 7 2 8 3 9 4 5 5 3 6 2 7 1 8 4 9
REMARK H PARENT 4 10
REMARK Flexibility Score: inf
ROOT
ATOM      1  C   UNL     1     130.628 128.564 139.901  1.00  0.00     0.003 C 
ENDROOT
BRANCH   1   2
ATOM      2  C   UNL     1     130.572 130.098 139.778  1.00  0.00    -0.000 C 
BRANCH   2   3
ATOM      3  C   UNL     1     131.669 130.717 138.892  1.00  0.00    -0.003 C 
ATOM      4  C   UNL     1     131.194 131.014 137.471  1.00  0.00     0.004 C 
ENDBRANCH   2   3
ENDBRANCH   1   2
BRANCH   1   5
ATOM      5  C   UNL     1     129.659 127.850 138.942  1.00  0.00     0.036 C 
BRANCH   5   6
ATOM      6  C   UNL     1     130.398 126.941 137.939  1.00  0.00     0.136 C 
BRANCH   6   7
ATOM      7  C   UNL     1     131.894 127.119 138.009  1.00  0.00    -0.004 C 
ATOM      8  C   UNL     1     132.602 127.637 137.000  1.00  0.00     0.007 C 
ENDBRANCH   6   7
BRANCH   6   9
ATOM      9  O   UNL     1     129.963 127.217 136.631  1.00  0.00    -0.389 OA
ATOM     10  H   UNL     1     129.288 126.527 136.400  1.00  0.00     0.211 HD
ENDBRANCH   6   9
ENDBRANCH   5   6
ENDBRANCH   1   5
TORSDOF 6
ENDMDL
MODEL 7
REMARK VINA RESULT:    -4.004      5.116      7.051
REMARK INTER + INTRA:          -5.691
REMARK INTER:                  -5.216
REMARK INTRA:                  -0.475
REMARK UNBOUND:                -0.399
REMARK SMILES C=C[C@H](O)CCCCC
REMARK SMILES IDX 6 1 7 2 8 3 9 4 5 5 3 6 2 7 1 8 4 9
REMARK H PARENT 4 10
REMARK Flexibility Score: inf
ROOT
ATOM      1  C   UNL     1     132.004 130.496 139.132  1.00  0.00     0.003 C 
ENDROOT
BRANCH   1   2
ATOM      2  C   UNL     1     131.788 131.541 138.022  1.00  0.00    -0.000 C 
BRANCH   2   3
ATOM      3  C   UNL     1     131.728 130.967 136.595  1.00  0.00    -0.003 C 
ATOM      4  C   UNL     1     133.065 131.049 135.860  1.00  0.00     0.004 C 
ENDBRANCH   2   3
ENDBRANCH   1   2
BRANCH   1   5
ATOM      5  C   UNL     1     130.690 130.039 139.789  1.00  0.00     0.036 C 
BRANCH   5   6
ATOM      6  C   UNL     1     130.327 128.587 139.417  1.00  0.00     0.136 C 
BRANCH   6   7
ATOM      7  C   UNL     1     131.505 127.840 138.841  1.00  0.00    -0.004 C 
ATOM      8  C   UNL     1     131.423 127.141 137.705  1.00  0.00     0.007 C 
ENDBRANCH   6   7
BRANCH   6   9
ATOM      9  O   UNL     1     129.277 128.579 138.483  1.00  0.00    -0.389 OA
ATOM     10  H   UNL     1     128.552 129.144 138.860  1.00  0.00     0.211 HD
ENDBRANCH   6   9
ENDBRANCH   5   6
ENDBRANCH   1   5
TORSDOF 6
ENDMDL
MODEL 8
REMARK VINA RESULT:    -3.984      2.415      4.038
REMARK INTER + INTRA:          -5.664
REMARK INTER:                  -5.340
REMARK INTRA:                  -0.324
REMARK UNBOUND:                -0.399
REMARK SMILES C=C[C@H](O)CCCCC
REMARK SMILES IDX 6 1 7 2 8 3 9 4 5 5 3 6 2 7 1 8 4 9
REMARK H PARENT 4 10
REMARK Flexibility Score: inf
ROOT
ATOM      1  C   UNL     1     136.168 125.374 135.773  1.00  0.00     0.003 C 
ENDROOT
BRANCH   1   2
ATOM      2  C   UNL     1     136.504 126.062 134.437  1.00  0.00    -0.000 C 
BRANCH   2   3
ATOM      3  C   UNL     1     135.386 126.956 133.870  1.00  0.00    -0.003 C 
ATOM      4  C   UNL     1     135.543 128.427 134.254  1.00  0.00     0.004 C 
ENDBRANCH   2   3
ENDBRANCH   1   2
BRANCH   1   5
ATOM      5  C   UNL     1     136.616 126.190 136.997  1.00  0.00     0.036 C 
BRANCH   5   6
ATOM      6  C   UNL     1     135.422 126.811 137.751  1.00  0.00     0.136 C 
BRANCH   6   7
ATOM      7  C   UNL     1     135.396 126.401 139.203  1.00  0.00    -0.004 C 
ATOM      8  C   UNL     1     134.742 125.316 139.629  1.00  0.00     0.007 C 
ENDBRANCH   6   7
BRANCH   6   9
ATOM      9  O   UNL     1     134.216 126.424 137.143  1.00  0.00    -0.389 OA
ATOM     10  H   UNL     1     133.794 125.754 137.741  1.00  0.00     0.211 HD
ENDBRANCH   6   9
ENDBRANCH   5   6
ENDBRANCH   1   5
TORSDOF 6
ENDMDL
MODEL 9
REMARK VINA RESULT:    -3.930      3.565      5.037
REMARK INTER + INTRA:          -5.593
REMARK INTER:                  -5.328
REMARK INTRA:                  -0.265
REMARK UNBOUND:                -0.399
REMARK SMILES C=C[C@H](O)CCCCC
REMARK SMILES IDX 6 1 7 2 8 3 9 4 5 5 3 6 2 7 1 8 4 9
REMARK H PARENT 4 10
REMARK Flexibility Score: inf
ROOT
ATOM      1  C   UNL     1     134.053 130.462 136.357  1.00  0.00     0.003 C 
ENDROOT
BRANCH   1   2
ATOM      2  C   UNL     1     134.456 129.248 135.500  1.00  0.00    -0.000 C 
BRANCH   2   3
ATOM      3  C   UNL     1     135.815 129.380 134.788  1.00  0.00    -0.003 C 
ATOM      4  C   UNL     1     136.561 130.662 135.155  1.00  0.00     0.004 C 
ENDBRANCH   2   3
ENDBRANCH   1   2
BRANCH   1   5
ATOM      5  C   UNL     1     132.872 131.249 135.765  1.00  0.00     0.036 C 
BRANCH   5   6
ATOM      6  C   UNL     1     131.742 131.466 136.792  1.00  0.00     0.136 C 
BRANCH   6   7
ATOM      7  C   UNL     1     131.915 130.597 138.014  1.00  0.00    -0.004 C 
ATOM      8  C   UNL     1     130.875 130.100 138.691  1.00  0.00     0.007 C 
ENDBRANCH   6   7
BRANCH   6   9
ATOM      9  O   UNL     1     130.497 131.189 136.203  1.00  0.00    -0.389 OA
ATOM     10  H   UNL     1     130.205 132.018 135.743  1.00  0.00     0.211 HD
ENDBRANCH   6   9
ENDBRANCH   5   6
ENDBRANCH   1   5
TORSDOF 6
ENDMDL
