MODEL 1
REMARK VINA RESULT:    -3.037      0.000      0.000
REMARK INTER + INTRA:          -6.702
REMARK INTER:                  -5.168
REMARK INTRA:                  -1.534
REMARK UNBOUND:                -1.534
REMARK SMILES CCCCCCCCCCCCCC(=O)[O-]
REMARK SMILES IDX 8 1 9 2 10 3 11 4 12 5 13 6 14 7 15 8 16 9 7 10 6 11 5 12
REMARK SMILES IDX 4 13 3 14 2 15 1 16
REMARK H PARENT
REMARK Flexibility Score: inf
ROOT
ATOM      1  C   UNL     1       2.798  18.628  11.101  1.00  0.00     0.000 C 
ENDROOT
BRANCH   1   2
ATOM      2  C   UNL     1       3.943  18.102  10.222  1.00  0.00     0.000 C 
BRANCH   2   3
ATOM      3  C   UNL     1       4.614  16.883  10.867  1.00  0.00     0.000 C 
BRANCH   3   4
ATOM      4  C   UNL     1       4.394  15.621  10.020  1.00  0.00     0.000 C 
BRANCH   4   5
ATOM      5  C   UNL     1       4.813  15.801   8.549  1.00  0.00     0.006 C 
BRANCH   5   6
ATOM      6  C   UNL     1       3.853  15.143   7.541  1.00  0.00     0.053 C 
BRANCH   6   7
ATOM      7  C   UNL     1       4.357  13.826   7.035  1.00  0.00     0.041 C 
ATOM      8  O   UNL     1       5.324  13.254   7.605  1.00  0.00    -0.550 OA
ATOM      9  O   UNL     1       3.739  13.215   5.952  1.00  0.00    -0.550 OA
ENDBRANCH   6   7
ENDBRANCH   5   6
ENDBRANCH   4   5
ENDBRANCH   3   4
ENDBRANCH   2   3
ENDBRANCH   1   2
BRANCH   1  10
ATOM     10  C   UNL     1       1.966  19.717  10.406  1.00  0.00     0.000 C 
BRANCH  10  11
ATOM     11  C   UNL     1       2.670  20.294   9.166  1.00  0.00    -0.000 C 
BRANCH  11  12
ATOM     12  C   UNL     1       1.700  20.563   8.000  1.00  0.00    -0.000 C 
BRANCH  12  13
ATOM     13  C   UNL     1       2.094  19.919   6.655  1.00  0.00    -0.000 C 
BRANCH  13  14
ATOM     14  C   UNL     1       3.046  18.714   6.761  1.00  0.00    -0.000 C 
BRANCH  14  15
ATOM     15  C   UNL     1       4.371  18.935   6.019  1.00  0.00    -0.003 C 
ATOM     16  C   UNL     1       5.509  19.220   6.995  1.00  0.00     0.004 C 
ENDBRANCH  14  15
ENDBRANCH  13  14
ENDBRANCH  12  13
ENDBRANCH  11  12
ENDBRANCH  10  11
ENDBRANCH   1  10
TORSDOF 12
ENDMDL
MODEL 2
REMARK VINA RESULT:    -2.899      1.226      3.783
REMARK INTER + INTRA:          -6.467
REMARK INTER:                  -5.185
REMARK INTRA:                  -1.282
REMARK UNBOUND:                -1.534
REMARK SMILES CCCCCCCCCCCCCC(=O)[O-]
REMARK SMILES IDX 8 1 9 2 10 3 11 4 12 5 13 6 14 7 15 8 16 9 7 10 6 11 5 12
REMARK SMILES IDX 4 13 3 14 2 15 1 16
REMARK H PARENT
REMARK Flexibility Score: inf
ROOT
ATOM      1  C   UNL     1       4.133  19.893   5.044  1.00  0.00     0.000 C 
ENDROOT
BRANCH   1   2
ATOM      2  C   UNL     1       4.328  18.512   5.687  1.00  0.00     0.000 C 
BRANCH   2   3
ATOM      3  C   UNL     1       5.517  18.520   6.655  1.00  0.00     0.000 C 
BRANCH   3   4
ATOM      4  C   UNL     1       5.241  17.630   7.875  1.00  0.00     0.000 C 
BRANCH   4   5
ATOM      5  C   UNL     1       4.066  16.658   7.661  1.00  0.00     0.006 C 
BRANCH   5   6
ATOM      6  C   UNL     1       4.227  15.312   8.388  1.00  0.00     0.053 C 
BRANCH   6   7
ATOM      7  C   UNL     1       4.518  14.179   7.452  1.00  0.00     0.041 C 
ATOM      8  O   UNL     1       3.640  13.782   6.642  1.00  0.00    -0.550 OA
ATOM      9  O   UNL     1       5.771  13.580   7.454  1.00  0.00    -0.550 OA
ENDBRANCH   6   7
ENDBRANCH   5   6
ENDBRANCH   4   5
ENDBRANCH   3   4
ENDBRANCH   2   3
ENDBRANCH   1   2
BRANCH   1  10
ATOM     10  C   UNL     1       2.700  20.427   5.202  1.00  0.00     0.000 C 
BRANCH  10  11
ATOM     11  C   UNL     1       2.033  19.947   6.502  1.00  0.00    -0.000 C 
BRANCH  11  12
ATOM     12  C   UNL     1       2.313  20.879   7.696  1.00  0.00    -0.000 C 
BRANCH  12  13
ATOM     13  C   UNL     1       1.839  20.353   9.066  1.00  0.00    -0.000 C 
BRANCH  13  14
ATOM     14  C   UNL     1       2.817  19.398   9.774  1.00  0.00    -0.000 C 
BRANCH  14  15
ATOM     15  C   UNL     1       2.376  19.044  11.201  1.00  0.00    -0.003 C 
ATOM     16  C   UNL     1       1.173  19.879  11.629  1.00  0.00     0.004 C 
ENDBRANCH  14  15
ENDBRANCH  13  14
ENDBRANCH  12  13
ENDBRANCH  11  12
ENDBRANCH  10  11
ENDBRANCH   1  10
TORSDOF 12
ENDMDL
MODEL 3
REMARK VINA RESULT:    -2.849      1.307      2.102
REMARK INTER + INTRA:          -6.381
REMARK INTER:                  -5.408
REMARK INTRA:                  -0.973
REMARK UNBOUND:                -1.534
REMARK SMILES CCCCCCCCCCCCCC(=O)[O-]
REMARK SMILES IDX 8 1 9 2 10 3 11 4 12 5 13 6 14 7 15 8 16 9 7 10 6 11 5 12
REMARK SMILES IDX 4 13 3 14 2 15 1 16
REMARK H PARENT
REMARK Flexibility Score: inf
ROOT
ATOM      1  C   UNL     1       2.408  19.008  10.665  1.00  0.00     0.000 C 
ENDROOT
BRANCH   1   2
ATOM      2  C   UNL     1       3.883  18.974  10.239  1.00  0.00     0.000 C 
BRANCH   2   3
ATOM      3  C   UNL     1       4.218  17.657   9.529  1.00  0.00     0.000 C 
BRANCH   3   4
ATOM      4  C   UNL     1       3.906  17.745   8.028  1.00  0.00     0.000 C 
BRANCH   4   5
ATOM      5  C   UNL     1       4.337  16.491   7.246  1.00  0.00     0.006 C 
BRANCH   5   6
ATOM      6  C   UNL     1       4.126  15.173   8.012  1.00  0.00     0.053 C 
BRANCH   6   7
ATOM      7  C   UNL     1       4.500  13.967   7.206  1.00  0.00     0.041 C 
ATOM      8  O   UNL     1       3.655  13.426   6.443  1.00  0.00    -0.550 OA
ATOM      9  O   UNL     1       5.790  13.458   7.272  1.00  0.00    -0.550 OA
ENDBRANCH   6   7
ENDBRANCH   5   6
ENDBRANCH   4   5
ENDBRANCH   3   4
ENDBRANCH   2   3
ENDBRANCH   1   2
BRANCH   1  10
ATOM     10  C   UNL     1       1.704  20.316  10.269  1.00  0.00     0.000 C 
BRANCH  10  11
ATOM     11  C   UNL     1       2.029  20.747   8.828  1.00  0.00    -0.000 C 
BRANCH  11  12
ATOM     12  C   UNL     1       0.768  20.950   7.967  1.00  0.00    -0.000 C 
BRANCH  12  13
ATOM     13  C   UNL     1       0.853  20.387   6.534  1.00  0.00    -0.000 C 
BRANCH  13  14
ATOM     14  C   UNL     1       2.278  20.113   6.022  1.00  0.00    -0.000 C 
BRANCH  14  15
ATOM     15  C   UNL     1       2.592  20.847   4.711  1.00  0.00    -0.003 C 
ATOM     16  C   UNL     1       1.539  21.908   4.408  1.00  0.00     0.004 C 
ENDBRANCH  14  15
ENDBRANCH  13  14
ENDBRANCH  12  13
ENDBRANCH  11  12
ENDBRANCH  10  11
ENDBRANCH   1  10
TORSDOF 12
ENDMDL
MODEL 4
REMARK VINA RESULT:    -2.799      1.316      3.585
REMARK INTER + INTRA:          -6.297
REMARK INTER:                  -5.223
REMARK INTRA:                  -1.074
REMARK UNBOUND:                -1.534
REMARK SMILES CCCCCCCCCCCCCC(=O)[O-]
REMARK SMILES IDX 8 1 9 2 10 3 11 4 12 5 13 6 14 7 15 8 16 9 7 10 6 11 5 12
REMARK SMILES IDX 4 13 3 14 2 15 1 16
REMARK H PARENT
REMARK Flexibility Score: inf
ROOT
ATOM      1  C   UNL     1       2.137  20.437   5.484  1.00  0.00     0.000 C 
ENDROOT
BRANCH   1   2
ATOM      2  C   UNL     1       3.427  19.950   6.164  1.00  0.00     0.000 C 
BRANCH   2   3
ATOM      3  C   UNL     1       3.181  18.653   6.942  1.00  0.00     0.000 C 
BRANCH   3   4
ATOM      4  C   UNL     1       4.308  17.640   6.695  1.00  0.00     0.000 C 
BRANCH   4   5
ATOM      5  C   UNL     1       4.199  16.387   7.583  1.00  0.00     0.006 C 
BRANCH   5   6
ATOM      6  C   UNL     1       5.395  15.426   7.458  1.00  0.00     0.053 C 
BRANCH   6   7
ATOM      7  C   UNL     1       5.001  14.073   6.950  1.00  0.00     0.041 C 
ATOM      8  O   UNL     1       5.879  13.200   6.718  1.00  0.00    -0.550 OA
ATOM      9  O   UNL     1       3.660  13.764   6.762  1.00  0.00    -0.550 OA
ENDBRANCH   6   7
ENDBRANCH   5   6
ENDBRANCH   4   5
ENDBRANCH   3   4
ENDBRANCH   2   3
ENDBRANCH   1   2
BRANCH   1  10
ATOM     10  C   UNL     1       0.920  20.399   6.422  1.00  0.00     0.000 C 
BRANCH  10  11
ATOM     11  C   UNL     1       0.982  21.482   7.513  1.00  0.00    -0.000 C 
BRANCH  11  12
ATOM     12  C   UNL     1       0.727  20.922   8.925  1.00  0.00    -0.000 C 
BRANCH  12  13
ATOM     13  C   UNL     1       1.988  20.721   9.790  1.00  0.00    -0.000 C 
BRANCH  13  14
ATOM     14  C   UNL     1       1.929  19.531  10.764  1.00  0.00    -0.000 C 
BRANCH  14  15
ATOM     15  C   UNL     1       3.107  18.562  10.592  1.00  0.00    -0.003 C 
ATOM     16  C   UNL     1       3.399  17.814  11.890  1.00  0.00     0.004 C 
ENDBRANCH  14  15
ENDBRANCH  13  14
ENDBRANCH  12  13
ENDBRANCH  11  12
ENDBRANCH  10  11
ENDBRANCH   1  10
TORSDOF 12
ENDMDL
MODEL 5
REMARK VINA RESULT:    -2.757      1.633      3.599
REMARK INTER + INTRA:          -6.226
REMARK INTER:                  -4.998
REMARK INTRA:                  -1.228
REMARK UNBOUND:                -1.534
REMARK SMILES CCCCCCCCCCCCCC(=O)[O-]
REMARK SMILES IDX 8 1 9 2 10 3 11 4 12 5 13 6 14 7 15 8 16 9 7 10 6 11 5 12
REMARK SMILES IDX 4 13 3 14 2 15 1 16
REMARK H PARENT
REMARK Flexibility Score: inf
ROOT
ATOM      1  C   UNL     1       2.921  19.877   5.764  1.00  0.00     0.000 C 
ENDROOT
BRANCH   1   2
ATOM      2  C   UNL     1       2.821  18.879   6.928  1.00  0.00     0.000 C 
BRANCH   2   3
ATOM      3  C   UNL     1       4.212  18.413   7.372  1.00  0.00     0.000 C 
BRANCH   3   4
ATOM      4  C   UNL     1       4.379  16.901   7.163  1.00  0.00     0.000 C 
BRANCH   4   5
ATOM      5  C   UNL     1       5.321  16.552   5.996  1.00  0.00     0.006 C 
BRANCH   5   6
ATOM      6  C   UNL     1       4.966  15.239   5.277  1.00  0.00     0.053 C 
BRANCH   6   7
ATOM      7  C   UNL     1       4.801  14.087   6.221  1.00  0.00     0.041 C 
ATOM      8  O   UNL     1       3.693  13.494   6.313  1.00  0.00    -0.550 OA
ATOM      9  O   UNL     1       5.879  13.649   6.980  1.00  0.00    -0.550 OA
ENDBRANCH   6   7
ENDBRANCH   5   6
ENDBRANCH   4   5
ENDBRANCH   3   4
ENDBRANCH   2   3
ENDBRANCH   1   2
BRANCH   1  10
ATOM     10  C   UNL     1       1.772  20.898   5.756  1.00  0.00     0.000 C 
BRANCH  10  11
ATOM     11  C   UNL     1       0.465  20.320   6.324  1.00  0.00    -0.000 C 
BRANCH  11  12
ATOM     12  C   UNL     1      -0.115  21.169   7.471  1.00  0.00    -0.000 C 
BRANCH  12  13
ATOM     13  C   UNL     1       0.915  21.668   8.505  1.00  0.00    -0.000 C 
BRANCH  13  14
ATOM     14  C   UNL     1       0.915  20.911   9.845  1.00  0.00    -0.000 C 
BRANCH  14  15
ATOM     15  C   UNL     1       2.330  20.595  10.350  1.00  0.00    -0.003 C 
ATOM     16  C   UNL     1       2.478  19.114  10.683  1.00  0.00     0.004 C 
ENDBRANCH  14  15
ENDBRANCH  13  14
ENDBRANCH  12  13
ENDBRANCH  11  12
ENDBRANCH  10  11
ENDBRANCH   1  10
TORSDOF 12
ENDMDL
MODEL 6
REMARK VINA RESULT:    -2.717      1.305      2.649
REMARK INTER + INTRA:          -6.157
REMARK INTER:                  -4.607
REMARK INTRA:                  -1.550
REMARK UNBOUND:                -1.534
REMARK SMILES CCCCCCCCCCCCCC(=O)[O-]
REMARK SMILES IDX 8 1 9 2 10 3 11 4 12 5 13 6 14 7 15 8 16 9 7 10 6 11 5 12
REMARK SMILES IDX 4 13 3 14 2 15 1 16
REMARK H PARENT
REMARK Flexibility Score: inf
ROOT
ATOM      1  C   UNL     1       3.715  18.782   9.196  1.00  0.00     0.000 C 
ENDROOT
BRANCH   1   2
ATOM      2  C   UNL     1       4.156  17.639  10.124  1.00  0.00     0.000 C 
BRANCH   2   3
ATOM      3  C   UNL     1       5.161  16.720   9.422  1.00  0.00     0.000 C 
BRANCH   3   4
ATOM      4  C   UNL     1       4.528  15.360   9.093  1.00  0.00     0.000 C 
BRANCH   4   5
ATOM      5  C   UNL     1       3.820  15.338   7.725  1.00  0.00     0.006 C 
BRANCH   5   6
ATOM      6  C   UNL     1       4.779  15.223   6.527  1.00  0.00     0.053 C 
BRANCH   6   7
ATOM      7  C   UNL     1       4.572  13.966   5.738  1.00  0.00     0.041 C 
ATOM      8  O   UNL     1       5.289  13.722   4.732  1.00  0.00    -0.550 OA
ATOM      9  O   UNL     1       3.605  13.050   6.131  1.00  0.00    -0.550 OA
ENDBRANCH   6   7
ENDBRANCH   5   6
ENDBRANCH   4   5
ENDBRANCH   3   4
ENDBRANCH   2   3
ENDBRANCH   1   2
BRANCH   1  10
ATOM     10  C   UNL     1       4.743  19.084   8.094  1.00  0.00     0.000 C 
BRANCH  10  11
ATOM     11  C   UNL     1       4.139  18.988   6.683  1.00  0.00    -0.000 C 
BRANCH  11  12
ATOM     12  C   UNL     1       2.600  19.070   6.685  1.00  0.00    -0.000 C 
BRANCH  12  13
ATOM     13  C   UNL     1       2.001  20.206   5.832  1.00  0.00    -0.000 C 
BRANCH  13  14
ATOM     14  C   UNL     1       1.027  21.137   6.576  1.00  0.00    -0.000 C 
BRANCH  14  15
ATOM     15  C   UNL     1       1.569  21.605   7.933  1.00  0.00    -0.003 C 
ATOM     16  C   UNL     1       0.606  21.250   9.063  1.00  0.00     0.004 C 
ENDBRANCH  14  15
ENDBRANCH  13  14
ENDBRANCH  12  13
ENDBRANCH  11  12
ENDBRANCH  10  11
ENDBRANCH   1  10
TORSDOF 12
ENDMDL
MODEL 7
REMARK VINA RESULT:    -2.677      1.619      3.839
REMARK INTER + INTRA:          -6.089
REMARK INTER:                  -4.748
REMARK INTRA:                  -1.341
REMARK UNBOUND:                -1.534
REMARK SMILES CCCCCCCCCCCCCC(=O)[O-]
REMARK SMILES IDX 8 1 9 2 10 3 11 4 12 5 13 6 14 7 15 8 16 9 7 10 6 11 5 12
REMARK SMILES IDX 4 13 3 14 2 15 1 16
REMARK H PARENT
REMARK Flexibility Score: inf
ROOT
ATOM      1  C   UNL     1       2.380  20.666   5.564  1.00  0.00     0.000 C 
ENDROOT
BRANCH   1   2
ATOM      2  C   UNL     1       2.379  19.350   6.357  1.00  0.00     0.000 C 
BRANCH   2   3
ATOM      3  C   UNL     1       3.725  19.129   7.056  1.00  0.00     0.000 C 
BRANCH   3   4
ATOM      4  C   UNL     1       3.959  17.639   7.343  1.00  0.00     0.000 C 
BRANCH   4   5
ATOM      5  C   UNL     1       4.549  17.378   8.741  1.00  0.00     0.006 C 
BRANCH   5   6
ATOM      6  C   UNL     1       4.279  15.962   9.279  1.00  0.00     0.053 C 
BRANCH   6   7
ATOM      7  C   UNL     1       5.117  14.917   8.608  1.00  0.00     0.041 C 
ATOM      8  O   UNL     1       6.338  14.800   8.896  1.00  0.00    -0.550 OA
ATOM      9  O   UNL     1       4.544  14.052   7.686  1.00  0.00    -0.550 OA
ENDBRANCH   6   7
ENDBRANCH   5   6
ENDBRANCH   4   5
ENDBRANCH   3   4
ENDBRANCH   2   3
ENDBRANCH   1   2
BRANCH   1  10
ATOM     10  C   UNL     1       1.053  21.433   5.681  1.00  0.00     0.000 C 
BRANCH  10  11
ATOM     11  C   UNL     1      -0.062  20.587   6.322  1.00  0.00    -0.000 C 
BRANCH  11  12
ATOM     12  C   UNL     1      -0.719  21.283   7.528  1.00  0.00    -0.000 C 
BRANCH  12  13
ATOM     13  C   UNL     1       0.258  21.946   8.519  1.00  0.00    -0.000 C 
BRANCH  13  14
ATOM     14  C   UNL     1       0.544  21.136   9.797  1.00  0.00    -0.000 C 
BRANCH  14  15
ATOM     15  C   UNL     1       1.940  20.499   9.799  1.00  0.00    -0.003 C 
ATOM     16  C   UNL     1       2.023  19.356  10.806  1.00  0.00     0.004 C 
ENDBRANCH  14  15
ENDBRANCH  13  14
ENDBRANCH  12  13
ENDBRANCH  11  12
ENDBRANCH  10  11
ENDBRANCH   1  10
TORSDOF 12
ENDMDL
MODEL 8
REMARK VINA RESULT:    -2.672      1.853      3.842
REMARK INTER + INTRA:          -6.080
REMARK INTER:                  -4.938
REMARK INTRA:                  -1.142
REMARK UNBOUND:                -1.534
REMARK SMILES CCCCCCCCCCCCCC(=O)[O-]
REMARK SMILES IDX 8 1 9 2 10 3 11 4 12 5 13 6 14 7 15 8 16 9 7 10 6 11 5 12
REMARK SMILES IDX 4 13 3 14 2 15 1 16
REMARK H PARENT
REMARK Flexibility Score: inf
ROOT
ATOM      1  C   UNL     1       3.916  19.255   6.073  1.00  0.00     0.000 C 
ENDROOT
BRANCH   1   2
ATOM      2  C   UNL     1       3.583  18.119   7.052  1.00  0.00     0.000 C 
BRANCH   2   3
ATOM      3  C   UNL     1       4.572  16.957   6.901  1.00  0.00     0.000 C 
BRANCH   3   4
ATOM      4  C   UNL     1       4.188  15.785   7.815  1.00  0.00     0.000 C 
BRANCH   4   5
ATOM      5  C   UNL     1       5.146  15.608   9.007  1.00  0.00     0.006 C 
BRANCH   5   6
ATOM      6  C   UNL     1       4.435  15.407  10.357  1.00  0.00     0.053 C 
BRANCH   6   7
ATOM      7  C   UNL     1       4.861  14.153  11.056  1.00  0.00     0.041 C 
ATOM      8  O   UNL     1       5.912  13.554  10.703  1.00  0.00    -0.550 OA
ATOM      9  O   UNL     1       4.116  13.662  12.120  1.00  0.00    -0.550 OA
ENDBRANCH   6   7
ENDBRANCH   5   6
ENDBRANCH   4   5
ENDBRANCH   3   4
ENDBRANCH   2   3
ENDBRANCH   1   2
BRANCH   1  10
ATOM     10  C   UNL     1       2.675  20.053   5.642  1.00  0.00     0.000 C 
BRANCH  10  11
ATOM     11  C   UNL     1       1.602  20.112   6.742  1.00  0.00    -0.000 C 
BRANCH  11  12
ATOM     12  C   UNL     1       1.718  21.371   7.622  1.00  0.00    -0.000 C 
BRANCH  12  13
ATOM     13  C   UNL     1       2.411  21.160   8.983  1.00  0.00    -0.000 C 
BRANCH  13  14
ATOM     14  C   UNL     1       1.824  20.030   9.848  1.00  0.00    -0.000 C 
BRANCH  14  15
ATOM     15  C   UNL     1       2.899  19.085  10.403  1.00  0.00    -0.003 C 
ATOM     16  C   UNL     1       2.551  18.623  11.815  1.00  0.00     0.004 C 
ENDBRANCH  14  15
ENDBRANCH  13  14
ENDBRANCH  12  13
ENDBRANCH  11  12
ENDBRANCH  10  11
ENDBRANCH   1  10
TORSDOF 12
ENDMDL
MODEL 9
REMARK VINA RESULT:    -2.660      1.554      3.658
REMARK INTER + INTRA:          -6.060
REMARK INTER:                  -4.204
REMARK INTRA:                  -1.856
REMARK UNBOUND:                -1.534
REMARK SMILES CCCCCCCCCCCCCC(=O)[O-]
REMARK SMILES IDX 8 1 9 2 10 3 11 4 12 5 13 6 14 7 15 8 16 9 7 10 6 11 5 12
REMARK SMILES IDX 4 13 3 14 2 15 1 16
REMARK H PARENT
REMARK Flexibility Score: inf
ROOT
ATOM      1  C   UNL     1       5.332  20.905   5.394  1.00  0.00     0.000 C 
ENDROOT
BRANCH   1   2
ATOM      2  C   UNL     1       5.115  19.412   5.104  1.00  0.00     0.000 C 
BRANCH   2   3
ATOM      3  C   UNL     1       5.410  18.563   6.347  1.00  0.00     0.000 C 
BRANCH   3   4
ATOM      4  C   UNL     1       4.705  17.202   6.265  1.00  0.00     0.000 C 
BRANCH   4   5
ATOM      5  C   UNL     1       3.912  16.855   7.539  1.00  0.00     0.006 C 
BRANCH   5   6
ATOM      6  C   UNL     1       4.449  15.626   8.294  1.00  0.00     0.053 C 
BRANCH   6   7
ATOM      7  C   UNL     1       4.705  14.458   7.391  1.00  0.00     0.041 C 
ATOM      8  O   UNL     1       5.876  14.021   7.232  1.00  0.00    -0.550 OA
ATOM      9  O   UNL     1       3.646  13.830   6.748  1.00  0.00    -0.550 OA
ENDBRANCH   6   7
ENDBRANCH   5   6
ENDBRANCH   4   5
ENDBRANCH   3   4
ENDBRANCH   2   3
ENDBRANCH   1   2
BRANCH   1  10
ATOM     10  C   UNL     1       4.075  21.751   5.132  1.00  0.00     0.000 C 
BRANCH  10  11
ATOM     11  C   UNL     1       2.958  20.949   4.442  1.00  0.00    -0.000 C 
BRANCH  11  12
ATOM     12  C   UNL     1       1.669  20.879   5.281  1.00  0.00    -0.000 C 
BRANCH  12  13
ATOM     13  C   UNL     1       1.709  19.898   6.470  1.00  0.00    -0.000 C 
BRANCH  13  14
ATOM     14  C   UNL     1       1.723  20.556   7.861  1.00  0.00    -0.000 C 
BRANCH  14  15
ATOM     15  C   UNL     1       2.801  19.973   8.785  1.00  0.00    -0.003 C 
ATOM     16  C   UNL     1       3.997  20.913   8.897  1.00  0.00     0.004 C 
ENDBRANCH  14  15
ENDBRANCH  13  14
ENDBRANCH  12  13
ENDBRANCH  11  12
ENDBRANCH  10  11
ENDBRANCH   1  10
TORSDOF 12
ENDMDL
