MODEL 1
REMARK VINA RESULT:    -5.853      0.000      0.000
REMARK INTER + INTRA:         -12.643
REMARK INTER:                 -10.643
REMARK INTRA:                  -2.000
REMARK UNBOUND:                -2.000
REMARK SMILES CCCCCCCCCCCCCCCC(=O)[O-]
REMARK SMILES IDX 9 1 10 2 11 3 12 4 13 5 14 6 15 7 16 8 17 9 18 10 8 11 7 12
REMARK SMILES IDX 6 13 5 14 4 15 3 16 2 17 1 18
REMARK H PARENT
REMARK Flexibility Score: inf
ROOT
ATOM      1  C   UNL     1     221.423  -8.613  24.933  1.00  0.00     0.000 C 
ENDROOT
BRANCH   1   2
ATOM      2  C   UNL     1     221.581  -9.487  23.675  1.00  0.00     0.000 C 
BRANCH   2   3
ATOM      3  C   UNL     1     222.311  -8.763  22.530  1.00  0.00     0.000 C 
BRANCH   3   4
ATOM      4  C   UNL     1     221.514  -8.781  21.217  1.00  0.00     0.000 C 
BRANCH   4   5
ATOM      5  C   UNL     1     220.153  -8.079  21.344  1.00  0.00     0.000 C 
BRANCH   5   6
ATOM      6  C   UNL     1     219.015  -9.001  20.881  1.00  0.00     0.006 C 
BRANCH   6   7
ATOM      7  C   UNL     1     218.045  -9.344  22.020  1.00  0.00     0.053 C 
BRANCH   7   8
ATOM      8  C   UNL     1     218.154 -10.780  22.432  1.00  0.00     0.041 C 
ATOM      9  O   UNL     1     218.504 -11.076  23.604  1.00  0.00    -0.550 OA
ATOM     10  O   UNL     1     217.838 -11.789  21.532  1.00  0.00    -0.550 OA
ENDBRANCH   7   8
ENDBRANCH   6   7
ENDBRANCH   5   6
ENDBRANCH   4   5
ENDBRANCH   3   4
ENDBRANCH   2   3
ENDBRANCH   1   2
BRANCH   1  11
ATOM     11  C   UNL     1     221.111  -7.130  24.664  1.00  0.00     0.000 C 
BRANCH  11  12
ATOM     12  C   UNL     1     219.866  -6.632  25.418  1.00  0.00    -0.000 C 
BRANCH  12  13
ATOM     13  C   UNL     1     218.563  -6.808  24.614  1.00  0.00    -0.000 C 
BRANCH  13  14
ATOM     14  C   UNL     1     217.506  -7.726  25.258  1.00  0.00    -0.000 C 
BRANCH  14  15
ATOM     15  C   UNL     1     218.108  -8.737  26.248  1.00  0.00    -0.000 C 
BRANCH  15  16
ATOM     16  C   UNL     1     217.228  -8.953  27.493  1.00  0.00    -0.000 C 
BRANCH  16  17
ATOM     17  C   UNL     1     217.925  -8.694  28.840  1.00  0.00    -0.003 C 
ATOM     18  C   UNL     1     218.636  -7.341  28.898  1.00  0.00     0.004 C 
ENDBRANCH  16  17
ENDBRANCH  15  16
ENDBRANCH  14  15
ENDBRANCH  13  14
ENDBRANCH  12  13
ENDBRANCH  11  12
ENDBRANCH   1  11
TORSDOF 14
ENDMDL
MODEL 2
REMARK VINA RESULT:    -5.843      2.390      5.798
REMARK INTER + INTRA:         -12.625
REMARK INTER:                 -10.526
REMARK INTRA:                  -2.099
REMARK UNBOUND:                -2.000
REMARK SMILES CCCCCCCCCCCCCCCC(=O)[O-]
REMARK SMILES IDX 9 1 10 2 11 3 12 4 13 5 14 6 15 7 16 8 17 9 18 10 8 11 7 12
REMARK SMILES IDX 6 13 5 14 4 15 3 16 2 17 1 18
REMARK H PARENT
REMARK Flexibility Score: inf
ROOT
ATOM      1  C   UNL     1     219.663  -6.587  25.075  1.00  0.00     0.000 C 
ENDROOT
BRANCH   1   2
ATOM      2  C   UNL     1     218.298  -6.843  24.409  1.00  0.00     0.000 C 
BRANCH   2   3
ATOM      3  C   UNL     1     217.358  -7.698  25.278  1.00  0.00     0.000 C 
BRANCH   3   4
ATOM      4  C   UNL     1     218.121  -8.638  26.224  1.00  0.00     0.000 C 
BRANCH   4   5
ATOM      5  C   UNL     1     217.333  -8.951  27.506  1.00  0.00     0.000 C 
BRANCH   5   6
ATOM      6  C   UNL     1     218.124  -8.527  28.753  1.00  0.00     0.006 C 
BRANCH   6   7
ATOM      7  C   UNL     1     219.619  -8.349  28.460  1.00  0.00     0.053 C 
BRANCH   7   8
ATOM      8  C   UNL     1     220.425  -9.515  28.944  1.00  0.00     0.041 C 
ATOM      9  O   UNL     1     220.079 -10.135  29.984  1.00  0.00    -0.550 OA
ATOM     10  O   UNL     1     221.537  -9.939  28.228  1.00  0.00    -0.550 OA
ENDBRANCH   7   8
ENDBRANCH   6   7
ENDBRANCH   5   6
ENDBRANCH   4   5
ENDBRANCH   3   4
ENDBRANCH   2   3
ENDBRANCH   1   2
BRANCH   1  11
ATOM     11  C   UNL     1     220.885  -6.789  24.160  1.00  0.00     0.000 C 
BRANCH  11  12
ATOM     12  C   UNL     1     221.545  -8.168  24.336  1.00  0.00    -0.000 C 
BRANCH  12  13
ATOM     13  C   UNL     1     221.173  -9.161  23.219  1.00  0.00    -0.000 C 
BRANCH  13  14
ATOM     14  C   UNL     1     221.017  -8.550  21.812  1.00  0.00    -0.000 C 
BRANCH  14  15
ATOM     15  C   UNL     1     219.552  -8.464  21.353  1.00  0.00    -0.000 C 
BRANCH  15  16
ATOM     16  C   UNL     1     218.833  -9.826  21.387  1.00  0.00    -0.000 C 
BRANCH  16  17
ATOM     17  C   UNL     1     217.696  -9.939  22.417  1.00  0.00    -0.003 C 
ATOM     18  C   UNL     1     217.908 -11.070  23.424  1.00  0.00     0.004 C 
ENDBRANCH  16  17
ENDBRANCH  15  16
ENDBRANCH  14  15
ENDBRANCH  13  14
ENDBRANCH  12  13
ENDBRANCH  11  12
ENDBRANCH   1  11
TORSDOF 14
ENDMDL
MODEL 3
REMARK VINA RESULT:    -5.840      1.691      3.781
REMARK INTER + INTRA:         -12.619
REMARK INTER:                 -10.176
REMARK INTRA:                  -2.443
REMARK UNBOUND:                -2.000
REMARK SMILES CCCCCCCCCCCCCCCC(=O)[O-]
REMARK SMILES IDX 9 1 10 2 11 3 12 4 13 5 14 6 15 7 16 8 17 9 18 10 8 11 7 12
REMARK SMILES IDX 6 13 5 14 4 15 3 16 2 17 1 18
REMARK H PARENT
REMARK Flexibility Score: inf
ROOT
ATOM      1  C   UNL     1     218.363  -7.313  26.396  1.00  0.00     0.000 C 
ENDROOT
BRANCH   1   2
ATOM      2  C   UNL     1     218.629  -6.857  24.949  1.00  0.00     0.000 C 
BRANCH   2   3
ATOM      3  C   UNL     1     220.054  -6.313  24.745  1.00  0.00     0.000 C 
BRANCH   3   4
ATOM      4  C   UNL     1     220.824  -7.071  23.651  1.00  0.00     0.000 C 
BRANCH   4   5
ATOM      5  C   UNL     1     221.580  -8.290  24.200  1.00  0.00     0.000 C 
BRANCH   5   6
ATOM      6  C   UNL     1     221.160  -9.573  23.466  1.00  0.00     0.006 C 
BRANCH   6   7
ATOM      7  C   UNL     1     219.985 -10.278  24.155  1.00  0.00     0.053 C 
BRANCH   7   8
ATOM      8  C   UNL     1     218.791 -10.379  23.256  1.00  0.00     0.041 C 
ATOM      9  O   UNL     1     218.049 -11.395  23.302  1.00  0.00    -0.550 OA
ATOM     10  O   UNL     1     218.479  -9.338  22.392  1.00  0.00    -0.550 OA
ENDBRANCH   7   8
ENDBRANCH   6   7
ENDBRANCH   5   6
ENDBRANCH   4   5
ENDBRANCH   3   4
ENDBRANCH   2   3
ENDBRANCH   1   2
BRANCH   1  11
ATOM     11  C   UNL     1     217.501  -8.581  26.533  1.00  0.00     0.000 C 
BRANCH  11  12
ATOM     12  C   UNL     1     217.503  -9.157  27.960  1.00  0.00    -0.000 C 
BRANCH  12  13
ATOM     13  C   UNL     1     218.223  -8.250  28.975  1.00  0.00    -0.000 C 
BRANCH  13  14
ATOM     14  C   UNL     1     219.535  -8.813  29.554  1.00  0.00    -0.000 C 
BRANCH  14  15
ATOM     15  C   UNL     1     220.757  -7.931  29.246  1.00  0.00    -0.000 C 
BRANCH  15  16
ATOM     16  C   UNL     1     221.510  -8.374  27.977  1.00  0.00    -0.000 C 
BRANCH  16  17
ATOM     17  C   UNL     1     221.370  -9.864  27.621  1.00  0.00    -0.003 C 
ATOM     18  C   UNL     1     222.670 -10.485  27.112  1.00  0.00     0.004 C 
ENDBRANCH  16  17
ENDBRANCH  15  16
ENDBRANCH  14  15
ENDBRANCH  13  14
ENDBRANCH  12  13
ENDBRANCH  11  12
ENDBRANCH   1  11
TORSDOF 14
ENDMDL
MODEL 4
REMARK VINA RESULT:    -5.804      3.141      6.046
REMARK INTER + INTRA:         -12.553
REMARK INTER:                 -10.203
REMARK INTRA:                  -2.350
REMARK UNBOUND:                -2.000
REMARK SMILES CCCCCCCCCCCCCCCC(=O)[O-]
REMARK SMILES IDX 9 1 10 2 11 3 12 4 13 5 14 6 15 7 16 8 17 9 18 10 8 11 7 12
REMARK SMILES IDX 6 13 5 14 4 15 3 16 2 17 1 18
REMARK H PARENT
REMARK Flexibility Score: inf
ROOT
ATOM      1  C   UNL     1     217.579  -7.351  23.894  1.00  0.00     0.000 C 
ENDROOT
BRANCH   1   2
ATOM      2  C   UNL     1     218.609  -6.816  24.905  1.00  0.00     0.000 C 
BRANCH   2   3
ATOM      3  C   UNL     1     218.269  -7.186  26.360  1.00  0.00     0.000 C 
BRANCH   3   4
ATOM      4  C   UNL     1     217.526  -8.527  26.470  1.00  0.00     0.000 C 
BRANCH   4   5
ATOM      5  C   UNL     1     217.630  -9.145  27.873  1.00  0.00     0.000 C 
BRANCH   5   6
ATOM      6  C   UNL     1     218.252  -8.151  28.865  1.00  0.00     0.006 C 
BRANCH   6   7
ATOM      7  C   UNL     1     218.356  -8.733  30.281  1.00  0.00     0.053 C 
BRANCH   7   8
ATOM      8  C   UNL     1     219.711  -9.315  30.547  1.00  0.00     0.041 C 
ATOM      9  O   UNL     1     219.915 -10.545  30.378  1.00  0.00    -0.550 OA
ATOM     10  O   UNL     1     220.756  -8.493  30.949  1.00  0.00    -0.550 OA
ENDBRANCH   7   8
ENDBRANCH   6   7
ENDBRANCH   5   6
ENDBRANCH   4   5
ENDBRANCH   3   4
ENDBRANCH   2   3
ENDBRANCH   1   2
BRANCH   1  11
ATOM     11  C   UNL     1     218.166  -8.192  22.745  1.00  0.00     0.000 C 
BRANCH  11  12
ATOM     12  C   UNL     1     217.697  -9.656  22.772  1.00  0.00    -0.000 C 
BRANCH  12  13
ATOM     13  C   UNL     1     218.661 -10.584  23.535  1.00  0.00    -0.000 C 
BRANCH  13  14
ATOM     14  C   UNL     1     220.114 -10.084  23.648  1.00  0.00    -0.000 C 
BRANCH  14  15
ATOM     15  C   UNL     1     220.766 -10.427  24.998  1.00  0.00    -0.000 C 
BRANCH  15  16
ATOM     16  C   UNL     1     221.342  -9.192  25.716  1.00  0.00    -0.000 C 
BRANCH  16  17
ATOM     17  C   UNL     1     221.392  -9.293  27.251  1.00  0.00    -0.003 C 
ATOM     18  C   UNL     1     222.353 -10.372  27.751  1.00  0.00     0.004 C 
ENDBRANCH  16  17
ENDBRANCH  15  16
ENDBRANCH  14  15
ENDBRANCH  13  14
ENDBRANCH  12  13
ENDBRANCH  11  12
ENDBRANCH   1  11
TORSDOF 14
ENDMDL
MODEL 5
REMARK VINA RESULT:    -5.757      2.337      6.070
REMARK INTER + INTRA:         -12.468
REMARK INTER:                 -10.149
REMARK INTRA:                  -2.319
REMARK UNBOUND:                -2.000
REMARK SMILES CCCCCCCCCCCCCCCC(=O)[O-]
REMARK SMILES IDX 9 1 10 2 11 3 12 4 13 5 14 6 15 7 16 8 17 9 18 10 8 11 7 12
REMARK SMILES IDX 6 13 5 14 4 15 3 16 2 17 1 18
REMARK H PARENT
REMARK Flexibility Score: inf
ROOT
ATOM      1  C   UNL     1     217.738  -7.491  25.195  1.00  0.00     0.000 C 
ENDROOT
BRANCH   1   2
ATOM      2  C   UNL     1     218.067  -8.728  26.052  1.00  0.00     0.000 C 
BRANCH   2   3
ATOM      3  C   UNL     1     217.156  -8.862  27.285  1.00  0.00     0.000 C 
BRANCH   3   4
ATOM      4  C   UNL     1     217.945  -8.866  28.604  1.00  0.00     0.000 C 
BRANCH   4   5
ATOM      5  C   UNL     1     218.627  -7.519  28.887  1.00  0.00     0.000 C 
BRANCH   5   6
ATOM      6  C   UNL     1     220.045  -7.727  29.441  1.00  0.00     0.006 C 
BRANCH   6   7
ATOM      7  C   UNL     1     220.550  -9.159  29.220  1.00  0.00     0.053 C 
BRANCH   7   8
ATOM      8  C   UNL     1     221.591  -9.223  28.145  1.00  0.00     0.041 C 
ATOM      9  O   UNL     1     221.551 -10.136  27.279  1.00  0.00    -0.550 OA
ATOM     10  O   UNL     1     222.587  -8.257  28.081  1.00  0.00    -0.550 OA
ENDBRANCH   7   8
ENDBRANCH   6   7
ENDBRANCH   5   6
ENDBRANCH   4   5
ENDBRANCH   3   4
ENDBRANCH   2   3
ENDBRANCH   1   2
BRANCH   1  11
ATOM     11  C   UNL     1     218.908  -6.514  24.979  1.00  0.00     0.000 C 
BRANCH  11  12
ATOM     12  C   UNL     1     220.225  -7.006  25.606  1.00  0.00    -0.000 C 
BRANCH  12  13
ATOM     13  C   UNL     1     221.210  -7.577  24.569  1.00  0.00    -0.000 C 
BRANCH  13  14
ATOM     14  C   UNL     1     220.872  -7.275  23.096  1.00  0.00    -0.000 C 
BRANCH  14  15
ATOM     15  C   UNL     1     220.678  -8.544  22.250  1.00  0.00    -0.000 C 
BRANCH  15  16
ATOM     16  C   UNL     1     219.908  -9.650  22.996  1.00  0.00    -0.000 C 
BRANCH  16  17
ATOM     17  C   UNL     1     218.483  -9.915  22.480  1.00  0.00    -0.003 C 
ATOM     18  C   UNL     1     217.843 -11.160  23.095  1.00  0.00     0.004 C 
ENDBRANCH  16  17
ENDBRANCH  15  16
ENDBRANCH  14  15
ENDBRANCH  13  14
ENDBRANCH  12  13
ENDBRANCH  11  12
ENDBRANCH   1  11
TORSDOF 14
ENDMDL
MODEL 6
REMARK VINA RESULT:    -5.747      1.639      3.160
REMARK INTER + INTRA:         -12.451
REMARK INTER:                 -10.146
REMARK INTRA:                  -2.304
REMARK UNBOUND:                -2.000
REMARK SMILES CCCCCCCCCCCCCCCC(=O)[O-]
REMARK SMILES IDX 9 1 10 2 11 3 12 4 13 5 14 6 15 7 16 8 17 9 18 10 8 11 7 12
REMARK SMILES IDX 6 13 5 14 4 15 3 16 2 17 1 18
REMARK H PARENT
REMARK Flexibility Score: inf
ROOT
ATOM      1  C   UNL     1     219.449  -6.513  25.266  1.00  0.00     0.000 C 
ENDROOT
BRANCH   1   2
ATOM      2  C   UNL     1     220.528  -6.569  24.169  1.00  0.00     0.000 C 
BRANCH   2   3
ATOM      3  C   UNL     1     221.519  -7.732  24.361  1.00  0.00     0.000 C 
BRANCH   3   4
ATOM      4  C   UNL     1     221.355  -8.428  25.721  1.00  0.00     0.000 C 
BRANCH   4   5
ATOM      5  C   UNL     1     221.106  -9.938  25.584  1.00  0.00     0.000 C 
BRANCH   5   6
ATOM      6  C   UNL     1     220.779 -10.310  24.130  1.00  0.00     0.006 C 
BRANCH   6   7
ATOM      7  C   UNL     1     219.282 -10.573  23.920  1.00  0.00     0.053 C 
BRANCH   7   8
ATOM      8  C   UNL     1     218.761  -9.885  22.695  1.00  0.00     0.041 C 
ATOM      9  O   UNL     1     219.562  -9.391  21.859  1.00  0.00    -0.550 OA
ATOM     10  O   UNL     1     217.394  -9.820  22.460  1.00  0.00    -0.550 OA
ENDBRANCH   7   8
ENDBRANCH   6   7
ENDBRANCH   5   6
ENDBRANCH   4   5
ENDBRANCH   3   4
ENDBRANCH   2   3
ENDBRANCH   1   2
BRANCH   1  11
ATOM     11  C   UNL     1     218.065  -7.042  24.849  1.00  0.00     0.000 C 
BRANCH  11  12
ATOM     12  C   UNL     1     217.474  -8.042  25.858  1.00  0.00    -0.000 C 
BRANCH  12  13
ATOM     13  C   UNL     1     218.036  -7.865  27.281  1.00  0.00    -0.000 C 
BRANCH  13  14
ATOM     14  C   UNL     1     217.853  -9.073  28.221  1.00  0.00    -0.000 C 
BRANCH  14  15
ATOM     15  C   UNL     1     218.135  -8.736  29.695  1.00  0.00    -0.000 C 
BRANCH  15  16
ATOM     16  C   UNL     1     219.416  -9.406  30.228  1.00  0.00    -0.000 C 
BRANCH  16  17
ATOM     17  C   UNL     1     220.601  -9.422  29.247  1.00  0.00    -0.003 C 
ATOM     18  C   UNL     1     221.573  -8.261  29.459  1.00  0.00     0.004 C 
ENDBRANCH  16  17
ENDBRANCH  15  16
ENDBRANCH  14  15
ENDBRANCH  13  14
ENDBRANCH  12  13
ENDBRANCH  11  12
ENDBRANCH   1  11
TORSDOF 14
ENDMDL
MODEL 7
REMARK VINA RESULT:    -5.743      2.076      4.918
REMARK INTER + INTRA:         -12.443
REMARK INTER:                 -10.113
REMARK INTRA:                  -2.329
REMARK UNBOUND:                -2.000
REMARK SMILES CCCCCCCCCCCCCCCC(=O)[O-]
REMARK SMILES IDX 9 1 10 2 11 3 12 4 13 5 14 6 15 7 16 8 17 9 18 10 8 11 7 12
REMARK SMILES IDX 6 13 5 14 4 15 3 16 2 17 1 18
REMARK H PARENT
REMARK Flexibility Score: inf
ROOT
ATOM      1  C   UNL     1     218.270  -8.458  28.550  1.00  0.00     0.000 C 
ENDROOT
BRANCH   1   2
ATOM      2  C   UNL     1     217.380  -8.961  27.398  1.00  0.00     0.000 C 
BRANCH   2   3
ATOM      3  C   UNL     1     217.649  -8.231  26.070  1.00  0.00     0.000 C 
BRANCH   3   4
ATOM      4  C   UNL     1     218.640  -7.067  26.226  1.00  0.00     0.000 C 
BRANCH   4   5
ATOM      5  C   UNL     1     219.063  -6.468  24.876  1.00  0.00     0.000 C 
BRANCH   5   6
ATOM      6  C   UNL     1     220.538  -6.774  24.578  1.00  0.00     0.006 C 
BRANCH   6   7
ATOM      7  C   UNL     1     220.730  -7.430  23.204  1.00  0.00     0.053 C 
BRANCH   7   8
ATOM      8  C   UNL     1     219.818  -8.603  23.015  1.00  0.00     0.041 C 
ATOM      9  O   UNL     1     219.998  -9.658  23.677  1.00  0.00    -0.550 OA
ATOM     10  O   UNL     1     218.749  -8.520  22.131  1.00  0.00    -0.550 OA
ENDBRANCH   7   8
ENDBRANCH   6   7
ENDBRANCH   5   6
ENDBRANCH   4   5
ENDBRANCH   3   4
ENDBRANCH   2   3
ENDBRANCH   1   2
BRANCH   1  11
ATOM     11  C   UNL     1     218.580  -9.499  29.641  1.00  0.00     0.000 C 
BRANCH  11  12
ATOM     12  C   UNL     1     219.982  -9.332  30.251  1.00  0.00    -0.000 C 
BRANCH  12  13
ATOM     13  C   UNL     1     220.477  -7.873  30.234  1.00  0.00    -0.000 C 
BRANCH  13  14
ATOM     14  C   UNL     1     221.874  -7.654  29.622  1.00  0.00    -0.000 C 
BRANCH  14  15
ATOM     15  C   UNL     1     221.831  -7.358  28.113  1.00  0.00    -0.000 C 
BRANCH  15  16
ATOM     16  C   UNL     1     222.422  -8.499  27.262  1.00  0.00    -0.000 C 
BRANCH  16  17
ATOM     17  C   UNL     1     221.428  -9.609  26.877  1.00  0.00    -0.003 C 
ATOM     18  C   UNL     1     222.114 -10.906  26.448  1.00  0.00     0.004 C 
ENDBRANCH  16  17
ENDBRANCH  15  16
ENDBRANCH  14  15
ENDBRANCH  13  14
ENDBRANCH  12  13
ENDBRANCH  11  12
ENDBRANCH   1  11
TORSDOF 14
ENDMDL
MODEL 8
REMARK VINA RESULT:    -5.698      2.540      4.873
REMARK INTER + INTRA:         -12.360
REMARK INTER:                 -10.214
REMARK INTRA:                  -2.146
REMARK UNBOUND:                -2.000
REMARK SMILES CCCCCCCCCCCCCCCC(=O)[O-]
REMARK SMILES IDX 9 1 10 2 11 3 12 4 13 5 14 6 15 7 16 8 17 9 18 10 8 11 7 12
REMARK SMILES IDX 6 13 5 14 4 15 3 16 2 17 1 18
REMARK H PARENT
REMARK Flexibility Score: inf
ROOT
ATOM      1  C   UNL     1     219.663  -8.262  21.695  1.00  0.00     0.000 C 
ENDROOT
BRANCH   1   2
ATOM      2  C   UNL     1     218.678  -9.412  21.972  1.00  0.00     0.000 C 
BRANCH   2   3
ATOM      3  C   UNL     1     217.922  -9.247  23.303  1.00  0.00     0.000 C 
BRANCH   3   4
ATOM      4  C   UNL     1     217.798  -7.776  23.732  1.00  0.00     0.000 C 
BRANCH   4   5
ATOM      5  C   UNL     1     217.841  -7.602  25.258  1.00  0.00     0.000 C 
BRANCH   5   6
ATOM      6  C   UNL     1     217.904  -8.966  25.964  1.00  0.00     0.006 C 
BRANCH   6   7
ATOM      7  C   UNL     1     217.331  -8.910  27.386  1.00  0.00     0.053 C 
BRANCH   7   8
ATOM      8  C   UNL     1     218.413  -8.844  28.420  1.00  0.00     0.041 C 
ATOM      9  O   UNL     1     218.457  -9.696  29.345  1.00  0.00    -0.550 OA
ATOM     10  O   UNL     1     219.391  -7.860  28.343  1.00  0.00    -0.550 OA
ENDBRANCH   7   8
ENDBRANCH   6   7
ENDBRANCH   5   6
ENDBRANCH   4   5
ENDBRANCH   3   4
ENDBRANCH   2   3
ENDBRANCH   1   2
BRANCH   1  11
ATOM     11  C   UNL     1     221.108  -8.698  21.390  1.00  0.00     0.000 C 
BRANCH  11  12
ATOM     12  C   UNL     1     222.012  -8.694  22.635  1.00  0.00    -0.000 C 
BRANCH  12  13
ATOM     13  C   UNL     1     221.473  -7.803  23.769  1.00  0.00    -0.000 C 
BRANCH  13  14
ATOM     14  C   UNL     1     221.561  -8.404  25.185  1.00  0.00    -0.000 C 
BRANCH  14  15
ATOM     15  C   UNL     1     221.312  -9.922  25.211  1.00  0.00    -0.000 C 
BRANCH  15  16
ATOM     16  C   UNL     1     222.245 -10.665  26.185  1.00  0.00    -0.000 C 
BRANCH  16  17
ATOM     17  C   UNL     1     222.633  -9.876  27.448  1.00  0.00    -0.003 C 
ATOM     18  C   UNL     1     221.917 -10.367  28.707  1.00  0.00     0.004 C 
ENDBRANCH  16  17
ENDBRANCH  15  16
ENDBRANCH  14  15
ENDBRANCH  13  14
ENDBRANCH  12  13
ENDBRANCH  11  12
ENDBRANCH   1  11
TORSDOF 14
ENDMDL
MODEL 9
REMARK VINA RESULT:    -5.659      3.524      6.279
REMARK INTER + INTRA:         -12.291
REMARK INTER:                  -9.777
REMARK INTRA:                  -2.514
REMARK UNBOUND:                -2.000
REMARK SMILES CCCCCCCCCCCCCCCC(=O)[O-]
REMARK SMILES IDX 9 1 10 2 11 3 12 4 13 5 14 6 15 7 16 8 17 9 18 10 8 11 7 12
REMARK SMILES IDX 6 13 5 14 4 15 3 16 2 17 1 18
REMARK H PARENT
REMARK Flexibility Score: inf
ROOT
ATOM      1  C   UNL     1     218.425  -7.324  24.669  1.00  0.00     0.000 C 
ENDROOT
BRANCH   1   2
ATOM      2  C   UNL     1     217.474  -7.581  25.853  1.00  0.00     0.000 C 
BRANCH   2   3
ATOM      3  C   UNL     1     217.745  -8.923  26.558  1.00  0.00     0.000 C 
BRANCH   3   4
ATOM      4  C   UNL     1     217.823  -8.782  28.086  1.00  0.00     0.000 C 
BRANCH   4   5
ATOM      5  C   UNL     1     218.538  -7.494  28.523  1.00  0.00     0.000 C 
BRANCH   5   6
ATOM      6  C   UNL     1     219.246  -7.690  29.873  1.00  0.00     0.006 C 
BRANCH   6   7
ATOM      7  C   UNL     1     219.472  -9.172  30.199  1.00  0.00     0.053 C 
BRANCH   7   8
ATOM      8  C   UNL     1     220.769  -9.393  30.915  1.00  0.00     0.041 C 
ATOM      9  O   UNL     1     221.713  -8.572  30.781  1.00  0.00    -0.550 OA
ATOM     10  O   UNL     1     220.924 -10.488  31.756  1.00  0.00    -0.550 OA
ENDBRANCH   7   8
ENDBRANCH   6   7
ENDBRANCH   5   6
ENDBRANCH   4   5
ENDBRANCH   3   4
ENDBRANCH   2   3
ENDBRANCH   1   2
BRANCH   1  11
ATOM     11  C   UNL     1     219.690  -6.516  25.010  1.00  0.00     0.000 C 
BRANCH  11  12
ATOM     12  C   UNL     1     220.871  -6.827  24.075  1.00  0.00    -0.000 C 
BRANCH  12  13
ATOM     13  C   UNL     1     220.562  -7.948  23.066  1.00  0.00    -0.000 C 
BRANCH  13  14
ATOM     14  C   UNL     1     221.361  -9.253  23.258  1.00  0.00    -0.000 C 
BRANCH  14  15
ATOM     15  C   UNL     1     220.797 -10.144  24.378  1.00  0.00    -0.000 C 
BRANCH  15  16
ATOM     16  C   UNL     1     221.740 -10.251  25.591  1.00  0.00    -0.000 C 
BRANCH  16  17
ATOM     17  C   UNL     1     221.278  -9.490  26.846  1.00  0.00    -0.003 C 
ATOM     18  C   UNL     1     222.216  -8.347  27.235  1.00  0.00     0.004 C 
ENDBRANCH  16  17
ENDBRANCH  15  16
ENDBRANCH  14  15
ENDBRANCH  13  14
ENDBRANCH  12  13
ENDBRANCH  11  12
ENDBRANCH   1  11
TORSDOF 14
ENDMDL
