MODEL 1
REMARK VINA RESULT:    -3.489      0.000      0.000
REMARK INTER + INTRA:          -8.582
REMARK INTER:                  -6.548
REMARK INTRA:                  -2.034
REMARK UNBOUND:                -2.034
REMARK SMILES O=C([O-])CCCCCCCCCCCCCCC(=O)[O-]
REMARK SMILES IDX 10 1 9 2 8 3 7 4 6 5 5 6 4 7 2 8 1 9 3 10 11 11 12 12 13 13
REMARK SMILES IDX 14 14 15 15 16 16 17 17 18 18 19 19 20 20
REMARK H PARENT
REMARK Flexibility Score: inf
ROOT
ATOM      1  C   UNL     1     -94.297 149.080 238.810  1.00  0.00     0.000 C 
ENDROOT
BRANCH   1   2
ATOM      2  C   UNL     1     -94.934 148.111 239.821  1.00  0.00     0.000 C 
BRANCH   2   3
ATOM      3  C   UNL     1     -96.256 148.635 240.399  1.00  0.00     0.000 C 
BRANCH   3   4
ATOM      4  C   UNL     1     -96.305 150.168 240.358  1.00  0.00     0.000 C 
BRANCH   4   5
ATOM      5  C   UNL     1     -97.661 150.687 240.859  1.00  0.00     0.000 C 
BRANCH   5   6
ATOM      6  C   UNL     1     -98.499 149.595 241.548  1.00  0.00     0.006 C 
BRANCH   6   7
ATOM      7  C   UNL     1     -98.463 149.644 243.083  1.00  0.00     0.053 C 
BRANCH   7   8
ATOM      8  C   UNL     1     -99.294 150.764 243.629  1.00  0.00     0.041 C 
ATOM      9  O   UNL     1    -100.513 150.853 243.329  1.00  0.00    -0.550 OA
ATOM     10  O   UNL     1     -98.731 151.689 244.498  1.00  0.00    -0.550 OA
ENDBRANCH   7   8
ENDBRANCH   6   7
ENDBRANCH   5   6
ENDBRANCH   4   5
ENDBRANCH   3   4
ENDBRANCH   2   3
ENDBRANCH   1   2
BRANCH   1  11
ATOM     11  C   UNL     1     -94.595 148.769 237.328  1.00  0.00     0.000 C 
BRANCH  11  12
ATOM     12  C   UNL     1     -95.539 149.762 236.627  1.00  0.00     0.000 C 
BRANCH  12  13
ATOM     13  C   UNL     1     -96.709 149.067 235.910  1.00  0.00     0.000 C 
BRANCH  13  14
ATOM     14  C   UNL     1     -97.536 148.178 236.854  1.00  0.00     0.000 C 
BRANCH  14  15
ATOM     15  C   UNL     1     -98.580 148.980 237.653  1.00  0.00     0.000 C 
BRANCH  15  16
ATOM     16  C   UNL     1     -99.104 150.200 236.879  1.00  0.00     0.006 C 
BRANCH  16  17
ATOM     17  C   UNL     1     -99.573 151.332 237.804  1.00  0.00     0.053 C 
BRANCH  17  18
ATOM     18  C   UNL     1     -99.998 152.519 237.000  1.00  0.00     0.041 C 
ATOM     19  O   UNL     1    -101.043 153.151 237.307  1.00  0.00    -0.550 OA
ATOM     20  O   UNL     1     -99.268 152.900 235.882  1.00  0.00    -0.550 OA
ENDBRANCH  17  18
ENDBRANCH  16  17
ENDBRANCH  15  16
ENDBRANCH  14  15
ENDBRANCH  13  14
ENDBRANCH  12  13
ENDBRANCH  11  12
ENDBRANCH   1  11
TORSDOF 15
ENDMDL
MODEL 2
REMARK VINA RESULT:    -3.462      2.020      4.064
REMARK INTER + INTRA:          -8.532
REMARK INTER:                  -6.472
REMARK INTRA:                  -2.059
REMARK UNBOUND:                -2.034
REMARK SMILES O=C([O-])CCCCCCCCCCCCCCC(=O)[O-]
REMARK SMILES IDX 10 1 9 2 8 3 7 4 6 5 5 6 4 7 2 8 1 9 3 10 11 11 12 12 13 13
REMARK SMILES IDX 14 14 15 15 16 16 17 17 18 18 19 19 20 20
REMARK H PARENT
REMARK Flexibility Score: inf
ROOT
ATOM      1  C   UNL     1     -97.958 150.991 240.190  1.00  0.00     0.000 C 
ENDROOT
BRANCH   1   2
ATOM      2  C   UNL     1     -99.028 150.138 239.487  1.00  0.00     0.000 C 
BRANCH   2   3
ATOM      3  C   UNL     1    -100.409 150.249 240.148  1.00  0.00     0.000 C 
BRANCH   3   4
ATOM      4  C   UNL     1    -100.620 149.129 241.175  1.00  0.00     0.000 C 
BRANCH   4   5
ATOM      5  C   UNL     1    -100.688 149.698 242.600  1.00  0.00     0.000 C 
BRANCH   5   6
ATOM      6  C   UNL     1     -99.375 149.507 243.381  1.00  0.00     0.006 C 
BRANCH   6   7
ATOM      7  C   UNL     1     -98.638 150.815 243.708  1.00  0.00     0.053 C 
BRANCH   7   8
ATOM      8  C   UNL     1     -99.244 151.523 244.880  1.00  0.00     0.041 C 
ATOM      9  O   UNL     1     -99.445 152.765 244.836  1.00  0.00    -0.550 OA
ATOM     10  O   UNL     1     -99.620 150.806 246.009  1.00  0.00    -0.550 OA
ENDBRANCH   7   8
ENDBRANCH   6   7
ENDBRANCH   5   6
ENDBRANCH   4   5
ENDBRANCH   3   4
ENDBRANCH   2   3
ENDBRANCH   1   2
BRANCH   1  11
ATOM     11  C   UNL     1     -96.593 150.298 240.388  1.00  0.00     0.000 C 
BRANCH  11  12
ATOM     12  C   UNL     1     -96.663 148.801 240.740  1.00  0.00     0.000 C 
BRANCH  12  13
ATOM     13  C   UNL     1     -95.372 148.045 240.386  1.00  0.00     0.000 C 
BRANCH  13  14
ATOM     14  C   UNL     1     -94.469 148.836 239.424  1.00  0.00     0.000 C 
BRANCH  14  15
ATOM     15  C   UNL     1     -93.891 147.957 238.300  1.00  0.00     0.000 C 
BRANCH  15  16
ATOM     16  C   UNL     1     -94.436 148.339 236.915  1.00  0.00     0.006 C 
BRANCH  16  17
ATOM     17  C   UNL     1     -95.351 149.571 236.957  1.00  0.00     0.053 C 
BRANCH  17  18
ATOM     18  C   UNL     1     -96.775 149.169 236.738  1.00  0.00     0.041 C 
ATOM     19  O   UNL     1     -97.195 148.062 237.168  1.00  0.00    -0.550 OA
ATOM     20  O   UNL     1     -97.628 149.995 236.017  1.00  0.00    -0.550 OA
ENDBRANCH  17  18
ENDBRANCH  16  17
ENDBRANCH  15  16
ENDBRANCH  14  15
ENDBRANCH  13  14
ENDBRANCH  12  13
ENDBRANCH  11  12
ENDBRANCH   1  11
TORSDOF 15
ENDMDL
MODEL 3
REMARK VINA RESULT:    -3.436      2.379      3.282
REMARK INTER + INTRA:          -8.484
REMARK INTER:                  -6.919
REMARK INTRA:                  -1.565
REMARK UNBOUND:                -2.034
REMARK SMILES O=C([O-])CCCCCCCCCCCCCCC(=O)[O-]
REMARK SMILES IDX 10 1 9 2 8 3 7 4 6 5 5 6 4 7 2 8 1 9 3 10 11 11 12 12 13 13
REMARK SMILES IDX 14 14 15 15 16 16 17 17 18 18 19 19 20 20
REMARK H PARENT
REMARK Flexibility Score: inf
ROOT
ATOM      1  C   UNL     1     -95.384 149.503 236.707  1.00  0.00     0.000 C 
ENDROOT
BRANCH   1   2
ATOM      2  C   UNL     1     -94.426 148.634 237.541  1.00  0.00     0.000 C 
BRANCH   2   3
ATOM      3  C   UNL     1     -94.296 149.114 238.993  1.00  0.00     0.000 C 
BRANCH   3   4
ATOM      4  C   UNL     1     -95.032 148.170 239.953  1.00  0.00     0.000 C 
BRANCH   4   5
ATOM      5  C   UNL     1     -96.436 148.702 240.277  1.00  0.00     0.000 C 
BRANCH   5   6
ATOM      6  C   UNL     1     -96.477 150.236 240.405  1.00  0.00     0.006 C 
BRANCH   6   7
ATOM      7  C   UNL     1     -97.890 150.838 240.348  1.00  0.00     0.053 C 
BRANCH   7   8
ATOM      8  C   UNL     1     -98.771 150.307 241.437  1.00  0.00     0.041 C 
ATOM      9  O   UNL     1     -99.892 149.808 241.158  1.00  0.00    -0.550 OA
ATOM     10  O   UNL     1     -98.338 150.331 242.756  1.00  0.00    -0.550 OA
ENDBRANCH   7   8
ENDBRANCH   6   7
ENDBRANCH   5   6
ENDBRANCH   4   5
ENDBRANCH   3   4
ENDBRANCH   2   3
ENDBRANCH   1   2
BRANCH   1  11
ATOM     11  C   UNL     1     -96.786 148.900 236.479  1.00  0.00     0.000 C 
BRANCH  11  12
ATOM     12  C   UNL     1     -97.963 149.850 236.765  1.00  0.00     0.000 C 
BRANCH  12  13
ATOM     13  C   UNL     1     -98.736 150.240 235.494  1.00  0.00     0.000 C 
BRANCH  13  14
ATOM     14  C   UNL     1     -98.516 151.710 235.098  1.00  0.00     0.000 C 
BRANCH  14  15
ATOM     15  C   UNL     1     -97.234 151.911 234.270  1.00  0.00     0.000 C 
BRANCH  15  16
ATOM     16  C   UNL     1     -97.121 153.333 233.697  1.00  0.00     0.006 C 
BRANCH  16  17
ATOM     17  C   UNL     1     -97.274 154.419 234.771  1.00  0.00     0.053 C 
BRANCH  17  18
ATOM     18  C   UNL     1     -98.345 155.388 234.384  1.00  0.00     0.041 C 
ATOM     19  O   UNL     1     -99.556 155.046 234.426  1.00  0.00    -0.550 OA
ATOM     20  O   UNL     1     -98.004 156.656 233.929  1.00  0.00    -0.550 OA
ENDBRANCH  17  18
ENDBRANCH  16  17
ENDBRANCH  15  16
ENDBRANCH  14  15
ENDBRANCH  13  14
ENDBRANCH  12  13
ENDBRANCH  11  12
ENDBRANCH   1  11
TORSDOF 15
ENDMDL
MODEL 4
REMARK VINA RESULT:    -3.404      2.145      2.765
REMARK INTER + INTRA:          -8.423
REMARK INTER:                  -7.026
REMARK INTRA:                  -1.397
REMARK UNBOUND:                -2.034
REMARK SMILES O=C([O-])CCCCCCCCCCCCCCC(=O)[O-]
REMARK SMILES IDX 10 1 9 2 8 3 7 4 6 5 5 6 4 7 2 8 1 9 3 10 11 11 12 12 13 13
REMARK SMILES IDX 14 14 15 15 16 16 17 17 18 18 19 19 20 20
REMARK H PARENT
REMARK Flexibility Score: inf
ROOT
ATOM      1  C   UNL     1     -93.916 148.920 238.497  1.00  0.00     0.000 C 
ENDROOT
BRANCH   1   2
ATOM      2  C   UNL     1     -94.865 148.815 239.704  1.00  0.00     0.000 C 
BRANCH   2   3
ATOM      3  C   UNL     1     -96.258 149.392 239.420  1.00  0.00     0.000 C 
BRANCH   3   4
ATOM      4  C   UNL     1     -96.585 150.540 240.384  1.00  0.00     0.000 C 
BRANCH   4   5
ATOM      5  C   UNL     1     -98.091 150.594 240.683  1.00  0.00     0.000 C 
BRANCH   5   6
ATOM      6  C   UNL     1     -98.581 149.379 241.492  1.00  0.00     0.006 C 
BRANCH   6   7
ATOM      7  C   UNL     1     -98.381 149.509 243.011  1.00  0.00     0.053 C 
BRANCH   7   8
ATOM      8  C   UNL     1     -99.226 150.597 243.597  1.00  0.00     0.041 C 
ATOM      9  O   UNL     1     -98.702 151.493 244.308  1.00  0.00    -0.550 OA
ATOM     10  O   UNL     1    -100.589 150.640 243.331  1.00  0.00    -0.550 OA
ENDBRANCH   7   8
ENDBRANCH   6   7
ENDBRANCH   5   6
ENDBRANCH   4   5
ENDBRANCH   3   4
ENDBRANCH   2   3
ENDBRANCH   1   2
BRANCH   1  11
ATOM     11  C   UNL     1     -93.407 147.572 237.944  1.00  0.00     0.000 C 
BRANCH  11  12
ATOM     12  C   UNL     1     -94.264 146.958 236.823  1.00  0.00     0.000 C 
BRANCH  12  13
ATOM     13  C   UNL     1     -93.751 147.315 235.417  1.00  0.00     0.000 C 
BRANCH  13  14
ATOM     14  C   UNL     1     -94.780 148.112 234.598  1.00  0.00     0.000 C 
BRANCH  14  15
ATOM     15  C   UNL     1     -96.013 148.513 235.430  1.00  0.00     0.000 C 
BRANCH  15  16
ATOM     16  C   UNL     1     -96.081 150.026 235.689  1.00  0.00     0.006 C 
BRANCH  16  17
ATOM     17  C   UNL     1     -95.725 150.857 234.448  1.00  0.00     0.053 C 
BRANCH  17  18
ATOM     18  C   UNL     1     -96.808 151.846 234.154  1.00  0.00     0.041 C 
ATOM     19  O   UNL     1     -97.979 151.451 233.914  1.00  0.00    -0.550 OA
ATOM     20  O   UNL     1     -96.514 153.202 234.098  1.00  0.00    -0.550 OA
ENDBRANCH  17  18
ENDBRANCH  16  17
ENDBRANCH  15  16
ENDBRANCH  14  15
ENDBRANCH  13  14
ENDBRANCH  12  13
ENDBRANCH  11  12
ENDBRANCH   1  11
TORSDOF 15
ENDMDL
MODEL 5
REMARK VINA RESULT:    -3.392      2.453      6.596
REMARK INTER + INTRA:          -8.400
REMARK INTER:                  -7.133
REMARK INTRA:                  -1.267
REMARK UNBOUND:                -2.034
REMARK SMILES O=C([O-])CCCCCCCCCCCCCCC(=O)[O-]
REMARK SMILES IDX 10 1 9 2 8 3 7 4 6 5 5 6 4 7 2 8 1 9 3 10 11 11 12 12 13 13
REMARK SMILES IDX 14 14 15 15 16 16 17 17 18 18 19 19 20 20
REMARK H PARENT
REMARK Flexibility Score: inf
ROOT
ATOM      1  C   UNL     1     -96.477 149.314 236.904  1.00  0.00     0.000 C 
ENDROOT
BRANCH   1   2
ATOM      2  C   UNL     1     -97.060 149.507 235.494  1.00  0.00     0.000 C 
BRANCH   2   3
ATOM      3  C   UNL     1     -95.988 149.838 234.445  1.00  0.00     0.000 C 
BRANCH   3   4
ATOM      4  C   UNL     1     -96.478 150.929 233.484  1.00  0.00     0.000 C 
BRANCH   4   5
ATOM      5  C   UNL     1     -96.182 152.328 234.045  1.00  0.00     0.000 C 
BRANCH   5   6
ATOM      6  C   UNL     1     -97.363 153.301 233.870  1.00  0.00     0.006 C 
BRANCH   6   7
ATOM      7  C   UNL     1     -97.285 154.555 234.755  1.00  0.00     0.053 C 
BRANCH   7   8
ATOM      8  C   UNL     1     -98.378 155.530 234.444  1.00  0.00     0.041 C 
ATOM      9  O   UNL     1     -99.581 155.218 234.641  1.00  0.00    -0.550 OA
ATOM     10  O   UNL     1     -98.065 156.797 233.968  1.00  0.00    -0.550 OA
ENDBRANCH   7   8
ENDBRANCH   6   7
ENDBRANCH   5   6
ENDBRANCH   4   5
ENDBRANCH   3   4
ENDBRANCH   2   3
ENDBRANCH   1   2
BRANCH   1  11
ATOM     11  C   UNL     1     -94.962 149.579 237.029  1.00  0.00     0.000 C 
BRANCH  11  12
ATOM     12  C   UNL     1     -94.225 148.701 238.057  1.00  0.00     0.000 C 
BRANCH  12  13
ATOM     13  C   UNL     1     -94.483 149.138 239.508  1.00  0.00     0.000 C 
BRANCH  13  14
ATOM     14  C   UNL     1     -95.342 148.127 240.286  1.00  0.00     0.000 C 
BRANCH  14  15
ATOM     15  C   UNL     1     -96.726 148.691 240.656  1.00  0.00     0.000 C 
BRANCH  15  16
ATOM     16  C   UNL     1     -96.801 150.218 240.499  1.00  0.00     0.006 C 
BRANCH  16  17
ATOM     17  C   UNL     1     -98.242 150.732 240.375  1.00  0.00     0.053 C 
BRANCH  17  18
ATOM     18  C   UNL     1     -99.019 150.408 241.611  1.00  0.00     0.041 C 
ATOM     19  O   UNL     1     -98.629 150.823 242.733  1.00  0.00    -0.550 OA
ATOM     20  O   UNL     1    -100.150 149.605 241.530  1.00  0.00    -0.550 OA
ENDBRANCH  17  18
ENDBRANCH  16  17
ENDBRANCH  15  16
ENDBRANCH  14  15
ENDBRANCH  13  14
ENDBRANCH  12  13
ENDBRANCH  11  12
ENDBRANCH   1  11
TORSDOF 15
ENDMDL
MODEL 6
REMARK VINA RESULT:    -3.380      1.285      2.159
REMARK INTER + INTRA:          -8.378
REMARK INTER:                  -6.900
REMARK INTRA:                  -1.478
REMARK UNBOUND:                -2.034
REMARK SMILES O=C([O-])CCCCCCCCCCCCCCC(=O)[O-]
REMARK SMILES IDX 10 1 9 2 8 3 7 4 6 5 5 6 4 7 2 8 1 9 3 10 11 11 12 12 13 13
REMARK SMILES IDX 14 14 15 15 16 16 17 17 18 18 19 19 20 20
REMARK H PARENT
REMARK Flexibility Score: inf
ROOT
ATOM      1  C   UNL     1     -95.530 148.379 240.241  1.00  0.00     0.000 C 
ENDROOT
BRANCH   1   2
ATOM      2  C   UNL     1     -95.498 149.909 240.076  1.00  0.00     0.000 C 
BRANCH   2   3
ATOM      3  C   UNL     1     -96.854 150.568 240.366  1.00  0.00     0.000 C 
BRANCH   3   4
ATOM      4  C   UNL     1     -97.847 149.552 240.945  1.00  0.00     0.000 C 
BRANCH   4   5
ATOM      5  C   UNL     1     -98.879 150.246 241.846  1.00  0.00     0.000 C 
BRANCH   5   6
ATOM      6  C   UNL     1     -98.453 150.276 243.326  1.00  0.00     0.006 C 
BRANCH   6   7
ATOM      7  C   UNL     1     -99.528 150.815 244.283  1.00  0.00     0.053 C 
BRANCH   7   8
ATOM      8  C   UNL     1     -99.086 152.067 244.975  1.00  0.00     0.041 C 
ATOM      9  O   UNL     1     -98.062 152.060 245.707  1.00  0.00    -0.550 OA
ATOM     10  O   UNL     1     -99.786 153.251 244.784  1.00  0.00    -0.550 OA
ENDBRANCH   7   8
ENDBRANCH   6   7
ENDBRANCH   5   6
ENDBRANCH   4   5
ENDBRANCH   3   4
ENDBRANCH   2   3
ENDBRANCH   1   2
BRANCH   1  11
ATOM     11  C   UNL     1     -94.663 147.594 239.235  1.00  0.00     0.000 C 
BRANCH  11  12
ATOM     12  C   UNL     1     -93.983 148.447 238.149  1.00  0.00     0.000 C 
BRANCH  12  13
ATOM     13  C   UNL     1     -94.636 148.283 236.766  1.00  0.00     0.000 C 
BRANCH  13  14
ATOM     14  C   UNL     1     -95.722 149.339 236.497  1.00  0.00     0.000 C 
BRANCH  14  15
ATOM     15  C   UNL     1     -97.134 148.835 236.848  1.00  0.00     0.000 C 
BRANCH  15  16
ATOM     16  C   UNL     1     -98.181 149.959 236.828  1.00  0.00     0.006 C 
BRANCH  16  17
ATOM     17  C   UNL     1     -98.171 150.756 235.516  1.00  0.00     0.053 C 
BRANCH  17  18
ATOM     18  C   UNL     1     -99.113 151.915 235.603  1.00  0.00     0.041 C 
ATOM     19  O   UNL     1     -99.517 152.483 234.554  1.00  0.00    -0.550 OA
ATOM     20  O   UNL     1     -99.507 152.399 236.843  1.00  0.00    -0.550 OA
ENDBRANCH  17  18
ENDBRANCH  16  17
ENDBRANCH  15  16
ENDBRANCH  14  15
ENDBRANCH  13  14
ENDBRANCH  12  13
ENDBRANCH  11  12
ENDBRANCH   1  11
TORSDOF 15
ENDMDL
MODEL 7
REMARK VINA RESULT:    -3.376      3.632      5.656
REMARK INTER + INTRA:          -8.371
REMARK INTER:                  -6.571
REMARK INTRA:                  -1.800
REMARK UNBOUND:                -2.034
REMARK SMILES O=C([O-])CCCCCCCCCCCCCCC(=O)[O-]
REMARK SMILES IDX 10 1 9 2 8 3 7 4 6 5 5 6 4 7 2 8 1 9 3 10 11 11 12 12 13 13
REMARK SMILES IDX 14 14 15 15 16 16 17 17 18 18 19 19 20 20
REMARK H PARENT
REMARK Flexibility Score: inf
ROOT
ATOM      1  C   UNL     1     -96.625 148.728 240.329  1.00  0.00     0.000 C 
ENDROOT
BRANCH   1   2
ATOM      2  C   UNL     1     -96.675 150.265 240.396  1.00  0.00     0.000 C 
BRANCH   2   3
ATOM      3  C   UNL     1     -98.087 150.825 240.174  1.00  0.00     0.000 C 
BRANCH   3   4
ATOM      4  C   UNL     1     -98.677 150.322 238.850  1.00  0.00     0.000 C 
BRANCH   4   5
ATOM      5  C   UNL     1     -99.563 151.396 238.201  1.00  0.00     0.000 C 
BRANCH   5   6
ATOM      6  C   UNL     1     -99.453 151.410 236.666  1.00  0.00     0.006 C 
BRANCH   6   7
ATOM      7  C   UNL     1     -99.460 152.816 236.044  1.00  0.00     0.053 C 
BRANCH   7   8
ATOM      8  C   UNL     1     -98.700 152.863 234.754  1.00  0.00     0.041 C 
ATOM      9  O   UNL     1     -98.911 152.000 233.863  1.00  0.00    -0.550 OA
ATOM     10  O   UNL     1     -97.784 153.881 234.523  1.00  0.00    -0.550 OA
ENDBRANCH   7   8
ENDBRANCH   6   7
ENDBRANCH   5   6
ENDBRANCH   4   5
ENDBRANCH   3   4
ENDBRANCH   2   3
ENDBRANCH   1   2
BRANCH   1  11
ATOM     11  C   UNL     1     -95.214 148.125 240.163  1.00  0.00     0.000 C 
BRANCH  11  12
ATOM     12  C   UNL     1     -94.264 148.922 239.251  1.00  0.00     0.000 C 
BRANCH  12  13
ATOM     13  C   UNL     1     -93.781 148.108 238.038  1.00  0.00     0.000 C 
BRANCH  13  14
ATOM     14  C   UNL     1     -94.622 148.374 236.778  1.00  0.00     0.000 C 
BRANCH  14  15
ATOM     15  C   UNL     1     -95.402 149.699 236.857  1.00  0.00     0.000 C 
BRANCH  15  16
ATOM     16  C   UNL     1     -96.289 149.935 235.625  1.00  0.00     0.006 C 
BRANCH  16  17
ATOM     17  C   UNL     1     -95.622 150.840 234.579  1.00  0.00     0.053 C 
BRANCH  17  18
ATOM     18  C   UNL     1     -95.501 150.125 233.272  1.00  0.00     0.041 C 
ATOM     19  O   UNL     1     -96.501 150.011 232.516  1.00  0.00    -0.550 OA
ATOM     20  O   UNL     1     -94.294 149.541 232.908  1.00  0.00    -0.550 OA
ENDBRANCH  17  18
ENDBRANCH  16  17
ENDBRANCH  15  16
ENDBRANCH  14  15
ENDBRANCH  13  14
ENDBRANCH  12  13
ENDBRANCH  11  12
ENDBRANCH   1  11
TORSDOF 15
ENDMDL
MODEL 8
REMARK VINA RESULT:    -3.347      1.980      6.176
REMARK INTER + INTRA:          -8.317
REMARK INTER:                  -6.249
REMARK INTRA:                  -2.067
REMARK UNBOUND:                -2.034
REMARK SMILES O=C([O-])CCCCCCCCCCCCCCC(=O)[O-]
REMARK SMILES IDX 10 1 9 2 8 3 7 4 6 5 5 6 4 7 2 8 1 9 3 10 11 11 12 12 13 13
REMARK SMILES IDX 14 14 15 15 16 16 17 17 18 18 19 19 20 20
REMARK H PARENT
REMARK Flexibility Score: inf
ROOT
ATOM      1  C   UNL     1     -96.646 150.195 240.406  1.00  0.00     0.000 C 
ENDROOT
BRANCH   1   2
ATOM      2  C   UNL     1     -96.555 148.663 240.516  1.00  0.00     0.000 C 
BRANCH   2   3
ATOM      3  C   UNL     1     -95.122 148.137 240.351  1.00  0.00     0.000 C 
BRANCH   3   4
ATOM      4  C   UNL     1     -94.919 147.519 238.962  1.00  0.00     0.000 C 
BRANCH   4   5
ATOM      5  C   UNL     1     -94.053 148.428 238.077  1.00  0.00     0.000 C 
BRANCH   5   6
ATOM      6  C   UNL     1     -94.871 149.521 237.366  1.00  0.00     0.006 C 
BRANCH   6   7
ATOM      7  C   UNL     1     -95.702 149.016 236.175  1.00  0.00     0.053 C 
BRANCH   7   8
ATOM      8  C   UNL     1     -97.171 149.044 236.463  1.00  0.00     0.041 C 
ATOM      9  O   UNL     1     -97.747 148.022 236.919  1.00  0.00    -0.550 OA
ATOM     10  O   UNL     1     -97.898 150.210 236.260  1.00  0.00    -0.550 OA
ENDBRANCH   7   8
ENDBRANCH   6   7
ENDBRANCH   5   6
ENDBRANCH   4   5
ENDBRANCH   3   4
ENDBRANCH   2   3
ENDBRANCH   1   2
BRANCH   1  11
ATOM     11  C   UNL     1     -98.011 150.738 239.934  1.00  0.00     0.000 C 
BRANCH  11  12
ATOM     12  C   UNL     1     -99.087 149.668 239.672  1.00  0.00     0.000 C 
BRANCH  12  13
ATOM     13  C   UNL     1    -100.493 150.121 240.098  1.00  0.00     0.000 C 
BRANCH  13  14
ATOM     14  C   UNL     1    -100.666 150.151 241.626  1.00  0.00     0.000 C 
BRANCH  14  15
ATOM     15  C   UNL     1    -100.073 148.907 242.311  1.00  0.00     0.000 C 
BRANCH  15  16
ATOM     16  C   UNL     1     -99.176 149.264 243.507  1.00  0.00     0.006 C 
BRANCH  16  17
ATOM     17  C   UNL     1     -98.773 150.745 243.523  1.00  0.00     0.053 C 
BRANCH  17  18
ATOM     18  C   UNL     1     -99.229 151.395 244.790  1.00  0.00     0.041 C 
ATOM     19  O   UNL     1     -99.575 150.692 245.775  1.00  0.00    -0.550 OA
ATOM     20  O   UNL     1     -99.320 152.779 244.868  1.00  0.00    -0.550 OA
ENDBRANCH  17  18
ENDBRANCH  16  17
ENDBRANCH  15  16
ENDBRANCH  14  15
ENDBRANCH  13  14
ENDBRANCH  12  13
ENDBRANCH  11  12
ENDBRANCH   1  11
TORSDOF 15
ENDMDL
MODEL 9
REMARK VINA RESULT:    -3.337      2.411      3.771
REMARK INTER + INTRA:          -8.297
REMARK INTER:                  -6.840
REMARK INTRA:                  -1.457
REMARK UNBOUND:                -2.034
REMARK SMILES O=C([O-])CCCCCCCCCCCCCCC(=O)[O-]
REMARK SMILES IDX 10 1 9 2 8 3 7 4 6 5 5 6 4 7 2 8 1 9 3 10 11 11 12 12 13 13
REMARK SMILES IDX 14 14 15 15 16 16 17 17 18 18 19 19 20 20
REMARK H PARENT
REMARK Flexibility Score: inf
ROOT
ATOM      1  C   UNL     1     -93.983 148.268 238.066  1.00  0.00     0.000 C 
ENDROOT
BRANCH   1   2
ATOM      2  C   UNL     1     -94.560 149.143 239.193  1.00  0.00     0.000 C 
BRANCH   2   3
ATOM      3  C   UNL     1     -95.322 148.329 240.249  1.00  0.00     0.000 C 
BRANCH   3   4
ATOM      4  C   UNL     1     -96.788 148.772 240.332  1.00  0.00     0.000 C 
BRANCH   4   5
ATOM      5  C   UNL     1     -96.891 150.273 240.643  1.00  0.00     0.000 C 
BRANCH   5   6
ATOM      6  C   UNL     1     -98.098 150.941 239.958  1.00  0.00     0.006 C 
BRANCH   6   7
ATOM      7  C   UNL     1     -98.692 150.133 238.794  1.00  0.00     0.053 C 
BRANCH   7   8
ATOM      8  C   UNL     1     -99.545 150.979 237.900  1.00  0.00     0.041 C 
ATOM      9  O   UNL     1    -100.507 151.635 238.378  1.00  0.00    -0.550 OA
ATOM     10  O   UNL     1     -99.256 151.071 236.545  1.00  0.00    -0.550 OA
ENDBRANCH   7   8
ENDBRANCH   6   7
ENDBRANCH   5   6
ENDBRANCH   4   5
ENDBRANCH   3   4
ENDBRANCH   2   3
ENDBRANCH   1   2
BRANCH   1  11
ATOM     11  C   UNL     1     -94.685 148.412 236.700  1.00  0.00     0.000 C 
BRANCH  11  12
ATOM     12  C   UNL     1     -95.691 149.572 236.598  1.00  0.00     0.000 C 
BRANCH  12  13
ATOM     13  C   UNL     1     -96.312 149.702 235.197  1.00  0.00     0.000 C 
BRANCH  13  14
ATOM     14  C   UNL     1     -95.310 150.223 234.154  1.00  0.00     0.000 C 
BRANCH  14  15
ATOM     15  C   UNL     1     -95.917 151.305 233.242  1.00  0.00     0.000 C 
BRANCH  15  16
ATOM     16  C   UNL     1     -96.265 152.592 234.007  1.00  0.00     0.006 C 
BRANCH  16  17
ATOM     17  C   UNL     1     -97.533 153.274 233.476  1.00  0.00     0.053 C 
BRANCH  17  18
ATOM     18  C   UNL     1     -98.067 154.241 234.484  1.00  0.00     0.041 C 
ATOM     19  O   UNL     1     -99.162 154.015 235.061  1.00  0.00    -0.550 OA
ATOM     20  O   UNL     1     -97.378 155.418 234.751  1.00  0.00    -0.550 OA
ENDBRANCH  17  18
ENDBRANCH  16  17
ENDBRANCH  15  16
ENDBRANCH  14  15
ENDBRANCH  13  14
ENDBRANCH  12  13
ENDBRANCH  11  12
ENDBRANCH   1  11
TORSDOF 15
ENDMDL
