MODEL 1
REMARK VINA RESULT:    -2.902      0.000      0.000
REMARK INTER + INTRA:          -6.453
REMARK INTER:                  -5.277
REMARK INTRA:                  -1.176
REMARK UNBOUND:                -1.176
REMARK SMILES CCCCCCCCCCCCCCCC(=O)[O-]
REMARK SMILES IDX 9 1 10 2 11 3 12 4 13 5 14 6 15 7 16 8 17 9 18 10 8 11 7 12
REMARK SMILES IDX 6 13 5 14 4 15 3 16 2 17 1 18
REMARK H PARENT
REMARK Flexibility Score: inf
ROOT
ATOM      1  C   UNL     1       7.588 -35.490  14.276  1.00  0.00     0.000 C 
ENDROOT
BRANCH   1   2
ATOM      2  C   UNL     1       8.045 -36.509  13.218  1.00  0.00     0.000 C 
BRANCH   2   3
ATOM      3  C   UNL     1       9.557 -36.439  12.943  1.00  0.00     0.000 C 
BRANCH   3   4
ATOM      4  C   UNL     1      10.077 -34.993  12.875  1.00  0.00     0.000 C 
BRANCH   4   5
ATOM      5  C   UNL     1      11.554 -34.880  13.288  1.00  0.00     0.000 C 
BRANCH   5   6
ATOM      6  C   UNL     1      12.120 -33.466  13.080  1.00  0.00     0.006 C 
BRANCH   6   7
ATOM      7  C   UNL     1      11.210 -32.371  13.654  1.00  0.00     0.053 C 
BRANCH   7   8
ATOM      8  C   UNL     1      12.014 -31.379  14.434  1.00  0.00     0.041 C 
ATOM      9  O   UNL     1      11.618 -30.992  15.565  1.00  0.00    -0.550 OA
ATOM     10  O   UNL     1      13.230 -30.927  13.939  1.00  0.00    -0.550 OA
ENDBRANCH   7   8
ENDBRANCH   6   7
ENDBRANCH   5   6
ENDBRANCH   4   5
ENDBRANCH   3   4
ENDBRANCH   2   3
ENDBRANCH   1   2
BRANCH   1  11
ATOM     11  C   UNL     1       6.174 -34.950  14.010  1.00  0.00     0.000 C 
BRANCH  11  12
ATOM     12  C   UNL     1       6.220 -33.735  13.071  1.00  0.00    -0.000 C 
BRANCH  12  13
ATOM     13  C   UNL     1       6.987 -32.541  13.670  1.00  0.00    -0.000 C 
BRANCH  13  14
ATOM     14  C   UNL     1       6.904 -32.418  15.202  1.00  0.00    -0.000 C 
BRANCH  14  15
ATOM     15  C   UNL     1       8.261 -32.240  15.910  1.00  0.00    -0.000 C 
BRANCH  15  16
ATOM     16  C   UNL     1       8.150 -32.158  17.450  1.00  0.00    -0.000 C 
BRANCH  16  17
ATOM     17  C   UNL     1       9.450 -31.709  18.141  1.00  0.00    -0.003 C 
ATOM     18  C   UNL     1       9.204 -31.143  19.541  1.00  0.00     0.004 C 
ENDBRANCH  16  17
ENDBRANCH  15  16
ENDBRANCH  14  15
ENDBRANCH  13  14
ENDBRANCH  12  13
ENDBRANCH  11  12
ENDBRANCH   1  11
TORSDOF 14
ENDMDL
MODEL 2
REMARK VINA RESULT:    -2.565      2.483      5.558
REMARK INTER + INTRA:          -5.840
REMARK INTER:                  -4.640
REMARK INTRA:                  -1.200
REMARK UNBOUND:                -1.176
REMARK SMILES CCCCCCCCCCCCCCCC(=O)[O-]
REMARK SMILES IDX 9 1 10 2 11 3 12 4 13 5 14 6 15 7 16 8 17 9 18 10 8 11 7 12
REMARK SMILES IDX 6 13 5 14 4 15 3 16 2 17 1 18
REMARK H PARENT
REMARK Flexibility Score: inf
ROOT
ATOM      1  C   UNL     1       9.450 -33.367  12.876  1.00  0.00     0.000 C 
ENDROOT
BRANCH   1   2
ATOM      2  C   UNL     1       8.349 -32.319  13.108  1.00  0.00     0.000 C 
BRANCH   2   3
ATOM      3  C   UNL     1       7.003 -32.952  13.503  1.00  0.00     0.000 C 
BRANCH   3   4
ATOM      4  C   UNL     1       6.795 -32.988  15.027  1.00  0.00     0.000 C 
BRANCH   4   5
ATOM      5  C   UNL     1       7.684 -34.038  15.716  1.00  0.00     0.000 C 
BRANCH   5   6
ATOM      6  C   UNL     1       8.674 -33.412  16.713  1.00  0.00     0.006 C 
BRANCH   6   7
ATOM      7  C   UNL     1       8.110 -32.164  17.405  1.00  0.00     0.053 C 
BRANCH   7   8
ATOM      8  C   UNL     1       9.176 -31.487  18.208  1.00  0.00     0.041 C 
ATOM      9  O   UNL     1       9.202 -31.612  19.461  1.00  0.00    -0.550 OA
ATOM     10  O   UNL     1      10.176 -30.766  17.568  1.00  0.00    -0.550 OA
ENDBRANCH   7   8
ENDBRANCH   6   7
ENDBRANCH   5   6
ENDBRANCH   4   5
ENDBRANCH   3   4
ENDBRANCH   2   3
ENDBRANCH   1   2
BRANCH   1  11
ATOM     11  C   UNL     1      10.848 -32.858  13.264  1.00  0.00     0.000 C 
BRANCH  11  12
ATOM     12  C   UNL     1      10.756 -31.813  14.387  1.00  0.00    -0.000 C 
BRANCH  12  13
ATOM     13  C   UNL     1      12.105 -31.131  14.685  1.00  0.00    -0.000 C 
BRANCH  13  14
ATOM     14  C   UNL     1      13.266 -31.558  13.768  1.00  0.00    -0.000 C 
BRANCH  14  15
ATOM     15  C   UNL     1      14.392 -30.516  13.624  1.00  0.00    -0.000 C 
BRANCH  15  16
ATOM     16  C   UNL     1      14.513 -29.564  14.836  1.00  0.00    -0.000 C 
BRANCH  16  17
ATOM     17  C   UNL     1      15.520 -28.419  14.625  1.00  0.00    -0.003 C 
ATOM     18  C   UNL     1      15.675 -27.539  15.866  1.00  0.00     0.004 C 
ENDBRANCH  16  17
ENDBRANCH  15  16
ENDBRANCH  14  15
ENDBRANCH  13  14
ENDBRANCH  12  13
ENDBRANCH  11  12
ENDBRANCH   1  11
TORSDOF 14
ENDMDL
MODEL 3
REMARK VINA RESULT:    -2.250      2.475      6.027
REMARK INTER + INTRA:          -5.267
REMARK INTER:                  -4.439
REMARK INTRA:                  -0.828
REMARK UNBOUND:                -1.176
REMARK SMILES CCCCCCCCCCCCCCCC(=O)[O-]
REMARK SMILES IDX 9 1 10 2 11 3 12 4 13 5 14 6 15 7 16 8 17 9 18 10 8 11 7 12
REMARK SMILES IDX 6 13 5 14 4 15 3 16 2 17 1 18
REMARK H PARENT
REMARK Flexibility Score: inf
ROOT
ATOM      1  C   UNL     1       9.491 -31.543  18.388  1.00  0.00     0.000 C 
ENDROOT
BRANCH   1   2
ATOM      2  C   UNL     1       8.086 -31.834  17.836  1.00  0.00     0.000 C 
BRANCH   2   3
ATOM      3  C   UNL     1       8.111 -32.781  16.623  1.00  0.00     0.000 C 
BRANCH   3   4
ATOM      4  C   UNL     1       6.935 -32.536  15.662  1.00  0.00     0.000 C 
BRANCH   4   5
ATOM      5  C   UNL     1       7.374 -32.519  14.188  1.00  0.00     0.000 C 
BRANCH   5   6
ATOM      6  C   UNL     1       6.484 -33.399  13.296  1.00  0.00     0.006 C 
BRANCH   6   7
ATOM      7  C   UNL     1       6.036 -34.691  13.993  1.00  0.00     0.053 C 
BRANCH   7   8
ATOM      8  C   UNL     1       7.107 -35.732  13.904  1.00  0.00     0.041 C 
ATOM      9  O   UNL     1       7.135 -36.684  14.728  1.00  0.00    -0.550 OA
ATOM     10  O   UNL     1       8.040 -35.683  12.876  1.00  0.00    -0.550 OA
ENDBRANCH   7   8
ENDBRANCH   6   7
ENDBRANCH   5   6
ENDBRANCH   4   5
ENDBRANCH   3   4
ENDBRANCH   2   3
ENDBRANCH   1   2
BRANCH   1  11
ATOM     11  C   UNL     1      10.288 -30.570  17.503  1.00  0.00     0.000 C 
BRANCH  11  12
ATOM     12  C   UNL     1      10.432 -31.121  16.076  1.00  0.00    -0.000 C 
BRANCH  12  13
ATOM     13  C   UNL     1      11.847 -30.934  15.498  1.00  0.00    -0.000 C 
BRANCH  13  14
ATOM     14  C   UNL     1      12.035 -31.450  14.060  1.00  0.00    -0.000 C 
BRANCH  14  15
ATOM     15  C   UNL     1      10.733 -31.857  13.344  1.00  0.00    -0.000 C 
BRANCH  15  16
ATOM     16  C   UNL     1      10.674 -33.356  12.972  1.00  0.00    -0.000 C 
BRANCH  16  17
ATOM     17  C   UNL     1      12.045 -34.054  12.996  1.00  0.00    -0.003 C 
ATOM     18  C   UNL     1      11.929 -35.568  13.184  1.00  0.00     0.004 C 
ENDBRANCH  16  17
ENDBRANCH  15  16
ENDBRANCH  14  15
ENDBRANCH  13  14
ENDBRANCH  12  13
ENDBRANCH  11  12
ENDBRANCH   1  11
TORSDOF 14
ENDMDL
MODEL 4
REMARK VINA RESULT:    -1.877      2.450      5.817
REMARK INTER + INTRA:          -4.589
REMARK INTER:                  -3.410
REMARK INTRA:                  -1.179
REMARK UNBOUND:                -1.176
REMARK SMILES CCCCCCCCCCCCCCCC(=O)[O-]
REMARK SMILES IDX 9 1 10 2 11 3 12 4 13 5 14 6 15 7 16 8 17 9 18 10 8 11 7 12
REMARK SMILES IDX 6 13 5 14 4 15 3 16 2 17 1 18
REMARK H PARENT
REMARK Flexibility Score: inf
ROOT
ATOM      1  C   UNL     1       9.114 -30.980  17.863  1.00  0.00     0.000 C 
ENDROOT
BRANCH   1   2
ATOM      2  C   UNL     1       8.498 -32.365  18.123  1.00  0.00     0.000 C 
BRANCH   2   3
ATOM      3  C   UNL     1       8.186 -33.128  16.823  1.00  0.00     0.000 C 
BRANCH   3   4
ATOM      4  C   UNL     1       7.318 -32.308  15.854  1.00  0.00     0.000 C 
BRANCH   4   5
ATOM      5  C   UNL     1       6.322 -33.184  15.073  1.00  0.00     0.000 C 
BRANCH   5   6
ATOM      6  C   UNL     1       6.390 -32.947  13.556  1.00  0.00     0.006 C 
BRANCH   6   7
ATOM      7  C   UNL     1       7.813 -33.077  12.997  1.00  0.00     0.053 C 
BRANCH   7   8
ATOM      8  C   UNL     1       8.260 -34.504  13.033  1.00  0.00     0.041 C 
ATOM      9  O   UNL     1       9.467 -34.785  13.261  1.00  0.00    -0.550 OA
ATOM     10  O   UNL     1       7.334 -35.527  12.875  1.00  0.00    -0.550 OA
ENDBRANCH   7   8
ENDBRANCH   6   7
ENDBRANCH   5   6
ENDBRANCH   4   5
ENDBRANCH   3   4
ENDBRANCH   2   3
ENDBRANCH   1   2
BRANCH   1  11
ATOM     11  C   UNL     1      10.600 -31.053  17.476  1.00  0.00     0.000 C 
BRANCH  11  12
ATOM     12  C   UNL     1      10.798 -30.682  15.998  1.00  0.00    -0.000 C 
BRANCH  12  13
ATOM     13  C   UNL     1      10.584 -31.874  15.045  1.00  0.00    -0.000 C 
BRANCH  13  14
ATOM     14  C   UNL     1      11.290 -31.750  13.682  1.00  0.00    -0.000 C 
BRANCH  14  15
ATOM     15  C   UNL     1      12.415 -32.774  13.441  1.00  0.00    -0.000 C 
BRANCH  15  16
ATOM     16  C   UNL     1      13.831 -32.155  13.458  1.00  0.00    -0.000 C 
BRANCH  16  17
ATOM     17  C   UNL     1      13.961 -30.935  14.387  1.00  0.00    -0.003 C 
ATOM     18  C   UNL     1      14.434 -29.683  13.647  1.00  0.00     0.004 C 
ENDBRANCH  16  17
ENDBRANCH  15  16
ENDBRANCH  14  15
ENDBRANCH  13  14
ENDBRANCH  12  13
ENDBRANCH  11  12
ENDBRANCH   1  11
TORSDOF 14
ENDMDL
MODEL 5
REMARK VINA RESULT:    -1.726      2.817      5.300
REMARK INTER + INTRA:          -4.315
REMARK INTER:                  -3.269
REMARK INTRA:                  -1.046
REMARK UNBOUND:                -1.176
REMARK SMILES CCCCCCCCCCCCCCCC(=O)[O-]
REMARK SMILES IDX 9 1 10 2 11 3 12 4 13 5 14 6 15 7 16 8 17 9 18 10 8 11 7 12
REMARK SMILES IDX 6 13 5 14 4 15 3 16 2 17 1 18
REMARK H PARENT
REMARK Flexibility Score: inf
ROOT
ATOM      1  C   UNL     1      10.910 -34.275  13.026  1.00  0.00     0.000 C 
ENDROOT
BRANCH   1   2
ATOM      2  C   UNL     1      10.114 -35.582  12.875  1.00  0.00     0.000 C 
BRANCH   2   3
ATOM      3  C   UNL     1       8.592 -35.353  12.880  1.00  0.00     0.000 C 
BRANCH   3   4
ATOM      4  C   UNL     1       7.806 -36.633  13.210  1.00  0.00     0.000 C 
BRANCH   4   5
ATOM      5  C   UNL     1       7.114 -36.560  14.582  1.00  0.00     0.000 C 
BRANCH   5   6
ATOM      6  C   UNL     1       7.305 -35.198  15.270  1.00  0.00     0.006 C 
BRANCH   6   7
ATOM      7  C   UNL     1       6.157 -34.221  14.984  1.00  0.00     0.053 C 
BRANCH   7   8
ATOM      8  C   UNL     1       6.685 -32.833  14.804  1.00  0.00     0.041 C 
ATOM      9  O   UNL     1       7.182 -32.212  15.781  1.00  0.00    -0.550 OA
ATOM     10  O   UNL     1       6.684 -32.247  13.545  1.00  0.00    -0.550 OA
ENDBRANCH   7   8
ENDBRANCH   6   7
ENDBRANCH   5   6
ENDBRANCH   4   5
ENDBRANCH   3   4
ENDBRANCH   2   3
ENDBRANCH   1   2
BRANCH   1  11
ATOM     11  C   UNL     1      10.213 -33.257  13.943  1.00  0.00     0.000 C 
BRANCH  11  12
ATOM     12  C   UNL     1      10.101 -31.888  13.254  1.00  0.00    -0.000 C 
BRANCH  12  13
ATOM     13  C   UNL     1      11.225 -30.916  13.661  1.00  0.00    -0.000 C 
BRANCH  13  14
ATOM     14  C   UNL     1      12.404 -31.563  14.411  1.00  0.00    -0.000 C 
BRANCH  14  15
ATOM     15  C   UNL     1      13.755 -31.494  13.674  1.00  0.00    -0.000 C 
BRANCH  15  16
ATOM     16  C   UNL     1      14.375 -30.078  13.649  1.00  0.00    -0.000 C 
BRANCH  16  17
ATOM     17  C   UNL     1      14.783 -29.558  15.039  1.00  0.00    -0.003 C 
ATOM     18  C   UNL     1      15.372 -28.147  14.986  1.00  0.00     0.004 C 
ENDBRANCH  16  17
ENDBRANCH  15  16
ENDBRANCH  14  15
ENDBRANCH  13  14
ENDBRANCH  12  13
ENDBRANCH  11  12
ENDBRANCH   1  11
TORSDOF 14
ENDMDL
MODEL 6
REMARK VINA RESULT:    -1.700      2.209      4.870
REMARK INTER + INTRA:          -4.268
REMARK INTER:                  -2.911
REMARK INTRA:                  -1.357
REMARK UNBOUND:                -1.176
REMARK SMILES CCCCCCCCCCCCCCCC(=O)[O-]
REMARK SMILES IDX 9 1 10 2 11 3 12 4 13 5 14 6 15 7 16 8 17 9 18 10 8 11 7 12
REMARK SMILES IDX 6 13 5 14 4 15 3 16 2 17 1 18
REMARK H PARENT
REMARK Flexibility Score: inf
ROOT
ATOM      1  C   UNL     1      10.384 -34.090  13.442  1.00  0.00     0.000 C 
ENDROOT
BRANCH   1   2
ATOM      2  C   UNL     1      11.657 -33.367  12.973  1.00  0.00     0.000 C 
BRANCH   2   3
ATOM      3  C   UNL     1      11.693 -31.890  13.404  1.00  0.00     0.000 C 
BRANCH   3   4
ATOM      4  C   UNL     1      10.816 -31.616  14.637  1.00  0.00     0.000 C 
BRANCH   4   5
ATOM      5  C   UNL     1      11.562 -30.823  15.723  1.00  0.00     0.000 C 
BRANCH   5   6
ATOM      6  C   UNL     1      10.784 -30.756  17.047  1.00  0.00     0.006 C 
BRANCH   6   7
ATOM      7  C   UNL     1       9.353 -31.297  16.924  1.00  0.00     0.053 C 
BRANCH   7   8
ATOM      8  C   UNL     1       8.860 -31.780  18.251  1.00  0.00     0.041 C 
ATOM      9  O   UNL     1       8.501 -32.978  18.396  1.00  0.00    -0.550 OA
ATOM     10  O   UNL     1       8.854 -30.922  19.344  1.00  0.00    -0.550 OA
ENDBRANCH   7   8
ENDBRANCH   6   7
ENDBRANCH   5   6
ENDBRANCH   4   5
ENDBRANCH   3   4
ENDBRANCH   2   3
ENDBRANCH   1   2
BRANCH   1  11
ATOM     11  C   UNL     1      10.407 -35.596  13.133  1.00  0.00     0.000 C 
BRANCH  11  12
ATOM     12  C   UNL     1       9.263 -36.320  13.859  1.00  0.00    -0.000 C 
BRANCH  12  13
ATOM     13  C   UNL     1       8.324 -37.076  12.900  1.00  0.00    -0.000 C 
BRANCH  13  14
ATOM     14  C   UNL     1       6.865 -36.584  12.898  1.00  0.00    -0.000 C 
BRANCH  14  15
ATOM     15  C   UNL     1       6.699 -35.053  12.876  1.00  0.00    -0.000 C 
BRANCH  15  16
ATOM     16  C   UNL     1       5.878 -34.502  14.065  1.00  0.00    -0.000 C 
BRANCH  16  17
ATOM     17  C   UNL     1       6.166 -33.025  14.384  1.00  0.00    -0.003 C 
ATOM     18  C   UNL     1       6.925 -32.319  13.259  1.00  0.00     0.004 C 
ENDBRANCH  16  17
ENDBRANCH  15  16
ENDBRANCH  14  15
ENDBRANCH  13  14
ENDBRANCH  12  13
ENDBRANCH  11  12
ENDBRANCH   1  11
TORSDOF 14
ENDMDL
