MODEL 1
REMARK VINA RESULT:    -3.204      0.000      0.000
REMARK INTER + INTRA:          -2.740
REMARK INTER:                  -4.515
REMARK INTRA:                   1.775
REMARK UNBOUND:                 1.775
REMARK SMILES CC1=CCC(=C(C)C)CCC(C)=CCC1
REMARK SMILES IDX 5 1 6 2 7 3 8 4 9 5 10 6 11 7 12 8 13 9 4 11 3 12 2 13 1 14
REMARK SMILES IDX 15 15 14 16
REMARK H PARENT
REMARK Flexibility Score: 60.00
ROOT
ATOM      1  C   UNL     1     145.405 145.752 134.001  1.00  0.00    -0.067 C 
ATOM      2  C   UNL     1     146.453 144.869 134.070  1.00  0.00    -0.077 C 
ATOM      3  C   UNL     1     147.890 145.351 134.123  1.00  0.00     0.039 C 
ATOM      4  C   UNL     1     146.226 143.371 134.120  1.00  0.00     0.039 C 
ENDROOT
BRANCH   1   5
ATOM      5  C   UNL     1     143.958 145.266 133.980  1.00  0.00     0.035 C 
BRANCH   5   6
ATOM      6  C   UNL     1     143.371 145.244 132.554  1.00  0.00     0.035 C 
BRANCH   6   7
ATOM      7  C   UNL     1     143.877 144.067 131.739  1.00  0.00    -0.077 C 
ATOM      8  C   UNL     1     143.419 142.683 132.114  1.00  0.00     0.039 C 
ATOM      9  C   UNL     1     144.707 144.205 130.679  1.00  0.00    -0.028 CG0
ATOM     10  G   UNL     1     145.210 145.524 130.145  1.00  0.00     0.000 G0
ENDBRANCH   6   7
ENDBRANCH   5   6
ENDBRANCH   1   5
BRANCH   1  11
ATOM     11  C   UNL     1     145.633 147.260 134.018  1.00  0.00     0.058 C 
BRANCH  11  12
ATOM     12  C   UNL     1     146.394 147.735 132.802  1.00  0.00    -0.024 C 
ATOM     13  C   UNL     1     146.061 147.494 131.510  1.00  0.00    -0.077 C 
ATOM     14  C   UNL     1     146.942 148.070 130.432  1.00  0.00     0.039 C 
BRANCH  13  15
ATOM     15  C   UNL     1     144.846 146.691 131.087  1.00  0.00     0.034 C 
BRANCH  15  16
ATOM     16  C   UNL     1     145.228 145.529 130.151  1.00  0.00     0.032 CG0
ATOM     17  G   UNL     1     144.730 144.204 130.677  1.00  0.00     0.000 G0
ENDBRANCH  15  16
ENDBRANCH  13  15
ENDBRANCH  11  12
ENDBRANCH   1  11
TORSDOF 0
ENDMDL
MODEL 2
REMARK VINA RESULT:    -3.166      1.149      3.905
REMARK INTER + INTRA:          -2.687
REMARK INTER:                  -4.484
REMARK INTRA:                   1.797
REMARK UNBOUND:                 1.775
REMARK SMILES CC1=CCC(=C(C)C)CCC(C)=CCC1
REMARK SMILES IDX 5 1 6 2 7 3 8 4 9 5 10 6 11 7 12 8 13 9 4 11 3 12 2 13 1 14
REMARK SMILES IDX 15 15 14 16
REMARK H PARENT
REMARK Flexibility Score: 60.00
ROOT
ATOM      1  C   UNL     1     145.276 145.141 134.004  1.00  0.00    -0.067 C 
ATOM      2  C   UNL     1     144.246 146.048 134.010  1.00  0.00    -0.077 C 
ATOM      3  C   UNL     1     142.799 145.600 134.062  1.00  0.00     0.039 C 
ATOM      4  C   UNL     1     144.505 147.541 133.988  1.00  0.00     0.039 C 
ENDROOT
BRANCH   1   5
ATOM      5  C   UNL     1     146.733 145.594 133.984  1.00  0.00     0.035 C 
BRANCH   5   6
ATOM      6  C   UNL     1     147.341 145.542 132.568  1.00  0.00     0.035 C 
BRANCH   6   7
ATOM      7  C   UNL     1     146.913 146.721 131.711  1.00  0.00    -0.077 C 
ATOM      8  C   UNL     1     147.518 148.071 131.992  1.00  0.00     0.039 C 
ATOM      9  C   UNL     1     146.027 146.612 130.695  1.00  0.00    -0.028 CG0
ATOM     10  G   UNL     1     145.376 145.323 130.254  1.00  0.00     0.000 G0
ENDBRANCH   6   7
ENDBRANCH   5   6
ENDBRANCH   1   5
BRANCH   1  11
ATOM     11  C   UNL     1     145.015 143.641 134.093  1.00  0.00     0.058 C 
BRANCH  11  12
ATOM     12  C   UNL     1     144.259 143.122 132.892  1.00  0.00    -0.024 C 
ATOM     13  C   UNL     1     144.584 143.336 131.594  1.00  0.00    -0.077 C 
ATOM     14  C   UNL     1     143.711 142.716 130.533  1.00  0.00     0.039 C 
BRANCH  13  15
ATOM     15  C   UNL     1     145.783 144.150 131.146  1.00  0.00     0.034 C 
BRANCH  15  16
ATOM     16  C   UNL     1     145.369 145.328 130.245  1.00  0.00     0.032 CG0
ATOM     17  G   UNL     1     146.035 146.615 130.671  1.00  0.00     0.000 G0
ENDBRANCH  15  16
ENDBRANCH  13  15
ENDBRANCH  11  12
ENDBRANCH   1  11
TORSDOF 0
ENDMDL
MODEL 3
REMARK VINA RESULT:    -2.921      1.290      2.348
REMARK INTER + INTRA:          -2.342
REMARK INTER:                  -4.285
REMARK INTRA:                   1.944
REMARK UNBOUND:                 1.775
REMARK SMILES CC1=CCC(=C(C)C)CCC(C)=CCC1
REMARK SMILES IDX 5 1 6 2 7 3 8 4 9 5 10 6 11 7 12 8 13 9 4 11 3 12 2 13 1 14
REMARK SMILES IDX 15 15 14 16
REMARK H PARENT
REMARK Flexibility Score: 60.00
ROOT
ATOM      1  C   UNL     1     145.546 145.888 134.103  1.00  0.00    -0.067 C 
ATOM      2  C   UNL     1     144.475 145.031 134.108  1.00  0.00    -0.077 C 
ATOM      3  C   UNL     1     143.050 145.548 134.071  1.00  0.00     0.039 C 
ATOM      4  C   UNL     1     144.662 143.527 134.125  1.00  0.00     0.039 C 
ENDROOT
BRANCH   1   5
ATOM      5  C   UNL     1     146.980 145.366 134.107  1.00  0.00     0.035 C 
BRANCH   5   6
ATOM      6  C   UNL     1     147.614 145.389 132.701  1.00  0.00     0.035 C 
BRANCH   6   7
ATOM      7  C   UNL     1     147.195 144.197 131.859  1.00  0.00    -0.077 C 
ATOM      8  C   UNL     1     147.519 142.814 132.358  1.00  0.00     0.039 C 
ATOM      9  C   UNL     1     146.526 144.318 130.689  1.00  0.00    -0.028 CG0
ATOM     10  G   UNL     1     146.080 145.626 130.082  1.00  0.00     0.000 G0
ENDBRANCH   6   7
ENDBRANCH   5   6
ENDBRANCH   1   5
BRANCH   1  11
ATOM     11  C   UNL     1     145.356 147.399 134.019  1.00  0.00     0.058 C 
BRANCH  11  12
ATOM     12  C   UNL     1     146.163 148.013 132.898  1.00  0.00    -0.024 C 
ATOM     13  C   UNL     1     146.154 147.619 131.602  1.00  0.00    -0.077 C 
ATOM     14  C   UNL     1     147.020 148.372 130.625  1.00  0.00     0.039 C 
BRANCH  13  15
ATOM     15  C   UNL     1     145.310 146.474 131.074  1.00  0.00     0.034 C 
BRANCH  15  16
ATOM     16  C   UNL     1     146.091 145.608 130.067  1.00  0.00     0.032 CG0
ATOM     17  G   UNL     1     146.505 144.289 130.674  1.00  0.00     0.000 G0
ENDBRANCH  15  16
ENDBRANCH  13  15
ENDBRANCH  11  12
ENDBRANCH   1  11
TORSDOF 0
ENDMDL
MODEL 4
REMARK VINA RESULT:    -2.910      1.255      3.223
REMARK INTER + INTRA:          -2.325
REMARK INTER:                  -4.029
REMARK INTRA:                   1.704
REMARK UNBOUND:                 1.775
REMARK SMILES CC1=CCC(=C(C)C)CCC(C)=CCC1
REMARK SMILES IDX 5 1 6 2 7 3 8 4 9 5 10 6 11 7 12 8 13 9 4 11 3 12 2 13 1 14
REMARK SMILES IDX 15 15 14 16
REMARK H PARENT
REMARK Flexibility Score: 60.00
ROOT
ATOM      1  C   UNL     1     145.301 144.811 133.961  1.00  0.00    -0.067 C 
ATOM      2  C   UNL     1     146.348 145.698 133.999  1.00  0.00    -0.077 C 
ATOM      3  C   UNL     1     147.786 145.227 133.906  1.00  0.00     0.039 C 
ATOM      4  C   UNL     1     146.118 147.191 134.112  1.00  0.00     0.039 C 
ENDROOT
BRANCH   1   5
ATOM      5  C   UNL     1     143.853 145.289 134.022  1.00  0.00     0.035 C 
BRANCH   5   6
ATOM      6  C   UNL     1     143.194 145.335 132.629  1.00  0.00     0.035 C 
BRANCH   6   7
ATOM      7  C   UNL     1     143.637 146.541 131.820  1.00  0.00    -0.077 C 
ATOM      8  C   UNL     1     143.392 147.915 132.384  1.00  0.00     0.039 C 
ATOM      9  C   UNL     1     144.260 146.439 130.623  1.00  0.00    -0.028 CG0
ATOM     10  G   UNL     1     144.626 145.138 129.950  1.00  0.00     0.000 G0
ENDBRANCH   6   7
ENDBRANCH   5   6
ENDBRANCH   1   5
BRANCH   1  11
ATOM     11  C   UNL     1     145.533 143.315 133.781  1.00  0.00     0.058 C 
BRANCH  11  12
ATOM     12  C   UNL     1     144.638 142.724 132.715  1.00  0.00    -0.024 C 
ATOM     13  C   UNL     1     144.594 143.100 131.415  1.00  0.00    -0.077 C 
ATOM     14  C   UNL     1     143.642 142.375 130.498  1.00  0.00     0.039 C 
BRANCH  13  15
ATOM     15  C   UNL     1     145.458 144.197 130.823  1.00  0.00     0.034 C 
BRANCH  15  16
ATOM     16  C   UNL     1     144.642 145.142 129.920  1.00  0.00     0.032 CG0
ATOM     17  G   UNL     1     144.272 146.416 130.640  1.00  0.00     0.000 G0
ENDBRANCH  15  16
ENDBRANCH  13  15
ENDBRANCH  11  12
ENDBRANCH   1  11
TORSDOF 0
ENDMDL
MODEL 5
REMARK VINA RESULT:    -2.505      1.258      3.231
REMARK INTER + INTRA:          -1.756
REMARK INTER:                  -3.719
REMARK INTRA:                   1.963
REMARK UNBOUND:                 1.775
REMARK SMILES CC1=CCC(=C(C)C)CCC(C)=CCC1
REMARK SMILES IDX 5 1 6 2 7 3 8 4 9 5 10 6 11 7 12 8 13 9 4 11 3 12 2 13 1 14
REMARK SMILES IDX 15 15 14 16
REMARK H PARENT
REMARK Flexibility Score: 60.00
ROOT
ATOM      1  C   UNL     1     144.917 145.516 133.940  1.00  0.00    -0.067 C 
ATOM      2  C   UNL     1     145.736 144.427 133.791  1.00  0.00    -0.077 C 
ATOM      3  C   UNL     1     145.172 143.027 133.650  1.00  0.00     0.039 C 
ATOM      4  C   UNL     1     147.244 144.570 133.735  1.00  0.00     0.039 C 
ENDROOT
BRANCH   1   5
ATOM      5  C   UNL     1     145.485 146.929 134.049  1.00  0.00     0.035 C 
BRANCH   5   6
ATOM      6  C   UNL     1     145.346 147.718 132.732  1.00  0.00     0.035 C 
BRANCH   6   7
ATOM      7  C   UNL     1     146.523 147.497 131.799  1.00  0.00    -0.077 C 
ATOM      8  C   UNL     1     147.890 147.942 132.248  1.00  0.00     0.039 C 
ATOM      9  C   UNL     1     146.406 146.903 130.589  1.00  0.00    -0.028 CG0
ATOM     10  G   UNL     1     145.120 146.354 130.019  1.00  0.00     0.000 G0
ENDBRANCH   6   7
ENDBRANCH   5   6
ENDBRANCH   1   5
BRANCH   1  11
ATOM     11  C   UNL     1     143.398 145.377 133.929  1.00  0.00     0.058 C 
BRANCH  11  12
ATOM     12  C   UNL     1     142.758 146.208 132.841  1.00  0.00    -0.024 C 
ATOM     13  C   UNL     1     143.157 146.269 131.548  1.00  0.00    -0.077 C 
ATOM     14  C   UNL     1     142.374 147.147 130.605  1.00  0.00     0.039 C 
BRANCH  13  15
ATOM     15  C   UNL     1     144.335 145.494 130.990  1.00  0.00     0.034 C 
BRANCH  15  16
ATOM     16  C   UNL     1     145.140 146.331 129.977  1.00  0.00     0.032 CG0
ATOM     17  G   UNL     1     146.388 146.908 130.599  1.00  0.00     0.000 G0
ENDBRANCH  15  16
ENDBRANCH  13  15
ENDBRANCH  11  12
ENDBRANCH   1  11
TORSDOF 0
ENDMDL
MODEL 6
REMARK VINA RESULT:    -2.488      1.127      1.977
REMARK INTER + INTRA:          -1.730
REMARK INTER:                  -3.710
REMARK INTRA:                   1.980
REMARK UNBOUND:                 1.775
REMARK SMILES CC1=CCC(=C(C)C)CCC(C)=CCC1
REMARK SMILES IDX 5 1 6 2 7 3 8 4 9 5 10 6 11 7 12 8 13 9 4 11 3 12 2 13 1 14
REMARK SMILES IDX 15 15 14 16
REMARK H PARENT
REMARK Flexibility Score: 60.00
ROOT
ATOM      1  C   UNL     1     145.058 145.308 133.759  1.00  0.00    -0.067 C 
ATOM      2  C   UNL     1     144.315 146.438 133.988  1.00  0.00    -0.077 C 
ATOM      3  C   UNL     1     144.968 147.799 134.125  1.00  0.00     0.039 C 
ATOM      4  C   UNL     1     142.804 146.385 134.091  1.00  0.00     0.039 C 
ENDROOT
BRANCH   1   5
ATOM      5  C   UNL     1     144.397 143.943 133.589  1.00  0.00     0.035 C 
BRANCH   5   6
ATOM      6  C   UNL     1     145.131 143.062 132.558  1.00  0.00     0.035 C 
BRANCH   6   7
ATOM      7  C   UNL     1     144.484 143.119 131.185  1.00  0.00    -0.077 C 
ATOM      8  C   UNL     1     143.313 142.217 130.904  1.00  0.00     0.039 C 
ATOM      9  C   UNL     1     144.900 143.957 130.207  1.00  0.00    -0.028 CG0
ATOM     10  G   UNL     1     146.020 144.959 130.349  1.00  0.00     0.000 G0
ENDBRANCH   6   7
ENDBRANCH   5   6
ENDBRANCH   1   5
BRANCH   1  11
ATOM     11  C   UNL     1     146.573 145.372 133.589  1.00  0.00     0.058 C 
BRANCH  11  12
ATOM     12  C   UNL     1     147.012 146.623 132.863  1.00  0.00    -0.024 C 
ATOM     13  C   UNL     1     146.549 147.051 131.664  1.00  0.00    -0.077 C 
ATOM     14  C   UNL     1     147.101 148.338 131.109  1.00  0.00     0.039 C 
BRANCH  13  15
ATOM     15  C   UNL     1     145.496 146.318 130.855  1.00  0.00     0.034 C 
BRANCH  15  16
ATOM     16  C   UNL     1     146.019 144.968 130.328  1.00  0.00     0.032 CG0
ATOM     17  G   UNL     1     144.911 143.949 130.211  1.00  0.00     0.000 G0
ENDBRANCH  15  16
ENDBRANCH  13  15
ENDBRANCH  11  12
ENDBRANCH   1  11
TORSDOF 0
ENDMDL
MODEL 7
REMARK VINA RESULT:    -2.272      1.697      4.221
REMARK INTER + INTRA:          -1.426
REMARK INTER:                  -3.181
REMARK INTRA:                   1.755
REMARK UNBOUND:                 1.775
REMARK SMILES CC1=CCC(=C(C)C)CCC(C)=CCC1
REMARK SMILES IDX 5 1 6 2 7 3 8 4 9 5 10 6 11 7 12 8 13 9 4 11 3 12 2 13 1 14
REMARK SMILES IDX 15 15 14 16
REMARK H PARENT
REMARK Flexibility Score: 60.00
ROOT
ATOM      1  C   UNL     1     145.290 146.520 131.475  1.00  0.00    -0.067 C 
ATOM      2  C   UNL     1     144.831 147.236 132.551  1.00  0.00    -0.077 C 
ATOM      3  C   UNL     1     143.397 147.724 132.622  1.00  0.00     0.039 C 
ATOM      4  C   UNL     1     145.726 147.554 133.732  1.00  0.00     0.039 C 
ENDROOT
BRANCH   1   5
ATOM      5  C   UNL     1     146.724 146.002 131.419  1.00  0.00     0.035 C 
BRANCH   5   6
ATOM      6  C   UNL     1     146.830 144.528 131.860  1.00  0.00     0.035 C 
BRANCH   6   7
ATOM      7  C   UNL     1     146.880 144.379 133.371  1.00  0.00    -0.077 C 
ATOM      8  C   UNL     1     148.048 144.972 134.113  1.00  0.00     0.039 C 
ATOM      9  C   UNL     1     145.915 143.754 134.084  1.00  0.00    -0.028 CG0
ATOM     10  G   UNL     1     144.659 143.158 133.496  1.00  0.00     0.000 G0
ENDBRANCH   6   7
ENDBRANCH   5   6
ENDBRANCH   1   5
BRANCH   1  11
ATOM     11  C   UNL     1     144.369 146.144 130.318  1.00  0.00     0.058 C 
BRANCH  11  12
ATOM     12  C   UNL     1     144.251 144.647 130.148  1.00  0.00    -0.024 C 
ATOM     13  C   UNL     1     144.036 143.748 131.138  1.00  0.00    -0.077 C 
ATOM     14  C   UNL     1     143.930 142.292 130.763  1.00  0.00     0.039 C 
BRANCH  13  15
ATOM     15  C   UNL     1     143.878 144.123 132.599  1.00  0.00     0.034 C 
BRANCH  15  16
ATOM     16  C   UNL     1     144.632 143.146 133.522  1.00  0.00     0.032 CG0
ATOM     17  G   UNL     1     145.893 143.765 134.075  1.00  0.00     0.000 G0
ENDBRANCH  15  16
ENDBRANCH  13  15
ENDBRANCH  11  12
ENDBRANCH   1  11
TORSDOF 0
ENDMDL
MODEL 8
REMARK VINA RESULT:    -2.105      1.769      4.550
REMARK INTER + INTRA:          -1.191
REMARK INTER:                  -2.825
REMARK INTRA:                   1.634
REMARK UNBOUND:                 1.775
REMARK SMILES CC1=CCC(=C(C)C)CCC(C)=CCC1
REMARK SMILES IDX 5 1 6 2 7 3 8 4 9 5 10 6 11 7 12 8 13 9 4 11 3 12 2 13 1 14
REMARK SMILES IDX 15 15 14 16
REMARK H PARENT
REMARK Flexibility Score: 60.00
ROOT
ATOM      1  C   UNL     1     143.968 145.649 131.640  1.00  0.00    -0.067 C 
ATOM      2  C   UNL     1     143.597 146.331 132.772  1.00  0.00    -0.077 C 
ATOM      3  C   UNL     1     142.748 145.677 133.845  1.00  0.00     0.039 C 
ATOM      4  C   UNL     1     144.035 147.761 133.016  1.00  0.00     0.039 C 
ENDROOT
BRANCH   1   5
ATOM      5  C   UNL     1     144.850 146.298 130.576  1.00  0.00     0.035 C 
BRANCH   5   6
ATOM      6  C   UNL     1     146.333 145.903 130.726  1.00  0.00     0.035 C 
BRANCH   6   7
ATOM      7  C   UNL     1     147.038 146.705 131.806  1.00  0.00    -0.077 C 
ATOM      8  C   UNL     1     147.249 148.179 131.585  1.00  0.00     0.039 C 
ATOM      9  C   UNL     1     147.469 146.161 132.968  1.00  0.00    -0.028 CG0
ATOM     10  G   UNL     1     147.285 144.715 133.363  1.00  0.00     0.000 G0
ENDBRANCH   6   7
ENDBRANCH   5   6
ENDBRANCH   1   5
BRANCH   1  11
ATOM     11  C   UNL     1     143.582 144.189 131.428  1.00  0.00     0.058 C 
BRANCH  11  12
ATOM     12  C   UNL     1     144.062 143.303 132.555  1.00  0.00    -0.024 C 
ATOM     13  C   UNL     1     145.345 143.164 132.967  1.00  0.00    -0.077 C 
ATOM     14  C   UNL     1     145.621 142.240 134.125  1.00  0.00     0.039 C 
BRANCH  13  15
ATOM     15  C   UNL     1     146.517 143.895 132.341  1.00  0.00     0.034 C 
BRANCH  15  16
ATOM     16  C   UNL     1     147.303 144.711 133.385  1.00  0.00     0.032 CG0
ATOM     17  G   UNL     1     147.465 146.150 132.958  1.00  0.00     0.000 G0
ENDBRANCH  15  16
ENDBRANCH  13  15
ENDBRANCH  11  12
ENDBRANCH   1  11
TORSDOF 0
ENDMDL
MODEL 9
REMARK VINA RESULT:    -2.055      1.789      3.348
REMARK INTER + INTRA:          -1.121
REMARK INTER:                  -2.603
REMARK INTRA:                   1.482
REMARK UNBOUND:                 1.775
REMARK SMILES CC1=CCC(=C(C)C)CCC(C)=CCC1
REMARK SMILES IDX 5 1 6 2 7 3 8 4 9 5 10 6 11 7 12 8 13 9 4 11 3 12 2 13 1 14
REMARK SMILES IDX 15 15 14 16
REMARK H PARENT
REMARK Flexibility Score: 60.00
ROOT
ATOM      1  C   UNL     1     144.389 145.062 131.401  1.00  0.00    -0.067 C 
ATOM      2  C   UNL     1     143.897 144.529 132.566  1.00  0.00    -0.077 C 
ATOM      3  C   UNL     1     142.933 145.303 133.443  1.00  0.00     0.039 C 
ATOM      4  C   UNL     1     144.274 143.133 133.020  1.00  0.00     0.039 C 
ENDROOT
BRANCH   1   5
ATOM      5  C   UNL     1     145.334 144.269 130.502  1.00  0.00     0.035 C 
BRANCH   5   6
ATOM      6  C   UNL     1     146.816 144.588 130.788  1.00  0.00     0.035 C 
BRANCH   6   7
ATOM      7  C   UNL     1     147.239 144.165 132.184  1.00  0.00    -0.077 C 
ATOM      8  C   UNL     1     147.252 142.697 132.517  1.00  0.00     0.039 C 
ATOM      9  C   UNL     1     147.622 145.044 133.138  1.00  0.00    -0.028 CG0
ATOM     10  G   UNL     1     147.715 146.539 132.946  1.00  0.00     0.000 G0
ENDBRANCH   6   7
ENDBRANCH   5   6
ENDBRANCH   1   5
BRANCH   1  11
ATOM     11  C   UNL     1     143.956 146.440 130.911  1.00  0.00     0.058 C 
BRANCH  11  12
ATOM     12  C   UNL     1     145.132 147.287 130.483  1.00  0.00    -0.024 C 
ATOM     13  C   UNL     1     146.194 147.625 131.254  1.00  0.00    -0.077 C 
ATOM     14  C   UNL     1     147.280 148.468 130.637  1.00  0.00     0.039 C 
BRANCH  13  15
ATOM     15  C   UNL     1     146.360 147.190 132.698  1.00  0.00     0.034 C 
BRANCH  15  16
ATOM     16  C   UNL     1     147.734 146.536 132.941  1.00  0.00     0.032 CG0
ATOM     17  G   UNL     1     147.610 145.046 133.156  1.00  0.00     0.000 G0
ENDBRANCH  15  16
ENDBRANCH  13  15
ENDBRANCH  11  12
ENDBRANCH   1  11
TORSDOF 0
ENDMDL
