MODEL 1
REMARK VINA RESULT:    -3.548      0.000      0.000
REMARK INTER + INTRA:          -4.109
REMARK INTER:                  -4.066
REMARK INTRA:                  -0.043
REMARK UNBOUND:                -0.043
REMARK SMILES CC(C)[C@H]([NH3+])C(=O)[O-]
REMARK SMILES IDX 4 1 5 2 6 6 7 7 8 8 2 9 1 10 3 11
REMARK H PARENT 5 3 5 4 5 5
REMARK Flexibility Score: inf
ROOT
ATOM      1  C   UNL     1     122.643 124.934 107.302  1.00  0.00     0.230 C 
ENDROOT
BRANCH   1   2
ATOM      2  N   UNL     1     123.840 124.482 108.024  1.00  0.00    -0.350 N 
ATOM      3  H   UNL     1     123.879 124.929 108.969  1.00  0.00     0.345 HD
ATOM      4  H   UNL     1     124.715 124.713 107.499  1.00  0.00     0.345 HD
ATOM      5  H   UNL     1     123.797 123.445 108.158  1.00  0.00     0.345 HD
ENDBRANCH   1   2
BRANCH   1   6
ATOM      6  C   UNL     1     122.250 123.930 106.244  1.00  0.00     0.099 C 
ATOM      7  O   UNL     1     122.542 122.714 106.390  1.00  0.00    -0.544 OA
ATOM      8  O   UNL     1     121.540 124.329 105.117  1.00  0.00    -0.544 OA
ENDBRANCH   1   6
BRANCH   1   9
ATOM      9  C   UNL     1     122.824 126.372 106.727  1.00  0.00     0.047 C 
ATOM     10  C   UNL     1     121.634 127.305 107.012  1.00  0.00     0.014 C 
ATOM     11  C   UNL     1     124.127 127.013 107.226  1.00  0.00     0.014 C 
ENDBRANCH   1   9
TORSDOF 3
ENDMDL
MODEL 2
REMARK VINA RESULT:    -3.547      9.606     10.636
REMARK INTER + INTRA:          -4.108
REMARK INTER:                  -4.055
REMARK INTRA:                  -0.053
REMARK UNBOUND:                -0.043
REMARK SMILES CC(C)[C@H]([NH3+])C(=O)[O-]
REMARK SMILES IDX 4 1 5 2 6 6 7 7 8 8 2 9 1 10 3 11
REMARK H PARENT 5 3 5 4 5 5
REMARK Flexibility Score: inf
ROOT
ATOM      1  C   UNL     1     122.965 115.123 107.030  1.00  0.00     0.230 C 
ENDROOT
BRANCH   1   2
ATOM      2  N   UNL     1     121.984 114.373 107.827  1.00  0.00    -0.350 N 
ATOM      3  H   UNL     1     121.109 114.935 107.940  1.00  0.00     0.345 HD
ATOM      4  H   UNL     1     122.361 114.131 108.771  1.00  0.00     0.345 HD
ATOM      5  H   UNL     1     121.737 113.485 107.331  1.00  0.00     0.345 HD
ENDBRANCH   1   2
BRANCH   1   6
ATOM      6  C   UNL     1     122.282 115.867 105.908  1.00  0.00     0.099 C 
ATOM      7  O   UNL     1     122.901 116.098 104.835  1.00  0.00    -0.544 OA
ATOM      8  O   UNL     1     120.960 116.279 106.033  1.00  0.00    -0.544 OA
ENDBRANCH   1   6
BRANCH   1   9
ATOM      9  C   UNL     1     124.121 114.206 106.526  1.00  0.00     0.047 C 
ATOM     10  C   UNL     1     125.524 114.744 106.854  1.00  0.00     0.014 C 
ATOM     11  C   UNL     1     123.970 112.773 107.057  1.00  0.00     0.014 C 
ENDBRANCH   1   9
TORSDOF 3
ENDMDL
MODEL 3
REMARK VINA RESULT:    -3.511      9.774     10.867
REMARK INTER + INTRA:          -4.067
REMARK INTER:                  -4.018
REMARK INTRA:                  -0.049
REMARK UNBOUND:                -0.043
REMARK SMILES CC(C)[C@H]([NH3+])C(=O)[O-]
REMARK SMILES IDX 4 1 5 2 6 6 7 7 8 8 2 9 1 10 3 11
REMARK H PARENT 5 3 5 4 5 5
REMARK Flexibility Score: inf
ROOT
ATOM      1  C   UNL     1     114.135 119.462 107.131  1.00  0.00     0.230 C 
ENDROOT
BRANCH   1   2
ATOM      2  N   UNL     1     113.925 120.691 107.909  1.00  0.00    -0.350 N 
ATOM      3  H   UNL     1     114.790 120.928 108.446  1.00  0.00     0.345 HD
ATOM      4  H   UNL     1     113.125 120.591 108.575  1.00  0.00     0.345 HD
ATOM      5  H   UNL     1     113.719 121.485 107.259  1.00  0.00     0.345 HD
ENDBRANCH   1   2
BRANCH   1   6
ATOM      6  C   UNL     1     115.164 119.687 106.049  1.00  0.00     0.099 C 
ATOM      7  O   UNL     1     115.138 118.990 105.000  1.00  0.00    -0.544 OA
ATOM      8  O   UNL     1     116.128 120.680 106.183  1.00  0.00    -0.544 OA
ENDBRANCH   1   6
BRANCH   1   9
ATOM      9  C   UNL     1     112.794 118.894 106.576  1.00  0.00     0.047 C 
ATOM     10  C   UNL     1     112.583 117.401 106.879  1.00  0.00     0.014 C 
ATOM     11  C   UNL     1     111.592 119.708 107.078  1.00  0.00     0.014 C 
ENDBRANCH   1   9
TORSDOF 3
ENDMDL
MODEL 4
REMARK VINA RESULT:    -3.481     10.041     10.851
REMARK INTER + INTRA:          -4.032
REMARK INTER:                  -3.978
REMARK INTRA:                  -0.054
REMARK UNBOUND:                -0.043
REMARK SMILES CC(C)[C@H]([NH3+])C(=O)[O-]
REMARK SMILES IDX 4 1 5 2 6 6 7 7 8 8 2 9 1 10 3 11
REMARK H PARENT 5 3 5 4 5 5
REMARK Flexibility Score: inf
ROOT
ATOM      1  C   UNL     1     124.667 114.972 108.383  1.00  0.00     0.230 C 
ENDROOT
BRANCH   1   2
ATOM      2  N   UNL     1     123.436 115.768 108.494  1.00  0.00    -0.350 N 
ATOM      3  H   UNL     1     123.163 116.138 107.555  1.00  0.00     0.345 HD
ATOM      4  H   UNL     1     123.555 116.568 109.157  1.00  0.00     0.345 HD
ATOM      5  H   UNL     1     122.658 115.161 108.841  1.00  0.00     0.345 HD
ENDBRANCH   1   2
BRANCH   1   6
ATOM      6  C   UNL     1     125.881 115.834 108.633  1.00  0.00     0.099 C 
ATOM      7  O   UNL     1     126.963 115.588 108.036  1.00  0.00    -0.544 OA
ATOM      8  O   UNL     1     125.814 116.920 109.499  1.00  0.00    -0.544 OA
ENDBRANCH   1   6
BRANCH   1   9
ATOM      9  C   UNL     1     124.741 114.209 107.026  1.00  0.00     0.047 C 
ATOM     10  C   UNL     1     124.038 112.841 107.048  1.00  0.00     0.014 C 
ATOM     11  C   UNL     1     124.194 115.064 105.874  1.00  0.00     0.014 C 
ENDBRANCH   1   9
TORSDOF 3
ENDMDL
MODEL 5
REMARK VINA RESULT:    -3.446     11.244     11.765
REMARK INTER + INTRA:          -3.993
REMARK INTER:                  -3.945
REMARK INTRA:                  -0.047
REMARK UNBOUND:                -0.043
REMARK SMILES CC(C)[C@H]([NH3+])C(=O)[O-]
REMARK SMILES IDX 4 1 5 2 6 6 7 7 8 8 2 9 1 10 3 11
REMARK H PARENT 5 3 5 4 5 5
REMARK Flexibility Score: inf
ROOT
ATOM      1  C   UNL     1     122.304 113.977 107.375  1.00  0.00     0.230 C 
ENDROOT
BRANCH   1   2
ATOM      2  N   UNL     1     122.382 115.347 106.850  1.00  0.00    -0.350 N 
ATOM      3  H   UNL     1     123.169 115.426 106.167  1.00  0.00     0.345 HD
ATOM      4  H   UNL     1     122.522 116.044 107.617  1.00  0.00     0.345 HD
ATOM      5  H   UNL     1     121.493 115.580 106.348  1.00  0.00     0.345 HD
ENDBRANCH   1   2
BRANCH   1   6
ATOM      6  C   UNL     1     121.551 113.950 108.684  1.00  0.00     0.099 C 
ATOM      7  O   UNL     1     122.134 114.274 109.752  1.00  0.00    -0.544 OA
ATOM      8  O   UNL     1     120.207 113.599 108.721  1.00  0.00    -0.544 OA
ENDBRANCH   1   6
BRANCH   1   9
ATOM      9  C   UNL     1     123.713 113.318 107.479  1.00  0.00     0.047 C 
ATOM     10  C   UNL     1     123.746 111.853 107.012  1.00  0.00     0.014 C 
ATOM     11  C   UNL     1     124.770 114.136 106.721  1.00  0.00     0.014 C 
ENDBRANCH   1   9
TORSDOF 3
ENDMDL
MODEL 6
REMARK VINA RESULT:    -3.443      2.287      2.913
REMARK INTER + INTRA:          -3.989
REMARK INTER:                  -3.959
REMARK INTRA:                  -0.030
REMARK UNBOUND:                -0.043
REMARK SMILES CC(C)[C@H]([NH3+])C(=O)[O-]
REMARK SMILES IDX 4 1 5 2 6 6 7 7 8 8 2 9 1 10 3 11
REMARK H PARENT 5 3 5 4 5 5
REMARK Flexibility Score: inf
ROOT
ATOM      1  C   UNL     1     123.285 126.755 107.670  1.00  0.00     0.230 C 
ENDROOT
BRANCH   1   2
ATOM      2  N   UNL     1     124.600 126.914 107.033  1.00  0.00    -0.350 N 
ATOM      3  H   UNL     1     124.876 127.923 107.028  1.00  0.00     0.345 HD
ATOM      4  H   UNL     1     124.597 126.554 106.052  1.00  0.00     0.345 HD
ATOM      5  H   UNL     1     125.319 126.385 107.579  1.00  0.00     0.345 HD
ENDBRANCH   1   2
BRANCH   1   6
ATOM      6  C   UNL     1     123.267 125.530 108.553  1.00  0.00     0.099 C 
ATOM      7  O   UNL     1     124.108 124.610 108.373  1.00  0.00    -0.544 OA
ATOM      8  O   UNL     1     122.346 125.416 109.588  1.00  0.00    -0.544 OA
ENDBRANCH   1   6
BRANCH   1   9
ATOM      9  C   UNL     1     122.132 126.756 106.621  1.00  0.00     0.047 C 
ATOM     10  C   UNL     1     121.714 125.349 106.161  1.00  0.00     0.014 C 
ATOM     11  C   UNL     1     120.907 127.526 107.137  1.00  0.00     0.014 C 
ENDBRANCH   1   9
TORSDOF 3
ENDMDL
MODEL 7
REMARK VINA RESULT:    -3.440     10.162     11.080
REMARK INTER + INTRA:          -3.985
REMARK INTER:                  -3.929
REMARK INTRA:                  -0.056
REMARK UNBOUND:                -0.043
REMARK SMILES CC(C)[C@H]([NH3+])C(=O)[O-]
REMARK SMILES IDX 4 1 5 2 6 6 7 7 8 8 2 9 1 10 3 11
REMARK H PARENT 5 3 5 4 5 5
REMARK Flexibility Score: inf
ROOT
ATOM      1  C   UNL     1     113.551 120.592 107.382  1.00  0.00     0.230 C 
ENDROOT
BRANCH   1   2
ATOM      2  N   UNL     1     114.754 119.791 107.117  1.00  0.00    -0.350 N 
ATOM      3  H   UNL     1     115.570 120.186 107.639  1.00  0.00     0.345 HD
ATOM      4  H   UNL     1     114.980 119.765 106.096  1.00  0.00     0.345 HD
ATOM      5  H   UNL     1     114.601 118.811 107.449  1.00  0.00     0.345 HD
ENDBRANCH   1   2
BRANCH   1   6
ATOM      6  C   UNL     1     113.754 121.473 108.591  1.00  0.00     0.099 C 
ATOM      7  O   UNL     1     113.344 121.096 109.721  1.00  0.00    -0.544 OA
ATOM      8  O   UNL     1     114.417 122.690 108.479  1.00  0.00    -0.544 OA
ENDBRANCH   1   6
BRANCH   1   9
ATOM      9  C   UNL     1     112.278 119.700 107.495  1.00  0.00     0.047 C 
ATOM     10  C   UNL     1     110.987 120.405 107.041  1.00  0.00     0.014 C 
ATOM     11  C   UNL     1     112.451 118.379 106.732  1.00  0.00     0.014 C 
ENDBRANCH   1   9
TORSDOF 3
ENDMDL
MODEL 8
REMARK VINA RESULT:    -3.429      2.238      2.875
REMARK INTER + INTRA:          -3.973
REMARK INTER:                  -3.908
REMARK INTRA:                  -0.065
REMARK UNBOUND:                -0.043
REMARK SMILES CC(C)[C@H]([NH3+])C(=O)[O-]
REMARK SMILES IDX 4 1 5 2 6 6 7 7 8 8 2 9 1 10 3 11
REMARK H PARENT 5 3 5 4 5 5
REMARK Flexibility Score: inf
ROOT
ATOM      1  C   UNL     1     123.231 124.976 107.533  1.00  0.00     0.230 C 
ENDROOT
BRANCH   1   2
ATOM      2  N   UNL     1     121.859 124.463 107.650  1.00  0.00    -0.350 N 
ATOM      3  H   UNL     1     121.176 125.191 107.339  1.00  0.00     0.345 HD
ATOM      4  H   UNL     1     121.636 124.183 108.633  1.00  0.00     0.345 HD
ATOM      5  H   UNL     1     121.744 123.626 107.032  1.00  0.00     0.345 HD
ENDBRANCH   1   2
BRANCH   1   6
ATOM      6  C   UNL     1     124.139 124.298 108.532  1.00  0.00     0.099 C 
ATOM      7  O   UNL     1     124.872 123.340 108.169  1.00  0.00    -0.544 OA
ATOM      8  O   UNL     1     124.197 124.738 109.849  1.00  0.00    -0.544 OA
ENDBRANCH   1   6
BRANCH   1   9
ATOM      9  C   UNL     1     123.278 126.530 107.638  1.00  0.00     0.047 C 
ATOM     10  C   UNL     1     124.575 127.148 107.089  1.00  0.00     0.014 C 
ATOM     11  C   UNL     1     122.060 127.173 106.957  1.00  0.00     0.014 C 
ENDBRANCH   1   9
TORSDOF 3
ENDMDL
MODEL 9
REMARK VINA RESULT:    -3.428     11.025     11.948
REMARK INTER + INTRA:          -3.972
REMARK INTER:                  -3.972
REMARK INTRA:                   0.000
REMARK UNBOUND:                -0.043
REMARK SMILES CC(C)[C@H]([NH3+])C(=O)[O-]
REMARK SMILES IDX 4 1 5 2 6 6 7 7 8 8 2 9 1 10 3 11
REMARK H PARENT 5 3 5 4 5 5
REMARK Flexibility Score: inf
ROOT
ATOM      1  C   UNL     1     112.156 119.342 107.596  1.00  0.00     0.230 C 
ENDROOT
BRANCH   1   2
ATOM      2  N   UNL     1     111.190 120.307 107.054  1.00  0.00    -0.350 N 
ATOM      3  H   UNL     1     111.458 121.279 107.332  1.00  0.00     0.345 HD
ATOM      4  H   UNL     1     110.220 120.109 107.391  1.00  0.00     0.345 HD
ATOM      5  H   UNL     1     111.195 120.256 106.009  1.00  0.00     0.345 HD
ENDBRANCH   1   2
BRANCH   1   6
ATOM      6  C   UNL     1     113.339 120.058 108.204  1.00  0.00     0.099 C 
ATOM      7  O   UNL     1     113.595 121.246 107.872  1.00  0.00    -0.544 OA
ATOM      8  O   UNL     1     114.138 119.429 109.152  1.00  0.00    -0.544 OA
ENDBRANCH   1   6
BRANCH   1   9
ATOM      9  C   UNL     1     112.577 118.285 106.531  1.00  0.00     0.047 C 
ATOM     10  C   UNL     1     113.952 118.558 105.899  1.00  0.00     0.014 C 
ATOM     11  C   UNL     1     112.536 116.862 107.108  1.00  0.00     0.014 C 
ENDBRANCH   1   9
TORSDOF 3
ENDMDL
