MODEL 1
REMARK VINA RESULT:     2.861      0.000      0.000
REMARK INTER + INTRA:           8.263
REMARK INTER:                   7.210
REMARK INTRA:                   1.053
REMARK UNBOUND:                 1.053
REMARK SMILES CCCCCCCCCCCCCCCCCCCCCCCCCCCC(=O)[O-]
REMARK SMILES IDX 15 1 16 2 17 3 18 4 19 5 20 6 21 7 22 8 23 9 24 10 25 11
REMARK SMILES IDX 26 12 27 13 28 14 29 15 30 16 14 17 13 18 12 19 11 20 10 21
REMARK SMILES IDX 9 22 8 23 7 24 6 25 5 26 4 27 3 28 2 29 1 30
REMARK H PARENT
REMARK Flexibility Score: inf
ROOT
ATOM      1  C   UNL     1      -4.725  34.544  22.580  1.00  0.00     0.000 C 
ENDROOT
BRANCH   1   2
ATOM      2  C   UNL     1      -4.622  34.229  21.072  1.00  0.00     0.000 C 
BRANCH   2   3
ATOM      3  C   UNL     1      -5.985  34.105  20.359  1.00  0.00     0.000 C 
BRANCH   3   4
ATOM      4  C   UNL     1      -5.956  34.350  18.840  1.00  0.00     0.000 C 
BRANCH   4   5
ATOM      5  C   UNL     1      -4.550  34.351  18.205  1.00  0.00     0.000 C 
BRANCH   5   6
ATOM      6  C   UNL     1      -4.175  35.685  17.516  1.00  0.00     0.000 C 
BRANCH   6   7
ATOM      7  C   UNL     1      -3.697  36.769  18.499  1.00  0.00     0.000 C 
BRANCH   7   8
ATOM      8  C   UNL     1      -2.547  37.623  17.923  1.00  0.00     0.000 C 
BRANCH   8   9
ATOM      9  C   UNL     1      -1.633  36.843  16.953  1.00  0.00     0.000 C 
BRANCH   9  10
ATOM     10  C   UNL     1      -2.309  35.644  16.258  1.00  0.00     0.000 C 
BRANCH  10  11
ATOM     11  C   UNL     1      -2.147  35.580  14.731  1.00  0.00     0.000 C 
BRANCH  11  12
ATOM     12  C   UNL     1      -3.321  36.224  13.972  1.00  0.00     0.006 C 
BRANCH  12  13
ATOM     13  C   UNL     1      -3.276  37.756  14.026  1.00  0.00     0.053 C 
BRANCH  13  14
ATOM     14  C   UNL     1      -4.649  38.356  14.031  1.00  0.00     0.041 C 
ATOM     15  O   UNL     1      -5.660  37.621  13.876  1.00  0.00    -0.550 OA
ATOM     16  O   UNL     1      -4.812  39.727  14.178  1.00  0.00    -0.550 OA
ENDBRANCH  13  14
ENDBRANCH  12  13
ENDBRANCH  11  12
ENDBRANCH  10  11
ENDBRANCH   9  10
ENDBRANCH   8   9
ENDBRANCH   7   8
ENDBRANCH   6   7
ENDBRANCH   5   6
ENDBRANCH   4   5
ENDBRANCH   3   4
ENDBRANCH   2   3
ENDBRANCH   1   2
BRANCH   1  17
ATOM     17  C   UNL     1      -6.072  35.189  22.955  1.00  0.00     0.000 C 
BRANCH  17  18
ATOM     18  C   UNL     1      -6.122  36.687  22.609  1.00  0.00     0.000 C 
BRANCH  18  19
ATOM     19  C   UNL     1      -5.194  37.047  21.438  1.00  0.00     0.000 C 
BRANCH  19  20
ATOM     20  C   UNL     1      -5.960  37.795  20.336  1.00  0.00     0.000 C 
BRANCH  20  21
ATOM     21  C   UNL     1      -5.952  39.320  20.538  1.00  0.00     0.000 C 
BRANCH  21  22
ATOM     22  C   UNL     1      -5.092  39.753  21.735  1.00  0.00    -0.000 C 
BRANCH  22  23
ATOM     23  C   UNL     1      -5.863  40.716  22.651  1.00  0.00    -0.000 C 
BRANCH  23  24
ATOM     24  C   UNL     1      -5.707  40.367  24.141  1.00  0.00    -0.000 C 
BRANCH  24  25
ATOM     25  C   UNL     1      -4.815  39.133  24.371  1.00  0.00    -0.000 C 
BRANCH  25  26
ATOM     26  C   UNL     1      -5.532  38.012  25.145  1.00  0.00    -0.000 C 
BRANCH  26  27
ATOM     27  C   UNL     1      -4.606  37.068  25.936  1.00  0.00    -0.000 C 
BRANCH  27  28
ATOM     28  C   UNL     1      -3.644  37.816  26.870  1.00  0.00    -0.000 C 
BRANCH  28  29
ATOM     29  C   UNL     1      -2.300  37.086  26.968  1.00  0.00    -0.003 C 
ATOM     30  C   UNL     1      -1.158  38.065  27.224  1.00  0.00     0.004 C 
ENDBRANCH  28  29
ENDBRANCH  27  28
ENDBRANCH  26  27
ENDBRANCH  25  26
ENDBRANCH  24  25
ENDBRANCH  23  24
ENDBRANCH  22  23
ENDBRANCH  21  22
ENDBRANCH  20  21
ENDBRANCH  19  20
ENDBRANCH  18  19
ENDBRANCH  17  18
ENDBRANCH   1  17
TORSDOF 26
ENDMDL
MODEL 2
REMARK VINA RESULT:     4.633      1.477      4.302
REMARK INTER + INTRA:          12.729
REMARK INTER:                  12.125
REMARK INTRA:                   0.604
REMARK UNBOUND:                 1.053
REMARK SMILES CCCCCCCCCCCCCCCCCCCCCCCCCCCC(=O)[O-]
REMARK SMILES IDX 15 1 16 2 17 3 18 4 19 5 20 6 21 7 22 8 23 9 24 10 25 11
REMARK SMILES IDX 26 12 27 13 28 14 29 15 30 16 14 17 13 18 12 19 11 20 10 21
REMARK SMILES IDX 9 22 8 23 7 24 6 25 5 26 4 27 3 28 2 29 1 30
REMARK H PARENT
REMARK Flexibility Score: inf
ROOT
ATOM      1  C   UNL     1      -5.188  35.206  24.748  1.00  0.00     0.000 C 
ENDROOT
BRANCH   1   2
ATOM      2  C   UNL     1      -6.123  34.383  23.835  1.00  0.00     0.000 C 
BRANCH   2   3
ATOM      3  C   UNL     1      -6.053  34.774  22.344  1.00  0.00     0.000 C 
BRANCH   3   4
ATOM      4  C   UNL     1      -4.738  35.437  21.900  1.00  0.00     0.000 C 
BRANCH   4   5
ATOM      5  C   UNL     1      -3.471  34.582  22.109  1.00  0.00     0.000 C 
BRANCH   5   6
ATOM      6  C   UNL     1      -2.199  35.179  21.463  1.00  0.00     0.000 C 
BRANCH   6   7
ATOM      7  C   UNL     1      -2.473  36.432  20.613  1.00  0.00     0.000 C 
BRANCH   7   8
ATOM      8  C   UNL     1      -2.076  36.241  19.134  1.00  0.00     0.000 C 
BRANCH   8   9
ATOM      9  C   UNL     1      -1.059  37.288  18.633  1.00  0.00     0.000 C 
BRANCH   9  10
ATOM     10  C   UNL     1      -0.824  37.279  17.109  1.00  0.00     0.000 C 
BRANCH  10  11
ATOM     11  C   UNL     1      -1.363  36.052  16.358  1.00  0.00     0.000 C 
BRANCH  11  12
ATOM     12  C   UNL     1      -2.309  36.419  15.201  1.00  0.00     0.006 C 
BRANCH  12  13
ATOM     13  C   UNL     1      -3.332  37.489  15.604  1.00  0.00     0.053 C 
BRANCH  13  14
ATOM     14  C   UNL     1      -4.342  37.730  14.524  1.00  0.00     0.041 C 
ATOM     15  O   UNL     1      -4.823  36.762  13.880  1.00  0.00    -0.550 OA
ATOM     16  O   UNL     1      -4.731  39.026  14.209  1.00  0.00    -0.550 OA
ENDBRANCH  13  14
ENDBRANCH  12  13
ENDBRANCH  11  12
ENDBRANCH  10  11
ENDBRANCH   9  10
ENDBRANCH   8   9
ENDBRANCH   7   8
ENDBRANCH   6   7
ENDBRANCH   5   6
ENDBRANCH   4   5
ENDBRANCH   3   4
ENDBRANCH   2   3
ENDBRANCH   1   2
BRANCH   1  17
ATOM     17  C   UNL     1      -5.954  35.944  25.861  1.00  0.00     0.000 C 
BRANCH  17  18
ATOM     18  C   UNL     1      -5.398  37.355  26.120  1.00  0.00     0.000 C 
BRANCH  18  19
ATOM     19  C   UNL     1      -4.577  37.886  24.935  1.00  0.00     0.000 C 
BRANCH  19  20
ATOM     20  C   UNL     1      -4.961  39.336  24.602  1.00  0.00     0.000 C 
BRANCH  20  21
ATOM     21  C   UNL     1      -5.900  39.437  23.387  1.00  0.00     0.000 C 
BRANCH  21  22
ATOM     22  C   UNL     1      -5.693  40.730  22.586  1.00  0.00    -0.000 C 
BRANCH  22  23
ATOM     23  C   UNL     1      -5.700  40.452  21.074  1.00  0.00    -0.000 C 
BRANCH  23  24
ATOM     24  C   UNL     1      -6.122  39.011  20.740  1.00  0.00    -0.000 C 
BRANCH  24  25
ATOM     25  C   UNL     1      -4.929  38.039  20.698  1.00  0.00    -0.000 C 
BRANCH  25  26
ATOM     26  C   UNL     1      -4.595  37.562  19.273  1.00  0.00    -0.000 C 
BRANCH  26  27
ATOM     27  C   UNL     1      -5.647  36.642  18.627  1.00  0.00    -0.000 C 
BRANCH  27  28
ATOM     28  C   UNL     1      -5.857  35.332  19.401  1.00  0.00    -0.000 C 
BRANCH  28  29
ATOM     29  C   UNL     1      -5.490  34.121  18.536  1.00  0.00    -0.003 C 
ATOM     30  C   UNL     1      -4.181  34.353  17.788  1.00  0.00     0.004 C 
ENDBRANCH  28  29
ENDBRANCH  27  28
ENDBRANCH  26  27
ENDBRANCH  25  26
ENDBRANCH  24  25
ENDBRANCH  23  24
ENDBRANCH  22  23
ENDBRANCH  21  22
ENDBRANCH  20  21
ENDBRANCH  19  20
ENDBRANCH  18  19
ENDBRANCH  17  18
ENDBRANCH   1  17
TORSDOF 26
ENDMDL
MODEL 3
REMARK VINA RESULT:     4.652      2.368      4.591
REMARK INTER + INTRA:          12.776
REMARK INTER:                  12.967
REMARK INTRA:                  -0.191
REMARK UNBOUND:                 1.053
REMARK SMILES CCCCCCCCCCCCCCCCCCCCCCCCCCCC(=O)[O-]
REMARK SMILES IDX 15 1 16 2 17 3 18 4 19 5 20 6 21 7 22 8 23 9 24 10 25 11
REMARK SMILES IDX 26 12 27 13 28 14 29 15 30 16 14 17 13 18 12 19 11 20 10 21
REMARK SMILES IDX 9 22 8 23 7 24 6 25 5 26 4 27 3 28 2 29 1 30
REMARK H PARENT
REMARK Flexibility Score: inf
ROOT
ATOM      1  C   UNL     1      -5.210  38.227  21.750  1.00  0.00     0.000 C 
ENDROOT
BRANCH   1   2
ATOM      2  C   UNL     1      -5.666  36.806  21.357  1.00  0.00     0.000 C 
BRANCH   2   3
ATOM      3  C   UNL     1      -5.031  36.277  20.054  1.00  0.00     0.000 C 
BRANCH   3   4
ATOM      4  C   UNL     1      -5.969  35.457  19.152  1.00  0.00     0.000 C 
BRANCH   4   5
ATOM      5  C   UNL     1      -5.303  34.273  18.421  1.00  0.00     0.000 C 
BRANCH   5   6
ATOM      6  C   UNL     1      -4.078  34.674  17.565  1.00  0.00     0.000 C 
BRANCH   6   7
ATOM      7  C   UNL     1      -4.073  36.158  17.160  1.00  0.00     0.000 C 
BRANCH   7   8
ATOM      8  C   UNL     1      -4.346  36.360  15.654  1.00  0.00     0.000 C 
BRANCH   8   9
ATOM      9  C   UNL     1      -3.078  36.706  14.843  1.00  0.00     0.000 C 
BRANCH   9  10
ATOM     10  C   UNL     1      -1.880  35.769  15.093  1.00  0.00     0.000 C 
BRANCH  10  11
ATOM     11  C   UNL     1      -0.926  36.191  16.221  1.00  0.00     0.000 C 
BRANCH  11  12
ATOM     12  C   UNL     1      -1.581  37.135  17.245  1.00  0.00     0.006 C 
BRANCH  12  13
ATOM     13  C   UNL     1      -0.593  37.600  18.322  1.00  0.00     0.053 C 
BRANCH  13  14
ATOM     14  C   UNL     1      -1.141  37.409  19.703  1.00  0.00     0.041 C 
ATOM     15  O   UNL     1      -0.384  37.037  20.638  1.00  0.00    -0.550 OA
ATOM     16  O   UNL     1      -2.492  37.613  19.952  1.00  0.00    -0.550 OA
ENDBRANCH  13  14
ENDBRANCH  12  13
ENDBRANCH  11  12
ENDBRANCH  10  11
ENDBRANCH   9  10
ENDBRANCH   8   9
ENDBRANCH   7   8
ENDBRANCH   6   7
ENDBRANCH   5   6
ENDBRANCH   4   5
ENDBRANCH   3   4
ENDBRANCH   2   3
ENDBRANCH   1   2
BRANCH   1  17
ATOM     17  C   UNL     1      -6.125  39.320  21.168  1.00  0.00     0.000 C 
BRANCH  17  18
ATOM     18  C   UNL     1      -6.105  40.610  22.005  1.00  0.00     0.000 C 
BRANCH  18  19
ATOM     19  C   UNL     1      -5.041  40.572  23.112  1.00  0.00     0.000 C 
BRANCH  19  20
ATOM     20  C   UNL     1      -5.571  39.856  24.364  1.00  0.00     0.000 C 
BRANCH  20  21
ATOM     21  C   UNL     1      -4.485  39.038  25.084  1.00  0.00     0.000 C 
BRANCH  21  22
ATOM     22  C   UNL     1      -5.063  37.860  25.882  1.00  0.00    -0.000 C 
BRANCH  22  23
ATOM     23  C   UNL     1      -6.119  37.101  25.061  1.00  0.00    -0.000 C 
BRANCH  23  24
ATOM     24  C   UNL     1      -6.032  35.577  25.252  1.00  0.00    -0.000 C 
BRANCH  24  25
ATOM     25  C   UNL     1      -5.024  34.916  24.294  1.00  0.00    -0.000 C 
BRANCH  25  26
ATOM     26  C   UNL     1      -5.691  33.952  23.295  1.00  0.00    -0.000 C 
BRANCH  26  27
ATOM     27  C   UNL     1      -4.837  33.590  22.065  1.00  0.00    -0.000 C 
BRANCH  27  28
ATOM     28  C   UNL     1      -3.439  34.226  22.097  1.00  0.00    -0.000 C 
BRANCH  28  29
ATOM     29  C   UNL     1      -2.349  33.150  22.109  1.00  0.00    -0.003 C 
ATOM     30  C   UNL     1      -2.739  31.959  21.238  1.00  0.00     0.004 C 
ENDBRANCH  28  29
ENDBRANCH  27  28
ENDBRANCH  26  27
ENDBRANCH  25  26
ENDBRANCH  24  25
ENDBRANCH  23  24
ENDBRANCH  22  23
ENDBRANCH  21  22
ENDBRANCH  20  21
ENDBRANCH  19  20
ENDBRANCH  18  19
ENDBRANCH  17  18
ENDBRANCH   1  17
TORSDOF 26
ENDMDL
MODEL 4
REMARK VINA RESULT:     4.824      1.548      2.651
REMARK INTER + INTRA:          13.210
REMARK INTER:                  12.813
REMARK INTRA:                   0.397
REMARK UNBOUND:                 1.053
REMARK SMILES CCCCCCCCCCCCCCCCCCCCCCCCCCCC(=O)[O-]
REMARK SMILES IDX 15 1 16 2 17 3 18 4 19 5 20 6 21 7 22 8 23 9 24 10 25 11
REMARK SMILES IDX 26 12 27 13 28 14 29 15 30 16 14 17 13 18 12 19 11 20 10 21
REMARK SMILES IDX 9 22 8 23 7 24 6 25 5 26 4 27 3 28 2 29 1 30
REMARK H PARENT
REMARK Flexibility Score: inf
ROOT
ATOM      1  C   UNL     1      -2.879  34.026  22.481  1.00  0.00     0.000 C 
ENDROOT
BRANCH   1   2
ATOM      2  C   UNL     1      -4.127  33.263  21.987  1.00  0.00     0.000 C 
BRANCH   2   3
ATOM      3  C   UNL     1      -5.460  33.813  22.536  1.00  0.00     0.000 C 
BRANCH   3   4
ATOM      4  C   UNL     1      -5.930  35.138  21.911  1.00  0.00     0.000 C 
BRANCH   4   5
ATOM      5  C   UNL     1      -5.667  35.277  20.397  1.00  0.00     0.000 C 
BRANCH   5   6
ATOM      6  C   UNL     1      -6.061  34.027  19.576  1.00  0.00     0.000 C 
BRANCH   6   7
ATOM      7  C   UNL     1      -5.718  34.142  18.080  1.00  0.00     0.000 C 
BRANCH   7   8
ATOM      8  C   UNL     1      -4.196  34.166  17.823  1.00  0.00     0.000 C 
BRANCH   8   9
ATOM      9  C   UNL     1      -3.731  35.395  17.012  1.00  0.00     0.000 C 
BRANCH   9  10
ATOM     10  C   UNL     1      -2.375  35.220  16.302  1.00  0.00     0.000 C 
BRANCH  10  11
ATOM     11  C   UNL     1      -1.834  36.464  15.581  1.00  0.00     0.000 C 
BRANCH  11  12
ATOM     12  C   UNL     1      -2.348  36.597  14.136  1.00  0.00     0.006 C 
BRANCH  12  13
ATOM     13  C   UNL     1      -3.864  36.821  14.078  1.00  0.00     0.053 C 
BRANCH  13  14
ATOM     14  C   UNL     1      -4.263  38.112  14.726  1.00  0.00     0.041 C 
ATOM     15  O   UNL     1      -4.903  38.976  14.071  1.00  0.00    -0.550 OA
ATOM     16  O   UNL     1      -3.904  38.372  16.042  1.00  0.00    -0.550 OA
ENDBRANCH  13  14
ENDBRANCH  12  13
ENDBRANCH  11  12
ENDBRANCH  10  11
ENDBRANCH   9  10
ENDBRANCH   8   9
ENDBRANCH   7   8
ENDBRANCH   6   7
ENDBRANCH   5   6
ENDBRANCH   4   5
ENDBRANCH   3   4
ENDBRANCH   2   3
ENDBRANCH   1   2
BRANCH   1  17
ATOM     17  C   UNL     1      -2.260  34.912  21.384  1.00  0.00     0.000 C 
BRANCH  17  18
ATOM     18  C   UNL     1      -3.117  36.151  21.078  1.00  0.00     0.000 C 
BRANCH  18  19
ATOM     19  C   UNL     1      -2.640  36.896  19.822  1.00  0.00     0.000 C 
BRANCH  19  20
ATOM     20  C   UNL     1      -3.633  37.998  19.421  1.00  0.00     0.000 C 
BRANCH  20  21
ATOM     21  C   UNL     1      -5.011  37.823  20.081  1.00  0.00     0.000 C 
BRANCH  21  22
ATOM     22  C   UNL     1      -5.908  39.059  19.914  1.00  0.00    -0.000 C 
BRANCH  22  23
ATOM     23  C   UNL     1      -5.600  40.115  20.988  1.00  0.00    -0.000 C 
BRANCH  23  24
ATOM     24  C   UNL     1      -6.121  39.713  22.379  1.00  0.00    -0.000 C 
BRANCH  24  25
ATOM     25  C   UNL     1      -5.628  40.655  23.492  1.00  0.00    -0.000 C 
BRANCH  25  26
ATOM     26  C   UNL     1      -5.111  39.901  24.730  1.00  0.00    -0.000 C 
BRANCH  26  27
ATOM     27  C   UNL     1      -4.828  38.403  24.513  1.00  0.00    -0.000 C 
BRANCH  27  28
ATOM     28  C   UNL     1      -5.766  37.492  25.319  1.00  0.00    -0.000 C 
BRANCH  28  29
ATOM     29  C   UNL     1      -5.139  36.109  25.526  1.00  0.00    -0.003 C 
ATOM     30  C   UNL     1      -6.123  34.998  25.171  1.00  0.00     0.004 C 
ENDBRANCH  28  29
ENDBRANCH  27  28
ENDBRANCH  26  27
ENDBRANCH  25  26
ENDBRANCH  24  25
ENDBRANCH  23  24
ENDBRANCH  22  23
ENDBRANCH  21  22
ENDBRANCH  20  21
ENDBRANCH  19  20
ENDBRANCH  18  19
ENDBRANCH  17  18
ENDBRANCH   1  17
TORSDOF 26
ENDMDL
MODEL 5
REMARK VINA RESULT:     4.985      2.403      4.971
REMARK INTER + INTRA:          13.613
REMARK INTER:                   9.337
REMARK INTRA:                   4.277
REMARK UNBOUND:                 1.053
REMARK SMILES CCCCCCCCCCCCCCCCCCCCCCCCCCCC(=O)[O-]
REMARK SMILES IDX 15 1 16 2 17 3 18 4 19 5 20 6 21 7 22 8 23 9 24 10 25 11
REMARK SMILES IDX 26 12 27 13 28 14 29 15 30 16 14 17 13 18 12 19 11 20 10 21
REMARK SMILES IDX 9 22 8 23 7 24 6 25 5 26 4 27 3 28 2 29 1 30
REMARK H PARENT
REMARK Flexibility Score: inf
ROOT
ATOM      1  C   UNL     1      -4.289  34.819  17.753  1.00  0.00     0.000 C 
ENDROOT
BRANCH   1   2
ATOM      2  C   UNL     1      -3.628  34.423  16.414  1.00  0.00     0.000 C 
BRANCH   2   3
ATOM      3  C   UNL     1      -2.251  35.075  16.174  1.00  0.00     0.000 C 
BRANCH   3   4
ATOM      4  C   UNL     1      -2.040  35.664  14.769  1.00  0.00     0.000 C 
BRANCH   4   5
ATOM      5  C   UNL     1      -3.323  36.157  14.067  1.00  0.00     0.000 C 
BRANCH   5   6
ATOM      6  C   UNL     1      -3.596  37.669  14.251  1.00  0.00     0.000 C 
BRANCH   6   7
ATOM      7  C   UNL     1      -4.054  38.041  15.672  1.00  0.00     0.000 C 
BRANCH   7   8
ATOM      8  C   UNL     1      -3.095  37.512  16.759  1.00  0.00     0.000 C 
BRANCH   8   9
ATOM      9  C   UNL     1      -3.824  36.989  18.016  1.00  0.00     0.000 C 
BRANCH   9  10
ATOM     10  C   UNL     1      -4.158  38.072  19.061  1.00  0.00     0.000 C 
BRANCH  10  11
ATOM     11  C   UNL     1      -3.150  38.224  20.210  1.00  0.00     0.000 C 
BRANCH  11  12
ATOM     12  C   UNL     1      -2.357  36.936  20.493  1.00  0.00     0.006 C 
BRANCH  12  13
ATOM     13  C   UNL     1      -0.849  37.123  20.281  1.00  0.00     0.053 C 
BRANCH  13  14
ATOM     14  C   UNL     1      -0.540  37.664  18.918  1.00  0.00     0.041 C 
ATOM     15  O   UNL     1      -0.243  36.880  17.979  1.00  0.00    -0.550 OA
ATOM     16  O   UNL     1      -0.551  39.035  18.692  1.00  0.00    -0.550 OA
ENDBRANCH  13  14
ENDBRANCH  12  13
ENDBRANCH  11  12
ENDBRANCH  10  11
ENDBRANCH   9  10
ENDBRANCH   8   9
ENDBRANCH   7   8
ENDBRANCH   6   7
ENDBRANCH   5   6
ENDBRANCH   4   5
ENDBRANCH   3   4
ENDBRANCH   2   3
ENDBRANCH   1   2
BRANCH   1  17
ATOM     17  C   UNL     1      -5.529  33.963  18.072  1.00  0.00     0.000 C 
BRANCH  17  18
ATOM     18  C   UNL     1      -6.047  34.191  19.502  1.00  0.00     0.000 C 
BRANCH  18  19
ATOM     19  C   UNL     1      -6.031  35.675  19.900  1.00  0.00     0.000 C 
BRANCH  19  20
ATOM     20  C   UNL     1      -6.085  35.839  21.426  1.00  0.00     0.000 C 
BRANCH  20  21
ATOM     21  C   UNL     1      -4.765  35.447  22.112  1.00  0.00     0.000 C 
BRANCH  21  22
ATOM     22  C   UNL     1      -4.871  34.125  22.887  1.00  0.00    -0.000 C 
BRANCH  22  23
ATOM     23  C   UNL     1      -6.119  34.108  23.785  1.00  0.00    -0.000 C 
BRANCH  23  24
ATOM     24  C   UNL     1      -6.046  35.146  24.918  1.00  0.00    -0.000 C 
BRANCH  24  25
ATOM     25  C   UNL     1      -5.201  36.376  24.542  1.00  0.00    -0.000 C 
BRANCH  25  26
ATOM     26  C   UNL     1      -6.041  37.658  24.395  1.00  0.00    -0.000 C 
BRANCH  26  27
ATOM     27  C   UNL     1      -5.245  38.975  24.467  1.00  0.00    -0.000 C 
BRANCH  27  28
ATOM     28  C   UNL     1      -5.024  39.619  23.091  1.00  0.00    -0.000 C 
BRANCH  28  29
ATOM     29  C   UNL     1      -6.050  40.728  22.835  1.00  0.00    -0.003 C 
ATOM     30  C   UNL     1      -5.992  41.795  23.924  1.00  0.00     0.004 C 
ENDBRANCH  28  29
ENDBRANCH  27  28
ENDBRANCH  26  27
ENDBRANCH  25  26
ENDBRANCH  24  25
ENDBRANCH  23  24
ENDBRANCH  22  23
ENDBRANCH  21  22
ENDBRANCH  20  21
ENDBRANCH  19  20
ENDBRANCH  18  19
ENDBRANCH  17  18
ENDBRANCH   1  17
TORSDOF 26
ENDMDL
MODEL 6
REMARK VINA RESULT:     5.174      4.646     10.106
REMARK INTER + INTRA:          14.090
REMARK INTER:                  14.934
REMARK INTRA:                  -0.844
REMARK UNBOUND:                 1.053
REMARK SMILES CCCCCCCCCCCCCCCCCCCCCCCCCCCC(=O)[O-]
REMARK SMILES IDX 15 1 16 2 17 3 18 4 19 5 20 6 21 7 22 8 23 9 24 10 25 11
REMARK SMILES IDX 26 12 27 13 28 14 29 15 30 16 14 17 13 18 12 19 11 20 10 21
REMARK SMILES IDX 9 22 8 23 7 24 6 25 5 26 4 27 3 28 2 29 1 30
REMARK H PARENT
REMARK Flexibility Score: inf
ROOT
ATOM      1  C   UNL     1      -5.197  38.401  22.309  1.00  0.00     0.000 C 
ENDROOT
BRANCH   1   2
ATOM      2  C   UNL     1      -6.081  37.264  22.866  1.00  0.00     0.000 C 
BRANCH   2   3
ATOM      3  C   UNL     1      -5.822  35.889  22.215  1.00  0.00     0.000 C 
BRANCH   3   4
ATOM      4  C   UNL     1      -5.244  34.817  23.154  1.00  0.00     0.000 C 
BRANCH   4   5
ATOM      5  C   UNL     1      -6.120  34.478  24.379  1.00  0.00     0.000 C 
BRANCH   5   6
ATOM      6  C   UNL     1      -5.382  34.609  25.732  1.00  0.00     0.000 C 
BRANCH   6   7
ATOM      7  C   UNL     1      -5.762  35.875  26.519  1.00  0.00     0.000 C 
BRANCH   7   8
ATOM      8  C   UNL     1      -5.535  37.167  25.705  1.00  0.00     0.000 C 
BRANCH   8   9
ATOM      9  C   UNL     1      -4.545  38.145  26.374  1.00  0.00     0.000 C 
BRANCH   9  10
ATOM     10  C   UNL     1      -3.059  37.775  26.198  1.00  0.00     0.000 C 
BRANCH  10  11
ATOM     11  C   UNL     1      -2.273  37.534  27.496  1.00  0.00     0.000 C 
BRANCH  11  12
ATOM     12  C   UNL     1      -1.622  36.141  27.558  1.00  0.00     0.006 C 
BRANCH  12  13
ATOM     13  C   UNL     1      -2.583  35.074  28.098  1.00  0.00     0.053 C 
BRANCH  13  14
ATOM     14  C   UNL     1      -1.940  34.225  29.152  1.00  0.00     0.041 C 
ATOM     15  O   UNL     1      -1.932  32.972  29.035  1.00  0.00    -0.550 OA
ATOM     16  O   UNL     1      -1.376  34.815  30.276  1.00  0.00    -0.550 OA
ENDBRANCH  13  14
ENDBRANCH  12  13
ENDBRANCH  11  12
ENDBRANCH  10  11
ENDBRANCH   9  10
ENDBRANCH   8   9
ENDBRANCH   7   8
ENDBRANCH   6   7
ENDBRANCH   5   6
ENDBRANCH   4   5
ENDBRANCH   3   4
ENDBRANCH   2   3
ENDBRANCH   1   2
BRANCH   1  17
ATOM     17  C   UNL     1      -5.852  39.126  21.119  1.00  0.00     0.000 C 
BRANCH  17  18
ATOM     18  C   UNL     1      -5.604  38.404  19.784  1.00  0.00     0.000 C 
BRANCH  18  19
ATOM     19  C   UNL     1      -4.571  37.274  19.914  1.00  0.00     0.000 C 
BRANCH  19  20
ATOM     20  C   UNL     1      -3.812  37.064  18.594  1.00  0.00     0.000 C 
BRANCH  20  21
ATOM     21  C   UNL     1      -2.376  37.612  18.642  1.00  0.00     0.000 C 
BRANCH  21  22
ATOM     22  C   UNL     1      -1.456  36.952  17.604  1.00  0.00    -0.000 C 
BRANCH  22  23
ATOM     23  C   UNL     1      -2.268  36.143  16.580  1.00  0.00    -0.000 C 
BRANCH  23  24
ATOM     24  C   UNL     1      -2.542  36.930  15.288  1.00  0.00    -0.000 C 
BRANCH  24  25
ATOM     25  C   UNL     1      -3.911  37.634  15.301  1.00  0.00    -0.000 C 
BRANCH  25  26
ATOM     26  C   UNL     1      -4.378  38.065  13.898  1.00  0.00    -0.000 C 
BRANCH  26  27
ATOM     27  C   UNL     1      -5.473  39.148  13.877  1.00  0.00    -0.000 C 
BRANCH  27  28
ATOM     28  C   UNL     1      -4.912  40.571  14.013  1.00  0.00    -0.000 C 
BRANCH  28  29
ATOM     29  C   UNL     1      -6.045  41.593  14.162  1.00  0.00    -0.003 C 
ATOM     30  C   UNL     1      -6.125  42.124  15.590  1.00  0.00     0.004 C 
ENDBRANCH  28  29
ENDBRANCH  27  28
ENDBRANCH  26  27
ENDBRANCH  25  26
ENDBRANCH  24  25
ENDBRANCH  23  24
ENDBRANCH  22  23
ENDBRANCH  21  22
ENDBRANCH  20  21
ENDBRANCH  19  20
ENDBRANCH  18  19
ENDBRANCH  17  18
ENDBRANCH   1  17
TORSDOF 26
ENDMDL
MODEL 7
REMARK VINA RESULT:     5.642      1.158      2.329
REMARK INTER + INTRA:          15.270
REMARK INTER:                  16.442
REMARK INTRA:                  -1.172
REMARK UNBOUND:                 1.053
REMARK SMILES CCCCCCCCCCCCCCCCCCCCCCCCCCCC(=O)[O-]
REMARK SMILES IDX 15 1 16 2 17 3 18 4 19 5 20 6 21 7 22 8 23 9 24 10 25 11
REMARK SMILES IDX 26 12 27 13 28 14 29 15 30 16 14 17 13 18 12 19 11 20 10 21
REMARK SMILES IDX 9 22 8 23 7 24 6 25 5 26 4 27 3 28 2 29 1 30
REMARK H PARENT
REMARK Flexibility Score: inf
ROOT
ATOM      1  C   UNL     1      -2.883  35.334  21.824  1.00  0.00     0.000 C 
ENDROOT
BRANCH   1   2
ATOM      2  C   UNL     1      -3.757  34.068  21.958  1.00  0.00     0.000 C 
BRANCH   2   3
ATOM      3  C   UNL     1      -4.980  34.241  22.882  1.00  0.00     0.000 C 
BRANCH   3   4
ATOM      4  C   UNL     1      -6.105  35.128  22.321  1.00  0.00     0.000 C 
BRANCH   4   5
ATOM      5  C   UNL     1      -6.101  35.299  20.788  1.00  0.00     0.000 C 
BRANCH   5   6
ATOM      6  C   UNL     1      -6.124  33.962  20.009  1.00  0.00     0.000 C 
BRANCH   6   7
ATOM      7  C   UNL     1      -5.782  34.116  18.517  1.00  0.00     0.000 C 
BRANCH   7   8
ATOM      8  C   UNL     1      -4.272  34.325  18.275  1.00  0.00     0.000 C 
BRANCH   8   9
ATOM      9  C   UNL     1      -3.950  34.893  16.876  1.00  0.00     0.000 C 
BRANCH   9  10
ATOM     10  C   UNL     1      -3.411  36.338  16.877  1.00  0.00     0.000 C 
BRANCH  10  11
ATOM     11  C   UNL     1      -1.961  36.510  16.401  1.00  0.00     0.000 C 
BRANCH  11  12
ATOM     12  C   UNL     1      -1.703  35.893  15.015  1.00  0.00     0.006 C 
BRANCH  12  13
ATOM     13  C   UNL     1      -2.270  36.755  13.880  1.00  0.00     0.053 C 
BRANCH  13  14
ATOM     14  C   UNL     1      -3.724  37.057  14.081  1.00  0.00     0.041 C 
ATOM     15  O   UNL     1      -4.589  36.165  13.880  1.00  0.00    -0.550 OA
ATOM     16  O   UNL     1      -4.126  38.331  14.461  1.00  0.00    -0.550 OA
ENDBRANCH  13  14
ENDBRANCH  12  13
ENDBRANCH  11  12
ENDBRANCH  10  11
ENDBRANCH   9  10
ENDBRANCH   8   9
ENDBRANCH   7   8
ENDBRANCH   6   7
ENDBRANCH   5   6
ENDBRANCH   4   5
ENDBRANCH   3   4
ENDBRANCH   2   3
ENDBRANCH   1   2
BRANCH   1  17
ATOM     17  C   UNL     1      -3.026  36.003  20.444  1.00  0.00     0.000 C 
BRANCH  17  18
ATOM     18  C   UNL     1      -3.522  37.455  20.544  1.00  0.00     0.000 C 
BRANCH  18  19
ATOM     19  C   UNL     1      -4.737  37.720  19.642  1.00  0.00     0.000 C 
BRANCH  19  20
ATOM     20  C   UNL     1      -5.564  38.906  20.163  1.00  0.00     0.000 C 
BRANCH  20  21
ATOM     21  C   UNL     1      -5.960  38.748  21.641  1.00  0.00     0.000 C 
BRANCH  21  22
ATOM     22  C   UNL     1      -5.348  39.837  22.536  1.00  0.00    -0.000 C 
BRANCH  22  23
ATOM     23  C   UNL     1      -5.017  39.284  23.933  1.00  0.00    -0.000 C 
BRANCH  23  24
ATOM     24  C   UNL     1      -6.020  38.213  24.397  1.00  0.00    -0.000 C 
BRANCH  24  25
ATOM     25  C   UNL     1      -5.545  37.464  25.655  1.00  0.00    -0.000 C 
BRANCH  25  26
ATOM     26  C   UNL     1      -4.282  36.618  25.409  1.00  0.00    -0.000 C 
BRANCH  26  27
ATOM     27  C   UNL     1      -3.457  36.292  26.668  1.00  0.00    -0.000 C 
BRANCH  27  28
ATOM     28  C   UNL     1      -3.048  37.543  27.458  1.00  0.00    -0.000 C 
BRANCH  28  29
ATOM     29  C   UNL     1      -1.526  37.722  27.449  1.00  0.00    -0.003 C 
ATOM     30  C   UNL     1      -1.015  38.026  26.043  1.00  0.00     0.004 C 
ENDBRANCH  28  29
ENDBRANCH  27  28
ENDBRANCH  26  27
ENDBRANCH  25  26
ENDBRANCH  24  25
ENDBRANCH  23  24
ENDBRANCH  22  23
ENDBRANCH  21  22
ENDBRANCH  20  21
ENDBRANCH  19  20
ENDBRANCH  18  19
ENDBRANCH  17  18
ENDBRANCH   1  17
TORSDOF 26
ENDMDL
MODEL 8
REMARK VINA RESULT:     5.793      1.320      3.660
REMARK INTER + INTRA:          15.652
REMARK INTER:                  15.788
REMARK INTRA:                  -0.136
REMARK UNBOUND:                 1.053
REMARK SMILES CCCCCCCCCCCCCCCCCCCCCCCCCCCC(=O)[O-]
REMARK SMILES IDX 15 1 16 2 17 3 18 4 19 5 20 6 21 7 22 8 23 9 24 10 25 11
REMARK SMILES IDX 26 12 27 13 28 14 29 15 30 16 14 17 13 18 12 19 11 20 10 21
REMARK SMILES IDX 9 22 8 23 7 24 6 25 5 26 4 27 3 28 2 29 1 30
REMARK H PARENT
REMARK Flexibility Score: inf
ROOT
ATOM      1  C   UNL     1      -6.067  35.864  22.225  1.00  0.00     0.000 C 
ENDROOT
BRANCH   1   2
ATOM      2  C   UNL     1      -6.123  36.221  20.724  1.00  0.00     0.000 C 
BRANCH   2   3
ATOM      3  C   UNL     1      -5.370  35.231  19.812  1.00  0.00     0.000 C 
BRANCH   3   4
ATOM      4  C   UNL     1      -3.926  34.913  20.239  1.00  0.00     0.000 C 
BRANCH   4   5
ATOM      5  C   UNL     1      -3.249  35.992  21.109  1.00  0.00     0.000 C 
BRANCH   5   6
ATOM      6  C   UNL     1      -3.126  37.369  20.415  1.00  0.00     0.000 C 
BRANCH   6   7
ATOM      7  C   UNL     1      -2.715  37.276  18.935  1.00  0.00     0.000 C 
BRANCH   7   8
ATOM      8  C   UNL     1      -1.185  37.199  18.750  1.00  0.00     0.000 C 
BRANCH   8   9
ATOM      9  C   UNL     1      -0.754  37.050  17.275  1.00  0.00     0.000 C 
BRANCH   9  10
ATOM     10  C   UNL     1      -1.917  37.044  16.263  1.00  0.00     0.000 C 
BRANCH  10  11
ATOM     11  C   UNL     1      -2.817  35.800  16.289  1.00  0.00     0.000 C 
BRANCH  11  12
ATOM     12  C   UNL     1      -3.269  35.353  14.887  1.00  0.00     0.006 C 
BRANCH  12  13
ATOM     13  C   UNL     1      -3.344  36.524  13.899  1.00  0.00     0.053 C 
BRANCH  13  14
ATOM     14  C   UNL     1      -4.493  37.437  14.200  1.00  0.00     0.041 C 
ATOM     15  O   UNL     1      -5.673  37.062  13.975  1.00  0.00    -0.550 OA
ATOM     16  O   UNL     1      -4.260  38.711  14.701  1.00  0.00    -0.550 OA
ENDBRANCH  13  14
ENDBRANCH  12  13
ENDBRANCH  11  12
ENDBRANCH  10  11
ENDBRANCH   9  10
ENDBRANCH   8   9
ENDBRANCH   7   8
ENDBRANCH   6   7
ENDBRANCH   5   6
ENDBRANCH   4   5
ENDBRANCH   3   4
ENDBRANCH   2   3
ENDBRANCH   1   2
BRANCH   1  17
ATOM     17  C   UNL     1      -5.901  34.352  22.464  1.00  0.00     0.000 C 
BRANCH  17  18
ATOM     18  C   UNL     1      -5.216  34.042  23.805  1.00  0.00     0.000 C 
BRANCH  18  19
ATOM     19  C   UNL     1      -5.825  34.837  24.970  1.00  0.00     0.000 C 
BRANCH  19  20
ATOM     20  C   UNL     1      -5.320  36.288  24.974  1.00  0.00     0.000 C 
BRANCH  20  21
ATOM     21  C   UNL     1      -4.590  36.658  26.276  1.00  0.00     0.000 C 
BRANCH  21  22
ATOM     22  C   UNL     1      -3.994  38.073  26.238  1.00  0.00    -0.000 C 
BRANCH  22  23
ATOM     23  C   UNL     1      -3.795  38.551  24.790  1.00  0.00    -0.000 C 
BRANCH  23  24
ATOM     24  C   UNL     1      -3.812  40.085  24.666  1.00  0.00    -0.000 C 
BRANCH  24  25
ATOM     25  C   UNL     1      -4.934  40.734  25.496  1.00  0.00    -0.000 C 
BRANCH  25  26
ATOM     26  C   UNL     1      -5.663  41.860  24.740  1.00  0.00    -0.000 C 
BRANCH  26  27
ATOM     27  C   UNL     1      -5.502  41.831  23.209  1.00  0.00    -0.000 C 
BRANCH  27  28
ATOM     28  C   UNL     1      -6.092  40.568  22.566  1.00  0.00    -0.000 C 
BRANCH  28  29
ATOM     29  C   UNL     1      -5.220  40.088  21.401  1.00  0.00    -0.003 C 
ATOM     30  C   UNL     1      -6.074  39.676  20.206  1.00  0.00     0.004 C 
ENDBRANCH  28  29
ENDBRANCH  27  28
ENDBRANCH  26  27
ENDBRANCH  25  26
ENDBRANCH  24  25
ENDBRANCH  23  24
ENDBRANCH  22  23
ENDBRANCH  21  22
ENDBRANCH  20  21
ENDBRANCH  19  20
ENDBRANCH  18  19
ENDBRANCH  17  18
ENDBRANCH   1  17
TORSDOF 26
ENDMDL
