MODEL 1
REMARK VINA RESULT:    -7.295      0.000      0.000
REMARK INTER + INTRA:         -11.974
REMARK INTER:                 -11.133
REMARK INTRA:                  -0.842
REMARK UNBOUND:                -0.842
REMARK SMILES OC[C@@H]1O[C@H](O[C@@]2(CO)O[C@H](CO)[C@@H](O)[C@@H]2O)[C@H](O)[C@H](O)[C@H]1O
REMARK SMILES IDX 6 1 5 2 3 3 22 4 4 5 20 6 18 7 2 8 1 9 23 11 21 13 19 15
REMARK SMILES IDX 7 17 16 18 10 19 14 20 11 21 8 22 9 23 17 25 15 27 12 29
REMARK SMILES IDX 13 30
REMARK H PARENT 1 10 23 12 21 14 19 16 9 24 17 26 15 28 13 31
REMARK Flexibility Score: inf
ROOT
ATOM      1  O   UNL     1      -3.059   9.592  25.293  1.00  0.00    -0.313 OA
ENDROOT
BRANCH   1   2
ATOM      2  C   UNL     1      -2.917   9.553  26.716  1.00  0.00     0.285 C 
ATOM      3  C   UNL     1      -1.845   8.612  28.559  1.00  0.00     0.178 C 
ATOM      4  C   UNL     1      -1.006   9.857  28.941  1.00  0.00     0.177 C 
ATOM      5  O   UNL     1      -2.003   8.562  27.156  1.00  0.00    -0.341 OA
ATOM      6  C   UNL     1      -1.450  11.138  28.188  1.00  0.00     0.179 C 
ATOM      7  C   UNL     1      -2.775  10.951  27.410  1.00  0.00     0.202 C 
BRANCH   3   8
ATOM      8  C   UNL     1      -1.160   7.324  29.029  1.00  0.00     0.191 C 
BRANCH   8   9
ATOM      9  O   UNL     1       0.027   7.645  29.704  1.00  0.00    -0.394 OA
ATOM     10  H   UNL     1       0.118   6.977  30.432  1.00  0.00     0.210 HD
ENDBRANCH   8   9
ENDBRANCH   3   8
BRANCH   4  11
ATOM     11  O   UNL     1      -1.024  10.063  30.335  1.00  0.00    -0.387 OA
ATOM     12  H   UNL     1      -0.136  10.420  30.600  1.00  0.00     0.211 HD
ENDBRANCH   4  11
BRANCH   6  13
ATOM     13  O   UNL     1      -0.424  11.557  27.326  1.00  0.00    -0.387 OA
ATOM     14  H   UNL     1      -0.027  12.378  27.715  1.00  0.00     0.211 HD
ENDBRANCH   6  13
BRANCH   7  15
ATOM     15  O   UNL     1      -2.972  12.012  26.514  1.00  0.00    -0.385 OA
ATOM     16  H   UNL     1      -2.270  11.937  25.814  1.00  0.00     0.211 HD
ENDBRANCH   7  15
ENDBRANCH   1   2
BRANCH   1  17
ATOM     17  C   UNL     1      -3.473   8.444  24.537  1.00  0.00     0.224 C 
ATOM     18  C   UNL     1      -2.219   7.754  23.943  1.00  0.00     0.208 C 
ATOM     19  O   UNL     1      -4.228   8.952  23.448  1.00  0.00    -0.337 OA
ATOM     20  C   UNL     1      -2.593   7.501  22.504  1.00  0.00     0.180 C 
ATOM     21  C   UNL     1      -3.572   8.634  22.239  1.00  0.00     0.179 C 
BRANCH  17  22
ATOM     22  C   UNL     1      -4.423   7.437  25.252  1.00  0.00     0.225 C 
BRANCH  22  23
ATOM     23  O   UNL     1      -5.692   7.453  24.656  1.00  0.00    -0.391 OA
ATOM     24  H   UNL     1      -6.346   7.554  25.398  1.00  0.00     0.210 HD
ENDBRANCH  22  23
ENDBRANCH  17  22
BRANCH  18  25
ATOM     25  O   UNL     1      -1.885   6.556  24.601  1.00  0.00    -0.385 OA
ATOM     26  H   UNL     1      -2.495   5.854  24.250  1.00  0.00     0.211 HD
ENDBRANCH  18  25
BRANCH  20  27
ATOM     27  O   UNL     1      -1.482   7.600  21.653  1.00  0.00    -0.387 OA
ATOM     28  H   UNL     1      -0.720   7.892  22.220  1.00  0.00     0.211 HD
ENDBRANCH  20  27
BRANCH  21  29
ATOM     29  C   UNL     1      -4.602   8.273  21.157  1.00  0.00     0.191 C 
BRANCH  29  30
ATOM     30  O   UNL     1      -4.437   9.100  20.036  1.00  0.00    -0.394 OA
ATOM     31  H   UNL     1      -3.647   9.680  20.222  1.00  0.00     0.210 HD
ENDBRANCH  29  30
ENDBRANCH  21  29
ENDBRANCH   1  17
TORSDOF 13
ENDMDL
MODEL 2
REMARK VINA RESULT:    -7.103      7.526     10.661
REMARK INTER + INTRA:         -11.682
REMARK INTER:                 -10.323
REMARK INTRA:                  -1.359
REMARK UNBOUND:                -0.842
REMARK SMILES OC[C@@H]1O[C@H](O[C@@]2(CO)O[C@H](CO)[C@@H](O)[C@@H]2O)[C@H](O)[C@H](O)[C@H]1O
REMARK SMILES IDX 6 1 5 2 3 3 22 4 4 5 20 6 18 7 2 8 1 9 23 11 21 13 19 15
REMARK SMILES IDX 7 17 16 18 10 19 14 20 11 21 8 22 9 23 17 25 15 27 12 29
REMARK SMILES IDX 13 30
REMARK H PARENT 1 10 23 12 21 14 19 16 9 24 17 26 15 28 13 31
REMARK Flexibility Score: inf
ROOT
ATOM      1  O   UNL     1      -1.363  15.929  23.158  1.00  0.00    -0.313 OA
ENDROOT
BRANCH   1   2
ATOM      2  C   UNL     1      -2.109  16.914  22.439  1.00  0.00     0.285 C 
ATOM      3  C   UNL     1      -2.294  18.228  20.523  1.00  0.00     0.178 C 
ATOM      4  C   UNL     1      -3.505  17.485  19.906  1.00  0.00     0.177 C 
ATOM      5  O   UNL     1      -1.486  17.308  21.228  1.00  0.00    -0.341 OA
ATOM      6  C   UNL     1      -4.177  16.499  20.897  1.00  0.00     0.179 C 
ATOM      7  C   UNL     1      -3.650  16.648  22.344  1.00  0.00     0.202 C 
BRANCH   3   8
ATOM      8  C   UNL     1      -1.450  18.899  19.433  1.00  0.00     0.191 C 
BRANCH   8   9
ATOM      9  O   UNL     1      -1.689  18.271  18.203  1.00  0.00    -0.394 OA
ATOM     10  H   UNL     1      -1.941  17.335  18.416  1.00  0.00     0.210 HD
ENDBRANCH   8   9
ENDBRANCH   3   8
BRANCH   4  11
ATOM     11  O   UNL     1      -4.446  18.402  19.395  1.00  0.00    -0.387 OA
ATOM     12  H   UNL     1      -5.282  18.303  19.921  1.00  0.00     0.211 HD
ENDBRANCH   4  11
BRANCH   6  13
ATOM     13  O   UNL     1      -4.006  15.183  20.439  1.00  0.00    -0.387 OA
ATOM     14  H   UNL     1      -3.043  14.964  20.520  1.00  0.00     0.211 HD
ENDBRANCH   6  13
BRANCH   7  15
ATOM     15  O   UNL     1      -4.049  15.553  23.126  1.00  0.00    -0.385 OA
ATOM     16  H   UNL     1      -3.923  15.812  24.076  1.00  0.00     0.211 HD
ENDBRANCH   7  15
ENDBRANCH   1   2
BRANCH   1  17
ATOM     17  C   UNL     1      -0.673  16.235  24.379  1.00  0.00     0.224 C 
ATOM     18  C   UNL     1      -0.445  17.766  24.458  1.00  0.00     0.208 C 
ATOM     19  O   UNL     1       0.603  15.625  24.264  1.00  0.00    -0.337 OA
ATOM     20  C   UNL     1       1.002  17.894  24.864  1.00  0.00     0.180 C 
ATOM     21  C   UNL     1       1.599  16.626  24.276  1.00  0.00     0.179 C 
BRANCH  17  22
ATOM     22  C   UNL     1      -1.280  15.656  25.693  1.00  0.00     0.225 C 
BRANCH  22  23
ATOM     23  O   UNL     1      -2.681  15.707  25.648  1.00  0.00    -0.391 OA
ATOM     24  H   UNL     1      -2.961  16.312  26.386  1.00  0.00     0.210 HD
ENDBRANCH  22  23
ENDBRANCH  17  22
BRANCH  18  25
ATOM     25  O   UNL     1      -1.293  18.403  25.382  1.00  0.00    -0.385 OA
ATOM     26  H   UNL     1      -1.826  19.070  24.872  1.00  0.00     0.211 HD
ENDBRANCH  18  25
BRANCH  20  27
ATOM     27  O   UNL     1       1.602  19.030  24.299  1.00  0.00    -0.387 OA
ATOM     28  H   UNL     1       0.921  19.436  23.698  1.00  0.00     0.211 HD
ENDBRANCH  20  27
BRANCH  21  29
ATOM     29  C   UNL     1       2.827  16.140  25.062  1.00  0.00     0.191 C 
BRANCH  29  30
ATOM     30  O   UNL     1       3.467  15.102  24.369  1.00  0.00    -0.394 OA
ATOM     31  H   UNL     1       3.465  14.310  24.974  1.00  0.00     0.210 HD
ENDBRANCH  29  30
ENDBRANCH  21  29
ENDBRANCH   1  17
TORSDOF 13
ENDMDL
MODEL 3
REMARK VINA RESULT:    -6.998      7.451     10.533
REMARK INTER + INTRA:         -11.521
REMARK INTER:                 -10.481
REMARK INTRA:                  -1.040
REMARK UNBOUND:                -0.842
REMARK SMILES OC[C@@H]1O[C@H](O[C@@]2(CO)O[C@H](CO)[C@@H](O)[C@@H]2O)[C@H](O)[C@H](O)[C@H]1O
REMARK SMILES IDX 6 1 5 2 3 3 22 4 4 5 20 6 18 7 2 8 1 9 23 11 21 13 19 15
REMARK SMILES IDX 7 17 16 18 10 19 14 20 11 21 8 22 9 23 17 25 15 27 12 29
REMARK SMILES IDX 13 30
REMARK H PARENT 1 10 23 12 21 14 19 16 9 24 17 26 15 28 13 31
REMARK Flexibility Score: inf
ROOT
ATOM      1  O   UNL     1      -0.818  18.078  22.701  1.00  0.00    -0.313 OA
ENDROOT
BRANCH   1   2
ATOM      2  C   UNL     1      -1.505  17.103  21.912  1.00  0.00     0.285 C 
ATOM      3  C   UNL     1      -3.530  16.083  21.373  1.00  0.00     0.178 C 
ATOM      4  C   UNL     1      -3.678  16.701  19.960  1.00  0.00     0.177 C 
ATOM      5  O   UNL     1      -2.885  17.006  22.226  1.00  0.00    -0.341 OA
ATOM      6  C   UNL     1      -2.384  17.400  19.469  1.00  0.00     0.179 C 
ATOM      7  C   UNL     1      -1.166  17.123  20.382  1.00  0.00     0.202 C 
BRANCH   3   8
ATOM      8  C   UNL     1      -4.900  15.733  21.964  1.00  0.00     0.191 C 
BRANCH   8   9
ATOM      9  O   UNL     1      -5.379  14.556  21.371  1.00  0.00    -0.394 OA
ATOM     10  H   UNL     1      -4.610  14.162  20.882  1.00  0.00     0.210 HD
ENDBRANCH   8   9
ENDBRANCH   3   8
BRANCH   4  11
ATOM     11  O   UNL     1      -4.106  15.730  19.033  1.00  0.00    -0.387 OA
ATOM     12  H   UNL     1      -3.613  15.883  18.184  1.00  0.00     0.211 HD
ENDBRANCH   4  11
BRANCH   6  13
ATOM     13  O   UNL     1      -2.612  18.781  19.351  1.00  0.00    -0.387 OA
ATOM     14  H   UNL     1      -1.862  19.245  19.804  1.00  0.00     0.211 HD
ENDBRANCH   6  13
BRANCH   7  15
ATOM     15  O   UNL     1      -0.117  18.006  20.082  1.00  0.00    -0.385 OA
ATOM     16  H   UNL     1       0.199  18.387  20.944  1.00  0.00     0.211 HD
ENDBRANCH   7  15
ENDBRANCH   1   2
BRANCH   1  17
ATOM     17  C   UNL     1      -0.554  17.880  24.099  1.00  0.00     0.224 C 
ATOM     18  C   UNL     1       0.931  18.219  24.383  1.00  0.00     0.208 C 
ATOM     19  O   UNL     1      -0.719  16.489  24.328  1.00  0.00    -0.337 OA
ATOM     20  C   UNL     1       1.410  17.064  25.226  1.00  0.00     0.180 C 
ATOM     21  C   UNL     1       0.513  15.937  24.739  1.00  0.00     0.179 C 
BRANCH  17  22
ATOM     22  C   UNL     1      -1.525  18.573  25.101  1.00  0.00     0.225 C 
BRANCH  22  23
ATOM     23  O   UNL     1      -2.794  17.978  25.046  1.00  0.00    -0.391 OA
ATOM     24  H   UNL     1      -2.643  17.024  24.809  1.00  0.00     0.210 HD
ENDBRANCH  22  23
ENDBRANCH  17  22
BRANCH  18  25
ATOM     25  O   UNL     1       1.098  19.444  25.053  1.00  0.00    -0.385 OA
ATOM     26  H   UNL     1       0.191  19.840  25.161  1.00  0.00     0.211 HD
ENDBRANCH  18  25
BRANCH  20  27
ATOM     27  O   UNL     1       2.758  16.764  24.980  1.00  0.00    -0.387 OA
ATOM     28  H   UNL     1       3.178  17.607  24.660  1.00  0.00     0.211 HD
ENDBRANCH  20  27
BRANCH  21  29
ATOM     29  C   UNL     1       0.281  14.868  25.819  1.00  0.00     0.191 C 
BRANCH  29  30
ATOM     30  O   UNL     1      -1.076  14.515  25.867  1.00  0.00    -0.394 OA
ATOM     31  H   UNL     1      -1.548  15.257  26.340  1.00  0.00     0.210 HD
ENDBRANCH  29  30
ENDBRANCH  21  29
ENDBRANCH   1  17
TORSDOF 13
ENDMDL
MODEL 4
REMARK VINA RESULT:    -6.959      8.045     10.558
REMARK INTER + INTRA:         -11.462
REMARK INTER:                 -10.093
REMARK INTRA:                  -1.369
REMARK UNBOUND:                -0.842
REMARK SMILES OC[C@@H]1O[C@H](O[C@@]2(CO)O[C@H](CO)[C@@H](O)[C@@H]2O)[C@H](O)[C@H](O)[C@H]1O
REMARK SMILES IDX 6 1 5 2 3 3 22 4 4 5 20 6 18 7 2 8 1 9 23 11 21 13 19 15
REMARK SMILES IDX 7 17 16 18 10 19 14 20 11 21 8 22 9 23 17 25 15 27 12 29
REMARK SMILES IDX 13 30
REMARK H PARENT 1 10 23 12 21 14 19 16 9 24 17 26 15 28 13 31
REMARK Flexibility Score: inf
ROOT
ATOM      1  O   UNL     1      -2.212  17.669  23.189  1.00  0.00    -0.313 OA
ENDROOT
BRANCH   1   2
ATOM      2  C   UNL     1      -2.749  16.686  22.301  1.00  0.00     0.285 C 
ATOM      3  C   UNL     1      -4.638  15.793  21.267  1.00  0.00     0.178 C 
ATOM      4  C   UNL     1      -4.314  16.286  19.834  1.00  0.00     0.177 C 
ATOM      5  O   UNL     1      -4.163  16.735  22.207  1.00  0.00    -0.341 OA
ATOM      6  C   UNL     1      -2.867  16.824  19.694  1.00  0.00     0.179 C 
ATOM      7  C   UNL     1      -1.992  16.533  20.937  1.00  0.00     0.202 C 
BRANCH   3   8
ATOM      8  C   UNL     1      -6.148  15.617  21.457  1.00  0.00     0.191 C 
BRANCH   8   9
ATOM      9  O   UNL     1      -6.817  16.021  20.293  1.00  0.00    -0.394 OA
ATOM     10  H   UNL     1      -7.396  15.259  20.030  1.00  0.00     0.210 HD
ENDBRANCH   8   9
ENDBRANCH   3   8
BRANCH   4  11
ATOM     11  O   UNL     1      -4.565  15.271  18.889  1.00  0.00    -0.387 OA
ATOM     12  H   UNL     1      -5.447  15.458  18.471  1.00  0.00     0.211 HD
ENDBRANCH   4  11
BRANCH   6  13
ATOM     13  O   UNL     1      -2.902  18.202  19.424  1.00  0.00    -0.387 OA
ATOM     14  H   UNL     1      -1.966  18.530  19.432  1.00  0.00     0.211 HD
ENDBRANCH   6  13
BRANCH   7  15
ATOM     15  O   UNL     1      -0.813  17.293  20.896  1.00  0.00    -0.385 OA
ATOM     16  H   UNL     1      -1.080  18.249  20.934  1.00  0.00     0.211 HD
ENDBRANCH   7  15
ENDBRANCH   1   2
BRANCH   1  17
ATOM     17  C   UNL     1      -1.452  17.312  24.353  1.00  0.00     0.224 C 
ATOM     18  C   UNL     1      -0.491  18.477  24.704  1.00  0.00     0.208 C 
ATOM     19  O   UNL     1      -0.649  16.208  23.966  1.00  0.00    -0.337 OA
ATOM     20  C   UNL     1       0.830  17.794  24.948  1.00  0.00     0.180 C 
ATOM     21  C   UNL     1       0.712  16.570  24.054  1.00  0.00     0.179 C 
BRANCH  17  22
ATOM     22  C   UNL     1      -2.257  16.812  25.591  1.00  0.00     0.225 C 
BRANCH  22  23
ATOM     23  O   UNL     1      -3.477  17.497  25.691  1.00  0.00    -0.391 OA
ATOM     24  H   UNL     1      -3.896  17.450  24.790  1.00  0.00     0.210 HD
ENDBRANCH  22  23
ENDBRANCH  17  22
BRANCH  18  25
ATOM     25  O   UNL     1      -0.904  19.210  25.832  1.00  0.00    -0.385 OA
ATOM     26  H   UNL     1      -1.521  19.919  25.505  1.00  0.00     0.211 HD
ENDBRANCH  18  25
BRANCH  20  27
ATOM     27  O   UNL     1       1.911  18.594  24.550  1.00  0.00    -0.387 OA
ATOM     28  H   UNL     1       1.914  19.382  25.157  1.00  0.00     0.211 HD
ENDBRANCH  20  27
BRANCH  21  29
ATOM     29  C   UNL     1       1.542  15.385  24.574  1.00  0.00     0.191 C 
BRANCH  29  30
ATOM     30  O   UNL     1       2.912  15.671  24.472  1.00  0.00    -0.394 OA
ATOM     31  H   UNL     1       3.017  16.290  23.697  1.00  0.00     0.210 HD
ENDBRANCH  29  30
ENDBRANCH  21  29
ENDBRANCH   1  17
TORSDOF 13
ENDMDL
MODEL 5
REMARK VINA RESULT:    -6.956      1.444      6.328
REMARK INTER + INTRA:         -11.458
REMARK INTER:                 -10.303
REMARK INTRA:                  -1.154
REMARK UNBOUND:                -0.842
REMARK SMILES OC[C@@H]1O[C@H](O[C@@]2(CO)O[C@H](CO)[C@@H](O)[C@@H]2O)[C@H](O)[C@H](O)[C@H]1O
REMARK SMILES IDX 6 1 5 2 3 3 22 4 4 5 20 6 18 7 2 8 1 9 23 11 21 13 19 15
REMARK SMILES IDX 7 17 16 18 10 19 14 20 11 21 8 22 9 23 17 25 15 27 12 29
REMARK SMILES IDX 13 30
REMARK H PARENT 1 10 23 12 21 14 19 16 9 24 17 26 15 28 13 31
REMARK Flexibility Score: inf
ROOT
ATOM      1  O   UNL     1      -2.953   7.948  26.590  1.00  0.00    -0.313 OA
ENDROOT
BRANCH   1   2
ATOM      2  C   UNL     1      -2.735   8.218  25.203  1.00  0.00     0.285 C 
ATOM      3  C   UNL     1      -2.078   7.401  23.122  1.00  0.00     0.178 C 
ATOM      4  C   UNL     1      -3.480   7.424  22.462  1.00  0.00     0.177 C 
ATOM      5  O   UNL     1      -2.208   7.106  24.497  1.00  0.00    -0.341 OA
ATOM      6  C   UNL     1      -4.527   8.201  23.301  1.00  0.00     0.179 C 
ATOM      7  C   UNL     1      -3.897   8.981  24.480  1.00  0.00     0.202 C 
BRANCH   3   8
ATOM      8  C   UNL     1      -1.183   6.341  22.469  1.00  0.00     0.191 C 
BRANCH   8   9
ATOM      9  O   UNL     1      -1.024   6.637  21.107  1.00  0.00    -0.394 OA
ATOM     10  H   UNL     1      -1.803   6.231  20.645  1.00  0.00     0.210 HD
ENDBRANCH   8   9
ENDBRANCH   3   8
BRANCH   4  11
ATOM     11  O   UNL     1      -3.406   7.936  21.152  1.00  0.00    -0.387 OA
ATOM     12  H   UNL     1      -2.641   7.495  20.696  1.00  0.00     0.211 HD
ENDBRANCH   4  11
BRANCH   6  13
ATOM     13  O   UNL     1      -5.511   7.312  23.763  1.00  0.00    -0.387 OA
ATOM     14  H   UNL     1      -6.118   7.121  23.003  1.00  0.00     0.211 HD
ENDBRANCH   6  13
BRANCH   7  15
ATOM     15  O   UNL     1      -4.892   9.405  25.374  1.00  0.00    -0.385 OA
ATOM     16  H   UNL     1      -4.633   9.076  26.275  1.00  0.00     0.211 HD
ENDBRANCH   7  15
ENDBRANCH   1   2
BRANCH   1  17
ATOM     17  C   UNL     1      -2.273   8.675  27.625  1.00  0.00     0.224 C 
ATOM     18  C   UNL     1      -3.327   9.334  28.551  1.00  0.00     0.208 C 
ATOM     19  O   UNL     1      -1.579   9.723  26.967  1.00  0.00    -0.337 OA
ATOM     20  C   UNL     1      -2.830  10.749  28.713  1.00  0.00     0.180 C 
ATOM     21  C   UNL     1      -2.089  10.965  27.404  1.00  0.00     0.179 C 
BRANCH  17  22
ATOM     22  C   UNL     1      -1.179   7.903  28.422  1.00  0.00     0.225 C 
BRANCH  22  23
ATOM     23  O   UNL     1      -0.420   8.792  29.196  1.00  0.00    -0.391 OA
ATOM     24  H   UNL     1       0.116   9.331  28.555  1.00  0.00     0.210 HD
ENDBRANCH  22  23
ENDBRANCH  17  22
BRANCH  18  25
ATOM     25  O   UNL     1      -3.446   8.689  29.796  1.00  0.00    -0.385 OA
ATOM     26  H   UNL     1      -2.674   8.066  29.873  1.00  0.00     0.211 HD
ENDBRANCH  18  25
BRANCH  20  27
ATOM     27  O   UNL     1      -3.889  11.661  28.837  1.00  0.00    -0.387 OA
ATOM     28  H   UNL     1      -4.724  11.120  28.847  1.00  0.00     0.211 HD
ENDBRANCH  20  27
BRANCH  21  29
ATOM     29  C   UNL     1      -0.949  11.987  27.541  1.00  0.00     0.191 C 
BRANCH  29  30
ATOM     30  O   UNL     1       0.132  11.418  28.231  1.00  0.00    -0.394 OA
ATOM     31  H   UNL     1      -0.196  11.204  29.149  1.00  0.00     0.210 HD
ENDBRANCH  29  30
ENDBRANCH  21  29
ENDBRANCH   1  17
TORSDOF 13
ENDMDL
MODEL 6
REMARK VINA RESULT:    -6.834      1.432      6.595
REMARK INTER + INTRA:         -11.271
REMARK INTER:                 -10.399
REMARK INTRA:                  -0.872
REMARK UNBOUND:                -0.842
REMARK SMILES OC[C@@H]1O[C@H](O[C@@]2(CO)O[C@H](CO)[C@@H](O)[C@@H]2O)[C@H](O)[C@H](O)[C@H]1O
REMARK SMILES IDX 6 1 5 2 3 3 22 4 4 5 20 6 18 7 2 8 1 9 23 11 21 13 19 15
REMARK SMILES IDX 7 17 16 18 10 19 14 20 11 21 8 22 9 23 17 25 15 27 12 29
REMARK SMILES IDX 13 30
REMARK H PARENT 1 10 23 12 21 14 19 16 9 24 17 26 15 28 13 31
REMARK Flexibility Score: inf
ROOT
ATOM      1  O   UNL     1      -1.960   7.920  25.548  1.00  0.00    -0.313 OA
ENDROOT
BRANCH   1   2
ATOM      2  C   UNL     1      -2.857   7.705  24.456  1.00  0.00     0.285 C 
ATOM      3  C   UNL     1      -4.492   8.591  23.051  1.00  0.00     0.178 C 
ATOM      4  C   UNL     1      -3.626   8.640  21.767  1.00  0.00     0.177 C 
ATOM      5  O   UNL     1      -3.676   8.829  24.179  1.00  0.00    -0.341 OA
ATOM      6  C   UNL     1      -2.293   7.860  21.909  1.00  0.00     0.179 C 
ATOM      7  C   UNL     1      -2.227   7.010  23.201  1.00  0.00     0.202 C 
BRANCH   3   8
ATOM      8  C   UNL     1      -5.600   9.649  23.005  1.00  0.00     0.191 C 
BRANCH   8   9
ATOM      9  O   UNL     1      -5.287  10.612  22.035  1.00  0.00    -0.394 OA
ATOM     10  H   UNL     1      -5.294  10.137  21.164  1.00  0.00     0.210 HD
ENDBRANCH   8   9
ENDBRANCH   3   8
BRANCH   4  11
ATOM     11  O   UNL     1      -4.359   8.183  20.653  1.00  0.00    -0.387 OA
ATOM     12  H   UNL     1      -5.324   8.250  20.877  1.00  0.00     0.211 HD
ENDBRANCH   4  11
BRANCH   6  13
ATOM     13  O   UNL     1      -1.215   8.758  21.849  1.00  0.00    -0.387 OA
ATOM     14  H   UNL     1      -0.527   8.437  22.486  1.00  0.00     0.211 HD
ENDBRANCH   6  13
BRANCH   7  15
ATOM     15  O   UNL     1      -0.912   6.579  23.436  1.00  0.00    -0.385 OA
ATOM     16  H   UNL     1      -0.871   5.619  23.187  1.00  0.00     0.211 HD
ENDBRANCH   7  15
ENDBRANCH   1   2
BRANCH   1  17
ATOM     17  C   UNL     1      -2.406   8.437  26.811  1.00  0.00     0.224 C 
ATOM     18  C   UNL     1      -1.967   9.919  26.931  1.00  0.00     0.208 C 
ATOM     19  O   UNL     1      -1.695   7.708  27.799  1.00  0.00    -0.337 OA
ATOM     20  C   UNL     1      -1.378  10.010  28.316  1.00  0.00     0.180 C 
ATOM     21  C   UNL     1      -0.870   8.592  28.526  1.00  0.00     0.179 C 
BRANCH  17  22
ATOM     22  C   UNL     1      -3.910   8.232  27.162  1.00  0.00     0.225 C 
BRANCH  22  23
ATOM     23  O   UNL     1      -4.048   7.791  28.486  1.00  0.00    -0.391 OA
ATOM     24  H   UNL     1      -3.826   6.822  28.481  1.00  0.00     0.210 HD
ENDBRANCH  22  23
ENDBRANCH  17  22
BRANCH  18  25
ATOM     25  O   UNL     1      -3.033  10.823  26.769  1.00  0.00    -0.385 OA
ATOM     26  H   UNL     1      -2.716  11.706  27.101  1.00  0.00     0.211 HD
ENDBRANCH  18  25
BRANCH  20  27
ATOM     27  O   UNL     1      -0.318  10.928  28.371  1.00  0.00    -0.387 OA
ATOM     28  H   UNL     1       0.516  10.388  28.421  1.00  0.00     0.211 HD
ENDBRANCH  20  27
BRANCH  21  29
ATOM     29  C   UNL     1      -0.847   8.195  30.010  1.00  0.00     0.191 C 
BRANCH  29  30
ATOM     30  O   UNL     1      -1.683   7.090  30.230  1.00  0.00    -0.394 OA
ATOM     31  H   UNL     1      -2.246   7.311  31.023  1.00  0.00     0.210 HD
ENDBRANCH  29  30
ENDBRANCH  21  29
ENDBRANCH   1  17
TORSDOF 13
ENDMDL
MODEL 7
REMARK VINA RESULT:    -6.792      7.287     10.567
REMARK INTER + INTRA:         -11.207
REMARK INTER:                 -10.125
REMARK INTRA:                  -1.082
REMARK UNBOUND:                -0.842
REMARK SMILES OC[C@@H]1O[C@H](O[C@@]2(CO)O[C@H](CO)[C@@H](O)[C@@H]2O)[C@H](O)[C@H](O)[C@H]1O
REMARK SMILES IDX 6 1 5 2 3 3 22 4 4 5 20 6 18 7 2 8 1 9 23 11 21 13 19 15
REMARK SMILES IDX 7 17 16 18 10 19 14 20 11 21 8 22 9 23 17 25 15 27 12 29
REMARK SMILES IDX 13 30
REMARK H PARENT 1 10 23 12 21 14 19 16 9 24 17 26 15 28 13 31
REMARK Flexibility Score: inf
ROOT
ATOM      1  O   UNL     1      -1.756  17.964  23.390  1.00  0.00    -0.313 OA
ENDROOT
BRANCH   1   2
ATOM      2  C   UNL     1      -1.866  17.053  22.293  1.00  0.00     0.285 C 
ATOM      3  C   UNL     1      -3.193  16.186  20.585  1.00  0.00     0.178 C 
ATOM      4  C   UNL     1      -2.426  16.837  19.406  1.00  0.00     0.177 C 
ATOM      5  O   UNL     1      -3.156  17.047  21.704  1.00  0.00    -0.341 OA
ATOM      6  C   UNL     1      -1.070  17.453  19.836  1.00  0.00     0.179 C 
ATOM      7  C   UNL     1      -0.669  17.076  21.283  1.00  0.00     0.202 C 
BRANCH   3   8
ATOM      8  C   UNL     1      -4.656  15.922  20.208  1.00  0.00     0.191 C 
BRANCH   8   9
ATOM      9  O   UNL     1      -5.077  16.876  19.270  1.00  0.00    -0.394 OA
ATOM     10  H   UNL     1      -5.770  17.421  19.726  1.00  0.00     0.210 HD
ENDBRANCH   8   9
ENDBRANCH   3   8
BRANCH   4  11
ATOM     11  O   UNL     1      -2.248  15.914  18.357  1.00  0.00    -0.387 OA
ATOM     12  H   UNL     1      -1.540  15.274  18.633  1.00  0.00     0.211 HD
ENDBRANCH   4  11
BRANCH   6  13
ATOM     13  O   UNL     1      -1.117  18.847  19.682  1.00  0.00    -0.387 OA
ATOM     14  H   UNL     1      -1.372  19.234  20.559  1.00  0.00     0.211 HD
ENDBRANCH   6  13
BRANCH   7  15
ATOM     15  O   UNL     1       0.385  17.889  21.727  1.00  0.00    -0.385 OA
ATOM     16  H   UNL     1       1.071  17.897  21.007  1.00  0.00     0.211 HD
ENDBRANCH   7  15
ENDBRANCH   1   2
BRANCH   1  17
ATOM     17  C   UNL     1      -1.663  17.514  24.750  1.00  0.00     0.224 C 
ATOM     18  C   UNL     1      -0.509  18.273  25.454  1.00  0.00     0.208 C 
ATOM     19  O   UNL     1      -1.285  16.148  24.678  1.00  0.00    -0.337 OA
ATOM     20  C   UNL     1       0.253  17.187  26.169  1.00  0.00     0.180 C 
ATOM     21  C   UNL     1      -0.018  15.984  25.279  1.00  0.00     0.179 C 
BRANCH  17  22
ATOM     22  C   UNL     1      -2.979  17.526  25.584  1.00  0.00     0.225 C 
BRANCH  22  23
ATOM     23  O   UNL     1      -4.096  17.532  24.737  1.00  0.00    -0.391 OA
ATOM     24  H   UNL     1      -4.270  16.583  24.498  1.00  0.00     0.210 HD
ENDBRANCH  22  23
ENDBRANCH  17  22
BRANCH  18  25
ATOM     25  O   UNL     1      -0.964  19.255  26.352  1.00  0.00    -0.385 OA
ATOM     26  H   UNL     1      -1.506  18.786  27.042  1.00  0.00     0.211 HD
ENDBRANCH  18  25
BRANCH  20  27
ATOM     27  O   UNL     1       1.628  17.463  26.220  1.00  0.00    -0.387 OA
ATOM     28  H   UNL     1       1.917  17.272  27.152  1.00  0.00     0.211 HD
ENDBRANCH  20  27
BRANCH  21  29
ATOM     29  C   UNL     1       0.032  14.660  26.057  1.00  0.00     0.191 C 
BRANCH  29  30
ATOM     30  O   UNL     1      -1.257  14.118  26.174  1.00  0.00    -0.394 OA
ATOM     31  H   UNL     1      -1.867  14.876  26.391  1.00  0.00     0.210 HD
ENDBRANCH  29  30
ENDBRANCH  21  29
ENDBRANCH   1  17
TORSDOF 13
ENDMDL
MODEL 8
REMARK VINA RESULT:    -6.703      9.778     11.116
REMARK INTER + INTRA:         -11.071
REMARK INTER:                  -9.732
REMARK INTRA:                  -1.339
REMARK UNBOUND:                -0.842
REMARK SMILES OC[C@@H]1O[C@H](O[C@@]2(CO)O[C@H](CO)[C@@H](O)[C@@H]2O)[C@H](O)[C@H](O)[C@H]1O
REMARK SMILES IDX 6 1 5 2 3 3 22 4 4 5 20 6 18 7 2 8 1 9 23 11 21 13 19 15
REMARK SMILES IDX 7 17 16 18 10 19 14 20 11 21 8 22 9 23 17 25 15 27 12 29
REMARK SMILES IDX 13 30
REMARK H PARENT 1 10 23 12 21 14 19 16 9 24 17 26 15 28 13 31
REMARK Flexibility Score: inf
ROOT
ATOM      1  O   UNL     1      -0.339  18.883  21.520  1.00  0.00    -0.313 OA
ENDROOT
BRANCH   1   2
ATOM      2  C   UNL     1      -0.785  18.300  22.747  1.00  0.00     0.285 C 
ATOM      3  C   UNL     1      -0.456  16.674  24.383  1.00  0.00     0.178 C 
ATOM      4  C   UNL     1       0.006  17.634  25.508  1.00  0.00     0.177 C 
ATOM      5  O   UNL     1      -0.022  17.169  23.134  1.00  0.00    -0.341 OA
ATOM      6  C   UNL     1      -0.238  19.126  25.165  1.00  0.00     0.179 C 
ATOM      7  C   UNL     1      -1.101  19.319  23.894  1.00  0.00     0.202 C 
BRANCH   3   8
ATOM      8  C   UNL     1       0.123  15.269  24.591  1.00  0.00     0.191 C 
BRANCH   8   9
ATOM      9  O   UNL     1      -0.662  14.573  25.521  1.00  0.00    -0.394 OA
ATOM     10  H   UNL     1      -1.097  13.836  25.017  1.00  0.00     0.210 HD
ENDBRANCH   8   9
ENDBRANCH   3   8
BRANCH   4  11
ATOM     11  O   UNL     1      -0.601  17.295  26.734  1.00  0.00    -0.387 OA
ATOM     12  H   UNL     1      -1.133  18.078  27.035  1.00  0.00     0.211 HD
ENDBRANCH   4  11
BRANCH   6  13
ATOM     13  O   UNL     1       0.994  19.786  25.033  1.00  0.00    -0.387 OA
ATOM     14  H   UNL     1       1.557  19.518  25.804  1.00  0.00     0.211 HD
ENDBRANCH   6  13
BRANCH   7  15
ATOM     15  O   UNL     1      -1.036  20.650  23.455  1.00  0.00    -0.385 OA
ATOM     16  H   UNL     1      -1.544  21.198  24.110  1.00  0.00     0.211 HD
ENDBRANCH   7  15
ENDBRANCH   1   2
BRANCH   1  17
ATOM     17  C   UNL     1      -1.224  19.094  20.409  1.00  0.00     0.224 C 
ATOM     18  C   UNL     1      -0.381  19.386  19.142  1.00  0.00     0.208 C 
ATOM     19  O   UNL     1      -1.949  20.275  20.713  1.00  0.00    -0.337 OA
ATOM     20  C   UNL     1      -1.057  20.586  18.528  1.00  0.00     0.180 C 
ATOM     21  C   UNL     1      -1.648  21.265  19.753  1.00  0.00     0.179 C 
BRANCH  17  22
ATOM     22  C   UNL     1      -2.311  18.005  20.161  1.00  0.00     0.225 C 
BRANCH  22  23
ATOM     23  O   UNL     1      -1.719  16.739  20.045  1.00  0.00    -0.391 OA
ATOM     24  H   UNL     1      -0.950  16.733  20.676  1.00  0.00     0.210 HD
ENDBRANCH  22  23
ENDBRANCH  17  22
BRANCH  18  25
ATOM     25  O   UNL     1      -0.344  18.305  18.243  1.00  0.00    -0.385 OA
ATOM     26  H   UNL     1      -1.016  17.644  18.560  1.00  0.00     0.211 HD
ENDBRANCH  18  25
BRANCH  20  27
ATOM     27  O   UNL     1      -0.137  21.432  17.890  1.00  0.00    -0.387 OA
ATOM     28  H   UNL     1      -0.144  21.179  16.929  1.00  0.00     0.211 HD
ENDBRANCH  20  27
BRANCH  21  29
ATOM     29  C   UNL     1      -2.909  22.078  19.418  1.00  0.00     0.191 C 
BRANCH  29  30
ATOM     30  O   UNL     1      -2.618  23.042  18.441  1.00  0.00    -0.394 OA
ATOM     31  H   UNL     1      -1.645  23.245  18.521  1.00  0.00     0.210 HD
ENDBRANCH  29  30
ENDBRANCH  21  29
ENDBRANCH   1  17
TORSDOF 13
ENDMDL
MODEL 9
REMARK VINA RESULT:    -6.631      8.490     11.432
REMARK INTER + INTRA:         -10.962
REMARK INTER:                  -9.588
REMARK INTRA:                  -1.374
REMARK UNBOUND:                -0.842
REMARK SMILES OC[C@@H]1O[C@H](O[C@@]2(CO)O[C@H](CO)[C@@H](O)[C@@H]2O)[C@H](O)[C@H](O)[C@H]1O
REMARK SMILES IDX 6 1 5 2 3 3 22 4 4 5 20 6 18 7 2 8 1 9 23 11 21 13 19 15
REMARK SMILES IDX 7 17 16 18 10 19 14 20 11 21 8 22 9 23 17 25 15 27 12 29
REMARK SMILES IDX 13 30
REMARK H PARENT 1 10 23 12 21 14 19 16 9 24 17 26 15 28 13 31
REMARK Flexibility Score: inf
ROOT
ATOM      1  O   UNL     1       0.014  17.788  22.718  1.00  0.00    -0.313 OA
ENDROOT
BRANCH   1   2
ATOM      2  C   UNL     1      -1.096  18.461  22.118  1.00  0.00     0.285 C 
ATOM      3  C   UNL     1      -1.841  20.229  20.795  1.00  0.00     0.178 C 
ATOM      4  C   UNL     1      -2.242  19.381  19.562  1.00  0.00     0.177 C 
ATOM      5  O   UNL     1      -0.723  19.641  21.427  1.00  0.00    -0.341 OA
ATOM      6  C   UNL     1      -2.259  17.858  19.856  1.00  0.00     0.179 C 
ATOM      7  C   UNL     1      -2.110  17.535  21.362  1.00  0.00     0.202 C 
BRANCH   3   8
ATOM      8  C   UNL     1      -1.484  21.661  20.382  1.00  0.00     0.191 C 
BRANCH   8   9
ATOM      9  O   UNL     1      -2.659  22.379  20.118  1.00  0.00    -0.394 OA
ATOM     10  H   UNL     1      -2.714  23.083  20.816  1.00  0.00     0.210 HD
ENDBRANCH   8   9
ENDBRANCH   3   8
BRANCH   4  11
ATOM     11  O   UNL     1      -3.483  19.806  19.046  1.00  0.00    -0.387 OA
ATOM     12  H   UNL     1      -3.318  20.606  18.481  1.00  0.00     0.211 HD
ENDBRANCH   4  11
BRANCH   6  13
ATOM     13  O   UNL     1      -1.253  17.225  19.110  1.00  0.00    -0.387 OA
ATOM     14  H   UNL     1      -1.093  16.337  19.522  1.00  0.00     0.211 HD
ENDBRANCH   6  13
BRANCH   7  15
ATOM     15  O   UNL     1      -1.823  16.173  21.545  1.00  0.00    -0.385 OA
ATOM     16  H   UNL     1      -1.383  15.854  20.714  1.00  0.00     0.211 HD
ENDBRANCH   7  15
ENDBRANCH   1   2
BRANCH   1  17
ATOM     17  C   UNL     1       0.113  17.595  24.137  1.00  0.00     0.224 C 
ATOM     18  C   UNL     1       1.311  16.658  24.435  1.00  0.00     0.208 C 
ATOM     19  O   UNL     1      -1.066  16.902  24.515  1.00  0.00    -0.337 OA
ATOM     20  C   UNL     1       0.753  15.661  25.418  1.00  0.00     0.180 C 
ATOM     21  C   UNL     1      -0.716  15.634  25.029  1.00  0.00     0.179 C 
BRANCH  17  22
ATOM     22  C   UNL     1       0.127  18.878  25.021  1.00  0.00     0.225 C 
BRANCH  22  23
ATOM     23  O   UNL     1       1.187  19.718  24.647  1.00  0.00    -0.391 OA
ATOM     24  H   UNL     1       2.002  19.344  25.076  1.00  0.00     0.210 HD
ENDBRANCH  22  23
ENDBRANCH  17  22
BRANCH  18  25
ATOM     25  O   UNL     1       2.421  17.337  24.970  1.00  0.00    -0.385 OA
ATOM     26  H   UNL     1       3.032  17.533  24.210  1.00  0.00     0.211 HD
ENDBRANCH  18  25
BRANCH  20  27
ATOM     27  O   UNL     1       1.330  14.392  25.256  1.00  0.00    -0.387 OA
ATOM     28  H   UNL     1       1.868  14.223  26.075  1.00  0.00     0.211 HD
ENDBRANCH  20  27
BRANCH  21  29
ATOM     29  C   UNL     1      -1.627  15.273  26.212  1.00  0.00     0.191 C 
BRANCH  29  30
ATOM     30  O   UNL     1      -1.559  13.896  26.473  1.00  0.00    -0.394 OA
ATOM     31  H   UNL     1      -1.772  13.778  27.440  1.00  0.00     0.210 HD
ENDBRANCH  29  30
ENDBRANCH  21  29
ENDBRANCH   1  17
TORSDOF 13
ENDMDL
