MODEL 1
REMARK VINA RESULT:    -5.149      0.000      0.000
REMARK INTER + INTRA:         -18.023
REMARK INTER:                 -12.975
REMARK INTRA:                  -5.048
REMARK UNBOUND:                -5.048
REMARK SMILES CCCCCCCCCCCCCCCCCCCCCCCCCCCC(=O)[O-]
REMARK SMILES IDX 15 1 16 2 17 3 18 4 19 5 20 6 21 7 22 8 23 9 24 10 25 11
REMARK SMILES IDX 26 12 27 13 28 14 29 15 30 16 14 17 13 18 12 19 11 20 10 21
REMARK SMILES IDX 9 22 8 23 7 24 6 25 5 26 4 27 3 28 2 29 1 30
REMARK H PARENT
REMARK Flexibility Score: inf
ROOT
ATOM      1  C   UNL     1      22.987  -0.561  35.964  1.00  0.00     0.000 C 
ENDROOT
BRANCH   1   2
ATOM      2  C   UNL     1      21.653   0.213  35.932  1.00  0.00     0.000 C 
BRANCH   2   3
ATOM      3  C   UNL     1      20.466  -0.552  35.311  1.00  0.00     0.000 C 
BRANCH   3   4
ATOM      4  C   UNL     1      19.085  -0.183  35.887  1.00  0.00     0.000 C 
BRANCH   4   5
ATOM      5  C   UNL     1      18.413  -1.289  36.726  1.00  0.00     0.000 C 
BRANCH   5   6
ATOM      6  C   UNL     1      19.347  -2.431  37.174  1.00  0.00     0.000 C 
BRANCH   6   7
ATOM      7  C   UNL     1      18.636  -3.650  37.790  1.00  0.00     0.000 C 
BRANCH   7   8
ATOM      8  C   UNL     1      19.432  -4.967  37.724  1.00  0.00     0.000 C 
BRANCH   8   9
ATOM      9  C   UNL     1      20.931  -4.805  38.051  1.00  0.00     0.000 C 
BRANCH   9  10
ATOM     10  C   UNL     1      21.521  -6.040  38.756  1.00  0.00     0.000 C 
BRANCH  10  11
ATOM     11  C   UNL     1      22.578  -6.759  37.900  1.00  0.00     0.000 C 
BRANCH  11  12
ATOM     12  C   UNL     1      23.971  -6.754  38.553  1.00  0.00     0.006 C 
BRANCH  12  13
ATOM     13  C   UNL     1      24.165  -5.555  39.492  1.00  0.00     0.053 C 
BRANCH  13  14
ATOM     14  C   UNL     1      25.579  -5.448  39.980  1.00  0.00     0.041 C 
ATOM     15  O   UNL     1      25.858  -5.713  41.179  1.00  0.00    -0.550 OA
ATOM     16  O   UNL     1      26.586  -5.044  39.110  1.00  0.00    -0.550 OA
ENDBRANCH  13  14
ENDBRANCH  12  13
ENDBRANCH  11  12
ENDBRANCH  10  11
ENDBRANCH   9  10
ENDBRANCH   8   9
ENDBRANCH   7   8
ENDBRANCH   6   7
ENDBRANCH   5   6
ENDBRANCH   4   5
ENDBRANCH   3   4
ENDBRANCH   2   3
ENDBRANCH   1   2
BRANCH   1  17
ATOM     17  C   UNL     1      22.908  -1.967  36.586  1.00  0.00     0.000 C 
BRANCH  17  18
ATOM     18  C   UNL     1      23.274  -3.080  35.593  1.00  0.00     0.000 C 
BRANCH  18  19
ATOM     19  C   UNL     1      22.020  -3.629  34.895  1.00  0.00     0.000 C 
BRANCH  19  20
ATOM     20  C   UNL     1      22.258  -5.024  34.279  1.00  0.00     0.000 C 
BRANCH  20  21
ATOM     21  C   UNL     1      21.121  -6.022  34.556  1.00  0.00     0.000 C 
BRANCH  21  22
ATOM     22  C   UNL     1      21.008  -7.114  33.480  1.00  0.00    -0.000 C 
BRANCH  22  23
ATOM     23  C   UNL     1      19.569  -7.298  32.975  1.00  0.00    -0.000 C 
BRANCH  23  24
ATOM     24  C   UNL     1      19.395  -6.872  31.505  1.00  0.00    -0.000 C 
BRANCH  24  25
ATOM     25  C   UNL     1      20.699  -6.351  30.881  1.00  0.00    -0.000 C 
BRANCH  25  26
ATOM     26  C   UNL     1      20.581  -4.900  30.390  1.00  0.00    -0.000 C 
BRANCH  26  27
ATOM     27  C   UNL     1      19.347  -4.214  30.997  1.00  0.00    -0.000 C 
BRANCH  27  28
ATOM     28  C   UNL     1      19.701  -3.296  32.179  1.00  0.00    -0.000 C 
BRANCH  28  29
ATOM     29  C   UNL     1      18.473  -2.903  33.014  1.00  0.00    -0.003 C 
ATOM     30  C   UNL     1      18.166  -3.959  34.074  1.00  0.00     0.004 C 
ENDBRANCH  28  29
ENDBRANCH  27  28
ENDBRANCH  26  27
ENDBRANCH  25  26
ENDBRANCH  24  25
ENDBRANCH  23  24
ENDBRANCH  22  23
ENDBRANCH  21  22
ENDBRANCH  20  21
ENDBRANCH  19  20
ENDBRANCH  18  19
ENDBRANCH  17  18
ENDBRANCH   1  17
TORSDOF 26
ENDMDL
MODEL 2
REMARK VINA RESULT:    -5.028      2.670      5.945
REMARK INTER + INTRA:         -17.719
REMARK INTER:                 -12.706
REMARK INTRA:                  -5.013
REMARK UNBOUND:                -5.048
REMARK SMILES CCCCCCCCCCCCCCCCCCCCCCCCCCCC(=O)[O-]
REMARK SMILES IDX 15 1 16 2 17 3 18 4 19 5 20 6 21 7 22 8 23 9 24 10 25 11
REMARK SMILES IDX 26 12 27 13 28 14 29 15 30 16 14 17 13 18 12 19 11 20 10 21
REMARK SMILES IDX 9 22 8 23 7 24 6 25 5 26 4 27 3 28 2 29 1 30
REMARK H PARENT
REMARK Flexibility Score: inf
ROOT
ATOM      1  C   UNL     1      18.655  -2.351  33.677  1.00  0.00     0.000 C 
ENDROOT
BRANCH   1   2
ATOM      2  C   UNL     1      18.179  -3.259  32.523  1.00  0.00     0.000 C 
BRANCH   2   3
ATOM      3  C   UNL     1      19.235  -3.546  31.437  1.00  0.00     0.000 C 
BRANCH   3   4
ATOM      4  C   UNL     1      19.233  -4.990  30.897  1.00  0.00     0.000 C 
BRANCH   4   5
ATOM      5  C   UNL     1      18.362  -5.981  31.694  1.00  0.00     0.000 C 
BRANCH   5   6
ATOM      6  C   UNL     1      18.892  -7.428  31.743  1.00  0.00     0.000 C 
BRANCH   6   7
ATOM      7  C   UNL     1      18.376  -8.272  32.924  1.00  0.00     0.000 C 
BRANCH   7   8
ATOM      8  C   UNL     1      16.878  -8.099  33.239  1.00  0.00     0.000 C 
BRANCH   8   9
ATOM      9  C   UNL     1      16.569  -7.972  34.745  1.00  0.00     0.000 C 
BRANCH   9  10
ATOM     10  C   UNL     1      16.295  -6.519  35.173  1.00  0.00     0.000 C 
BRANCH  10  11
ATOM     11  C   UNL     1      17.584  -5.694  35.318  1.00  0.00     0.000 C 
BRANCH  11  12
ATOM     12  C   UNL     1      17.778  -5.145  36.743  1.00  0.00     0.006 C 
BRANCH  12  13
ATOM     13  C   UNL     1      17.208  -6.092  37.809  1.00  0.00     0.053 C 
BRANCH  13  14
ATOM     14  C   UNL     1      17.859  -5.889  39.145  1.00  0.00     0.041 C 
ATOM     15  O   UNL     1      17.524  -4.917  39.873  1.00  0.00    -0.550 OA
ATOM     16  O   UNL     1      18.844  -6.769  39.579  1.00  0.00    -0.550 OA
ENDBRANCH  13  14
ENDBRANCH  12  13
ENDBRANCH  11  12
ENDBRANCH  10  11
ENDBRANCH   9  10
ENDBRANCH   8   9
ENDBRANCH   7   8
ENDBRANCH   6   7
ENDBRANCH   5   6
ENDBRANCH   4   5
ENDBRANCH   3   4
ENDBRANCH   2   3
ENDBRANCH   1   2
BRANCH   1  17
ATOM     17  C   UNL     1      20.181  -2.160  33.766  1.00  0.00     0.000 C 
BRANCH  17  18
ATOM     18  C   UNL     1      20.665  -1.894  35.199  1.00  0.00     0.000 C 
BRANCH  18  19
ATOM     19  C   UNL     1      21.736  -0.791  35.221  1.00  0.00     0.000 C 
BRANCH  19  20
ATOM     20  C   UNL     1      23.014  -1.233  35.964  1.00  0.00     0.000 C 
BRANCH  20  21
ATOM     21  C   UNL     1      23.299  -2.741  35.857  1.00  0.00     0.000 C 
BRANCH  21  22
ATOM     22  C   UNL     1      23.093  -3.485  37.187  1.00  0.00    -0.000 C 
BRANCH  22  23
ATOM     23  C   UNL     1      23.771  -4.863  37.203  1.00  0.00    -0.000 C 
BRANCH  23  24
ATOM     24  C   UNL     1      22.764  -6.020  37.349  1.00  0.00    -0.000 C 
BRANCH  24  25
ATOM     25  C   UNL     1      21.436  -5.743  36.627  1.00  0.00    -0.000 C 
BRANCH  25  26
ATOM     26  C   UNL     1      21.340  -6.462  35.272  1.00  0.00    -0.000 C 
BRANCH  26  27
ATOM     27  C   UNL     1      21.046  -5.463  34.141  1.00  0.00    -0.000 C 
BRANCH  27  28
ATOM     28  C   UNL     1      22.262  -5.224  33.231  1.00  0.00    -0.000 C 
BRANCH  28  29
ATOM     29  C   UNL     1      22.634  -6.460  32.399  1.00  0.00    -0.003 C 
ATOM     30  C   UNL     1      22.403  -6.213  30.910  1.00  0.00     0.004 C 
ENDBRANCH  28  29
ENDBRANCH  27  28
ENDBRANCH  26  27
ENDBRANCH  25  26
ENDBRANCH  24  25
ENDBRANCH  23  24
ENDBRANCH  22  23
ENDBRANCH  21  22
ENDBRANCH  20  21
ENDBRANCH  19  20
ENDBRANCH  18  19
ENDBRANCH  17  18
ENDBRANCH   1  17
TORSDOF 26
ENDMDL
MODEL 3
REMARK VINA RESULT:    -5.000      2.009      5.570
REMARK INTER + INTRA:         -17.648
REMARK INTER:                 -12.387
REMARK INTRA:                  -5.261
REMARK UNBOUND:                -5.048
REMARK SMILES CCCCCCCCCCCCCCCCCCCCCCCCCCCC(=O)[O-]
REMARK SMILES IDX 15 1 16 2 17 3 18 4 19 5 20 6 21 7 22 8 23 9 24 10 25 11
REMARK SMILES IDX 26 12 27 13 28 14 29 15 30 16 14 17 13 18 12 19 11 20 10 21
REMARK SMILES IDX 9 22 8 23 7 24 6 25 5 26 4 27 3 28 2 29 1 30
REMARK H PARENT
REMARK Flexibility Score: inf
ROOT
ATOM      1  C   UNL     1      21.866  -5.924  33.746  1.00  0.00     0.000 C 
ENDROOT
BRANCH   1   2
ATOM      2  C   UNL     1      21.086  -7.253  33.667  1.00  0.00     0.000 C 
BRANCH   2   3
ATOM      3  C   UNL     1      19.553  -7.110  33.591  1.00  0.00     0.000 C 
BRANCH   3   4
ATOM      4  C   UNL     1      18.875  -7.963  32.501  1.00  0.00     0.000 C 
BRANCH   4   5
ATOM      5  C   UNL     1      17.663  -8.787  32.979  1.00  0.00     0.000 C 
BRANCH   5   6
ATOM      6  C   UNL     1      17.092  -8.378  34.352  1.00  0.00     0.000 C 
BRANCH   6   7
ATOM      7  C   UNL     1      15.817  -7.516  34.297  1.00  0.00     0.000 C 
BRANCH   7   8
ATOM      8  C   UNL     1      15.810  -6.306  35.249  1.00  0.00     0.000 C 
BRANCH   8   9
ATOM      9  C   UNL     1      16.808  -5.198  34.855  1.00  0.00     0.000 C 
BRANCH   9  10
ATOM     10  C   UNL     1      17.543  -4.602  36.069  1.00  0.00     0.000 C 
BRANCH  10  11
ATOM     11  C   UNL     1      18.846  -5.350  36.395  1.00  0.00     0.000 C 
BRANCH  11  12
ATOM     12  C   UNL     1      19.389  -5.011  37.795  1.00  0.00     0.006 C 
BRANCH  12  13
ATOM     13  C   UNL     1      20.906  -4.776  37.785  1.00  0.00     0.053 C 
BRANCH  13  14
ATOM     14  C   UNL     1      21.634  -5.780  38.629  1.00  0.00     0.041 C 
ATOM     15  O   UNL     1      22.885  -5.713  38.756  1.00  0.00    -0.550 OA
ATOM     16  O   UNL     1      20.929  -6.795  39.266  1.00  0.00    -0.550 OA
ENDBRANCH  13  14
ENDBRANCH  12  13
ENDBRANCH  11  12
ENDBRANCH  10  11
ENDBRANCH   9  10
ENDBRANCH   8   9
ENDBRANCH   7   8
ENDBRANCH   6   7
ENDBRANCH   5   6
ENDBRANCH   4   5
ENDBRANCH   3   4
ENDBRANCH   2   3
ENDBRANCH   1   2
BRANCH   1  17
ATOM     17  C   UNL     1      22.516  -5.473  32.425  1.00  0.00     0.000 C 
BRANCH  17  18
ATOM     18  C   UNL     1      22.645  -6.612  31.403  1.00  0.00     0.000 C 
BRANCH  18  19
ATOM     19  C   UNL     1      21.909  -6.267  30.098  1.00  0.00     0.000 C 
BRANCH  19  20
ATOM     20  C   UNL     1      21.087  -4.966  30.218  1.00  0.00     0.000 C 
BRANCH  20  21
ATOM     21  C   UNL     1      19.566  -5.197  30.221  1.00  0.00     0.000 C 
BRANCH  21  22
ATOM     22  C   UNL     1      18.858  -4.501  31.395  1.00  0.00    -0.000 C 
BRANCH  22  23
ATOM     23  C   UNL     1      19.491  -3.146  31.746  1.00  0.00    -0.000 C 
BRANCH  23  24
ATOM     24  C   UNL     1      19.722  -2.973  33.259  1.00  0.00    -0.000 C 
BRANCH  24  25
ATOM     25  C   UNL     1      18.673  -2.063  33.918  1.00  0.00    -0.000 C 
BRANCH  25  26
ATOM     26  C   UNL     1      19.245  -1.262  35.099  1.00  0.00    -0.000 C 
BRANCH  26  27
ATOM     27  C   UNL     1      20.523  -1.920  35.641  1.00  0.00    -0.000 C 
BRANCH  27  28
ATOM     28  C   UNL     1      21.673  -0.917  35.827  1.00  0.00    -0.000 C 
BRANCH  28  29
ATOM     29  C   UNL     1      22.988  -1.593  36.246  1.00  0.00    -0.003 C 
ATOM     30  C   UNL     1      23.191  -2.912  35.504  1.00  0.00     0.004 C 
ENDBRANCH  28  29
ENDBRANCH  27  28
ENDBRANCH  26  27
ENDBRANCH  25  26
ENDBRANCH  24  25
ENDBRANCH  23  24
ENDBRANCH  22  23
ENDBRANCH  21  22
ENDBRANCH  20  21
ENDBRANCH  19  20
ENDBRANCH  18  19
ENDBRANCH  17  18
ENDBRANCH   1  17
TORSDOF 26
ENDMDL
MODEL 4
REMARK VINA RESULT:    -4.983      1.559      3.616
REMARK INTER + INTRA:         -17.606
REMARK INTER:                 -12.854
REMARK INTRA:                  -4.753
REMARK UNBOUND:                -5.048
REMARK SMILES CCCCCCCCCCCCCCCCCCCCCCCCCCCC(=O)[O-]
REMARK SMILES IDX 15 1 16 2 17 3 18 4 19 5 20 6 21 7 22 8 23 9 24 10 25 11
REMARK SMILES IDX 26 12 27 13 28 14 29 15 30 16 14 17 13 18 12 19 11 20 10 21
REMARK SMILES IDX 9 22 8 23 7 24 6 25 5 26 4 27 3 28 2 29 1 30
REMARK H PARENT
REMARK Flexibility Score: inf
ROOT
ATOM      1  C   UNL     1      17.708  -2.170  33.251  1.00  0.00     0.000 C 
ENDROOT
BRANCH   1   2
ATOM      2  C   UNL     1      17.480  -1.951  34.762  1.00  0.00     0.000 C 
BRANCH   2   3
ATOM      3  C   UNL     1      17.703  -0.507  35.255  1.00  0.00     0.000 C 
BRANCH   3   4
ATOM      4  C   UNL     1      19.078  -0.248  35.902  1.00  0.00     0.000 C 
BRANCH   4   5
ATOM      5  C   UNL     1      20.208  -1.183  35.425  1.00  0.00     0.000 C 
BRANCH   5   6
ATOM      6  C   UNL     1      21.441  -0.473  34.831  1.00  0.00     0.000 C 
BRANCH   6   7
ATOM      7  C   UNL     1      22.686  -0.462  35.739  1.00  0.00     0.000 C 
BRANCH   7   8
ATOM      8  C   UNL     1      22.815  -1.677  36.677  1.00  0.00     0.000 C 
BRANCH   8   9
ATOM      9  C   UNL     1      23.374  -2.939  35.987  1.00  0.00     0.000 C 
BRANCH   9  10
ATOM     10  C   UNL     1      22.691  -4.231  36.472  1.00  0.00     0.000 C 
BRANCH  10  11
ATOM     11  C   UNL     1      22.555  -4.288  38.002  1.00  0.00     0.000 C 
BRANCH  11  12
ATOM     12  C   UNL     1      23.372  -5.432  38.627  1.00  0.00     0.006 C 
BRANCH  12  13
ATOM     13  C   UNL     1      24.884  -5.215  38.470  1.00  0.00     0.053 C 
BRANCH  13  14
ATOM     14  C   UNL     1      25.657  -5.813  39.607  1.00  0.00     0.041 C 
ATOM     15  O   UNL     1      25.430  -5.448  40.791  1.00  0.00    -0.550 OA
ATOM     16  O   UNL     1      26.637  -6.767  39.356  1.00  0.00    -0.550 OA
ENDBRANCH  13  14
ENDBRANCH  12  13
ENDBRANCH  11  12
ENDBRANCH  10  11
ENDBRANCH   9  10
ENDBRANCH   8   9
ENDBRANCH   7   8
ENDBRANCH   6   7
ENDBRANCH   5   6
ENDBRANCH   4   5
ENDBRANCH   3   4
ENDBRANCH   2   3
ENDBRANCH   1   2
BRANCH   1  17
ATOM     17  C   UNL     1      18.362  -3.514  32.881  1.00  0.00     0.000 C 
BRANCH  17  18
ATOM     18  C   UNL     1      19.816  -3.361  32.412  1.00  0.00     0.000 C 
BRANCH  18  19
ATOM     19  C   UNL     1      20.770  -4.173  33.304  1.00  0.00     0.000 C 
BRANCH  19  20
ATOM     20  C   UNL     1      21.566  -5.224  32.502  1.00  0.00     0.000 C 
BRANCH  20  21
ATOM     21  C   UNL     1      21.604  -6.609  33.170  1.00  0.00     0.000 C 
BRANCH  21  22
ATOM     22  C   UNL     1      20.204  -7.172  33.461  1.00  0.00    -0.000 C 
BRANCH  22  23
ATOM     23  C   UNL     1      19.331  -7.263  32.201  1.00  0.00    -0.000 C 
BRANCH  23  24
ATOM     24  C   UNL     1      17.824  -7.195  32.515  1.00  0.00    -0.000 C 
BRANCH  24  25
ATOM     25  C   UNL     1      17.376  -8.281  33.505  1.00  0.00    -0.000 C 
BRANCH  25  26
ATOM     26  C   UNL     1      16.667  -7.699  34.738  1.00  0.00    -0.000 C 
BRANCH  26  27
ATOM     27  C   UNL     1      16.487  -6.179  34.601  1.00  0.00    -0.000 C 
BRANCH  27  28
ATOM     28  C   UNL     1      16.954  -5.411  35.847  1.00  0.00    -0.000 C 
BRANCH  28  29
ATOM     29  C   UNL     1      18.483  -5.403  36.002  1.00  0.00    -0.003 C 
ATOM     30  C   UNL     1      18.925  -4.395  37.061  1.00  0.00     0.004 C 
ENDBRANCH  28  29
ENDBRANCH  27  28
ENDBRANCH  26  27
ENDBRANCH  25  26
ENDBRANCH  24  25
ENDBRANCH  23  24
ENDBRANCH  22  23
ENDBRANCH  21  22
ENDBRANCH  20  21
ENDBRANCH  19  20
ENDBRANCH  18  19
ENDBRANCH  17  18
ENDBRANCH   1  17
TORSDOF 26
ENDMDL
MODEL 5
REMARK VINA RESULT:    -4.964      1.230      4.275
REMARK INTER + INTRA:         -17.557
REMARK INTER:                 -12.716
REMARK INTRA:                  -4.841
REMARK UNBOUND:                -5.048
REMARK SMILES CCCCCCCCCCCCCCCCCCCCCCCCCCCC(=O)[O-]
REMARK SMILES IDX 15 1 16 2 17 3 18 4 19 5 20 6 21 7 22 8 23 9 24 10 25 11
REMARK SMILES IDX 26 12 27 13 28 14 29 15 30 16 14 17 13 18 12 19 11 20 10 21
REMARK SMILES IDX 9 22 8 23 7 24 6 25 5 26 4 27 3 28 2 29 1 30
REMARK H PARENT
REMARK Flexibility Score: inf
ROOT
ATOM      1  C   UNL     1      18.557  -3.540  32.075  1.00  0.00     0.000 C 
ENDROOT
BRANCH   1   2
ATOM      2  C   UNL     1      19.012  -2.677  33.270  1.00  0.00     0.000 C 
BRANCH   2   3
ATOM      3  C   UNL     1      18.684  -3.257  34.660  1.00  0.00     0.000 C 
BRANCH   3   4
ATOM      4  C   UNL     1      18.393  -4.771  34.679  1.00  0.00     0.000 C 
BRANCH   4   5
ATOM      5  C   UNL     1      18.303  -5.398  36.084  1.00  0.00     0.000 C 
BRANCH   5   6
ATOM      6  C   UNL     1      18.417  -4.402  37.256  1.00  0.00     0.000 C 
BRANCH   6   7
ATOM      7  C   UNL     1      19.782  -4.390  37.969  1.00  0.00     0.000 C 
BRANCH   7   8
ATOM      8  C   UNL     1      20.292  -5.772  38.418  1.00  0.00     0.000 C 
BRANCH   8   9
ATOM      9  C   UNL     1      21.817  -5.952  38.267  1.00  0.00     0.000 C 
BRANCH   9  10
ATOM     10  C   UNL     1      22.606  -4.694  38.673  1.00  0.00     0.000 C 
BRANCH  10  11
ATOM     11  C   UNL     1      24.033  -5.020  39.144  1.00  0.00     0.000 C 
BRANCH  11  12
ATOM     12  C   UNL     1      24.552  -6.354  38.578  1.00  0.00     0.006 C 
BRANCH  12  13
ATOM     13  C   UNL     1      25.151  -7.251  39.670  1.00  0.00     0.053 C 
BRANCH  13  14
ATOM     14  C   UNL     1      26.637  -7.083  39.781  1.00  0.00     0.041 C 
ATOM     15  O   UNL     1      27.411  -7.962  39.319  1.00  0.00    -0.550 OA
ATOM     16  O   UNL     1      27.165  -5.959  40.406  1.00  0.00    -0.550 OA
ENDBRANCH  13  14
ENDBRANCH  12  13
ENDBRANCH  11  12
ENDBRANCH  10  11
ENDBRANCH   9  10
ENDBRANCH   8   9
ENDBRANCH   7   8
ENDBRANCH   6   7
ENDBRANCH   5   6
ENDBRANCH   4   5
ENDBRANCH   3   4
ENDBRANCH   2   3
ENDBRANCH   1   2
BRANCH   1  17
ATOM     17  C   UNL     1      19.637  -3.794  31.007  1.00  0.00     0.000 C 
BRANCH  17  18
ATOM     18  C   UNL     1      19.602  -5.225  30.451  1.00  0.00     0.000 C 
BRANCH  18  19
ATOM     19  C   UNL     1      20.784  -6.051  30.982  1.00  0.00     0.000 C 
BRANCH  19  20
ATOM     20  C   UNL     1      20.502  -6.643  32.379  1.00  0.00     0.000 C 
BRANCH  20  21
ATOM     21  C   UNL     1      21.758  -6.774  33.259  1.00  0.00     0.000 C 
BRANCH  21  22
ATOM     22  C   UNL     1      21.713  -5.873  34.504  1.00  0.00    -0.000 C 
BRANCH  22  23
ATOM     23  C   UNL     1      22.225  -4.452  34.222  1.00  0.00    -0.000 C 
BRANCH  23  24
ATOM     24  C   UNL     1      22.090  -3.519  35.441  1.00  0.00    -0.000 C 
BRANCH  24  25
ATOM     25  C   UNL     1      23.326  -2.630  35.645  1.00  0.00    -0.000 C 
BRANCH  25  26
ATOM     26  C   UNL     1      22.973  -1.250  36.222  1.00  0.00    -0.000 C 
BRANCH  26  27
ATOM     27  C   UNL     1      22.171  -0.421  35.207  1.00  0.00    -0.000 C 
BRANCH  27  28
ATOM     28  C   UNL     1      20.805   0.026  35.753  1.00  0.00    -0.000 C 
BRANCH  28  29
ATOM     29  C   UNL     1      20.514  -0.531  37.155  1.00  0.00    -0.003 C 
ATOM     30  C   UNL     1      19.015  -0.725  37.371  1.00  0.00     0.004 C 
ENDBRANCH  28  29
ENDBRANCH  27  28
ENDBRANCH  26  27
ENDBRANCH  25  26
ENDBRANCH  24  25
ENDBRANCH  23  24
ENDBRANCH  22  23
ENDBRANCH  21  22
ENDBRANCH  20  21
ENDBRANCH  19  20
ENDBRANCH  18  19
ENDBRANCH  17  18
ENDBRANCH   1  17
TORSDOF 26
ENDMDL
MODEL 6
REMARK VINA RESULT:    -4.962      1.691      3.716
REMARK INTER + INTRA:         -17.553
REMARK INTER:                 -13.054
REMARK INTRA:                  -4.499
REMARK UNBOUND:                -5.048
REMARK SMILES CCCCCCCCCCCCCCCCCCCCCCCCCCCC(=O)[O-]
REMARK SMILES IDX 15 1 16 2 17 3 18 4 19 5 20 6 21 7 22 8 23 9 24 10 25 11
REMARK SMILES IDX 26 12 27 13 28 14 29 15 30 16 14 17 13 18 12 19 11 20 10 21
REMARK SMILES IDX 9 22 8 23 7 24 6 25 5 26 4 27 3 28 2 29 1 30
REMARK H PARENT
REMARK Flexibility Score: inf
ROOT
ATOM      1  C   UNL     1      21.148  -5.371  36.220  1.00  0.00     0.000 C 
ENDROOT
BRANCH   1   2
ATOM      2  C   UNL     1      20.679  -4.598  37.470  1.00  0.00     0.000 C 
BRANCH   2   3
ATOM      3  C   UNL     1      19.170  -4.284  37.519  1.00  0.00     0.000 C 
BRANCH   3   4
ATOM      4  C   UNL     1      18.269  -5.486  37.861  1.00  0.00     0.000 C 
BRANCH   4   5
ATOM      5  C   UNL     1      17.616  -5.433  39.257  1.00  0.00     0.000 C 
BRANCH   5   6
ATOM      6  C   UNL     1      18.504  -5.928  40.416  1.00  0.00     0.000 C 
BRANCH   6   7
ATOM      7  C   UNL     1      18.880  -7.421  40.357  1.00  0.00     0.000 C 
BRANCH   7   8
ATOM      8  C   UNL     1      20.373  -7.723  40.586  1.00  0.00     0.000 C 
BRANCH   8   9
ATOM      9  C   UNL     1      21.275  -7.340  39.394  1.00  0.00     0.000 C 
BRANCH   9  10
ATOM     10  C   UNL     1      22.772  -7.530  39.699  1.00  0.00     0.000 C 
BRANCH  10  11
ATOM     11  C   UNL     1      23.676  -6.873  38.642  1.00  0.00     0.000 C 
BRANCH  11  12
ATOM     12  C   UNL     1      24.332  -5.576  39.149  1.00  0.00     0.006 C 
BRANCH  12  13
ATOM     13  C   UNL     1      25.317  -5.837  40.297  1.00  0.00     0.053 C 
BRANCH  13  14
ATOM     14  C   UNL     1      26.702  -6.119  39.795  1.00  0.00     0.041 C 
ATOM     15  O   UNL     1      27.472  -5.171  39.490  1.00  0.00    -0.550 OA
ATOM     16  O   UNL     1      27.136  -7.432  39.653  1.00  0.00    -0.550 OA
ENDBRANCH  13  14
ENDBRANCH  12  13
ENDBRANCH  11  12
ENDBRANCH  10  11
ENDBRANCH   9  10
ENDBRANCH   8   9
ENDBRANCH   7   8
ENDBRANCH   6   7
ENDBRANCH   5   6
ENDBRANCH   4   5
ENDBRANCH   3   4
ENDBRANCH   2   3
ENDBRANCH   1   2
BRANCH   1  17
ATOM     17  C   UNL     1      22.438  -4.838  35.571  1.00  0.00     0.000 C 
BRANCH  17  18
ATOM     18  C   UNL     1      23.069  -3.681  36.360  1.00  0.00     0.000 C 
BRANCH  18  19
ATOM     19  C   UNL     1      22.982  -2.365  35.570  1.00  0.00     0.000 C 
BRANCH  19  20
ATOM     20  C   UNL     1      21.818  -1.472  36.047  1.00  0.00     0.000 C 
BRANCH  20  21
ATOM     21  C   UNL     1      20.875  -1.031  34.915  1.00  0.00     0.000 C 
BRANCH  21  22
ATOM     22  C   UNL     1      19.883  -2.129  34.500  1.00  0.00    -0.000 C 
BRANCH  22  23
ATOM     23  C   UNL     1      20.228  -2.752  33.139  1.00  0.00    -0.000 C 
BRANCH  23  24
ATOM     24  C   UNL     1      19.803  -4.229  33.035  1.00  0.00    -0.000 C 
BRANCH  24  25
ATOM     25  C   UNL     1      20.809  -5.080  32.245  1.00  0.00    -0.000 C 
BRANCH  25  26
ATOM     26  C   UNL     1      20.269  -6.482  31.919  1.00  0.00    -0.000 C 
BRANCH  26  27
ATOM     27  C   UNL     1      19.886  -7.235  33.202  1.00  0.00    -0.000 C 
BRANCH  27  28
ATOM     28  C   UNL     1      18.688  -8.177  33.002  1.00  0.00    -0.000 C 
BRANCH  28  29
ATOM     29  C   UNL     1      17.338  -7.474  33.210  1.00  0.00    -0.003 C 
ATOM     30  C   UNL     1      17.377  -6.553  34.427  1.00  0.00     0.004 C 
ENDBRANCH  28  29
ENDBRANCH  27  28
ENDBRANCH  26  27
ENDBRANCH  25  26
ENDBRANCH  24  25
ENDBRANCH  23  24
ENDBRANCH  22  23
ENDBRANCH  21  22
ENDBRANCH  20  21
ENDBRANCH  19  20
ENDBRANCH  18  19
ENDBRANCH  17  18
ENDBRANCH   1  17
TORSDOF 26
ENDMDL
MODEL 7
REMARK VINA RESULT:    -4.953      3.224      7.309
REMARK INTER + INTRA:         -17.529
REMARK INTER:                 -12.050
REMARK INTRA:                  -5.479
REMARK UNBOUND:                -5.048
REMARK SMILES CCCCCCCCCCCCCCCCCCCCCCCCCCCC(=O)[O-]
REMARK SMILES IDX 15 1 16 2 17 3 18 4 19 5 20 6 21 7 22 8 23 9 24 10 25 11
REMARK SMILES IDX 26 12 27 13 28 14 29 15 30 16 14 17 13 18 12 19 11 20 10 21
REMARK SMILES IDX 9 22 8 23 7 24 6 25 5 26 4 27 3 28 2 29 1 30
REMARK H PARENT
REMARK Flexibility Score: inf
ROOT
ATOM      1  C   UNL     1      16.572  -7.228  34.933  1.00  0.00     0.000 C 
ENDROOT
BRANCH   1   2
ATOM      2  C   UNL     1      16.780  -7.936  33.578  1.00  0.00     0.000 C 
BRANCH   2   3
ATOM      3  C   UNL     1      18.251  -8.204  33.199  1.00  0.00     0.000 C 
BRANCH   3   4
ATOM      4  C   UNL     1      18.675  -7.657  31.821  1.00  0.00     0.000 C 
BRANCH   4   5
ATOM      5  C   UNL     1      18.519  -6.132  31.651  1.00  0.00     0.000 C 
BRANCH   5   6
ATOM      6  C   UNL     1      19.562  -5.465  30.732  1.00  0.00     0.000 C 
BRANCH   6   7
ATOM      7  C   UNL     1      20.886  -6.238  30.580  1.00  0.00     0.000 C 
BRANCH   7   8
ATOM      8  C   UNL     1      22.016  -5.780  31.520  1.00  0.00     0.000 C 
BRANCH   8   9
ATOM      9  C   UNL     1      22.059  -6.545  32.860  1.00  0.00     0.000 C 
BRANCH   9  10
ATOM     10  C   UNL     1      21.306  -5.811  33.985  1.00  0.00     0.000 C 
BRANCH  10  11
ATOM     11  C   UNL     1      21.451  -4.283  33.892  1.00  0.00     0.000 C 
BRANCH  11  12
ATOM     12  C   UNL     1      20.188  -3.540  34.364  1.00  0.00     0.006 C 
BRANCH  12  13
ATOM     13  C   UNL     1      19.528  -2.744  33.230  1.00  0.00     0.053 C 
BRANCH  13  14
ATOM     14  C   UNL     1      18.080  -2.470  33.505  1.00  0.00     0.041 C 
ATOM     15  O   UNL     1      17.186  -3.135  32.918  1.00  0.00    -0.550 OA
ATOM     16  O   UNL     1      17.719  -1.473  34.404  1.00  0.00    -0.550 OA
ENDBRANCH  13  14
ENDBRANCH  12  13
ENDBRANCH  11  12
ENDBRANCH  10  11
ENDBRANCH   9  10
ENDBRANCH   8   9
ENDBRANCH   7   8
ENDBRANCH   6   7
ENDBRANCH   5   6
ENDBRANCH   4   5
ENDBRANCH   3   4
ENDBRANCH   2   3
ENDBRANCH   1   2
BRANCH   1  17
ATOM     17  C   UNL     1      17.449  -5.983  35.158  1.00  0.00     0.000 C 
BRANCH  17  18
ATOM     18  C   UNL     1      16.741  -4.894  35.976  1.00  0.00     0.000 C 
BRANCH  18  19
ATOM     19  C   UNL     1      17.678  -4.312  37.047  1.00  0.00     0.000 C 
BRANCH  19  20
ATOM     20  C   UNL     1      18.742  -5.331  37.507  1.00  0.00     0.000 C 
BRANCH  20  21
ATOM     21  C   UNL     1      20.137  -4.715  37.713  1.00  0.00     0.000 C 
BRANCH  21  22
ATOM     22  C   UNL     1      21.153  -5.713  38.291  1.00  0.00    -0.000 C 
BRANCH  22  23
ATOM     23  C   UNL     1      22.333  -5.970  37.341  1.00  0.00    -0.000 C 
BRANCH  23  24
ATOM     24  C   UNL     1      23.529  -5.038  37.613  1.00  0.00    -0.000 C 
BRANCH  24  25
ATOM     25  C   UNL     1      23.391  -3.678  36.912  1.00  0.00    -0.000 C 
BRANCH  25  26
ATOM     26  C   UNL     1      23.027  -2.546  37.886  1.00  0.00    -0.000 C 
BRANCH  26  27
ATOM     27  C   UNL     1      22.237  -1.440  37.170  1.00  0.00    -0.000 C 
BRANCH  27  28
ATOM     28  C   UNL     1      22.751  -1.170  35.747  1.00  0.00    -0.000 C 
BRANCH  28  29
ATOM     29  C   UNL     1      21.835  -0.225  34.953  1.00  0.00    -0.003 C 
ATOM     30  C   UNL     1      20.560   0.089  35.732  1.00  0.00     0.004 C 
ENDBRANCH  28  29
ENDBRANCH  27  28
ENDBRANCH  26  27
ENDBRANCH  25  26
ENDBRANCH  24  25
ENDBRANCH  23  24
ENDBRANCH  22  23
ENDBRANCH  21  22
ENDBRANCH  20  21
ENDBRANCH  19  20
ENDBRANCH  18  19
ENDBRANCH  17  18
ENDBRANCH   1  17
TORSDOF 26
ENDMDL
MODEL 8
REMARK VINA RESULT:    -4.948      1.547      3.814
REMARK INTER + INTRA:         -17.517
REMARK INTER:                 -12.704
REMARK INTRA:                  -4.812
REMARK UNBOUND:                -5.048
REMARK SMILES CCCCCCCCCCCCCCCCCCCCCCCCCCCC(=O)[O-]
REMARK SMILES IDX 15 1 16 2 17 3 18 4 19 5 20 6 21 7 22 8 23 9 24 10 25 11
REMARK SMILES IDX 26 12 27 13 28 14 29 15 30 16 14 17 13 18 12 19 11 20 10 21
REMARK SMILES IDX 9 22 8 23 7 24 6 25 5 26 4 27 3 28 2 29 1 30
REMARK H PARENT
REMARK Flexibility Score: inf
ROOT
ATOM      1  C   UNL     1      21.902  -5.797  33.959  1.00  0.00     0.000 C 
ENDROOT
BRANCH   1   2
ATOM      2  C   UNL     1      20.808  -4.933  34.622  1.00  0.00     0.000 C 
BRANCH   2   3
ATOM      3  C   UNL     1      20.774  -3.459  34.170  1.00  0.00     0.000 C 
BRANCH   3   4
ATOM      4  C   UNL     1      21.346  -2.455  35.190  1.00  0.00     0.000 C 
BRANCH   4   5
ATOM      5  C   UNL     1      22.865  -2.566  35.431  1.00  0.00     0.000 C 
BRANCH   5   6
ATOM      6  C   UNL     1      23.286  -2.706  36.908  1.00  0.00     0.000 C 
BRANCH   6   7
ATOM      7  C   UNL     1      23.401  -4.155  37.418  1.00  0.00     0.000 C 
BRANCH   7   8
ATOM      8  C   UNL     1      22.193  -4.653  38.235  1.00  0.00     0.000 C 
BRANCH   8   9
ATOM      9  C   UNL     1      21.774  -6.101  37.906  1.00  0.00     0.000 C 
BRANCH   9  10
ATOM     10  C   UNL     1      22.891  -7.121  38.193  1.00  0.00     0.000 C 
BRANCH  10  11
ATOM     11  C   UNL     1      23.070  -7.393  39.696  1.00  0.00     0.000 C 
BRANCH  11  12
ATOM     12  C   UNL     1      24.549  -7.516  40.102  1.00  0.00     0.006 C 
BRANCH  12  13
ATOM     13  C   UNL     1      25.472  -6.706  39.181  1.00  0.00     0.053 C 
BRANCH  13  14
ATOM     14  C   UNL     1      26.357  -5.774  39.952  1.00  0.00     0.041 C 
ATOM     15  O   UNL     1      26.253  -5.691  41.205  1.00  0.00    -0.550 OA
ATOM     16  O   UNL     1      27.291  -4.989  39.285  1.00  0.00    -0.550 OA
ENDBRANCH  13  14
ENDBRANCH  12  13
ENDBRANCH  11  12
ENDBRANCH  10  11
ENDBRANCH   9  10
ENDBRANCH   8   9
ENDBRANCH   7   8
ENDBRANCH   6   7
ENDBRANCH   5   6
ENDBRANCH   4   5
ENDBRANCH   3   4
ENDBRANCH   2   3
ENDBRANCH   1   2
BRANCH   1  17
ATOM     17  C   UNL     1      22.346  -5.325  32.563  1.00  0.00     0.000 C 
BRANCH  17  18
ATOM     18  C   UNL     1      22.310  -6.446  31.515  1.00  0.00     0.000 C 
BRANCH  18  19
ATOM     19  C   UNL     1      21.224  -6.178  30.459  1.00  0.00     0.000 C 
BRANCH  19  20
ATOM     20  C   UNL     1      20.186  -5.142  30.939  1.00  0.00     0.000 C 
BRANCH  20  21
ATOM     21  C   UNL     1      18.897  -5.772  31.493  1.00  0.00     0.000 C 
BRANCH  21  22
ATOM     22  C   UNL     1      19.019  -7.288  31.716  1.00  0.00    -0.000 C 
BRANCH  22  23
ATOM     23  C   UNL     1      18.677  -7.702  33.155  1.00  0.00    -0.000 C 
BRANCH  23  24
ATOM     24  C   UNL     1      17.219  -8.174  33.308  1.00  0.00    -0.000 C 
BRANCH  24  25
ATOM     25  C   UNL     1      16.442  -7.363  34.357  1.00  0.00    -0.000 C 
BRANCH  25  26
ATOM     26  C   UNL     1      17.328  -6.344  35.091  1.00  0.00    -0.000 C 
BRANCH  26  27
ATOM     27  C   UNL     1      17.010  -4.912  34.635  1.00  0.00    -0.000 C 
BRANCH  27  28
ATOM     28  C   UNL     1      17.270  -3.868  35.733  1.00  0.00    -0.000 C 
BRANCH  28  29
ATOM     29  C   UNL     1      18.080  -4.433  36.910  1.00  0.00    -0.003 C 
ATOM     30  C   UNL     1      18.738  -3.313  37.713  1.00  0.00     0.004 C 
ENDBRANCH  28  29
ENDBRANCH  27  28
ENDBRANCH  26  27
ENDBRANCH  25  26
ENDBRANCH  24  25
ENDBRANCH  23  24
ENDBRANCH  22  23
ENDBRANCH  21  22
ENDBRANCH  20  21
ENDBRANCH  19  20
ENDBRANCH  18  19
ENDBRANCH  17  18
ENDBRANCH   1  17
TORSDOF 26
ENDMDL
MODEL 9
REMARK VINA RESULT:    -4.931      1.867      4.939
REMARK INTER + INTRA:         -17.474
REMARK INTER:                 -12.740
REMARK INTRA:                  -4.734
REMARK UNBOUND:                -5.048
REMARK SMILES CCCCCCCCCCCCCCCCCCCCCCCCCCCC(=O)[O-]
REMARK SMILES IDX 15 1 16 2 17 3 18 4 19 5 20 6 21 7 22 8 23 9 24 10 25 11
REMARK SMILES IDX 26 12 27 13 28 14 29 15 30 16 14 17 13 18 12 19 11 20 10 21
REMARK SMILES IDX 9 22 8 23 7 24 6 25 5 26 4 27 3 28 2 29 1 30
REMARK H PARENT
REMARK Flexibility Score: inf
ROOT
ATOM      1  C   UNL     1      18.991  -7.331  32.663  1.00  0.00     0.000 C 
ENDROOT
BRANCH   1   2
ATOM      2  C   UNL     1      17.998  -8.394  33.179  1.00  0.00     0.000 C 
BRANCH   2   3
ATOM      3  C   UNL     1      16.554  -7.896  33.389  1.00  0.00     0.000 C 
BRANCH   3   4
ATOM      4  C   UNL     1      15.973  -8.167  34.791  1.00  0.00     0.000 C 
BRANCH   4   5
ATOM      5  C   UNL     1      16.279  -7.082  35.843  1.00  0.00     0.000 C 
BRANCH   5   6
ATOM      6  C   UNL     1      16.395  -5.647  35.291  1.00  0.00     0.000 C 
BRANCH   6   7
ATOM      7  C   UNL     1      17.683  -4.899  35.684  1.00  0.00     0.000 C 
BRANCH   7   8
ATOM      8  C   UNL     1      18.357  -5.403  36.974  1.00  0.00     0.000 C 
BRANCH   8   9
ATOM      9  C   UNL     1      19.568  -4.555  37.416  1.00  0.00     0.000 C 
BRANCH   9  10
ATOM     10  C   UNL     1      20.626  -5.381  38.171  1.00  0.00     0.000 C 
BRANCH  10  11
ATOM     11  C   UNL     1      21.630  -6.058  37.224  1.00  0.00     0.000 C 
BRANCH  11  12
ATOM     12  C   UNL     1      23.058  -5.504  37.382  1.00  0.00     0.006 C 
BRANCH  12  13
ATOM     13  C   UNL     1      23.299  -4.920  38.781  1.00  0.00     0.053 C 
BRANCH  13  14
ATOM     14  C   UNL     1      24.080  -5.856  39.653  1.00  0.00     0.041 C 
ATOM     15  O   UNL     1      24.940  -5.407  40.456  1.00  0.00    -0.550 OA
ATOM     16  O   UNL     1      23.865  -7.227  39.569  1.00  0.00    -0.550 OA
ENDBRANCH  13  14
ENDBRANCH  12  13
ENDBRANCH  11  12
ENDBRANCH  10  11
ENDBRANCH   9  10
ENDBRANCH   8   9
ENDBRANCH   7   8
ENDBRANCH   6   7
ENDBRANCH   5   6
ENDBRANCH   4   5
ENDBRANCH   3   4
ENDBRANCH   2   3
ENDBRANCH   1   2
BRANCH   1  17
ATOM     17  C   UNL     1      18.341  -6.047  32.116  1.00  0.00     0.000 C 
BRANCH  17  18
ATOM     18  C   UNL     1      19.102  -5.457  30.919  1.00  0.00     0.000 C 
BRANCH  18  19
ATOM     19  C   UNL     1      20.042  -6.502  30.295  1.00  0.00     0.000 C 
BRANCH  19  20
ATOM     20  C   UNL     1      21.417  -5.905  29.930  1.00  0.00     0.000 C 
BRANCH  20  21
ATOM     21  C   UNL     1      22.214  -5.403  31.146  1.00  0.00     0.000 C 
BRANCH  21  22
ATOM     22  C   UNL     1      22.597  -6.531  32.118  1.00  0.00    -0.000 C 
BRANCH  22  23
ATOM     23  C   UNL     1      22.323  -6.164  33.585  1.00  0.00    -0.000 C 
BRANCH  23  24
ATOM     24  C   UNL     1      22.131  -4.650  33.793  1.00  0.00    -0.000 C 
BRANCH  24  25
ATOM     25  C   UNL     1      20.660  -4.264  34.011  1.00  0.00    -0.000 C 
BRANCH  25  26
ATOM     26  C   UNL     1      20.328  -2.868  33.461  1.00  0.00    -0.000 C 
BRANCH  26  27
ATOM     27  C   UNL     1      19.590  -2.026  34.513  1.00  0.00    -0.000 C 
BRANCH  27  28
ATOM     28  C   UNL     1      20.544  -1.368  35.522  1.00  0.00    -0.000 C 
BRANCH  28  29
ATOM     29  C   UNL     1      21.587  -0.461  34.851  1.00  0.00    -0.003 C 
ATOM     30  C   UNL     1      22.789  -0.232  35.764  1.00  0.00     0.004 C 
ENDBRANCH  28  29
ENDBRANCH  27  28
ENDBRANCH  26  27
ENDBRANCH  25  26
ENDBRANCH  24  25
ENDBRANCH  23  24
ENDBRANCH  22  23
ENDBRANCH  21  22
ENDBRANCH  20  21
ENDBRANCH  19  20
ENDBRANCH  18  19
ENDBRANCH  17  18
ENDBRANCH   1  17
TORSDOF 26
ENDMDL
