MODEL 1
REMARK VINA RESULT:    -4.012      0.000      0.000
REMARK INTER + INTRA:          -6.528
REMARK INTER:                  -6.123
REMARK INTRA:                  -0.405
REMARK UNBOUND:                -0.405
REMARK SMILES CCCCCCCCCCC(=O)[O-]
REMARK SMILES IDX 7 1 8 2 9 3 10 4 11 5 12 6 13 7 6 8 5 9 4 10 3 11 2 12 1 13
REMARK H PARENT
REMARK Flexibility Score: inf
ROOT
ATOM      1  C   UNL     1      25.653   4.787  41.334  1.00  0.00     0.000 C 
ENDROOT
BRANCH   1   2
ATOM      2  C   UNL     1      26.968   5.562  41.526  1.00  0.00     0.000 C 
BRANCH   2   3
ATOM      3  C   UNL     1      28.209   4.697  41.249  1.00  0.00     0.006 C 
BRANCH   3   4
ATOM      4  C   UNL     1      29.425   5.527  40.813  1.00  0.00     0.053 C 
BRANCH   4   5
ATOM      5  C   UNL     1      30.175   4.822  39.729  1.00  0.00     0.041 C 
ATOM      6  O   UNL     1      31.403   5.049  39.557  1.00  0.00    -0.550 OA
ATOM      7  O   UNL     1      29.510   3.951  38.875  1.00  0.00    -0.550 OA
ENDBRANCH   4   5
ENDBRANCH   3   4
ENDBRANCH   2   3
ENDBRANCH   1   2
BRANCH   1   8
ATOM      8  C   UNL     1      25.703   3.835  40.127  1.00  0.00     0.000 C 
BRANCH   8   9
ATOM      9  C   UNL     1      24.773   2.621  40.297  1.00  0.00    -0.000 C 
BRANCH   9  10
ATOM     10  C   UNL     1      23.770   2.468  39.138  1.00  0.00    -0.000 C 
BRANCH  10  11
ATOM     11  C   UNL     1      23.169   1.061  38.976  1.00  0.00    -0.000 C 
BRANCH  11  12
ATOM     12  C   UNL     1      23.597   0.094  40.090  1.00  0.00    -0.003 C 
ATOM     13  C   UNL     1      23.898  -1.292  39.529  1.00  0.00     0.004 C 
ENDBRANCH  11  12
ENDBRANCH  10  11
ENDBRANCH   9  10
ENDBRANCH   8   9
ENDBRANCH   1   8
TORSDOF 9
ENDMDL
MODEL 2
REMARK VINA RESULT:    -3.930      6.582      8.832
REMARK INTER + INTRA:          -6.403
REMARK INTER:                  -5.797
REMARK INTRA:                  -0.605
REMARK UNBOUND:                -0.405
REMARK SMILES CCCCCCCCCCC(=O)[O-]
REMARK SMILES IDX 7 1 8 2 9 3 10 4 11 5 12 6 13 7 6 8 5 9 4 10 3 11 2 12 1 13
REMARK H PARENT
REMARK Flexibility Score: inf
ROOT
ATOM      1  C   UNL     1      32.600   5.950  45.057  1.00  0.00     0.000 C 
ENDROOT
BRANCH   1   2
ATOM      2  C   UNL     1      31.384   5.100  44.647  1.00  0.00     0.000 C 
BRANCH   2   3
ATOM      3  C   UNL     1      31.245   4.965  43.121  1.00  0.00     0.006 C 
BRANCH   3   4
ATOM      4  C   UNL     1      32.192   5.899  42.355  1.00  0.00     0.053 C 
BRANCH   4   5
ATOM      5  C   UNL     1      32.679   5.236  41.106  1.00  0.00     0.041 C 
ATOM      6  O   UNL     1      33.907   4.997  40.953  1.00  0.00    -0.550 OA
ATOM      7  O   UNL     1      31.785   4.927  40.088  1.00  0.00    -0.550 OA
ENDBRANCH   4   5
ENDBRANCH   3   4
ENDBRANCH   2   3
ENDBRANCH   1   2
BRANCH   1   8
ATOM      8  C   UNL     1      32.305   6.853  46.266  1.00  0.00     0.000 C 
BRANCH   8   9
ATOM      9  C   UNL     1      30.815   6.860  46.647  1.00  0.00    -0.000 C 
BRANCH   9  10
ATOM     10  C   UNL     1      30.539   6.171  47.996  1.00  0.00    -0.000 C 
BRANCH  10  11
ATOM     11  C   UNL     1      31.791   5.703  48.759  1.00  0.00    -0.000 C 
BRANCH  11  12
ATOM     12  C   UNL     1      31.515   4.519  49.697  1.00  0.00    -0.003 C 
ATOM     13  C   UNL     1      32.252   3.266  49.235  1.00  0.00     0.004 C 
ENDBRANCH  11  12
ENDBRANCH  10  11
ENDBRANCH   9  10
ENDBRANCH   8   9
ENDBRANCH   1   8
TORSDOF 9
ENDMDL
MODEL 3
REMARK VINA RESULT:    -3.919     16.490     17.344
REMARK INTER + INTRA:          -6.387
REMARK INTER:                  -6.044
REMARK INTRA:                  -0.343
REMARK UNBOUND:                -0.405
REMARK SMILES CCCCCCCCCCC(=O)[O-]
REMARK SMILES IDX 7 1 8 2 9 3 10 4 11 5 12 6 13 7 6 8 5 9 4 10 3 11 2 12 1 13
REMARK H PARENT
REMARK Flexibility Score: inf
ROOT
ATOM      1  C   UNL     1      24.037  -4.242  54.333  1.00  0.00     0.000 C 
ENDROOT
BRANCH   1   2
ATOM      2  C   UNL     1      24.811  -3.759  55.572  1.00  0.00     0.000 C 
BRANCH   2   3
ATOM      3  C   UNL     1      24.024  -2.723  56.392  1.00  0.00     0.006 C 
BRANCH   3   4
ATOM      4  C   UNL     1      22.628  -2.449  55.818  1.00  0.00     0.053 C 
BRANCH   4   5
ATOM      5  C   UNL     1      22.192  -1.057  56.148  1.00  0.00     0.041 C 
ATOM      6  O   UNL     1      22.230  -0.646  57.338  1.00  0.00    -0.550 OA
ATOM      7  O   UNL     1      21.697  -0.227  55.149  1.00  0.00    -0.550 OA
ENDBRANCH   4   5
ENDBRANCH   3   4
ENDBRANCH   2   3
ENDBRANCH   1   2
BRANCH   1   8
ATOM      8  C   UNL     1      24.704  -5.452  53.657  1.00  0.00     0.000 C 
BRANCH   8   9
ATOM      9  C   UNL     1      26.147  -5.673  54.140  1.00  0.00    -0.000 C 
BRANCH   9  10
ATOM     10  C   UNL     1      27.081  -6.177  53.024  1.00  0.00    -0.000 C 
BRANCH  10  11
ATOM     11  C   UNL     1      28.575  -5.869  53.234  1.00  0.00    -0.000 C 
BRANCH  11  12
ATOM     12  C   UNL     1      29.491  -6.683  52.309  1.00  0.00    -0.003 C 
ATOM     13  C   UNL     1      30.588  -7.388  53.101  1.00  0.00     0.004 C 
ENDBRANCH  11  12
ENDBRANCH  10  11
ENDBRANCH   9  10
ENDBRANCH   8   9
ENDBRANCH   1   8
TORSDOF 9
ENDMDL
MODEL 4
REMARK VINA RESULT:    -3.894     16.809     17.920
REMARK INTER + INTRA:          -6.348
REMARK INTER:                  -5.325
REMARK INTRA:                  -1.023
REMARK UNBOUND:                -0.405
REMARK SMILES CCCCCCCCCCC(=O)[O-]
REMARK SMILES IDX 7 1 8 2 9 3 10 4 11 5 12 6 13 7 6 8 5 9 4 10 3 11 2 12 1 13
REMARK H PARENT
REMARK Flexibility Score: inf
ROOT
ATOM      1  C   UNL     1      23.678  -1.959  55.903  1.00  0.00     0.000 C 
ENDROOT
BRANCH   1   2
ATOM      2  C   UNL     1      23.292  -2.363  54.469  1.00  0.00     0.000 C 
BRANCH   2   3
ATOM      3  C   UNL     1      23.058  -3.876  54.326  1.00  0.00     0.006 C 
BRANCH   3   4
ATOM      4  C   UNL     1      23.719  -4.462  53.071  1.00  0.00     0.053 C 
BRANCH   4   5
ATOM      5  C   UNL     1      24.379  -5.766  53.389  1.00  0.00     0.041 C 
ATOM      6  O   UNL     1      25.619  -5.812  53.606  1.00  0.00    -0.550 OA
ATOM      7  O   UNL     1      23.635  -6.939  53.398  1.00  0.00    -0.550 OA
ENDBRANCH   4   5
ENDBRANCH   3   4
ENDBRANCH   2   3
ENDBRANCH   1   2
BRANCH   1   8
ATOM      8  C   UNL     1      24.380  -3.094  56.666  1.00  0.00     0.000 C 
BRANCH   8   9
ATOM      9  C   UNL     1      23.716  -3.392  58.020  1.00  0.00    -0.000 C 
BRANCH   9  10
ATOM     10  C   UNL     1      22.265  -2.882  58.101  1.00  0.00    -0.000 C 
BRANCH  10  11
ATOM     11  C   UNL     1      21.193  -3.887  57.644  1.00  0.00    -0.000 C 
BRANCH  11  12
ATOM     12  C   UNL     1      19.906  -3.209  57.152  1.00  0.00    -0.003 C 
ATOM     13  C   UNL     1      20.153  -1.744  56.807  1.00  0.00     0.004 C 
ENDBRANCH  11  12
ENDBRANCH  10  11
ENDBRANCH   9  10
ENDBRANCH   8   9
ENDBRANCH   1   8
TORSDOF 9
ENDMDL
MODEL 5
REMARK VINA RESULT:    -3.876     16.635     17.728
REMARK INTER + INTRA:          -6.321
REMARK INTER:                  -5.154
REMARK INTRA:                  -1.167
REMARK UNBOUND:                -0.405
REMARK SMILES CCCCCCCCCCC(=O)[O-]
REMARK SMILES IDX 7 1 8 2 9 3 10 4 11 5 12 6 13 7 6 8 5 9 4 10 3 11 2 12 1 13
REMARK H PARENT
REMARK Flexibility Score: inf
ROOT
ATOM      1  C   UNL     1      23.685  -3.629  57.117  1.00  0.00     0.000 C 
ENDROOT
BRANCH   1   2
ATOM      2  C   UNL     1      24.383  -2.832  56.000  1.00  0.00     0.000 C 
BRANCH   2   3
ATOM      3  C   UNL     1      23.753  -3.077  54.618  1.00  0.00     0.006 C 
BRANCH   3   4
ATOM      4  C   UNL     1      23.206  -4.503  54.461  1.00  0.00     0.053 C 
BRANCH   4   5
ATOM      5  C   UNL     1      24.029  -5.272  53.477  1.00  0.00     0.041 C 
ATOM      6  O   UNL     1      25.235  -5.537  53.729  1.00  0.00    -0.550 OA
ATOM      7  O   UNL     1      23.481  -5.653  52.258  1.00  0.00    -0.550 OA
ENDBRANCH   4   5
ENDBRANCH   3   4
ENDBRANCH   2   3
ENDBRANCH   1   2
BRANCH   1   8
ATOM      8  C   UNL     1      22.962  -2.720  58.124  1.00  0.00     0.000 C 
BRANCH   8   9
ATOM      9  C   UNL     1      21.431  -2.822  58.015  1.00  0.00    -0.000 C 
BRANCH   9  10
ATOM     10  C   UNL     1      20.775  -1.507  57.557  1.00  0.00    -0.000 C 
BRANCH  10  11
ATOM     11  C   UNL     1      21.723  -0.510  56.866  1.00  0.00    -0.000 C 
BRANCH  11  12
ATOM     12  C   UNL     1      21.427  -0.340  55.369  1.00  0.00    -0.003 C 
ATOM     13  C   UNL     1      20.470  -1.418  54.871  1.00  0.00     0.004 C 
ENDBRANCH  11  12
ENDBRANCH  10  11
ENDBRANCH   9  10
ENDBRANCH   8   9
ENDBRANCH   1   8
TORSDOF 9
ENDMDL
MODEL 6
REMARK VINA RESULT:    -3.860     16.721     17.798
REMARK INTER + INTRA:          -6.296
REMARK INTER:                  -5.775
REMARK INTRA:                  -0.521
REMARK UNBOUND:                -0.405
REMARK SMILES CCCCCCCCCCC(=O)[O-]
REMARK SMILES IDX 7 1 8 2 9 3 10 4 11 5 12 6 13 7 6 8 5 9 4 10 3 11 2 12 1 13
REMARK H PARENT
REMARK Flexibility Score: inf
ROOT
ATOM      1  C   UNL     1      24.044  -3.567  55.512  1.00  0.00     0.000 C 
ENDROOT
BRANCH   1   2
ATOM      2  C   UNL     1      24.020  -2.449  56.570  1.00  0.00     0.000 C 
BRANCH   2   3
ATOM      3  C   UNL     1      23.461  -2.928  57.921  1.00  0.00     0.006 C 
BRANCH   3   4
ATOM      4  C   UNL     1      21.928  -2.881  57.979  1.00  0.00     0.053 C 
BRANCH   4   5
ATOM      5  C   UNL     1      21.426  -1.574  57.452  1.00  0.00     0.041 C 
ATOM      6  O   UNL     1      20.775  -1.533  56.375  1.00  0.00    -0.550 OA
ATOM      7  O   UNL     1      21.720  -0.394  58.125  1.00  0.00    -0.550 OA
ENDBRANCH   4   5
ENDBRANCH   3   4
ENDBRANCH   2   3
ENDBRANCH   1   2
BRANCH   1   8
ATOM      8  C   UNL     1      23.476  -3.107  54.159  1.00  0.00     0.000 C 
BRANCH   8   9
ATOM      9  C   UNL     1      23.219  -4.282  53.200  1.00  0.00    -0.000 C 
BRANCH   9  10
ATOM     10  C   UNL     1      24.061  -5.526  53.537  1.00  0.00    -0.000 C 
BRANCH  10  11
ATOM     11  C   UNL     1      25.469  -5.550  52.915  1.00  0.00    -0.000 C 
BRANCH  11  12
ATOM     12  C   UNL     1      26.562  -5.938  53.922  1.00  0.00    -0.003 C 
ATOM     13  C   UNL     1      27.920  -6.066  53.237  1.00  0.00     0.004 C 
ENDBRANCH  11  12
ENDBRANCH  10  11
ENDBRANCH   9  10
ENDBRANCH   8   9
ENDBRANCH   1   8
TORSDOF 9
ENDMDL
MODEL 7
REMARK VINA RESULT:    -3.856     16.556     17.583
REMARK INTER + INTRA:          -6.290
REMARK INTER:                  -4.973
REMARK INTRA:                  -1.316
REMARK UNBOUND:                -0.405
REMARK SMILES CCCCCCCCCCC(=O)[O-]
REMARK SMILES IDX 7 1 8 2 9 3 10 4 11 5 12 6 13 7 6 8 5 9 4 10 3 11 2 12 1 13
REMARK H PARENT
REMARK Flexibility Score: inf
ROOT
ATOM      1  C   UNL     1      22.538  -1.703  54.669  1.00  0.00     0.000 C 
ENDROOT
BRANCH   1   2
ATOM      2  C   UNL     1      23.791  -2.058  55.491  1.00  0.00     0.000 C 
BRANCH   2   3
ATOM      3  C   UNL     1      24.058  -3.572  55.537  1.00  0.00     0.006 C 
BRANCH   3   4
ATOM      4  C   UNL     1      23.165  -4.361  54.568  1.00  0.00     0.053 C 
BRANCH   4   5
ATOM      5  C   UNL     1      23.966  -4.849  53.403  1.00  0.00     0.041 C 
ATOM      6  O   UNL     1      24.124  -4.116  52.390  1.00  0.00    -0.550 OA
ATOM      7  O   UNL     1      24.496  -6.134  53.412  1.00  0.00    -0.550 OA
ENDBRANCH   4   5
ENDBRANCH   3   4
ENDBRANCH   2   3
ENDBRANCH   1   2
BRANCH   1   8
ATOM      8  C   UNL     1      21.692  -0.603  55.332  1.00  0.00     0.000 C 
BRANCH   8   9
ATOM      9  C   UNL     1      21.880  -0.556  56.858  1.00  0.00    -0.000 C 
BRANCH   9  10
ATOM     10  C   UNL     1      20.863  -1.430  57.614  1.00  0.00    -0.000 C 
BRANCH  10  11
ATOM     11  C   UNL     1      21.410  -2.775  58.125  1.00  0.00    -0.000 C 
BRANCH  11  12
ATOM     12  C   UNL     1      20.529  -3.969  57.730  1.00  0.00    -0.003 C 
ATOM     13  C   UNL     1      19.899  -3.758  56.357  1.00  0.00     0.004 C 
ENDBRANCH  11  12
ENDBRANCH  10  11
ENDBRANCH   9  10
ENDBRANCH   8   9
ENDBRANCH   1   8
TORSDOF 9
ENDMDL
MODEL 8
REMARK VINA RESULT:    -3.802      3.405      6.556
REMARK INTER + INTRA:          -6.208
REMARK INTER:                  -5.539
REMARK INTRA:                  -0.669
REMARK UNBOUND:                -0.405
REMARK SMILES CCCCCCCCCCC(=O)[O-]
REMARK SMILES IDX 7 1 8 2 9 3 10 4 11 5 12 6 13 7 6 8 5 9 4 10 3 11 2 12 1 13
REMARK H PARENT
REMARK Flexibility Score: inf
ROOT
ATOM      1  C   UNL     1      26.624   3.878  41.267  1.00  0.00     0.000 C 
ENDROOT
BRANCH   1   2
ATOM      2  C   UNL     1      26.367   3.499  39.798  1.00  0.00     0.000 C 
BRANCH   2   3
ATOM      3  C   UNL     1      24.876   3.262  39.502  1.00  0.00     0.006 C 
BRANCH   3   4
ATOM      4  C   UNL     1      24.282   2.115  40.330  1.00  0.00     0.053 C 
BRANCH   4   5
ATOM      5  C   UNL     1      23.631   1.108  39.436  1.00  0.00     0.041 C 
ATOM      6  O   UNL     1      22.853   1.484  38.520  1.00  0.00    -0.550 OA
ATOM      7  O   UNL     1      23.844  -0.249  39.644  1.00  0.00    -0.550 OA
ENDBRANCH   4   5
ENDBRANCH   3   4
ENDBRANCH   2   3
ENDBRANCH   1   2
BRANCH   1   8
ATOM      8  C   UNL     1      26.617   5.399  41.493  1.00  0.00     0.000 C 
BRANCH   8   9
ATOM      9  C   UNL     1      27.943   5.913  42.076  1.00  0.00    -0.000 C 
BRANCH   9  10
ATOM     10  C   UNL     1      29.123   4.959  41.813  1.00  0.00    -0.000 C 
BRANCH  10  11
ATOM     11  C   UNL     1      30.428   5.642  41.366  1.00  0.00    -0.000 C 
BRANCH  11  12
ATOM     12  C   UNL     1      31.010   5.040  40.079  1.00  0.00    -0.003 C 
ATOM     13  C   UNL     1      29.902   4.590  39.132  1.00  0.00     0.004 C 
ENDBRANCH  11  12
ENDBRANCH  10  11
ENDBRANCH   9  10
ENDBRANCH   8   9
ENDBRANCH   1   8
TORSDOF 9
ENDMDL
MODEL 9
REMARK VINA RESULT:    -3.742     17.115     18.296
REMARK INTER + INTRA:          -6.116
REMARK INTER:                  -4.809
REMARK INTRA:                  -1.307
REMARK UNBOUND:                -0.405
REMARK SMILES CCCCCCCCCCC(=O)[O-]
REMARK SMILES IDX 7 1 8 2 9 3 10 4 11 5 12 6 13 7 6 8 5 9 4 10 3 11 2 12 1 13
REMARK H PARENT
REMARK Flexibility Score: inf
ROOT
ATOM      1  C   UNL     1      22.499  -2.588  58.013  1.00  0.00     0.000 C 
ENDROOT
BRANCH   1   2
ATOM      2  C   UNL     1      21.307  -3.556  57.913  1.00  0.00     0.000 C 
BRANCH   2   3
ATOM      3  C   UNL     1      20.290  -3.131  56.840  1.00  0.00     0.006 C 
BRANCH   3   4
ATOM      4  C   UNL     1      20.222  -1.608  56.658  1.00  0.00     0.053 C 
BRANCH   4   5
ATOM      5  C   UNL     1      19.553  -1.267  55.365  1.00  0.00     0.041 C 
ATOM      6  O   UNL     1      20.243  -1.004  54.344  1.00  0.00    -0.550 OA
ATOM      7  O   UNL     1      18.167  -1.191  55.297  1.00  0.00    -0.550 OA
ENDBRANCH   4   5
ENDBRANCH   3   4
ENDBRANCH   2   3
ENDBRANCH   1   2
BRANCH   1   8
ATOM      8  C   UNL     1      23.853  -3.314  57.943  1.00  0.00     0.000 C 
BRANCH   8   9
ATOM      9  C   UNL     1      24.562  -3.109  56.593  1.00  0.00    -0.000 C 
BRANCH   9  10
ATOM     10  C   UNL     1      23.811  -2.137  55.664  1.00  0.00    -0.000 C 
BRANCH  10  11
ATOM     11  C   UNL     1      23.277  -2.760  54.362  1.00  0.00    -0.000 C 
BRANCH  11  12
ATOM     12  C   UNL     1      23.533  -4.271  54.270  1.00  0.00    -0.003 C 
ATOM     13  C   UNL     1      22.227  -5.056  54.349  1.00  0.00     0.004 C 
ENDBRANCH  11  12
ENDBRANCH  10  11
ENDBRANCH   9  10
ENDBRANCH   8   9
ENDBRANCH   1   8
TORSDOF 9
ENDMDL
