MODEL 1
REMARK VINA RESULT:    -4.517      0.000      0.000
REMARK INTER + INTRA:          -4.517
REMARK INTER:                  -4.517
REMARK INTRA:                   0.000
REMARK UNBOUND:                 0.000
REMARK SMILES C=C1CCC[C@@]2(C)CC(=O)C(=C(C)C)C[C@@H]12
REMARK SMILES IDX 13 1 12 2 11 3 15 4 16 5 2 6 1 7 3 8 4 9 5 10 6 11 8 12 9 13
REMARK SMILES IDX 10 14 7 15 14 16
REMARK H PARENT
REMARK Flexibility Score: inf
ROOT
ATOM      1  C   UNL     1     200.374 153.614 163.427  1.00  0.00     0.039 C 
ATOM      2  C   UNL     1     200.150 152.261 164.064  1.00  0.00    -0.070 C 
ATOM      3  C   UNL     1     199.628 151.224 163.346  1.00  0.00    -0.006 C 
ATOM      4  C   UNL     1     199.309 151.348 161.865  1.00  0.00     0.047 C 
ATOM      5  C   UNL     1     198.076 150.492 161.477  1.00  0.00     0.025 C 
ATOM      6  C   UNL     1     197.799 150.683 159.990  1.00  0.00    -0.073 C 
ATOM      7  C   UNL     1     197.022 151.696 159.574  1.00  0.00     0.008 C 
ATOM      8  C   UNL     1     198.458 149.800 158.955  1.00  0.00     0.031 C 
ATOM      9  C   UNL     1     199.217 148.635 159.589  1.00  0.00     0.005 C 
ATOM     10  C   UNL     1     198.371 148.003 160.694  1.00  0.00     0.008 C 
ATOM     11  C   UNL     1     198.178 148.963 161.911  1.00  0.00    -0.018 C 
ATOM     12  C   UNL     1     199.348 148.723 162.914  1.00  0.00     0.088 C 
ATOM     13  C   UNL     1     199.464 149.851 163.892  1.00  0.00     0.159 C 
ATOM     14  O   UNL     1     199.378 149.616 165.126  1.00  0.00    -0.295 OA
ATOM     15  C   UNL     1     196.860 148.558 162.617  1.00  0.00     0.012 C 
ATOM     16  C   UNL     1     200.565 152.103 165.509  1.00  0.00     0.039 C 
ENDROOT
TORSDOF 0
ENDMDL
MODEL 2
REMARK VINA RESULT:    -4.409     15.406     17.517
REMARK INTER + INTRA:          -4.409
REMARK INTER:                  -4.409
REMARK INTRA:                   0.000
REMARK UNBOUND:                 0.000
REMARK SMILES C=C1CCC[C@@]2(C)CC(=O)C(=C(C)C)C[C@@H]12
REMARK SMILES IDX 13 1 12 2 11 3 15 4 16 5 2 6 1 7 3 8 4 9 5 10 6 11 8 12 9 13
REMARK SMILES IDX 10 14 7 15 14 16
REMARK H PARENT
REMARK Flexibility Score: inf
ROOT
ATOM      1  C   UNL     1     214.843 148.054 172.036  1.00  0.00     0.039 C 
ATOM      2  C   UNL     1     213.605 148.429 171.252  1.00  0.00    -0.070 C 
ATOM      3  C   UNL     1     213.331 149.731 170.949  1.00  0.00    -0.006 C 
ATOM      4  C   UNL     1     214.279 150.861 171.318  1.00  0.00     0.047 C 
ATOM      5  C   UNL     1     213.507 152.165 171.646  1.00  0.00     0.025 C 
ATOM      6  C   UNL     1     214.513 153.244 172.030  1.00  0.00    -0.073 C 
ATOM      7  C   UNL     1     214.923 153.360 173.304  1.00  0.00     0.008 C 
ATOM      8  C   UNL     1     215.134 154.139 170.982  1.00  0.00     0.031 C 
ATOM      9  C   UNL     1     214.485 153.958 169.610  1.00  0.00     0.005 C 
ATOM     10  C   UNL     1     212.965 153.907 169.757  1.00  0.00     0.008 C 
ATOM     11  C   UNL     1     212.488 152.624 170.511  1.00  0.00    -0.018 C 
ATOM     12  C   UNL     1     212.247 151.499 169.459  1.00  0.00     0.088 C 
ATOM     13  C   UNL     1     212.179 150.153 170.111  1.00  0.00     0.159 C 
ATOM     14  O   UNL     1     211.146 149.445 169.971  1.00  0.00    -0.295 OA
ATOM     15  C   UNL     1     211.125 152.954 171.171  1.00  0.00     0.012 C 
ATOM     16  C   UNL     1     212.714 147.298 170.791  1.00  0.00     0.039 C 
ENDROOT
TORSDOF 0
ENDMDL
MODEL 3
REMARK VINA RESULT:    -4.362      1.373      4.947
REMARK INTER + INTRA:          -4.362
REMARK INTER:                  -4.362
REMARK INTRA:                   0.000
REMARK UNBOUND:                 0.000
REMARK SMILES C=C1CCC[C@@]2(C)CC(=O)C(=C(C)C)C[C@@H]12
REMARK SMILES IDX 13 1 12 2 11 3 15 4 16 5 2 6 1 7 3 8 4 9 5 10 6 11 8 12 9 13
REMARK SMILES IDX 10 14 7 15 14 16
REMARK H PARENT
REMARK Flexibility Score: inf
ROOT
ATOM      1  C   UNL     1     197.918 150.406 160.347  1.00  0.00     0.039 C 
ATOM      2  C   UNL     1     198.036 149.998 161.797  1.00  0.00    -0.070 C 
ATOM      3  C   UNL     1     198.849 150.680 162.657  1.00  0.00    -0.006 C 
ATOM      4  C   UNL     1     199.621 151.916 162.226  1.00  0.00     0.047 C 
ATOM      5  C   UNL     1     200.981 152.022 162.963  1.00  0.00     0.025 C 
ATOM      6  C   UNL     1     201.710 153.265 162.466  1.00  0.00    -0.073 C 
ATOM      7  C   UNL     1     202.492 153.197 161.376  1.00  0.00     0.008 C 
ATOM      8  C   UNL     1     201.501 154.607 163.129  1.00  0.00     0.031 C 
ATOM      9  C   UNL     1     200.678 154.497 164.411  1.00  0.00     0.005 C 
ATOM     10  C   UNL     1     201.168 153.311 165.243  1.00  0.00     0.008 C 
ATOM     11  C   UNL     1     200.872 151.942 164.550  1.00  0.00    -0.018 C 
ATOM     12  C   UNL     1     199.464 151.455 165.010  1.00  0.00     0.088 C 
ATOM     13  C   UNL     1     198.941 150.380 164.109  1.00  0.00     0.159 C 
ATOM     14  O   UNL     1     198.641 149.256 164.591  1.00  0.00    -0.295 OA
ATOM     15  C   UNL     1     201.918 150.924 165.069  1.00  0.00     0.012 C 
ATOM     16  C   UNL     1     197.188 148.834 162.256  1.00  0.00     0.039 C 
ENDROOT
TORSDOF 0
ENDMDL
MODEL 4
REMARK VINA RESULT:    -4.361      1.923      5.486
REMARK INTER + INTRA:          -4.361
REMARK INTER:                  -4.361
REMARK INTRA:                   0.000
REMARK UNBOUND:                 0.000
REMARK SMILES C=C1CCC[C@@]2(C)CC(=O)C(=C(C)C)C[C@@H]12
REMARK SMILES IDX 13 1 12 2 11 3 15 4 16 5 2 6 1 7 3 8 4 9 5 10 6 11 8 12 9 13
REMARK SMILES IDX 10 14 7 15 14 16
REMARK H PARENT
REMARK Flexibility Score: inf
ROOT
ATOM      1  C   UNL     1     197.045 149.313 162.164  1.00  0.00     0.039 C 
ATOM      2  C   UNL     1     197.828 150.368 161.417  1.00  0.00    -0.070 C 
ATOM      3  C   UNL     1     198.888 151.003 161.998  1.00  0.00    -0.006 C 
ATOM      4  C   UNL     1     199.380 150.640 163.390  1.00  0.00     0.047 C 
ATOM      5  C   UNL     1     199.937 151.879 164.136  1.00  0.00     0.025 C 
ATOM      6  C   UNL     1     200.388 151.449 165.527  1.00  0.00    -0.073 C 
ATOM      7  C   UNL     1     199.511 151.435 166.544  1.00  0.00     0.008 C 
ATOM      8  C   UNL     1     201.793 150.949 165.771  1.00  0.00     0.031 C 
ATOM      9  C   UNL     1     202.691 151.131 164.549  1.00  0.00     0.005 C 
ATOM     10  C   UNL     1     202.477 152.520 163.948  1.00  0.00     0.008 C 
ATOM     11  C   UNL     1     201.052 152.682 163.329  1.00  0.00    -0.018 C 
ATOM     12  C   UNL     1     201.115 152.240 161.834  1.00  0.00     0.088 C 
ATOM     13  C   UNL     1     199.746 151.985 161.286  1.00  0.00     0.159 C 
ATOM     14  O   UNL     1     199.348 152.631 160.280  1.00  0.00    -0.295 OA
ATOM     15  C   UNL     1     200.700 154.190 163.361  1.00  0.00     0.012 C 
ATOM     16  C   UNL     1     197.408 150.658 159.993  1.00  0.00     0.039 C 
ENDROOT
TORSDOF 0
ENDMDL
MODEL 5
REMARK VINA RESULT:    -4.329      1.739      3.287
REMARK INTER + INTRA:          -4.329
REMARK INTER:                  -4.329
REMARK INTRA:                   0.000
REMARK UNBOUND:                 0.000
REMARK SMILES C=C1CCC[C@@]2(C)CC(=O)C(=C(C)C)C[C@@H]12
REMARK SMILES IDX 13 1 12 2 11 3 15 4 16 5 2 6 1 7 3 8 4 9 5 10 6 11 8 12 9 13
REMARK SMILES IDX 10 14 7 15 14 16
REMARK H PARENT
REMARK Flexibility Score: inf
ROOT
ATOM      1  C   UNL     1     199.703 152.099 166.587  1.00  0.00     0.039 C 
ATOM      2  C   UNL     1     200.265 152.574 165.266  1.00  0.00    -0.070 C 
ATOM      3  C   UNL     1     199.922 151.963 164.095  1.00  0.00    -0.006 C 
ATOM      4  C   UNL     1     198.913 150.827 164.044  1.00  0.00     0.047 C 
ATOM      5  C   UNL     1     199.261 149.809 162.927  1.00  0.00     0.025 C 
ATOM      6  C   UNL     1     198.228 148.688 162.949  1.00  0.00    -0.073 C 
ATOM      7  C   UNL     1     198.406 147.624 163.748  1.00  0.00     0.008 C 
ATOM      8  C   UNL     1     196.950 148.791 162.148  1.00  0.00     0.031 C 
ATOM      9  C   UNL     1     196.950 149.999 161.213  1.00  0.00     0.005 C 
ATOM     10  C   UNL     1     198.299 150.106 160.501  1.00  0.00     0.008 C 
ATOM     11  C   UNL     1     199.459 150.461 161.487  1.00  0.00    -0.018 C 
ATOM     12  C   UNL     1     199.577 152.014 161.565  1.00  0.00     0.088 C 
ATOM     13  C   UNL     1     200.373 152.437 162.761  1.00  0.00     0.159 C 
ATOM     14  O   UNL     1     201.410 153.134 162.602  1.00  0.00    -0.295 OA
ATOM     15  C   UNL     1     200.772 149.917 160.871  1.00  0.00     0.012 C 
ATOM     16  C   UNL     1     201.186 153.772 165.301  1.00  0.00     0.039 C 
ENDROOT
TORSDOF 0
ENDMDL
MODEL 6
REMARK VINA RESULT:    -4.210     15.148     17.392
REMARK INTER + INTRA:          -4.210
REMARK INTER:                  -4.210
REMARK INTRA:                   0.000
REMARK UNBOUND:                 0.000
REMARK SMILES C=C1CCC[C@@]2(C)CC(=O)C(=C(C)C)C[C@@H]12
REMARK SMILES IDX 13 1 12 2 11 3 15 4 16 5 2 6 1 7 3 8 4 9 5 10 6 11 8 12 9 13
REMARK SMILES IDX 10 14 7 15 14 16
REMARK H PARENT
REMARK Flexibility Score: inf
ROOT
ATOM      1  C   UNL     1     214.573 142.995 169.235  1.00  0.00     0.039 C 
ATOM      2  C   UNL     1     213.280 143.670 168.836  1.00  0.00    -0.070 C 
ATOM      3  C   UNL     1     212.953 144.906 169.318  1.00  0.00    -0.006 C 
ATOM      4  C   UNL     1     213.891 145.694 170.218  1.00  0.00     0.047 C 
ATOM      5  C   UNL     1     213.105 146.553 171.242  1.00  0.00     0.025 C 
ATOM      6  C   UNL     1     214.103 147.294 172.124  1.00  0.00    -0.073 C 
ATOM      7  C   UNL     1     214.586 146.709 173.232  1.00  0.00     0.008 C 
ATOM      8  C   UNL     1     214.634 148.653 171.729  1.00  0.00     0.031 C 
ATOM      9  C   UNL     1     213.909 149.224 170.511  1.00  0.00     0.005 C 
ATOM     10  C   UNL     1     212.402 149.015 170.658  1.00  0.00     0.008 C 
ATOM     11  C   UNL     1     212.007 147.505 170.590  1.00  0.00    -0.018 C 
ATOM     12  C   UNL     1     211.733 147.138 169.099  1.00  0.00     0.088 C 
ATOM     13  C   UNL     1     211.741 145.654 168.896  1.00  0.00     0.159 C 
ATOM     14  O   UNL     1     210.722 145.086 168.423  1.00  0.00    -0.295 OA
ATOM     15  C   UNL     1     210.678 147.337 171.370  1.00  0.00     0.012 C 
ATOM     16  C   UNL     1     212.393 142.936 167.857  1.00  0.00     0.039 C 
ENDROOT
TORSDOF 0
ENDMDL
MODEL 7
REMARK VINA RESULT:    -4.193     14.233     17.081
REMARK INTER + INTRA:          -4.193
REMARK INTER:                  -4.193
REMARK INTRA:                   0.000
REMARK UNBOUND:                 0.000
REMARK SMILES C=C1CCC[C@@]2(C)CC(=O)C(=C(C)C)C[C@@H]12
REMARK SMILES IDX 13 1 12 2 11 3 15 4 16 5 2 6 1 7 3 8 4 9 5 10 6 11 8 12 9 13
REMARK SMILES IDX 10 14 7 15 14 16
REMARK H PARENT
REMARK Flexibility Score: inf
ROOT
ATOM      1  C   UNL     1     212.774 147.302 170.685  1.00  0.00     0.039 C 
ATOM      2  C   UNL     1     213.798 148.253 171.263  1.00  0.00    -0.070 C 
ATOM      3  C   UNL     1     213.648 149.605 171.148  1.00  0.00    -0.006 C 
ATOM      4  C   UNL     1     212.422 150.227 170.499  1.00  0.00     0.047 C 
ATOM      5  C   UNL     1     212.778 151.543 169.760  1.00  0.00     0.025 C 
ATOM      6  C   UNL     1     211.513 152.097 169.114  1.00  0.00    -0.073 C 
ATOM      7  C   UNL     1     211.153 151.695 167.885  1.00  0.00     0.008 C 
ATOM      8  C   UNL     1     210.597 153.031 169.871  1.00  0.00     0.031 C 
ATOM      9  C   UNL     1     211.199 153.476 171.203  1.00  0.00     0.005 C 
ATOM     10  C   UNL     1     212.669 153.849 171.011  1.00  0.00     0.008 C 
ATOM     11  C   UNL     1     213.550 152.609 170.657  1.00  0.00    -0.018 C 
ATOM     12  C   UNL     1     214.067 151.979 171.987  1.00  0.00     0.088 C 
ATOM     13  C   UNL     1     214.574 150.588 171.768  1.00  0.00     0.159 C 
ATOM     14  O   UNL     1     215.764 150.305 172.068  1.00  0.00    -0.295 OA
ATOM     15  C   UNL     1     214.780 153.123 169.869  1.00  0.00     0.012 C 
ATOM     16  C   UNL     1     214.966 147.640 172.003  1.00  0.00     0.039 C 
ENDROOT
TORSDOF 0
ENDMDL
MODEL 8
REMARK VINA RESULT:    -4.175      1.693      4.800
REMARK INTER + INTRA:          -4.175
REMARK INTER:                  -4.175
REMARK INTRA:                   0.000
REMARK UNBOUND:                 0.000
REMARK SMILES C=C1CCC[C@@]2(C)CC(=O)C(=C(C)C)C[C@@H]12
REMARK SMILES IDX 13 1 12 2 11 3 15 4 16 5 2 6 1 7 3 8 4 9 5 10 6 11 8 12 9 13
REMARK SMILES IDX 10 14 7 15 14 16
REMARK H PARENT
REMARK Flexibility Score: inf
ROOT
ATOM      1  C   UNL     1     198.893 152.651 159.618  1.00  0.00     0.039 C 
ATOM      2  C   UNL     1     198.441 151.346 160.232  1.00  0.00    -0.070 C 
ATOM      3  C   UNL     1     198.800 151.006 161.505  1.00  0.00    -0.006 C 
ATOM      4  C   UNL     1     199.606 151.940 162.392  1.00  0.00     0.047 C 
ATOM      5  C   UNL     1     200.547 151.152 163.340  1.00  0.00     0.025 C 
ATOM      6  C   UNL     1     201.340 152.147 164.179  1.00  0.00    -0.073 C 
ATOM      7  C   UNL     1     202.496 152.648 163.715  1.00  0.00     0.008 C 
ATOM      8  C   UNL     1     200.804 152.655 165.497  1.00  0.00     0.031 C 
ATOM      9  C   UNL     1     199.543 151.911 165.934  1.00  0.00     0.005 C 
ATOM     10  C   UNL     1     199.726 150.408 165.721  1.00  0.00     0.008 C 
ATOM     11  C   UNL     1     199.814 150.034 164.207  1.00  0.00    -0.018 C 
ATOM     12  C   UNL     1     198.371 149.752 163.688  1.00  0.00     0.088 C 
ATOM     13  C   UNL     1     198.318 149.779 162.192  1.00  0.00     0.159 C 
ATOM     14  O   UNL     1     197.915 148.764 161.565  1.00  0.00    -0.295 OA
ATOM     15  C   UNL     1     200.620 148.715 164.101  1.00  0.00     0.012 C 
ATOM     16  C   UNL     1     197.550 150.461 159.391  1.00  0.00     0.039 C 
ENDROOT
TORSDOF 0
ENDMDL
