MODEL 1
REMARK VINA RESULT:    -7.000      0.000      0.000
REMARK INTER + INTRA:         -10.189
REMARK INTER:                  -9.455
REMARK INTRA:                  -0.734
REMARK UNBOUND:                -0.734
REMARK SMILES O=c1c(-c2ccc(O)cc2)coc2c([C@H]3O[C@@H](CO)[C@@H](O)[C@@H](O)[C@H]3O)c(O)ccc12
REMARK SMILES IDX 3 1 11 2 12 3 13 4 30 5 2 6 1 7 29 8 28 9 26 10 14 11 4 12
REMARK SMILES IDX 5 13 6 14 7 15 10 16 9 17 8 18 15 20 24 21 16 22 22 23 17 24
REMARK SMILES IDX 20 25 25 26 23 28 18 30 19 31 21 33 27 35
REMARK H PARENT 8 19 25 27 23 29 19 32 21 34 27 36
REMARK Flexibility Score: inf
ROOT
ATOM      1  C   UNL     1     103.365  46.085 135.050  1.00  0.00     0.065 A 
ATOM      2  C   UNL     1     104.725  45.873 135.318  1.00  0.00     0.208 A 
ATOM      3  O   UNL     1     105.187  44.656 135.576  1.00  0.00    -0.463 OA
ATOM      4  C   UNL     1     104.414  43.573 135.599  1.00  0.00     0.147 A 
ATOM      5  C   UNL     1     103.026  43.698 135.355  1.00  0.00     0.066 A 
ATOM      6  C   UNL     1     102.503  44.975 135.080  1.00  0.00     0.200 A 
ATOM      7  O   UNL     1     101.266  45.126 134.883  1.00  0.00    -0.288 OA
ATOM      8  C   UNL     1     102.208  42.559 135.409  1.00  0.00     0.020 A 
ATOM      9  C   UNL     1     102.756  41.315 135.713  1.00  0.00     0.047 A 
ATOM     10  C   UNL     1     104.128  41.180 135.959  1.00  0.00     0.125 A 
ATOM     11  C   UNL     1     104.978  42.305 135.879  1.00  0.00     0.069 A 
ENDROOT
BRANCH   1  12
ATOM     12  C   UNL     1     102.875  47.455 134.754  1.00  0.00    -0.011 A 
ATOM     13  C   UNL     1     102.383  47.780 133.477  1.00  0.00     0.013 A 
ATOM     14  C   UNL     1     101.930  49.072 133.201  1.00  0.00     0.047 A 
ATOM     15  C   UNL     1     101.968  50.060 134.195  1.00  0.00     0.115 A 
ATOM     16  C   UNL     1     102.915  48.453 135.744  1.00  0.00     0.013 A 
ATOM     17  C   UNL     1     102.461  49.745 135.465  1.00  0.00     0.047 A 
BRANCH  15  18
ATOM     18  O   UNL     1     101.520  51.351 133.930  1.00  0.00    -0.508 OA
ATOM     19  H   UNL     1     102.150  52.145 133.946  1.00  0.00     0.293 HD
ENDBRANCH  15  18
ENDBRANCH   1  12
BRANCH  11  20
ATOM     20  C   UNL     1     106.469  42.157 136.164  1.00  0.00     0.188 C 
ATOM     21  C   UNL     1     107.321  42.157 134.858  1.00  0.00     0.179 C 
ATOM     22  O   UNL     1     106.705  40.978 136.917  1.00  0.00    -0.362 OA
ATOM     23  C   UNL     1     108.592  41.288 135.022  1.00  0.00     0.177 C 
ATOM     24  C   UNL     1     108.004  40.982 137.499  1.00  0.00     0.176 C 
ATOM     25  C   UNL     1     109.111  41.403 136.469  1.00  0.00     0.177 C 
BRANCH  21  26
ATOM     26  O   UNL     1     106.571  41.712 133.753  1.00  0.00    -0.387 OA
ATOM     27  H   UNL     1     105.614  41.782 134.009  1.00  0.00     0.211 HD
ENDBRANCH  21  26
BRANCH  23  28
ATOM     28  O   UNL     1     108.303  39.942 134.730  1.00  0.00    -0.387 OA
ATOM     29  H   UNL     1     109.138  39.533 134.381  1.00  0.00     0.211 HD
ENDBRANCH  23  28
BRANCH  24  30
ATOM     30  C   UNL     1     108.235  39.597 138.123  1.00  0.00     0.191 C 
BRANCH  30  31
ATOM     31  O   UNL     1     107.360  38.656 137.563  1.00  0.00    -0.394 OA
ATOM     32  H   UNL     1     107.714  38.458 136.657  1.00  0.00     0.210 HD
ENDBRANCH  30  31
ENDBRANCH  24  30
BRANCH  25  33
ATOM     33  O   UNL     1     110.334  40.728 136.651  1.00  0.00    -0.388 OA
ATOM     34  H   UNL     1     110.140  39.774 136.848  1.00  0.00     0.211 HD
ENDBRANCH  25  33
ENDBRANCH  11  20
BRANCH  10  35
ATOM     35  O   UNL     1     104.646  39.926 136.287  1.00  0.00    -0.507 OA
ATOM     36  H   UNL     1     104.575  39.138 135.652  1.00  0.00     0.293 HD
ENDBRANCH  10  35
TORSDOF 9
ENDMDL
MODEL 2
REMARK VINA RESULT:    -6.789      4.310      5.025
REMARK INTER + INTRA:          -9.904
REMARK INTER:                  -8.863
REMARK INTRA:                  -1.041
REMARK UNBOUND:                -0.734
REMARK SMILES O=c1c(-c2ccc(O)cc2)coc2c([C@H]3O[C@@H](CO)[C@@H](O)[C@@H](O)[C@H]3O)c(O)ccc12
REMARK SMILES IDX 3 1 11 2 12 3 13 4 30 5 2 6 1 7 29 8 28 9 26 10 14 11 4 12
REMARK SMILES IDX 5 13 6 14 7 15 10 16 9 17 8 18 15 20 24 21 16 22 22 23 17 24
REMARK SMILES IDX 20 25 25 26 23 28 18 30 19 31 21 33 27 35
REMARK H PARENT 8 19 25 27 23 29 19 32 21 34 27 36
REMARK Flexibility Score: inf
ROOT
ATOM      1  C   UNL     1     107.031  48.072 138.914  1.00  0.00     0.065 A 
ATOM      2  C   UNL     1     108.022  47.218 138.410  1.00  0.00     0.208 A 
ATOM      3  O   UNL     1     107.711  46.015 137.943  1.00  0.00    -0.463 OA
ATOM      4  C   UNL     1     106.468  45.541 137.920  1.00  0.00     0.147 A 
ATOM      5  C   UNL     1     105.408  46.330 138.423  1.00  0.00     0.066 A 
ATOM      6  C   UNL     1     105.702  47.611 138.927  1.00  0.00     0.200 A 
ATOM      7  O   UNL     1     104.785  48.332 139.408  1.00  0.00    -0.288 OA
ATOM      8  C   UNL     1     104.102  45.818 138.425  1.00  0.00     0.020 A 
ATOM      9  C   UNL     1     103.851  44.534 137.945  1.00  0.00     0.047 A 
ATOM     10  C   UNL     1     104.893  43.743 137.446  1.00  0.00     0.125 A 
ATOM     11  C   UNL     1     106.212  44.247 137.404  1.00  0.00     0.069 A 
ENDROOT
BRANCH   1  12
ATOM     12  C   UNL     1     107.402  49.418 139.419  1.00  0.00    -0.011 A 
ATOM     13  C   UNL     1     108.303  49.559 140.490  1.00  0.00     0.013 A 
ATOM     14  C   UNL     1     108.643  50.827 140.967  1.00  0.00     0.047 A 
ATOM     15  C   UNL     1     108.083  51.972 140.384  1.00  0.00     0.115 A 
ATOM     16  C   UNL     1     106.839  50.572 138.844  1.00  0.00     0.013 A 
ATOM     17  C   UNL     1     107.181  51.840 139.323  1.00  0.00     0.047 A 
BRANCH  15  18
ATOM     18  O   UNL     1     108.414  53.242 140.852  1.00  0.00    -0.508 OA
ATOM     19  H   UNL     1     109.022  53.859 140.326  1.00  0.00     0.293 HD
ENDBRANCH  15  18
ENDBRANCH   1  12
BRANCH  11  20
ATOM     20  C   UNL     1     107.346  43.376 136.875  1.00  0.00     0.188 C 
ATOM     21  C   UNL     1     107.512  43.499 135.330  1.00  0.00     0.179 C 
ATOM     22  O   UNL     1     107.136  42.024 137.251  1.00  0.00    -0.362 OA
ATOM     23  C   UNL     1     108.037  42.177 134.718  1.00  0.00     0.177 C 
ATOM     24  C   UNL     1     108.319  41.249 137.093  1.00  0.00     0.176 C 
ATOM     25  C   UNL     1     109.011  41.504 135.707  1.00  0.00     0.177 C 
BRANCH  21  26
ATOM     26  O   UNL     1     106.306  43.873 134.709  1.00  0.00    -0.387 OA
ATOM     27  H   UNL     1     106.186  44.845 134.878  1.00  0.00     0.211 HD
ENDBRANCH  21  26
BRANCH  23  28
ATOM     28  O   UNL     1     106.965  41.307 134.447  1.00  0.00    -0.387 OA
ATOM     29  H   UNL     1     106.191  41.622 134.984  1.00  0.00     0.211 HD
ENDBRANCH  23  28
BRANCH  24  30
ATOM     30  C   UNL     1     107.944  39.779 137.336  1.00  0.00     0.191 C 
BRANCH  30  31
ATOM     31  O   UNL     1     107.016  39.347 136.379  1.00  0.00    -0.394 OA
ATOM     32  H   UNL     1     106.770  38.420 136.633  1.00  0.00     0.210 HD
ENDBRANCH  30  31
ENDBRANCH  24  30
BRANCH  25  33
ATOM     33  O   UNL     1     109.614  40.354 135.159  1.00  0.00    -0.388 OA
ATOM     34  H   UNL     1     110.454  40.173 135.658  1.00  0.00     0.211 HD
ENDBRANCH  25  33
ENDBRANCH  11  20
BRANCH  10  35
ATOM     35  O   UNL     1     104.618  42.451 136.996  1.00  0.00    -0.507 OA
ATOM     36  H   UNL     1     104.019  42.282 136.195  1.00  0.00     0.293 HD
ENDBRANCH  10  35
TORSDOF 9
ENDMDL
MODEL 3
REMARK VINA RESULT:    -6.599      3.154      3.810
REMARK INTER + INTRA:          -9.648
REMARK INTER:                  -8.398
REMARK INTRA:                  -1.250
REMARK UNBOUND:                -0.734
REMARK SMILES O=c1c(-c2ccc(O)cc2)coc2c([C@H]3O[C@@H](CO)[C@@H](O)[C@@H](O)[C@H]3O)c(O)ccc12
REMARK SMILES IDX 3 1 11 2 12 3 13 4 30 5 2 6 1 7 29 8 28 9 26 10 14 11 4 12
REMARK SMILES IDX 5 13 6 14 7 15 10 16 9 17 8 18 15 20 24 21 16 22 22 23 17 24
REMARK SMILES IDX 20 25 25 26 23 28 18 30 19 31 21 33 27 35
REMARK H PARENT 8 19 25 27 23 29 19 32 21 34 27 36
REMARK Flexibility Score: inf
ROOT
ATOM      1  C   UNL     1     105.302  47.550 138.268  1.00  0.00     0.065 A 
ATOM      2  C   UNL     1     106.443  46.745 138.392  1.00  0.00     0.208 A 
ATOM      3  O   UNL     1     106.550  45.605 137.719  1.00  0.00    -0.463 OA
ATOM      4  C   UNL     1     105.605  45.153 136.898  1.00  0.00     0.147 A 
ATOM      5  C   UNL     1     104.413  45.895 136.725  1.00  0.00     0.066 A 
ATOM      6  C   UNL     1     104.267  47.108 137.425  1.00  0.00     0.200 A 
ATOM      7  O   UNL     1     103.207  47.782 137.315  1.00  0.00    -0.288 OA
ATOM      8  C   UNL     1     103.406  45.403 135.882  1.00  0.00     0.020 A 
ATOM      9  C   UNL     1     103.573  44.185 135.227  1.00  0.00     0.047 A 
ATOM     10  C   UNL     1     104.747  43.440 135.392  1.00  0.00     0.125 A 
ATOM     11  C   UNL     1     105.789  43.929 136.210  1.00  0.00     0.069 A 
ENDROOT
BRANCH   1  12
ATOM     12  C   UNL     1     105.213  48.826 139.022  1.00  0.00    -0.011 A 
ATOM     13  C   UNL     1     104.578  48.875 140.276  1.00  0.00     0.013 A 
ATOM     14  C   UNL     1     104.489  50.080 140.978  1.00  0.00     0.047 A 
ATOM     15  C   UNL     1     105.029  51.253 140.434  1.00  0.00     0.115 A 
ATOM     16  C   UNL     1     105.746  50.009 138.480  1.00  0.00     0.013 A 
ATOM     17  C   UNL     1     105.656  51.213 139.185  1.00  0.00     0.047 A 
BRANCH  15  18
ATOM     18  O   UNL     1     104.945  52.460 141.125  1.00  0.00    -0.508 OA
ATOM     19  H   UNL     1     105.538  53.248 140.888  1.00  0.00     0.293 HD
ENDBRANCH  15  18
ENDBRANCH   1  12
BRANCH  11  20
ATOM     20  C   UNL     1     107.060  43.108 136.401  1.00  0.00     0.188 C 
ATOM     21  C   UNL     1     108.023  43.221 135.181  1.00  0.00     0.179 C 
ATOM     22  O   UNL     1     106.729  41.752 136.654  1.00  0.00    -0.362 OA
ATOM     23  C   UNL     1     108.839  41.918 134.991  1.00  0.00     0.177 C 
ATOM     24  C   UNL     1     107.838  41.032 137.181  1.00  0.00     0.176 C 
ATOM     25  C   UNL     1     109.155  41.305 136.370  1.00  0.00     0.177 C 
BRANCH  21  26
ATOM     26  O   UNL     1     107.325  43.529 133.999  1.00  0.00    -0.387 OA
ATOM     27  H   UNL     1     107.380  42.728 133.415  1.00  0.00     0.211 HD
ENDBRANCH  21  26
BRANCH  23  28
ATOM     28  O   UNL     1     108.110  40.995 134.220  1.00  0.00    -0.387 OA
ATOM     29  H   UNL     1     108.321  40.091 134.572  1.00  0.00     0.211 HD
ENDBRANCH  23  28
BRANCH  24  30
ATOM     30  C   UNL     1     107.443  39.549 137.237  1.00  0.00     0.191 C 
BRANCH  30  31
ATOM     31  O   UNL     1     107.012  39.110 135.978  1.00  0.00    -0.394 OA
ATOM     32  H   UNL     1     106.210  38.548 136.142  1.00  0.00     0.210 HD
ENDBRANCH  30  31
ENDBRANCH  24  30
BRANCH  25  33
ATOM     33  O   UNL     1     109.997  40.179 136.271  1.00  0.00    -0.388 OA
ATOM     34  H   UNL     1     110.002  39.873 135.326  1.00  0.00     0.211 HD
ENDBRANCH  25  33
ENDBRANCH  11  20
BRANCH  10  35
ATOM     35  O   UNL     1     104.876  42.210 134.745  1.00  0.00    -0.507 OA
ATOM     36  H   UNL     1     104.069  41.701 134.404  1.00  0.00     0.293 HD
ENDBRANCH  10  35
TORSDOF 9
ENDMDL
MODEL 4
REMARK VINA RESULT:    -6.507      0.969      1.044
REMARK INTER + INTRA:          -9.523
REMARK INTER:                  -8.371
REMARK INTRA:                  -1.152
REMARK UNBOUND:                -0.734
REMARK SMILES O=c1c(-c2ccc(O)cc2)coc2c([C@H]3O[C@@H](CO)[C@@H](O)[C@@H](O)[C@H]3O)c(O)ccc12
REMARK SMILES IDX 3 1 11 2 12 3 13 4 30 5 2 6 1 7 29 8 28 9 26 10 14 11 4 12
REMARK SMILES IDX 5 13 6 14 7 15 10 16 9 17 8 18 15 20 24 21 16 22 22 23 17 24
REMARK SMILES IDX 20 25 25 26 23 28 18 30 19 31 21 33 27 35
REMARK H PARENT 8 19 25 27 23 29 19 32 21 34 27 36
REMARK Flexibility Score: inf
ROOT
ATOM      1  C   UNL     1     102.790  46.701 134.551  1.00  0.00     0.065 A 
ATOM      2  C   UNL     1     104.131  46.509 134.910  1.00  0.00     0.208 A 
ATOM      3  O   UNL     1     104.576  45.311 135.270  1.00  0.00    -0.463 OA
ATOM      4  C   UNL     1     103.801  44.230 135.316  1.00  0.00     0.147 A 
ATOM      5  C   UNL     1     102.430  44.336 134.985  1.00  0.00     0.066 A 
ATOM      6  C   UNL     1     101.925  45.592 134.600  1.00  0.00     0.200 A 
ATOM      7  O   UNL     1     100.702  45.729 134.323  1.00  0.00    -0.288 OA
ATOM      8  C   UNL     1     101.608  43.202 135.062  1.00  0.00     0.020 A 
ATOM      9  C   UNL     1     102.135  41.980 135.475  1.00  0.00     0.047 A 
ATOM     10  C   UNL     1     103.490  41.863 135.807  1.00  0.00     0.125 A 
ATOM     11  C   UNL     1     104.346  42.983 135.707  1.00  0.00     0.069 A 
ENDROOT
BRANCH   1  12
ATOM     12  C   UNL     1     102.320  48.048 134.141  1.00  0.00    -0.011 A 
ATOM     13  C   UNL     1     102.015  48.323 132.796  1.00  0.00     0.013 A 
ATOM     14  C   UNL     1     101.581  49.595 132.415  1.00  0.00     0.047 A 
ATOM     15  C   UNL     1     101.450  50.611 133.371  1.00  0.00     0.115 A 
ATOM     16  C   UNL     1     102.192  49.075 135.094  1.00  0.00     0.013 A 
ATOM     17  C   UNL     1     101.757  50.346 134.709  1.00  0.00     0.047 A 
BRANCH  15  18
ATOM     18  O   UNL     1     101.018  51.883 133.002  1.00  0.00    -0.508 OA
ATOM     19  H   UNL     1     100.674  52.545 133.687  1.00  0.00     0.293 HD
ENDBRANCH  15  18
ENDBRANCH   1  12
BRANCH  11  20
ATOM     20  C   UNL     1     105.817  42.856 136.086  1.00  0.00     0.188 C 
ATOM     21  C   UNL     1     106.705  42.442 134.873  1.00  0.00     0.179 C 
ATOM     22  O   UNL     1     105.966  41.934 137.154  1.00  0.00    -0.362 OA
ATOM     23  C   UNL     1     107.921  41.600 135.333  1.00  0.00     0.177 C 
ATOM     24  C   UNL     1     107.246  42.046 137.767  1.00  0.00     0.176 C 
ATOM     25  C   UNL     1     108.404  42.103 136.708  1.00  0.00     0.177 C 
BRANCH  21  26
ATOM     26  O   UNL     1     105.964  41.733 133.909  1.00  0.00    -0.387 OA
ATOM     27  H   UNL     1     106.008  42.260 133.068  1.00  0.00     0.211 HD
ENDBRANCH  21  26
BRANCH  23  28
ATOM     28  O   UNL     1     107.566  40.242 135.426  1.00  0.00    -0.387 OA
ATOM     29  H   UNL     1     106.614  40.170 135.151  1.00  0.00     0.211 HD
ENDBRANCH  23  28
BRANCH  24  30
ATOM     30  C   UNL     1     107.382  40.891 138.770  1.00  0.00     0.191 C 
BRANCH  30  31
ATOM     31  O   UNL     1     107.293  39.658 138.109  1.00  0.00    -0.394 OA
ATOM     32  H   UNL     1     108.030  39.099 138.470  1.00  0.00     0.210 HD
ENDBRANCH  30  31
ENDBRANCH  24  30
BRANCH  25  33
ATOM     33  O   UNL     1     109.582  41.454 137.128  1.00  0.00    -0.388 OA
ATOM     34  H   UNL     1     109.408  40.477 137.160  1.00  0.00     0.211 HD
ENDBRANCH  25  33
ENDBRANCH  11  20
BRANCH  10  35
ATOM     35  O   UNL     1     103.986  40.633 136.243  1.00  0.00    -0.507 OA
ATOM     36  H   UNL     1     104.299  40.493 137.197  1.00  0.00     0.293 HD
ENDBRANCH  10  35
TORSDOF 9
ENDMDL
MODEL 5
REMARK VINA RESULT:    -6.183      4.473      9.823
REMARK INTER + INTRA:          -9.086
REMARK INTER:                  -8.111
REMARK INTRA:                  -0.974
REMARK UNBOUND:                -0.734
REMARK SMILES O=c1c(-c2ccc(O)cc2)coc2c([C@H]3O[C@@H](CO)[C@@H](O)[C@@H](O)[C@H]3O)c(O)ccc12
REMARK SMILES IDX 3 1 11 2 12 3 13 4 30 5 2 6 1 7 29 8 28 9 26 10 14 11 4 12
REMARK SMILES IDX 5 13 6 14 7 15 10 16 9 17 8 18 15 20 24 21 16 22 22 23 17 24
REMARK SMILES IDX 20 25 25 26 23 28 18 30 19 31 21 33 27 35
REMARK H PARENT 8 19 25 27 23 29 19 32 21 34 27 36
REMARK Flexibility Score: inf
ROOT
ATOM      1  C   UNL     1     107.697  45.124 137.469  1.00  0.00     0.065 A 
ATOM      2  C   UNL     1     106.380  45.557 137.257  1.00  0.00     0.208 A 
ATOM      3  O   UNL     1     105.957  46.717 137.745  1.00  0.00    -0.463 OA
ATOM      4  C   UNL     1     106.731  47.534 138.456  1.00  0.00     0.147 A 
ATOM      5  C   UNL     1     108.069  47.168 138.731  1.00  0.00     0.066 A 
ATOM      6  C   UNL     1     108.550  45.944 138.229  1.00  0.00     0.200 A 
ATOM      7  O   UNL     1     109.730  45.574 138.477  1.00  0.00    -0.288 OA
ATOM      8  C   UNL     1     108.875  48.017 139.505  1.00  0.00     0.020 A 
ATOM      9  C   UNL     1     108.357  49.207 140.010  1.00  0.00     0.047 A 
ATOM     10  C   UNL     1     107.033  49.579 139.746  1.00  0.00     0.125 A 
ATOM     11  C   UNL     1     106.211  48.758 138.943  1.00  0.00     0.069 A 
ENDROOT
BRANCH   1  12
ATOM     12  C   UNL     1     108.149  43.829 136.902  1.00  0.00    -0.011 A 
ATOM     13  C   UNL     1     108.731  42.849 137.727  1.00  0.00     0.013 A 
ATOM     14  C   UNL     1     109.163  41.635 137.186  1.00  0.00     0.047 A 
ATOM     15  C   UNL     1     109.024  41.385 135.814  1.00  0.00     0.115 A 
ATOM     16  C   UNL     1     108.019  43.573 135.525  1.00  0.00     0.013 A 
ATOM     17  C   UNL     1     108.451  42.357 134.988  1.00  0.00     0.047 A 
BRANCH  15  18
ATOM     18  O   UNL     1     109.450  40.178 135.265  1.00  0.00    -0.508 OA
ATOM     19  H   UNL     1     108.900  39.332 135.353  1.00  0.00     0.293 HD
ENDBRANCH  15  18
ENDBRANCH   1  12
BRANCH  11  20
ATOM     20  C   UNL     1     104.765  49.157 138.671  1.00  0.00     0.188 C 
ATOM     21  C   UNL     1     104.648  50.197 137.515  1.00  0.00     0.179 C 
ATOM     22  O   UNL     1     104.168  49.657 139.857  1.00  0.00    -0.362 OA
ATOM     23  C   UNL     1     103.436  51.136 137.731  1.00  0.00     0.177 C 
ATOM     24  C   UNL     1     102.749  49.707 139.747  1.00  0.00     0.176 C 
ATOM     25  C   UNL     1     102.286  50.349 138.391  1.00  0.00     0.177 C 
BRANCH  21  26
ATOM     26  O   UNL     1     105.827  50.954 137.381  1.00  0.00    -0.387 OA
ATOM     27  H   UNL     1     106.006  51.037 136.407  1.00  0.00     0.211 HD
ENDBRANCH  21  26
BRANCH  23  28
ATOM     28  O   UNL     1     103.798  52.219 138.552  1.00  0.00    -0.387 OA
ATOM     29  H   UNL     1     104.632  52.604 138.176  1.00  0.00     0.211 HD
ENDBRANCH  23  28
BRANCH  24  30
ATOM     30  C   UNL     1     102.215  50.434 140.990  1.00  0.00     0.191 C 
BRANCH  30  31
ATOM     31  O   UNL     1     102.584  51.785 140.962  1.00  0.00    -0.394 OA
ATOM     32  H   UNL     1     102.396  52.103 140.042  1.00  0.00     0.210 HD
ENDBRANCH  30  31
ENDBRANCH  24  30
BRANCH  25  33
ATOM     33  O   UNL     1     101.112  51.119 138.506  1.00  0.00    -0.388 OA
ATOM     34  H   UNL     1     100.330  50.509 138.445  1.00  0.00     0.211 HD
ENDBRANCH  25  33
ENDBRANCH  11  20
BRANCH  10  35
ATOM     35  O   UNL     1     106.532  50.764 140.286  1.00  0.00    -0.507 OA
ATOM     36  H   UNL     1     105.542  50.980 140.270  1.00  0.00     0.293 HD
ENDBRANCH  10  35
TORSDOF 9
ENDMDL
MODEL 6
REMARK VINA RESULT:    -6.134      2.342      8.750
REMARK INTER + INTRA:          -9.019
REMARK INTER:                  -7.841
REMARK INTRA:                  -1.178
REMARK UNBOUND:                -0.734
REMARK SMILES O=c1c(-c2ccc(O)cc2)coc2c([C@H]3O[C@@H](CO)[C@@H](O)[C@@H](O)[C@H]3O)c(O)ccc12
REMARK SMILES IDX 3 1 11 2 12 3 13 4 30 5 2 6 1 7 29 8 28 9 26 10 14 11 4 12
REMARK SMILES IDX 5 13 6 14 7 15 10 16 9 17 8 18 15 20 24 21 16 22 22 23 17 24
REMARK SMILES IDX 20 25 25 26 23 28 18 30 19 31 21 33 27 35
REMARK H PARENT 8 19 25 27 23 29 19 32 21 34 27 36
REMARK Flexibility Score: inf
ROOT
ATOM      1  C   UNL     1     105.946  43.810 136.006  1.00  0.00     0.065 A 
ATOM      2  C   UNL     1     104.971  43.577 135.025  1.00  0.00     0.208 A 
ATOM      3  O   UNL     1     103.964  44.424 134.850  1.00  0.00    -0.463 OA
ATOM      4  C   UNL     1     103.808  45.530 135.575  1.00  0.00     0.147 A 
ATOM      5  C   UNL     1     104.737  45.834 136.597  1.00  0.00     0.066 A 
ATOM      6  C   UNL     1     105.816  44.957 136.811  1.00  0.00     0.200 A 
ATOM      7  O   UNL     1     106.649  45.184 137.730  1.00  0.00    -0.288 OA
ATOM      8  C   UNL     1     104.554  46.985 137.379  1.00  0.00     0.020 A 
ATOM      9  C   UNL     1     103.459  47.816 137.159  1.00  0.00     0.047 A 
ATOM     10  C   UNL     1     102.531  47.524 136.152  1.00  0.00     0.125 A 
ATOM     11  C   UNL     1     102.710  46.389 135.329  1.00  0.00     0.069 A 
ENDROOT
BRANCH   1  12
ATOM     12  C   UNL     1     107.068  42.854 136.174  1.00  0.00    -0.011 A 
ATOM     13  C   UNL     1     107.147  42.033 137.313  1.00  0.00     0.013 A 
ATOM     14  C   UNL     1     108.210  41.140 137.470  1.00  0.00     0.047 A 
ATOM     15  C   UNL     1     109.212  41.059 136.494  1.00  0.00     0.115 A 
ATOM     16  C   UNL     1     108.082  42.771 135.202  1.00  0.00     0.013 A 
ATOM     17  C   UNL     1     109.144  41.877 135.361  1.00  0.00     0.047 A 
BRANCH  15  18
ATOM     18  O   UNL     1     110.277  40.173 136.641  1.00  0.00    -0.508 OA
ATOM     19  H   UNL     1     110.342  39.326 136.087  1.00  0.00     0.293 HD
ENDBRANCH  15  18
ENDBRANCH   1  12
BRANCH  11  20
ATOM     20  C   UNL     1     101.688  46.064 134.244  1.00  0.00     0.188 C 
ATOM     21  C   UNL     1     101.944  46.871 132.935  1.00  0.00     0.179 C 
ATOM     22  O   UNL     1     100.375  46.296 134.728  1.00  0.00    -0.362 OA
ATOM     23  C   UNL     1     100.617  47.158 132.189  1.00  0.00     0.177 C 
ATOM     24  C   UNL     1      99.396  45.683 133.896  1.00  0.00     0.176 C 
ATOM     25  C   UNL     1      99.656  45.967 132.373  1.00  0.00     0.177 C 
BRANCH  21  26
ATOM     26  O   UNL     1     102.622  48.076 133.195  1.00  0.00    -0.387 OA
ATOM     27  H   UNL     1     102.952  48.024 134.131  1.00  0.00     0.211 HD
ENDBRANCH  21  26
BRANCH  23  28
ATOM     28  O   UNL     1     100.020  48.329 132.691  1.00  0.00    -0.387 OA
ATOM     29  H   UNL     1      99.849  48.177 133.657  1.00  0.00     0.211 HD
ENDBRANCH  23  28
BRANCH  24  30
ATOM     30  C   UNL     1      98.017  46.148 134.385  1.00  0.00     0.191 C 
BRANCH  30  31
ATOM     31  O   UNL     1      97.915  47.544 134.305  1.00  0.00    -0.394 OA
ATOM     32  H   UNL     1      97.723  47.859 135.226  1.00  0.00     0.210 HD
ENDBRANCH  30  31
ENDBRANCH  24  30
BRANCH  25  33
ATOM     33  O   UNL     1      98.474  46.116 131.620  1.00  0.00    -0.388 OA
ATOM     34  H   UNL     1      98.137  47.041 131.745  1.00  0.00     0.211 HD
ENDBRANCH  25  33
ENDBRANCH  11  20
BRANCH  10  35
ATOM     35  O   UNL     1     101.428  48.360 135.971  1.00  0.00    -0.507 OA
ATOM     36  H   UNL     1     100.524  47.995 135.693  1.00  0.00     0.293 HD
ENDBRANCH  10  35
TORSDOF 9
ENDMDL
MODEL 7
REMARK VINA RESULT:    -6.113      1.534      8.715
REMARK INTER + INTRA:          -8.991
REMARK INTER:                  -7.705
REMARK INTRA:                  -1.285
REMARK UNBOUND:                -0.734
REMARK SMILES O=c1c(-c2ccc(O)cc2)coc2c([C@H]3O[C@@H](CO)[C@@H](O)[C@@H](O)[C@H]3O)c(O)ccc12
REMARK SMILES IDX 3 1 11 2 12 3 13 4 30 5 2 6 1 7 29 8 28 9 26 10 14 11 4 12
REMARK SMILES IDX 5 13 6 14 7 15 10 16 9 17 8 18 15 20 24 21 16 22 22 23 17 24
REMARK SMILES IDX 20 25 25 26 23 28 18 30 19 31 21 33 27 35
REMARK H PARENT 8 19 25 27 23 29 19 32 21 34 27 36
REMARK Flexibility Score: inf
ROOT
ATOM      1  C   UNL     1     105.494  43.400 135.656  1.00  0.00     0.065 A 
ATOM      2  C   UNL     1     105.544  44.787 135.455  1.00  0.00     0.208 A 
ATOM      3  O   UNL     1     104.441  45.478 135.195  1.00  0.00    -0.463 OA
ATOM      4  C   UNL     1     103.235  44.921 135.107  1.00  0.00     0.147 A 
ATOM      5  C   UNL     1     103.095  43.524 135.282  1.00  0.00     0.066 A 
ATOM      6  C   UNL     1     104.245  42.761 135.558  1.00  0.00     0.200 A 
ATOM      7  O   UNL     1     104.160  41.509 135.694  1.00  0.00    -0.288 OA
ATOM      8  C   UNL     1     101.828  42.934 135.161  1.00  0.00     0.020 A 
ATOM      9  C   UNL     1     100.716  43.716 134.859  1.00  0.00     0.047 A 
ATOM     10  C   UNL     1     100.842  45.099 134.681  1.00  0.00     0.125 A 
ATOM     11  C   UNL     1     102.101  45.722 134.830  1.00  0.00     0.069 A 
ENDROOT
BRANCH   1  12
ATOM     12  C   UNL     1     106.740  42.651 135.957  1.00  0.00    -0.011 A 
ATOM     13  C   UNL     1     107.143  42.434 137.287  1.00  0.00     0.013 A 
ATOM     14  C   UNL     1     108.321  41.736 137.564  1.00  0.00     0.047 A 
ATOM     15  C   UNL     1     109.115  41.250 136.517  1.00  0.00     0.115 A 
ATOM     16  C   UNL     1     107.546  42.166 134.912  1.00  0.00     0.013 A 
ATOM     17  C   UNL     1     108.723  41.467 135.192  1.00  0.00     0.047 A 
BRANCH  15  18
ATOM     18  O   UNL     1     110.291  40.553 136.782  1.00  0.00    -0.508 OA
ATOM     19  H   UNL     1     110.989  40.914 137.423  1.00  0.00     0.293 HD
ENDBRANCH  15  18
ENDBRANCH   1  12
BRANCH  11  20
ATOM     20  C   UNL     1     102.239  47.226 134.619  1.00  0.00     0.188 C 
ATOM     21  C   UNL     1     101.772  48.040 135.865  1.00  0.00     0.179 C 
ATOM     22  O   UNL     1     101.519  47.623 133.463  1.00  0.00    -0.362 OA
ATOM     23  C   UNL     1     101.187  49.412 135.447  1.00  0.00     0.177 C 
ATOM     24  C   UNL     1     101.900  48.925 133.032  1.00  0.00     0.176 C 
ATOM     25  C   UNL     1     101.955  49.947 134.222  1.00  0.00     0.177 C 
BRANCH  21  26
ATOM     26  O   UNL     1     100.830  47.324 136.626  1.00  0.00    -0.387 OA
ATOM     27  H   UNL     1     100.209  47.993 137.017  1.00  0.00     0.211 HD
ENDBRANCH  21  26
BRANCH  23  28
ATOM     28  O   UNL     1      99.823  49.282 135.129  1.00  0.00    -0.387 OA
ATOM     29  H   UNL     1      99.368  50.103 135.454  1.00  0.00     0.211 HD
ENDBRANCH  23  28
BRANCH  24  30
ATOM     30  C   UNL     1     100.940  49.338 131.906  1.00  0.00     0.191 C 
BRANCH  30  31
ATOM     31  O   UNL     1      99.621  49.377 132.378  1.00  0.00    -0.394 OA
ATOM     32  H   UNL     1      99.100  48.776 131.785  1.00  0.00     0.210 HD
ENDBRANCH  30  31
ENDBRANCH  24  30
BRANCH  25  33
ATOM     33  O   UNL     1     101.547  51.248 133.866  1.00  0.00    -0.388 OA
ATOM     34  H   UNL     1     101.881  51.881 134.554  1.00  0.00     0.211 HD
ENDBRANCH  25  33
ENDBRANCH  11  20
BRANCH  10  35
ATOM     35  O   UNL     1      99.716  45.855 134.353  1.00  0.00    -0.507 OA
ATOM     36  H   UNL     1      98.902  45.436 133.916  1.00  0.00     0.293 HD
ENDBRANCH  10  35
TORSDOF 9
ENDMDL
MODEL 8
REMARK VINA RESULT:    -6.103      5.646      7.928
REMARK INTER + INTRA:          -8.977
REMARK INTER:                  -7.783
REMARK INTRA:                  -1.194
REMARK UNBOUND:                -0.734
REMARK SMILES O=c1c(-c2ccc(O)cc2)coc2c([C@H]3O[C@@H](CO)[C@@H](O)[C@@H](O)[C@H]3O)c(O)ccc12
REMARK SMILES IDX 3 1 11 2 12 3 13 4 30 5 2 6 1 7 29 8 28 9 26 10 14 11 4 12
REMARK SMILES IDX 5 13 6 14 7 15 10 16 9 17 8 18 15 20 24 21 16 22 22 23 17 24
REMARK SMILES IDX 20 25 25 26 23 28 18 30 19 31 21 33 27 35
REMARK H PARENT 8 19 25 27 23 29 19 32 21 34 27 36
REMARK Flexibility Score: inf
ROOT
ATOM      1  C   UNL     1     105.415  52.745 138.482  1.00  0.00     0.065 A 
ATOM      2  C   UNL     1     104.890  51.572 137.921  1.00  0.00     0.208 A 
ATOM      3  O   UNL     1     105.445  50.391 138.166  1.00  0.00    -0.463 OA
ATOM      4  C   UNL     1     106.516  50.236 138.942  1.00  0.00     0.147 A 
ATOM      5  C   UNL     1     107.120  51.369 139.536  1.00  0.00     0.066 A 
ATOM      6  C   UNL     1     106.557  52.637 139.295  1.00  0.00     0.200 A 
ATOM      7  O   UNL     1     107.085  53.671 139.788  1.00  0.00    -0.288 OA
ATOM      8  C   UNL     1     108.265  51.208 140.329  1.00  0.00     0.020 A 
ATOM      9  C   UNL     1     108.812  49.941 140.522  1.00  0.00     0.047 A 
ATOM     10  C   UNL     1     108.225  48.813 139.937  1.00  0.00     0.125 A 
ATOM     11  C   UNL     1     107.052  48.945 139.160  1.00  0.00     0.069 A 
ENDROOT
BRANCH   1  12
ATOM     12  C   UNL     1     104.769  54.051 138.202  1.00  0.00    -0.011 A 
ATOM     13  C   UNL     1     105.387  54.992 137.358  1.00  0.00     0.013 A 
ATOM     14  C   UNL     1     104.778  56.223 137.105  1.00  0.00     0.047 A 
ATOM     15  C   UNL     1     103.545  56.535 137.695  1.00  0.00     0.115 A 
ATOM     16  C   UNL     1     103.535  54.374 138.796  1.00  0.00     0.013 A 
ATOM     17  C   UNL     1     102.928  55.607 138.540  1.00  0.00     0.047 A 
BRANCH  15  18
ATOM     18  O   UNL     1     102.929  57.759 137.450  1.00  0.00    -0.508 OA
ATOM     19  H   UNL     1     103.468  58.609 137.330  1.00  0.00     0.293 HD
ENDBRANCH  15  18
ENDBRANCH   1  12
BRANCH  11  20
ATOM     20  C   UNL     1     106.425  47.716 138.511  1.00  0.00     0.188 C 
ATOM     21  C   UNL     1     105.482  46.950 139.489  1.00  0.00     0.179 C 
ATOM     22  O   UNL     1     107.438  46.856 138.016  1.00  0.00    -0.362 OA
ATOM     23  C   UNL     1     105.473  45.432 139.181  1.00  0.00     0.177 C 
ATOM     24  C   UNL     1     106.911  45.895 137.108  1.00  0.00     0.176 C 
ATOM     25  C   UNL     1     105.608  45.216 137.660  1.00  0.00     0.177 C 
BRANCH  21  26
ATOM     26  O   UNL     1     105.844  47.168 140.831  1.00  0.00    -0.387 OA
ATOM     27  H   UNL     1     105.144  46.740 141.391  1.00  0.00     0.211 HD
ENDBRANCH  21  26
BRANCH  23  28
ATOM     28  O   UNL     1     106.538  44.794 139.844  1.00  0.00    -0.387 OA
ATOM     29  H   UNL     1     107.148  45.507 140.168  1.00  0.00     0.211 HD
ENDBRANCH  23  28
BRANCH  24  30
ATOM     30  C   UNL     1     108.036  44.902 136.781  1.00  0.00     0.191 C 
BRANCH  30  31
ATOM     31  O   UNL     1     108.508  44.296 137.953  1.00  0.00    -0.394 OA
ATOM     32  H   UNL     1     109.386  43.895 137.721  1.00  0.00     0.210 HD
ENDBRANCH  30  31
ENDBRANCH  24  30
BRANCH  25  33
ATOM     33  O   UNL     1     105.488  43.858 137.304  1.00  0.00    -0.388 OA
ATOM     34  H   UNL     1     105.611  43.779 136.322  1.00  0.00     0.211 HD
ENDBRANCH  25  33
ENDBRANCH  11  20
BRANCH  10  35
ATOM     35  O   UNL     1     108.809  47.560 140.126  1.00  0.00    -0.507 OA
ATOM     36  H   UNL     1     108.813  46.859 139.392  1.00  0.00     0.293 HD
ENDBRANCH  10  35
TORSDOF 9
ENDMDL
MODEL 9
REMARK VINA RESULT:    -6.091      3.540      8.525
REMARK INTER + INTRA:          -8.962
REMARK INTER:                  -8.138
REMARK INTRA:                  -0.823
REMARK UNBOUND:                -0.734
REMARK SMILES O=c1c(-c2ccc(O)cc2)coc2c([C@H]3O[C@@H](CO)[C@@H](O)[C@@H](O)[C@H]3O)c(O)ccc12
REMARK SMILES IDX 3 1 11 2 12 3 13 4 30 5 2 6 1 7 29 8 28 9 26 10 14 11 4 12
REMARK SMILES IDX 5 13 6 14 7 15 10 16 9 17 8 18 15 20 24 21 16 22 22 23 17 24
REMARK SMILES IDX 20 25 25 26 23 28 18 30 19 31 21 33 27 35
REMARK H PARENT 8 19 25 27 23 29 19 32 21 34 27 36
REMARK Flexibility Score: inf
ROOT
ATOM      1  C   UNL     1     103.767  45.912 135.511  1.00  0.00     0.065 A 
ATOM      2  C   UNL     1     103.432  47.071 134.796  1.00  0.00     0.208 A 
ATOM      3  O   UNL     1     102.336  47.119 134.050  1.00  0.00    -0.463 OA
ATOM      4  C   UNL     1     101.493  46.096 133.927  1.00  0.00     0.147 A 
ATOM      5  C   UNL     1     101.762  44.882 134.601  1.00  0.00     0.066 A 
ATOM      6  C   UNL     1     102.917  44.796 135.400  1.00  0.00     0.200 A 
ATOM      7  O   UNL     1     103.201  43.721 135.995  1.00  0.00    -0.288 OA
ATOM      8  C   UNL     1     100.888  43.796 134.447  1.00  0.00     0.020 A 
ATOM      9  C   UNL     1      99.768  43.906 133.625  1.00  0.00     0.047 A 
ATOM     10  C   UNL     1      99.494  45.102 132.951  1.00  0.00     0.125 A 
ATOM     11  C   UNL     1     100.340  46.221 133.115  1.00  0.00     0.069 A 
ENDROOT
BRANCH   1  12
ATOM     12  C   UNL     1     104.993  45.887 136.348  1.00  0.00    -0.011 A 
ATOM     13  C   UNL     1     106.166  45.266 135.884  1.00  0.00     0.013 A 
ATOM     14  C   UNL     1     107.314  45.239 136.679  1.00  0.00     0.047 A 
ATOM     15  C   UNL     1     107.305  45.827 137.951  1.00  0.00     0.115 A 
ATOM     16  C   UNL     1     104.989  46.470 137.628  1.00  0.00     0.013 A 
ATOM     17  C   UNL     1     106.140  46.441 138.421  1.00  0.00     0.047 A 
BRANCH  15  18
ATOM     18  O   UNL     1     108.444  45.805 138.752  1.00  0.00    -0.508 OA
ATOM     19  H   UNL     1     109.310  45.387 138.431  1.00  0.00     0.293 HD
ENDBRANCH  15  18
ENDBRANCH   1  12
BRANCH  11  20
ATOM     20  C   UNL     1     100.047  47.516 132.365  1.00  0.00     0.188 C 
ATOM     21  C   UNL     1     100.807  47.595 131.006  1.00  0.00     0.179 C 
ATOM     22  O   UNL     1     100.363  48.633 133.182  1.00  0.00    -0.362 OA
ATOM     23  C   UNL     1     101.150  49.061 130.643  1.00  0.00     0.177 C 
ATOM     24  C   UNL     1      99.786  49.831 132.675  1.00  0.00     0.176 C 
ATOM     25  C   UNL     1     100.019  49.989 131.130  1.00  0.00     0.177 C 
BRANCH  21  26
ATOM     26  O   UNL     1     101.978  46.815 131.024  1.00  0.00    -0.387 OA
ATOM     27  H   UNL     1     101.849  46.119 131.721  1.00  0.00     0.211 HD
ENDBRANCH  21  26
BRANCH  23  28
ATOM     28  O   UNL     1     102.364  49.441 131.245  1.00  0.00    -0.387 OA
ATOM     29  H   UNL     1     103.076  48.876 130.846  1.00  0.00     0.211 HD
ENDBRANCH  23  28
BRANCH  24  30
ATOM     30  C   UNL     1     100.339  50.998 133.506  1.00  0.00     0.191 C 
BRANCH  30  31
ATOM     31  O   UNL     1     101.726  51.105 133.337  1.00  0.00    -0.394 OA
ATOM     32  H   UNL     1     101.874  51.918 132.788  1.00  0.00     0.210 HD
ENDBRANCH  30  31
ENDBRANCH  24  30
BRANCH  25  33
ATOM     33  O   UNL     1     100.216  51.325 130.725  1.00  0.00    -0.388 OA
ATOM     34  H   UNL     1     101.126  51.404 130.337  1.00  0.00     0.211 HD
ENDBRANCH  25  33
ENDBRANCH  11  20
BRANCH  10  35
ATOM     35  O   UNL     1      98.380  45.177 132.113  1.00  0.00    -0.507 OA
ATOM     36  H   UNL     1      98.421  45.643 131.213  1.00  0.00     0.293 HD
ENDBRANCH  10  35
TORSDOF 9
ENDMDL
