MODEL 1
REMARK VINA RESULT:    -5.506      0.000      0.000
REMARK INTER + INTRA:          -6.818
REMARK INTER:                  -6.632
REMARK INTRA:                  -0.185
REMARK UNBOUND:                -0.185
REMARK SMILES C=CCc1ccc(O)c(OC)c1
REMARK SMILES IDX 9 1 7 2 6 3 5 4 4 5 12 6 10 7 11 8 8 9 3 11 2 12 1 13
REMARK H PARENT 8 10
REMARK Flexibility Score: inf
ROOT
ATOM      1  C   UNL     1      31.558   7.063 107.010  1.00  0.00     0.160 A 
ATOM      2  C   UNL     1      30.985   6.201 106.065  1.00  0.00     0.157 A 
ATOM      3  C   UNL     1      30.498   6.708 104.853  1.00  0.00     0.050 A 
ATOM      4  C   UNL     1      30.580   8.074 104.578  1.00  0.00     0.008 A 
ATOM      5  C   UNL     1      31.160   8.949 105.508  1.00  0.00    -0.040 A 
ATOM      6  C   UNL     1      31.640   8.441 106.726  1.00  0.00     0.054 A 
ENDROOT
BRANCH   1   7
ATOM      7  O   UNL     1      32.031   6.518 108.213  1.00  0.00    -0.493 OA
ATOM      8  C   UNL     1      33.241   6.908 108.854  1.00  0.00     0.278 C 
ENDBRANCH   1   7
BRANCH   2   9
ATOM      9  O   UNL     1      30.902   4.836 106.339  1.00  0.00    -0.504 OA
ATOM     10  H   UNL     1      30.138   4.270 105.986  1.00  0.00     0.293 HD
ENDBRANCH   2   9
BRANCH   5  11
ATOM     11  C   UNL     1      31.225  10.427 105.225  1.00  0.00     0.062 C 
BRANCH  11  12
ATOM     12  C   UNL     1      29.897  11.078 105.490  1.00  0.00    -0.030 C 
ATOM     13  C   UNL     1      29.754  12.407 105.491  1.00  0.00     0.004 C 
ENDBRANCH  11  12
ENDBRANCH   5  11
TORSDOF 4
ENDMDL
MODEL 2
REMARK VINA RESULT:    -5.303      2.632      4.817
REMARK INTER + INTRA:          -6.573
REMARK INTER:                  -6.313
REMARK INTRA:                  -0.260
REMARK UNBOUND:                -0.185
REMARK SMILES C=CCc1ccc(O)c(OC)c1
REMARK SMILES IDX 9 1 7 2 6 3 5 4 4 5 12 6 10 7 11 8 8 9 3 11 2 12 1 13
REMARK H PARENT 8 10
REMARK Flexibility Score: inf
ROOT
ATOM      1  C   UNL     1      32.936   8.651 106.859  1.00  0.00     0.160 A 
ATOM      2  C   UNL     1      31.936   8.849 105.897  1.00  0.00     0.157 A 
ATOM      3  C   UNL     1      30.948   7.876 105.698  1.00  0.00     0.050 A 
ATOM      4  C   UNL     1      30.951   6.704 106.457  1.00  0.00     0.008 A 
ATOM      5  C   UNL     1      31.939   6.496 107.430  1.00  0.00    -0.040 A 
ATOM      6  C   UNL     1      32.934   7.467 107.623  1.00  0.00     0.054 A 
ENDROOT
BRANCH   1   7
ATOM      7  O   UNL     1      33.911   9.647 107.025  1.00  0.00    -0.493 OA
ATOM      8  C   UNL     1      35.315   9.422 106.946  1.00  0.00     0.278 C 
ENDBRANCH   1   7
BRANCH   2   9
ATOM      9  O   UNL     1      31.932  10.019 105.138  1.00  0.00    -0.504 OA
ATOM     10  H   UNL     1      32.224  10.022 104.167  1.00  0.00     0.293 HD
ENDBRANCH   2   9
BRANCH   5  11
ATOM     11  C   UNL     1      31.960   5.220 108.231  1.00  0.00     0.062 C 
BRANCH  11  12
ATOM     12  C   UNL     1      32.419   4.067 107.383  1.00  0.00    -0.030 C 
ATOM     13  C   UNL     1      33.703   3.903 107.055  1.00  0.00     0.004 C 
ENDBRANCH  11  12
ENDBRANCH   5  11
TORSDOF 4
ENDMDL
MODEL 3
REMARK VINA RESULT:    -5.161      3.161      4.940
REMARK INTER + INTRA:          -6.403
REMARK INTER:                  -6.148
REMARK INTRA:                  -0.255
REMARK UNBOUND:                -0.185
REMARK SMILES C=CCc1ccc(O)c(OC)c1
REMARK SMILES IDX 9 1 7 2 6 3 5 4 4 5 12 6 10 7 11 8 8 9 3 11 2 12 1 13
REMARK H PARENT 8 10
REMARK Flexibility Score: inf
ROOT
ATOM      1  C   UNL     1      34.256   9.445 106.762  1.00  0.00     0.160 A 
ATOM      2  C   UNL     1      33.442   9.845 105.693  1.00  0.00     0.157 A 
ATOM      3  C   UNL     1      32.161   9.299 105.540  1.00  0.00     0.050 A 
ATOM      4  C   UNL     1      31.685   8.355 106.453  1.00  0.00     0.008 A 
ATOM      5  C   UNL     1      32.483   7.953 107.534  1.00  0.00    -0.040 A 
ATOM      6  C   UNL     1      33.770   8.494 107.681  1.00  0.00     0.054 A 
ENDROOT
BRANCH   1   7
ATOM      7  O   UNL     1      35.534  10.013 106.878  1.00  0.00    -0.493 OA
ATOM      8  C   UNL     1      35.857  11.104 107.736  1.00  0.00     0.278 C 
ENDBRANCH   1   7
BRANCH   2   9
ATOM      9  O   UNL     1      33.917  10.787 104.781  1.00  0.00    -0.504 OA
ATOM     10  H   UNL     1      33.295  11.452 104.334  1.00  0.00     0.293 HD
ENDBRANCH   2   9
BRANCH   5  11
ATOM     11  C   UNL     1      31.982   6.915 108.503  1.00  0.00     0.062 C 
BRANCH  11  12
ATOM     12  C   UNL     1      32.535   5.559 108.165  1.00  0.00    -0.030 C 
ATOM     13  C   UNL     1      31.958   4.773 107.251  1.00  0.00     0.004 C 
ENDBRANCH  11  12
ENDBRANCH   5  11
TORSDOF 4
ENDMDL
MODEL 4
REMARK VINA RESULT:    -4.992      1.668      2.543
REMARK INTER + INTRA:          -6.199
REMARK INTER:                  -5.989
REMARK INTRA:                  -0.210
REMARK UNBOUND:                -0.185
REMARK SMILES C=CCc1ccc(O)c(OC)c1
REMARK SMILES IDX 9 1 7 2 6 3 5 4 4 5 12 6 10 7 11 8 8 9 3 11 2 12 1 13
REMARK H PARENT 8 10
REMARK Flexibility Score: inf
ROOT
ATOM      1  C   UNL     1      33.247   8.124 107.769  1.00  0.00     0.160 A 
ATOM      2  C   UNL     1      32.824   6.874 108.241  1.00  0.00     0.157 A 
ATOM      3  C   UNL     1      31.701   6.252 107.678  1.00  0.00     0.050 A 
ATOM      4  C   UNL     1      30.998   6.873 106.644  1.00  0.00     0.008 A 
ATOM      5  C   UNL     1      31.414   8.119 106.155  1.00  0.00    -0.040 A 
ATOM      6  C   UNL     1      32.534   8.746 106.725  1.00  0.00     0.054 A 
ENDROOT
BRANCH   1   7
ATOM      7  O   UNL     1      34.373   8.716 108.362  1.00  0.00    -0.493 OA
ATOM      8  C   UNL     1      35.252   9.620 107.698  1.00  0.00     0.278 C 
ENDBRANCH   1   7
BRANCH   2   9
ATOM      9  O   UNL     1      33.526   6.253 109.273  1.00  0.00    -0.504 OA
ATOM     10  H   UNL     1      34.036   6.791 109.966  1.00  0.00     0.293 HD
ENDBRANCH   2   9
BRANCH   5  11
ATOM     11  C   UNL     1      30.639   8.803 105.059  1.00  0.00     0.062 C 
BRANCH  11  12
ATOM     12  C   UNL     1      30.834  10.292 105.119  1.00  0.00    -0.030 C 
ATOM     13  C   UNL     1      29.840  11.116 105.462  1.00  0.00     0.004 C 
ENDBRANCH  11  12
ENDBRANCH   5  11
TORSDOF 4
ENDMDL
MODEL 5
REMARK VINA RESULT:    -4.937      1.458      2.699
REMARK INTER + INTRA:          -6.132
REMARK INTER:                  -6.009
REMARK INTRA:                  -0.123
REMARK UNBOUND:                -0.185
REMARK SMILES C=CCc1ccc(O)c(OC)c1
REMARK SMILES IDX 9 1 7 2 6 3 5 4 4 5 12 6 10 7 11 8 8 9 3 11 2 12 1 13
REMARK H PARENT 8 10
REMARK Flexibility Score: inf
ROOT
ATOM      1  C   UNL     1      32.094   5.816 107.306  1.00  0.00     0.160 A 
ATOM      2  C   UNL     1      32.792   6.573 108.257  1.00  0.00     0.157 A 
ATOM      3  C   UNL     1      32.785   7.972 108.185  1.00  0.00     0.050 A 
ATOM      4  C   UNL     1      32.082   8.621 107.168  1.00  0.00     0.008 A 
ATOM      5  C   UNL     1      31.371   7.878 106.216  1.00  0.00    -0.040 A 
ATOM      6  C   UNL     1      31.385   6.476 106.283  1.00  0.00     0.054 A 
ENDROOT
BRANCH   1   7
ATOM      7  O   UNL     1      32.129   4.416 107.409  1.00  0.00    -0.493 OA
ATOM      8  C   UNL     1      33.209   3.602 106.963  1.00  0.00     0.278 C 
ENDBRANCH   1   7
BRANCH   2   9
ATOM      9  O   UNL     1      33.495   5.925 109.272  1.00  0.00    -0.504 OA
ATOM     10  H   UNL     1      34.312   5.359 109.074  1.00  0.00     0.293 HD
ENDBRANCH   2   9
BRANCH   5  11
ATOM     11  C   UNL     1      30.635   8.576 105.102  1.00  0.00     0.062 C 
BRANCH  11  12
ATOM     12  C   UNL     1      30.908  10.053 105.127  1.00  0.00    -0.030 C 
ATOM     13  C   UNL     1      29.953  10.940 105.423  1.00  0.00     0.004 C 
ENDBRANCH  11  12
ENDBRANCH   5  11
TORSDOF 4
ENDMDL
MODEL 6
REMARK VINA RESULT:    -4.838      2.489      3.960
REMARK INTER + INTRA:          -6.013
REMARK INTER:                  -5.816
REMARK INTRA:                  -0.197
REMARK UNBOUND:                -0.185
REMARK SMILES C=CCc1ccc(O)c(OC)c1
REMARK SMILES IDX 9 1 7 2 6 3 5 4 4 5 12 6 10 7 11 8 8 9 3 11 2 12 1 13
REMARK H PARENT 8 10
REMARK Flexibility Score: inf
ROOT
ATOM      1  C   UNL     1      31.253   6.844 106.417  1.00  0.00     0.160 A 
ATOM      2  C   UNL     1      31.405   5.512 106.824  1.00  0.00     0.157 A 
ATOM      3  C   UNL     1      32.387   5.170 107.763  1.00  0.00     0.050 A 
ATOM      4  C   UNL     1      33.219   6.154 108.301  1.00  0.00     0.008 A 
ATOM      5  C   UNL     1      33.073   7.493 107.912  1.00  0.00    -0.040 A 
ATOM      6  C   UNL     1      32.094   7.834 106.965  1.00  0.00     0.054 A 
ENDROOT
BRANCH   1   7
ATOM      7  O   UNL     1      30.261   7.146 105.472  1.00  0.00    -0.493 OA
ATOM      8  C   UNL     1      30.498   7.302 104.076  1.00  0.00     0.278 C 
ENDBRANCH   1   7
BRANCH   2   9
ATOM      9  O   UNL     1      30.575   4.528 106.287  1.00  0.00    -0.504 OA
ATOM     10  H   UNL     1      29.830   4.108 106.832  1.00  0.00     0.293 HD
ENDBRANCH   2   9
BRANCH   5  11
ATOM     11  C   UNL     1      33.987   8.551 108.471  1.00  0.00     0.062 C 
BRANCH  11  12
ATOM     12  C   UNL     1      34.756   9.226 107.369  1.00  0.00    -0.030 C 
ATOM     13  C   UNL     1      35.468  10.335 107.587  1.00  0.00     0.004 C 
ENDBRANCH  11  12
ENDBRANCH   5  11
TORSDOF 4
ENDMDL
MODEL 7
REMARK VINA RESULT:    -4.816      2.669      5.233
REMARK INTER + INTRA:          -5.987
REMARK INTER:                  -5.732
REMARK INTRA:                  -0.255
REMARK UNBOUND:                -0.185
REMARK SMILES C=CCc1ccc(O)c(OC)c1
REMARK SMILES IDX 9 1 7 2 6 3 5 4 4 5 12 6 10 7 11 8 8 9 3 11 2 12 1 13
REMARK H PARENT 8 10
REMARK Flexibility Score: inf
ROOT
ATOM      1  C   UNL     1      32.111   9.239 105.901  1.00  0.00     0.160 A 
ATOM      2  C   UNL     1      33.388   9.809 105.810  1.00  0.00     0.157 A 
ATOM      3  C   UNL     1      34.396   9.423 106.704  1.00  0.00     0.050 A 
ATOM      4  C   UNL     1      34.135   8.468 107.688  1.00  0.00     0.008 A 
ATOM      5  C   UNL     1      32.866   7.881 107.785  1.00  0.00    -0.040 A 
ATOM      6  C   UNL     1      31.854   8.274 106.895  1.00  0.00     0.054 A 
ENDROOT
BRANCH   1   7
ATOM      7  O   UNL     1      31.127   9.654 104.990  1.00  0.00    -0.493 OA
ATOM      8  C   UNL     1      30.182  10.691 105.240  1.00  0.00     0.278 C 
ENDBRANCH   1   7
BRANCH   2   9
ATOM      9  O   UNL     1      33.649  10.763 104.828  1.00  0.00    -0.504 OA
ATOM     10  H   UNL     1      33.060  10.854 104.007  1.00  0.00     0.293 HD
ENDBRANCH   2   9
BRANCH   5  11
ATOM     11  C   UNL     1      32.575   6.871 108.864  1.00  0.00     0.062 C 
BRANCH  11  12
ATOM     12  C   UNL     1      32.136   5.564 108.266  1.00  0.00    -0.030 C 
ATOM     13  C   UNL     1      32.963   4.815 107.530  1.00  0.00     0.004 C 
ENDBRANCH  11  12
ENDBRANCH   5  11
TORSDOF 4
ENDMDL
MODEL 8
REMARK VINA RESULT:    -4.743      3.319      5.102
REMARK INTER + INTRA:          -5.899
REMARK INTER:                  -5.660
REMARK INTRA:                  -0.239
REMARK UNBOUND:                -0.185
REMARK SMILES C=CCc1ccc(O)c(OC)c1
REMARK SMILES IDX 9 1 7 2 6 3 5 4 4 5 12 6 10 7 11 8 8 9 3 11 2 12 1 13
REMARK H PARENT 8 10
REMARK Flexibility Score: inf
ROOT
ATOM      1  C   UNL     1      34.368  10.073 106.089  1.00  0.00     0.160 A 
ATOM      2  C   UNL     1      34.922   9.581 107.279  1.00  0.00     0.157 A 
ATOM      3  C   UNL     1      34.248   8.599 108.016  1.00  0.00     0.050 A 
ATOM      4  C   UNL     1      33.022   8.102 107.570  1.00  0.00     0.008 A 
ATOM      5  C   UNL     1      32.459   8.577 106.376  1.00  0.00    -0.040 A 
ATOM      6  C   UNL     1      33.131   9.567 105.642  1.00  0.00     0.054 A 
ENDROOT
BRANCH   1   7
ATOM      7  O   UNL     1      35.073  11.059 105.381  1.00  0.00    -0.493 OA
ATOM      8  C   UNL     1      34.471  12.194 104.765  1.00  0.00     0.278 C 
ENDBRANCH   1   7
BRANCH   2   9
ATOM      9  O   UNL     1      36.147  10.077 107.725  1.00  0.00    -0.504 OA
ATOM     10  H   UNL     1      37.004   9.917 107.207  1.00  0.00     0.293 HD
ENDBRANCH   2   9
BRANCH   5  11
ATOM     11  C   UNL     1      31.123   8.062 105.908  1.00  0.00     0.062 C 
BRANCH  11  12
ATOM     12  C   UNL     1      30.855   6.692 106.464  1.00  0.00    -0.030 C 
ATOM     13  C   UNL     1      31.064   5.588 105.742  1.00  0.00     0.004 C 
ENDBRANCH  11  12
ENDBRANCH   5  11
TORSDOF 4
ENDMDL
MODEL 9
REMARK VINA RESULT:    -4.697      2.265      3.408
REMARK INTER + INTRA:          -5.843
REMARK INTER:                  -5.588
REMARK INTRA:                  -0.255
REMARK UNBOUND:                -0.185
REMARK SMILES C=CCc1ccc(O)c(OC)c1
REMARK SMILES IDX 9 1 7 2 6 3 5 4 4 5 12 6 10 7 11 8 8 9 3 11 2 12 1 13
REMARK H PARENT 8 10
REMARK Flexibility Score: inf
ROOT
ATOM      1  C   UNL     1      32.390   5.711 107.446  1.00  0.00     0.160 A 
ATOM      2  C   UNL     1      31.308   6.084 106.636  1.00  0.00     0.157 A 
ATOM      3  C   UNL     1      31.104   7.431 106.311  1.00  0.00     0.050 A 
ATOM      4  C   UNL     1      31.977   8.411 106.790  1.00  0.00     0.008 A 
ATOM      5  C   UNL     1      33.069   8.052 107.593  1.00  0.00    -0.040 A 
ATOM      6  C   UNL     1      33.268   6.702 107.925  1.00  0.00     0.054 A 
ENDROOT
BRANCH   1   7
ATOM      7  O   UNL     1      32.558   4.351 107.752  1.00  0.00    -0.493 OA
ATOM      8  C   UNL     1      33.483   3.486 107.100  1.00  0.00     0.278 C 
ENDBRANCH   1   7
BRANCH   2   9
ATOM      9  O   UNL     1      30.436   5.107 106.158  1.00  0.00    -0.504 OA
ATOM     10  H   UNL     1      29.432   5.191 106.271  1.00  0.00     0.293 HD
ENDBRANCH   2   9
BRANCH   5  11
ATOM     11  C   UNL     1      33.995   9.110 108.133  1.00  0.00     0.062 C 
BRANCH  11  12
ATOM     12  C   UNL     1      35.235   9.213 107.290  1.00  0.00    -0.030 C 
ATOM     13  C   UNL     1      35.286   9.995 106.208  1.00  0.00     0.004 C 
ENDBRANCH  11  12
ENDBRANCH   5  11
TORSDOF 4
ENDMDL
