MODEL 1
REMARK VINA RESULT:    -2.188      0.000      0.000
REMARK INTER + INTRA:          -2.188
REMARK INTER:                  -2.188
REMARK INTRA:                   0.000
REMARK UNBOUND:                 0.000
REMARK SMILES CC(=O)[O-]
REMARK SMILES IDX 1 1 2 2 3 3 4 4
REMARK H PARENT
REMARK Flexibility Score: inf
ROOT
ATOM      1  C   UNL     1      29.126   5.909  48.293  1.00  0.00     0.063 C 
ATOM      2  C   UNL     1      30.345   6.688  47.933  1.00  0.00     0.038 C 
ATOM      3  O   UNL     1      30.528   7.835  48.419  1.00  0.00    -0.550 OA
ATOM      4  O   UNL     1      31.254   6.174  47.017  1.00  0.00    -0.550 OA
ENDROOT
TORSDOF 0
ENDMDL
MODEL 2
REMARK VINA RESULT:    -2.180      0.102      1.621
REMARK INTER + INTRA:          -2.180
REMARK INTER:                  -2.180
REMARK INTRA:                   0.000
REMARK UNBOUND:                 0.000
REMARK SMILES CC(=O)[O-]
REMARK SMILES IDX 1 1 2 2 3 3 4 4
REMARK H PARENT
REMARK Flexibility Score: inf
ROOT
ATOM      1  C   UNL     1      29.111   5.878  48.346  1.00  0.00     0.063 C 
ATOM      2  C   UNL     1      30.304   6.663  47.920  1.00  0.00     0.038 C 
ATOM      3  O   UNL     1      31.141   6.160  47.126  1.00  0.00    -0.550 OA
ATOM      4  O   UNL     1      30.523   7.933  48.440  1.00  0.00    -0.550 OA
ENDROOT
TORSDOF 0
ENDMDL
MODEL 3
REMARK VINA RESULT:    -2.089      4.983      5.354
REMARK INTER + INTRA:          -2.089
REMARK INTER:                  -2.089
REMARK INTRA:                   0.000
REMARK UNBOUND:                 0.000
REMARK SMILES CC(=O)[O-]
REMARK SMILES IDX 1 1 2 2 3 3 4 4
REMARK H PARENT
REMARK Flexibility Score: inf
ROOT
ATOM      1  C   UNL     1      34.912   4.853  47.332  1.00  0.00     0.063 C 
ATOM      2  C   UNL     1      34.807   4.964  45.849  1.00  0.00     0.038 C 
ATOM      3  O   UNL     1      34.288   5.986  45.327  1.00  0.00    -0.550 OA
ATOM      4  O   UNL     1      35.233   3.918  45.040  1.00  0.00    -0.550 OA
ENDROOT
TORSDOF 0
ENDMDL
MODEL 4
REMARK VINA RESULT:    -2.086     15.343     15.438
REMARK INTER + INTRA:          -2.086
REMARK INTER:                  -2.086
REMARK INTRA:                   0.000
REMARK UNBOUND:                 0.000
REMARK SMILES CC(=O)[O-]
REMARK SMILES IDX 1 1 2 2 3 3 4 4
REMARK H PARENT
REMARK Flexibility Score: inf
ROOT
ATOM      1  C   UNL     1      24.345  10.857  35.620  1.00  0.00     0.063 C 
ATOM      2  C   UNL     1      22.924  10.917  35.174  1.00  0.00     0.038 C 
ATOM      3  O   UNL     1      22.010  10.471  35.916  1.00  0.00    -0.550 OA
ATOM      4  O   UNL     1      22.610  11.416  33.916  1.00  0.00    -0.550 OA
ENDROOT
TORSDOF 0
ENDMDL
MODEL 5
REMARK VINA RESULT:    -2.021      6.282      6.650
REMARK INTER + INTRA:          -2.021
REMARK INTER:                  -2.021
REMARK INTRA:                   0.000
REMARK UNBOUND:                 0.000
REMARK SMILES CC(=O)[O-]
REMARK SMILES IDX 1 1 2 2 3 3 4 4
REMARK H PARENT
REMARK Flexibility Score: inf
ROOT
ATOM      1  C   UNL     1      35.165  10.496  45.439  1.00  0.00     0.063 C 
ATOM      2  C   UNL     1      34.489   9.738  44.348  1.00  0.00     0.038 C 
ATOM      3  O   UNL     1      34.656   8.495  44.245  1.00  0.00    -0.550 OA
ATOM      4  O   UNL     1      33.715  10.410  43.410  1.00  0.00    -0.550 OA
ENDROOT
TORSDOF 0
ENDMDL
MODEL 6
REMARK VINA RESULT:    -2.003      5.928      6.334
REMARK INTER + INTRA:          -2.003
REMARK INTER:                  -2.003
REMARK INTRA:                   0.000
REMARK UNBOUND:                 0.000
REMARK SMILES CC(=O)[O-]
REMARK SMILES IDX 1 1 2 2 3 3 4 4
REMARK H PARENT
REMARK Flexibility Score: inf
ROOT
ATOM      1  C   UNL     1      34.743   9.207  43.996  1.00  0.00     0.063 C 
ATOM      2  C   UNL     1      34.757   9.951  45.288  1.00  0.00     0.038 C 
ATOM      3  O   UNL     1      35.538  10.924  45.449  1.00  0.00    -0.550 OA
ATOM      4  O   UNL     1      33.945   9.537  46.337  1.00  0.00    -0.550 OA
ENDROOT
TORSDOF 0
ENDMDL
MODEL 7
REMARK VINA RESULT:    -1.994     15.397     15.436
REMARK INTER + INTRA:          -1.994
REMARK INTER:                  -1.994
REMARK INTRA:                   0.000
REMARK UNBOUND:                 0.000
REMARK SMILES CC(=O)[O-]
REMARK SMILES IDX 1 1 2 2 3 3 4 4
REMARK H PARENT
REMARK Flexibility Score: inf
ROOT
ATOM      1  C   UNL     1      21.352  10.011  35.616  1.00  0.00     0.063 C 
ATOM      2  C   UNL     1      22.334  11.126  35.498  1.00  0.00     0.038 C 
ATOM      3  O   UNL     1      21.947  12.320  35.593  1.00  0.00    -0.550 OA
ATOM      4  O   UNL     1      23.669  10.851  35.231  1.00  0.00    -0.550 OA
ENDROOT
TORSDOF 0
ENDMDL
MODEL 8
REMARK VINA RESULT:    -1.969      4.107      4.672
REMARK INTER + INTRA:          -1.969
REMARK INTER:                  -1.969
REMARK INTRA:                   0.000
REMARK UNBOUND:                 0.000
REMARK SMILES CC(=O)[O-]
REMARK SMILES IDX 1 1 2 2 3 3 4 4
REMARK H PARENT
REMARK Flexibility Score: inf
ROOT
ATOM      1  C   UNL     1      34.038   7.397  44.677  1.00  0.00     0.063 C 
ATOM      2  C   UNL     1      34.014   6.268  45.649  1.00  0.00     0.038 C 
ATOM      3  O   UNL     1      33.362   6.371  46.722  1.00  0.00    -0.550 OA
ATOM      4  O   UNL     1      34.754   5.119  45.400  1.00  0.00    -0.550 OA
ENDROOT
TORSDOF 0
ENDMDL
MODEL 9
REMARK VINA RESULT:    -1.942      5.861      6.288
REMARK INTER + INTRA:          -1.942
REMARK INTER:                  -1.942
REMARK INTRA:                   0.000
REMARK UNBOUND:                 0.000
REMARK SMILES CC(=O)[O-]
REMARK SMILES IDX 1 1 2 2 3 3 4 4
REMARK H PARENT
REMARK Flexibility Score: inf
ROOT
ATOM      1  C   UNL     1      33.955  10.241  43.526  1.00  0.00     0.063 C 
ATOM      2  C   UNL     1      34.422   9.376  44.646  1.00  0.00     0.038 C 
ATOM      3  O   UNL     1      34.443   8.124  44.511  1.00  0.00    -0.550 OA
ATOM      4  O   UNL     1      34.785   9.945  45.860  1.00  0.00    -0.550 OA
ENDROOT
TORSDOF 0
ENDMDL
