MODEL 1
REMARK VINA RESULT:    -3.084      0.000      0.000
REMARK INTER + INTRA:          -3.483
REMARK INTER:                  -3.445
REMARK INTRA:                  -0.039
REMARK UNBOUND:                -0.039
REMARK SMILES CCCC(=O)[O-]
REMARK SMILES IDX 3 1 4 2 5 3 6 4 2 5 1 6
REMARK H PARENT
REMARK Flexibility Score: inf
ROOT
ATOM      1  C   UNL     1      -1.527   6.268  -0.247  1.00  0.00     0.052 C 
ENDROOT
BRANCH   1   2
ATOM      2  C   UNL     1      -0.423   6.847  -1.077  1.00  0.00     0.041 C 
ATOM      3  O   UNL     1      -0.619   7.124  -2.290  1.00  0.00    -0.550 OA
ATOM      4  O   UNL     1       0.834   7.048  -0.520  1.00  0.00    -0.550 OA
ENDBRANCH   1   2
BRANCH   1   5
ATOM      5  C   UNL     1      -2.299   5.183  -1.006  1.00  0.00     0.003 C 
ATOM      6  C   UNL     1      -3.735   5.603  -1.319  1.00  0.00     0.004 C 
ENDBRANCH   1   5
TORSDOF 2
ENDMDL
MODEL 2
REMARK VINA RESULT:    -3.044     12.582     13.563
REMARK INTER + INTRA:          -3.438
REMARK INTER:                  -3.425
REMARK INTRA:                  -0.013
REMARK UNBOUND:                -0.039
REMARK SMILES CCCC(=O)[O-]
REMARK SMILES IDX 3 1 4 2 5 3 6 4 2 5 1 6
REMARK H PARENT
REMARK Flexibility Score: inf
ROOT
ATOM      1  C   UNL     1      -7.923  -4.981  -4.165  1.00  0.00     0.052 C 
ENDROOT
BRANCH   1   2
ATOM      2  C   UNL     1      -8.237  -3.557  -3.825  1.00  0.00     0.041 C 
ATOM      3  O   UNL     1      -7.463  -2.632  -4.190  1.00  0.00    -0.550 OA
ATOM      4  O   UNL     1      -9.366  -3.252  -3.075  1.00  0.00    -0.550 OA
ENDBRANCH   1   2
BRANCH   1   5
ATOM      5  C   UNL     1      -9.191  -5.777  -4.497  1.00  0.00     0.003 C 
ATOM      6  C   UNL     1      -9.044  -7.264  -4.176  1.00  0.00     0.004 C 
ENDBRANCH   1   5
TORSDOF 2
ENDMDL
MODEL 3
REMARK VINA RESULT:    -2.983      1.512      1.689
REMARK INTER + INTRA:          -3.371
REMARK INTER:                  -3.372
REMARK INTRA:                   0.001
REMARK UNBOUND:                -0.039
REMARK SMILES CCCC(=O)[O-]
REMARK SMILES IDX 3 1 4 2 5 3 6 4 2 5 1 6
REMARK H PARENT
REMARK Flexibility Score: inf
ROOT
ATOM      1  C   UNL     1      -1.394   5.789  -1.994  1.00  0.00     0.052 C 
ENDROOT
BRANCH   1   2
ATOM      2  C   UNL     1      -0.849   6.288  -0.692  1.00  0.00     0.041 C 
ATOM      3  O   UNL     1      -1.556   6.246   0.350  1.00  0.00    -0.550 OA
ATOM      4  O   UNL     1       0.429   6.832  -0.635  1.00  0.00    -0.550 OA
ENDBRANCH   1   2
BRANCH   1   5
ATOM      5  C   UNL     1      -2.691   6.510  -2.381  1.00  0.00     0.003 C 
ATOM      6  C   UNL     1      -3.936   5.705  -2.011  1.00  0.00     0.004 C 
ENDBRANCH   1   5
TORSDOF 2
ENDMDL
MODEL 4
REMARK VINA RESULT:    -2.906     16.312     16.827
REMARK INTER + INTRA:          -3.284
REMARK INTER:                  -3.270
REMARK INTRA:                  -0.014
REMARK UNBOUND:                -0.039
REMARK SMILES CCCC(=O)[O-]
REMARK SMILES IDX 3 1 4 2 5 3 6 4 2 5 1 6
REMARK H PARENT
REMARK Flexibility Score: inf
ROOT
ATOM      1  C   UNL     1      -4.277  -7.694   7.747  1.00  0.00     0.052 C 
ENDROOT
BRANCH   1   2
ATOM      2  C   UNL     1      -4.554  -8.157   6.349  1.00  0.00     0.041 C 
ATOM      3  O   UNL     1      -5.093  -9.277   6.145  1.00  0.00    -0.550 OA
ATOM      4  O   UNL     1      -4.186  -7.364   5.268  1.00  0.00    -0.550 OA
ENDBRANCH   1   2
BRANCH   1   5
ATOM      5  C   UNL     1      -5.571  -7.504   8.548  1.00  0.00     0.003 C 
ATOM      6  C   UNL     1      -5.794  -6.048   8.955  1.00  0.00     0.004 C 
ENDBRANCH   1   5
TORSDOF 2
ENDMDL
MODEL 5
REMARK VINA RESULT:    -2.850      3.290      4.085
REMARK INTER + INTRA:          -3.222
REMARK INTER:                  -3.186
REMARK INTRA:                  -0.036
REMARK UNBOUND:                -0.039
REMARK SMILES CCCC(=O)[O-]
REMARK SMILES IDX 3 1 4 2 5 3 6 4 2 5 1 6
REMARK H PARENT
REMARK Flexibility Score: inf
ROOT
ATOM      1  C   UNL     1      -3.328   6.214  -0.336  1.00  0.00     0.052 C 
ENDROOT
BRANCH   1   2
ATOM      2  C   UNL     1      -4.670   5.715  -0.778  1.00  0.00     0.041 C 
ATOM      3  O   UNL     1      -5.601   5.571   0.059  1.00  0.00    -0.550 OA
ATOM      4  O   UNL     1      -4.882   5.378  -2.109  1.00  0.00    -0.550 OA
ENDBRANCH   1   2
BRANCH   1   5
ATOM      5  C   UNL     1      -2.236   5.156  -0.536  1.00  0.00     0.003 C 
ATOM      6  C   UNL     1      -1.200   5.580  -1.576  1.00  0.00     0.004 C 
ENDBRANCH   1   5
TORSDOF 2
ENDMDL
MODEL 6
REMARK VINA RESULT:    -2.837     13.733     14.219
REMARK INTER + INTRA:          -3.207
REMARK INTER:                  -3.195
REMARK INTRA:                  -0.012
REMARK UNBOUND:                -0.039
REMARK SMILES CCCC(=O)[O-]
REMARK SMILES IDX 3 1 4 2 5 3 6 4 2 5 1 6
REMARK H PARENT
REMARK Flexibility Score: inf
ROOT
ATOM      1  C   UNL     1       2.575  -5.633  -8.267  1.00  0.00     0.052 C 
ENDROOT
BRANCH   1   2
ATOM      2  C   UNL     1       1.838  -4.463  -7.693  1.00  0.00     0.041 C 
ATOM      3  O   UNL     1       1.412  -3.548  -8.447  1.00  0.00    -0.550 OA
ATOM      4  O   UNL     1       1.649  -4.366  -6.319  1.00  0.00    -0.550 OA
ENDBRANCH   1   2
BRANCH   1   5
ATOM      5  C   UNL     1       2.064  -5.995  -9.667  1.00  0.00     0.003 C 
ATOM      6  C   UNL     1       1.783  -7.490  -9.815  1.00  0.00     0.004 C 
ENDBRANCH   1   5
TORSDOF 2
ENDMDL
MODEL 7
REMARK VINA RESULT:    -2.796     17.333     17.812
REMARK INTER + INTRA:          -3.162
REMARK INTER:                  -3.130
REMARK INTRA:                  -0.032
REMARK UNBOUND:                -0.039
REMARK SMILES CCCC(=O)[O-]
REMARK SMILES IDX 3 1 4 2 5 3 6 4 2 5 1 6
REMARK H PARENT
REMARK Flexibility Score: inf
ROOT
ATOM      1  C   UNL     1      -4.582  -8.153   6.648  1.00  0.00     0.052 C 
ENDROOT
BRANCH   1   2
ATOM      2  C   UNL     1      -5.263  -9.487   6.647  1.00  0.00     0.041 C 
ATOM      3  O   UNL     1      -5.562 -10.046   5.559  1.00  0.00    -0.550 OA
ATOM      4  O   UNL     1      -5.600 -10.097   7.850  1.00  0.00    -0.550 OA
ENDBRANCH   1   2
BRANCH   1   5
ATOM      5  C   UNL     1      -4.283  -7.670   8.073  1.00  0.00     0.003 C 
ATOM      6  C   UNL     1      -5.321  -6.666   8.575  1.00  0.00     0.004 C 
ENDBRANCH   1   5
TORSDOF 2
ENDMDL
MODEL 8
REMARK VINA RESULT:    -2.698     16.785     17.385
REMARK INTER + INTRA:          -3.053
REMARK INTER:                  -3.014
REMARK INTRA:                  -0.038
REMARK UNBOUND:                -0.039
REMARK SMILES CCCC(=O)[O-]
REMARK SMILES IDX 3 1 4 2 5 3 6 4 2 5 1 6
REMARK H PARENT
REMARK Flexibility Score: inf
ROOT
ATOM      1  C   UNL     1       3.623  -9.031  -8.815  1.00  0.00     0.052 C 
ENDROOT
BRANCH   1   2
ATOM      2  C   UNL     1       2.584  -7.980  -9.058  1.00  0.00     0.041 C 
ATOM      3  O   UNL     1       2.677  -6.854  -8.500  1.00  0.00    -0.550 OA
ATOM      4  O   UNL     1       1.494  -8.255  -9.874  1.00  0.00    -0.550 OA
ENDBRANCH   1   2
BRANCH   1   5
ATOM      5  C   UNL     1       4.635  -8.594  -7.750  1.00  0.00     0.003 C 
ATOM      6  C   UNL     1       6.003  -8.264  -8.347  1.00  0.00     0.004 C 
ENDBRANCH   1   5
TORSDOF 2
ENDMDL
MODEL 9
REMARK VINA RESULT:    -2.635     14.972     15.548
REMARK INTER + INTRA:          -2.981
REMARK INTER:                  -2.972
REMARK INTRA:                  -0.010
REMARK UNBOUND:                -0.039
REMARK SMILES CCCC(=O)[O-]
REMARK SMILES IDX 3 1 4 2 5 3 6 4 2 5 1 6
REMARK H PARENT
REMARK Flexibility Score: inf
ROOT
ATOM      1  C   UNL     1       3.384  -6.430  -8.890  1.00  0.00     0.052 C 
ENDROOT
BRANCH   1   2
ATOM      2  C   UNL     1       2.293  -5.476  -8.512  1.00  0.00     0.041 C 
ATOM      3  O   UNL     1       2.366  -4.821  -7.439  1.00  0.00    -0.550 OA
ATOM      4  O   UNL     1       1.177  -5.337  -9.329  1.00  0.00    -0.550 OA
ENDBRANCH   1   2
BRANCH   1   5
ATOM      5  C   UNL     1       2.987  -7.885  -8.612  1.00  0.00     0.003 C 
ATOM      6  C   UNL     1       4.120  -8.683  -7.968  1.00  0.00     0.004 C 
ENDBRANCH   1   5
TORSDOF 2
ENDMDL
