MODEL 1
REMARK VINA RESULT:    10.020      0.000      0.000
REMARK INTER + INTRA:          21.554
REMARK INTER:                  16.463
REMARK INTRA:                   5.090
REMARK UNBOUND:                 5.090
REMARK SMILES COc1ccc([C@@H]2CC(=O)c3c(O)cc(O[C@H]4O[C@@H](CO[C@@H]5O[C@@H](C)[C@@H](O)[C@@H](O)[C@H]5O)[C@H](O)[C@H](O)[C@H]4O)cc3O2)cc1O
REMARK SMILES IDX 19 1 32 2 34 3 36 4 17 5 18 6 20 7 21 8 22 9 25 10 24 11
REMARK SMILES IDX 26 12 23 13 28 14 30 15 27 16 29 18 31 20 33 22 35 24 16 26
REMARK SMILES IDX 15 27 14 28 38 29 12 30 39 31 11 32 40 33 9 34 7 35 10 36
REMARK SMILES IDX 8 37 13 38 6 40 41 41 5 42 42 43 4 44 3 45 43 46 2 48 1 49
REMARK SMILES IDX 37 50
REMARK H PARENT 27 17 29 19 31 21 33 23 35 25 13 39 43 47 37 51
REMARK Flexibility Score: inf
ROOT
ATOM      1  C   UNL     1      10.908  -0.313  19.099  1.00  0.00     0.180 C 
ATOM      2  C   UNL     1      10.228  -1.380  18.214  1.00  0.00     0.177 C 
ATOM      3  C   UNL     1      11.274  -2.357  17.645  1.00  0.00     0.180 C 
ATOM      4  C   UNL     1      12.174  -2.905  18.769  1.00  0.00     0.214 C 
ATOM      5  C   UNL     1      12.742  -1.758  19.632  1.00  0.00     0.339 C 
ATOM      6  O   UNL     1      11.723  -0.893  20.117  1.00  0.00    -0.332 OA
ENDROOT
BRANCH   1   7
ATOM      7  C   UNL     1      11.636   0.787  18.297  1.00  0.00     0.198 C 
BRANCH   7   8
ATOM      8  O   UNL     1      10.698   1.740  17.832  1.00  0.00    -0.347 OA
BRANCH   8   9
ATOM      9  C   UNL     1       9.907   2.274  18.891  1.00  0.00     0.281 C 
ATOM     10  C   UNL     1       7.325   0.144  20.066  1.00  0.00     0.041 C 
ATOM     11  C   UNL     1       8.481   0.350  19.079  1.00  0.00     0.150 C 
ATOM     12  C   UNL     1       7.976   0.787  17.670  1.00  0.00     0.174 C 
ATOM     13  O   UNL     1       9.447   1.204  19.700  1.00  0.00    -0.344 OA
ATOM     14  C   UNL     1       7.670   2.300  17.603  1.00  0.00     0.179 C 
ATOM     15  C   UNL     1       8.702   3.137  18.406  1.00  0.00     0.202 C 
BRANCH  12  16
ATOM     16  O   UNL     1       6.857   0.032  17.281  1.00  0.00    -0.388 OA
ATOM     17  H   UNL     1       7.136  -0.493  16.483  1.00  0.00     0.211 HD
ENDBRANCH  12  16
BRANCH  14  18
ATOM     18  O   UNL     1       6.352   2.552  18.032  1.00  0.00    -0.387 OA
ATOM     19  H   UNL     1       5.807   2.699  17.212  1.00  0.00     0.211 HD
ENDBRANCH  14  18
BRANCH  15  20
ATOM     20  O   UNL     1       8.091   3.797  19.491  1.00  0.00    -0.385 OA
ATOM     21  H   UNL     1       7.162   4.026  19.235  1.00  0.00     0.211 HD
ENDBRANCH  15  20
ENDBRANCH   8   9
ENDBRANCH   7   8
ENDBRANCH   1   7
BRANCH   2  22
ATOM     22  O   UNL     1       9.285  -2.072  18.995  1.00  0.00    -0.387 OA
ATOM     23  H   UNL     1       9.448  -1.813  19.939  1.00  0.00     0.211 HD
ENDBRANCH   2  22
BRANCH   3  24
ATOM     24  O   UNL     1      10.649  -3.397  16.933  1.00  0.00    -0.387 OA
ATOM     25  H   UNL     1      11.059  -3.445  16.031  1.00  0.00     0.211 HD
ENDBRANCH   3  24
BRANCH   5  26
ATOM     26  O   UNL     1      13.740  -1.003  18.936  1.00  0.00    -0.462 OA
BRANCH  26  27
ATOM     27  C   UNL     1      15.129  -1.113  19.094  1.00  0.00     0.130 A 
ATOM     28  C   UNL     1      15.979  -0.000  19.219  1.00  0.00     0.093 A 
ATOM     29  C   UNL     1      15.681  -2.395  19.096  1.00  0.00     0.094 A 
ATOM     30  C   UNL     1      17.362  -0.162  19.354  1.00  0.00     0.133 A 
ATOM     31  C   UNL     1      17.060  -2.577  19.211  1.00  0.00     0.138 A 
ATOM     32  C   UNL     1      17.916  -1.469  19.406  1.00  0.00     0.102 A 
ATOM     33  O   UNL     1      17.593  -3.869  19.116  1.00  0.00    -0.484 OA
ATOM     34  C   UNL     1      19.344  -1.767  19.727  1.00  0.00     0.174 C 
ATOM     35  C   UNL     1      18.977  -4.062  18.828  1.00  0.00     0.211 C 
ATOM     36  O   UNL     1      20.140  -0.864  20.095  1.00  0.00    -0.294 OA
ATOM     37  C   UNL     1      19.825  -3.192  19.762  1.00  0.00     0.131 C 
BRANCH  30  38
ATOM     38  O   UNL     1      18.136   0.999  19.404  1.00  0.00    -0.507 OA
ATOM     39  H   UNL     1      17.885   1.866  18.949  1.00  0.00     0.293 HD
ENDBRANCH  30  38
BRANCH  35  40
ATOM     40  C   UNL     1      19.350  -5.519  18.948  1.00  0.00    -0.003 A 
ATOM     41  C   UNL     1      18.794  -6.477  18.085  1.00  0.00     0.057 A 
ATOM     42  C   UNL     1      20.220  -5.937  19.965  1.00  0.00     0.011 A 
ATOM     43  C   UNL     1      19.120  -7.833  18.221  1.00  0.00     0.158 A 
ATOM     44  C   UNL     1      20.552  -7.286  20.104  1.00  0.00     0.051 A 
ATOM     45  C   UNL     1      20.005  -8.248  19.233  1.00  0.00     0.160 A 
BRANCH  43  46
ATOM     46  O   UNL     1      18.553  -8.753  17.339  1.00  0.00    -0.504 OA
ATOM     47  H   UNL     1      18.763  -9.742  17.385  1.00  0.00     0.293 HD
ENDBRANCH  43  46
BRANCH  45  48
ATOM     48  O   UNL     1      20.317  -9.612  19.350  1.00  0.00    -0.493 OA
ATOM     49  C   UNL     1      21.463 -10.124  20.025  1.00  0.00     0.278 C 
ENDBRANCH  45  48
ENDBRANCH  35  40
ENDBRANCH  26  27
ENDBRANCH   5  26
BRANCH   4  50
ATOM     50  O   UNL     1      13.225  -3.651  18.214  1.00  0.00    -0.384 OA
ATOM     51  H   UNL     1      13.849  -3.007  17.791  1.00  0.00     0.211 HD
ENDBRANCH   4  50
TORSDOF 15
ENDMDL
