MODEL 1
REMARK VINA RESULT:    -5.109      0.000      0.000
REMARK INTER + INTRA:         -15.206
REMARK INTER:                 -11.681
REMARK INTRA:                  -3.525
REMARK UNBOUND:                -3.525
REMARK SMILES CCCCCCCCCCCCCCCCCCCCCCCC(=O)[O-]
REMARK SMILES IDX 13 1 14 2 15 3 16 4 17 5 18 6 19 7 20 8 21 9 22 10 23 11
REMARK SMILES IDX 24 12 25 13 26 14 12 15 11 16 10 17 9 18 8 19 7 20 6 21 5 22
REMARK SMILES IDX 4 23 3 24 2 25 1 26
REMARK H PARENT
REMARK Flexibility Score: inf
ROOT
ATOM      1  C   UNL     1       8.719   9.381  30.488  1.00  0.00     0.000 C 
ENDROOT
BRANCH   1   2
ATOM      2  C   UNL     1       8.823  10.296  29.262  1.00  0.00     0.000 C 
BRANCH   2   3
ATOM      3  C   UNL     1       9.708   9.665  28.176  1.00  0.00     0.000 C 
BRANCH   3   4
ATOM      4  C   UNL     1      10.779   8.727  28.757  1.00  0.00     0.000 C 
BRANCH   4   5
ATOM      5  C   UNL     1      10.619   7.278  28.264  1.00  0.00     0.000 C 
BRANCH   5   6
ATOM      6  C   UNL     1      11.185   7.067  26.852  1.00  0.00     0.000 C 
BRANCH   6   7
ATOM      7  C   UNL     1      12.557   6.374  26.857  1.00  0.00     0.000 C 
BRANCH   7   8
ATOM      8  C   UNL     1      13.032   6.120  28.296  1.00  0.00     0.000 C 
BRANCH   8   9
ATOM      9  C   UNL     1      13.060   4.627  28.659  1.00  0.00     0.000 C 
BRANCH   9  10
ATOM     10  C   UNL     1      12.057   4.266  29.765  1.00  0.00     0.006 C 
BRANCH  10  11
ATOM     11  C   UNL     1      11.261   3.009  29.396  1.00  0.00     0.053 C 
BRANCH  11  12
ATOM     12  C   UNL     1      10.176   3.336  28.419  1.00  0.00     0.041 C 
ATOM     13  O   UNL     1       9.224   4.091  28.756  1.00  0.00    -0.550 OA
ATOM     14  O   UNL     1      10.228   2.830  27.126  1.00  0.00    -0.550 OA
ENDBRANCH  11  12
ENDBRANCH  10  11
ENDBRANCH   9  10
ENDBRANCH   8   9
ENDBRANCH   7   8
ENDBRANCH   6   7
ENDBRANCH   5   6
ENDBRANCH   4   5
ENDBRANCH   3   4
ENDBRANCH   2   3
ENDBRANCH   1   2
BRANCH   1  15
ATOM     15  C   UNL     1       8.125  10.136  31.685  1.00  0.00     0.000 C 
BRANCH  15  16
ATOM     16  C   UNL     1       6.901  10.991  31.311  1.00  0.00     0.000 C 
BRANCH  16  17
ATOM     17  C   UNL     1       5.604  10.647  32.071  1.00  0.00     0.000 C 
BRANCH  17  18
ATOM     18  C   UNL     1       4.453  10.118  31.195  1.00  0.00    -0.000 C 
BRANCH  18  19
ATOM     19  C   UNL     1       4.895   8.996  30.245  1.00  0.00    -0.000 C 
BRANCH  19  20
ATOM     20  C   UNL     1       4.710   9.414  28.780  1.00  0.00    -0.000 C 
BRANCH  20  21
ATOM     21  C   UNL     1       5.807   8.862  27.855  1.00  0.00    -0.000 C 
BRANCH  21  22
ATOM     22  C   UNL     1       6.331   7.474  28.281  1.00  0.00    -0.000 C 
BRANCH  22  23
ATOM     23  C   UNL     1       7.234   6.842  27.209  1.00  0.00    -0.000 C 
BRANCH  23  24
ATOM     24  C   UNL     1       7.503   7.783  26.020  1.00  0.00    -0.000 C 
BRANCH  24  25
ATOM     25  C   UNL     1       7.568   7.087  24.648  1.00  0.00    -0.003 C 
ATOM     26  C   UNL     1       8.368   5.785  24.673  1.00  0.00     0.004 C 
ENDBRANCH  24  25
ENDBRANCH  23  24
ENDBRANCH  22  23
ENDBRANCH  21  22
ENDBRANCH  20  21
ENDBRANCH  19  20
ENDBRANCH  18  19
ENDBRANCH  17  18
ENDBRANCH  16  17
ENDBRANCH  15  16
ENDBRANCH   1  15
TORSDOF 22
ENDMDL
MODEL 2
REMARK VINA RESULT:    -5.088      1.831      5.115
REMARK INTER + INTRA:         -15.156
REMARK INTER:                 -11.468
REMARK INTRA:                  -3.689
REMARK UNBOUND:                -3.525
REMARK SMILES CCCCCCCCCCCCCCCCCCCCCCCC(=O)[O-]
REMARK SMILES IDX 13 1 14 2 15 3 16 4 17 5 18 6 19 7 20 8 21 9 22 10 23 11
REMARK SMILES IDX 24 12 25 13 26 14 12 15 11 16 10 17 9 18 8 19 7 20 6 21 5 22
REMARK SMILES IDX 4 23 3 24 2 25 1 26
REMARK H PARENT
REMARK Flexibility Score: inf
ROOT
ATOM      1  C   UNL     1       8.113   4.172  27.988  1.00  0.00     0.000 C 
ENDROOT
BRANCH   1   2
ATOM      2  C   UNL     1       9.435   3.971  27.239  1.00  0.00     0.000 C 
BRANCH   2   3
ATOM      3  C   UNL     1      10.458   3.232  28.114  1.00  0.00     0.000 C 
BRANCH   3   4
ATOM      4  C   UNL     1      11.902   3.409  27.616  1.00  0.00     0.000 C 
BRANCH   4   5
ATOM      5  C   UNL     1      12.784   4.159  28.629  1.00  0.00     0.000 C 
BRANCH   5   6
ATOM      6  C   UNL     1      12.076   5.374  29.247  1.00  0.00     0.000 C 
BRANCH   6   7
ATOM      7  C   UNL     1      12.364   6.680  28.492  1.00  0.00     0.000 C 
BRANCH   7   8
ATOM      8  C   UNL     1      11.070   7.270  27.911  1.00  0.00     0.000 C 
BRANCH   8   9
ATOM      9  C   UNL     1      11.164   7.544  26.402  1.00  0.00     0.000 C 
BRANCH   9  10
ATOM     10  C   UNL     1       9.935   8.285  25.855  1.00  0.00     0.006 C 
BRANCH  10  11
ATOM     11  C   UNL     1       9.621   7.845  24.421  1.00  0.00     0.053 C 
BRANCH  11  12
ATOM     12  C   UNL     1       8.453   6.909  24.398  1.00  0.00     0.041 C 
ATOM     13  O   UNL     1       8.625   5.684  24.159  1.00  0.00    -0.550 OA
ATOM     14  O   UNL     1       7.175   7.385  24.667  1.00  0.00    -0.550 OA
ENDBRANCH  11  12
ENDBRANCH  10  11
ENDBRANCH   9  10
ENDBRANCH   8   9
ENDBRANCH   7   8
ENDBRANCH   6   7
ENDBRANCH   5   6
ENDBRANCH   4   5
ENDBRANCH   3   4
ENDBRANCH   2   3
ENDBRANCH   1   2
BRANCH   1  15
ATOM     15  C   UNL     1       8.088   5.532  28.700  1.00  0.00     0.000 C 
BRANCH  15  16
ATOM     16  C   UNL     1       7.346   6.618  27.900  1.00  0.00     0.000 C 
BRANCH  16  17
ATOM     17  C   UNL     1       6.498   7.590  28.747  1.00  0.00     0.000 C 
BRANCH  17  18
ATOM     18  C   UNL     1       6.113   8.904  28.042  1.00  0.00    -0.000 C 
BRANCH  18  19
ATOM     19  C   UNL     1       5.475   9.926  28.994  1.00  0.00    -0.000 C 
BRANCH  19  20
ATOM     20  C   UNL     1       4.792   9.222  30.174  1.00  0.00    -0.000 C 
BRANCH  20  21
ATOM     21  C   UNL     1       4.939   9.990  31.498  1.00  0.00    -0.000 C 
BRANCH  21  22
ATOM     22  C   UNL     1       6.047  11.064  31.467  1.00  0.00    -0.000 C 
BRANCH  22  23
ATOM     23  C   UNL     1       7.384  10.532  32.011  1.00  0.00    -0.000 C 
BRANCH  23  24
ATOM     24  C   UNL     1       8.585  10.904  31.122  1.00  0.00    -0.000 C 
BRANCH  24  25
ATOM     25  C   UNL     1       9.067   9.782  30.187  1.00  0.00    -0.003 C 
ATOM     26  C   UNL     1       9.431   8.496  30.929  1.00  0.00     0.004 C 
ENDBRANCH  24  25
ENDBRANCH  23  24
ENDBRANCH  22  23
ENDBRANCH  21  22
ENDBRANCH  20  21
ENDBRANCH  19  20
ENDBRANCH  18  19
ENDBRANCH  17  18
ENDBRANCH  16  17
ENDBRANCH  15  16
ENDBRANCH   1  15
TORSDOF 22
ENDMDL
MODEL 3
REMARK VINA RESULT:    -5.039      1.946      5.610
REMARK INTER + INTRA:         -15.045
REMARK INTER:                 -11.055
REMARK INTRA:                  -3.990
REMARK UNBOUND:                -3.525
REMARK SMILES CCCCCCCCCCCCCCCCCCCCCCCC(=O)[O-]
REMARK SMILES IDX 13 1 14 2 15 3 16 4 17 5 18 6 19 7 20 8 21 9 22 10 23 11
REMARK SMILES IDX 24 12 25 13 26 14 12 15 11 16 10 17 9 18 8 19 7 20 6 21 5 22
REMARK SMILES IDX 4 23 3 24 2 25 1 26
REMARK H PARENT
REMARK Flexibility Score: inf
ROOT
ATOM      1  C   UNL     1       7.294  10.686  32.111  1.00  0.00     0.000 C 
ENDROOT
BRANCH   1   2
ATOM      2  C   UNL     1       6.044  10.977  31.272  1.00  0.00     0.000 C 
BRANCH   2   3
ATOM      3  C   UNL     1       4.990   9.875  31.452  1.00  0.00     0.000 C 
BRANCH   3   4
ATOM      4  C   UNL     1       4.242   9.552  30.148  1.00  0.00     0.000 C 
BRANCH   4   5
ATOM      5  C   UNL     1       5.201   9.277  28.976  1.00  0.00     0.000 C 
BRANCH   5   6
ATOM      6  C   UNL     1       5.958   7.950  29.129  1.00  0.00     0.000 C 
BRANCH   6   7
ATOM      7  C   UNL     1       6.663   7.513  27.835  1.00  0.00     0.000 C 
BRANCH   7   8
ATOM      8  C   UNL     1       6.861   8.710  26.892  1.00  0.00     0.000 C 
BRANCH   8   9
ATOM      9  C   UNL     1       8.316   8.865  26.423  1.00  0.00     0.000 C 
BRANCH   9  10
ATOM     10  C   UNL     1       8.938   7.536  25.967  1.00  0.00     0.006 C 
BRANCH  10  11
ATOM     11  C   UNL     1       8.892   7.404  24.440  1.00  0.00     0.053 C 
BRANCH  11  12
ATOM     12  C   UNL     1       7.644   6.700  24.007  1.00  0.00     0.041 C 
ATOM     13  O   UNL     1       7.132   6.949  22.883  1.00  0.00    -0.550 OA
ATOM     14  O   UNL     1       7.060   5.747  24.834  1.00  0.00    -0.550 OA
ENDBRANCH  11  12
ENDBRANCH  10  11
ENDBRANCH   9  10
ENDBRANCH   8   9
ENDBRANCH   7   8
ENDBRANCH   6   7
ENDBRANCH   5   6
ENDBRANCH   4   5
ENDBRANCH   3   4
ENDBRANCH   2   3
ENDBRANCH   1   2
BRANCH   1  15
ATOM     15  C   UNL     1       8.566  11.116  31.366  1.00  0.00     0.000 C 
BRANCH  15  16
ATOM     16  C   UNL     1       8.608  10.619  29.909  1.00  0.00     0.000 C 
BRANCH  16  17
ATOM     17  C   UNL     1       9.699   9.571  29.606  1.00  0.00     0.000 C 
BRANCH  17  18
ATOM     18  C   UNL     1       9.440   8.171  30.193  1.00  0.00    -0.000 C 
BRANCH  18  19
ATOM     19  C   UNL     1      10.234   7.069  29.477  1.00  0.00    -0.000 C 
BRANCH  19  20
ATOM     20  C   UNL     1      11.250   7.674  28.499  1.00  0.00    -0.000 C 
BRANCH  20  21
ATOM     21  C   UNL     1      12.184   6.622  27.877  1.00  0.00    -0.000 C 
BRANCH  21  22
ATOM     22  C   UNL     1      12.061   5.228  28.526  1.00  0.00    -0.000 C 
BRANCH  22  23
ATOM     23  C   UNL     1      12.085   4.099  27.483  1.00  0.00    -0.000 C 
BRANCH  23  24
ATOM     24  C   UNL     1      10.919   3.106  27.644  1.00  0.00    -0.000 C 
BRANCH  24  25
ATOM     25  C   UNL     1       9.745   3.624  28.495  1.00  0.00    -0.003 C 
ATOM     26  C   UNL     1       8.627   4.245  27.659  1.00  0.00     0.004 C 
ENDBRANCH  24  25
ENDBRANCH  23  24
ENDBRANCH  22  23
ENDBRANCH  21  22
ENDBRANCH  20  21
ENDBRANCH  19  20
ENDBRANCH  18  19
ENDBRANCH  17  18
ENDBRANCH  16  17
ENDBRANCH  15  16
ENDBRANCH   1  15
TORSDOF 22
ENDMDL
MODEL 4
REMARK VINA RESULT:    -5.033      1.948      3.746
REMARK INTER + INTRA:         -15.032
REMARK INTER:                 -11.582
REMARK INTRA:                  -3.449
REMARK UNBOUND:                -3.525
REMARK SMILES CCCCCCCCCCCCCCCCCCCCCCCC(=O)[O-]
REMARK SMILES IDX 13 1 14 2 15 3 16 4 17 5 18 6 19 7 20 8 21 9 22 10 23 11
REMARK SMILES IDX 24 12 25 13 26 14 12 15 11 16 10 17 9 18 8 19 7 20 6 21 5 22
REMARK SMILES IDX 4 23 3 24 2 25 1 26
REMARK H PARENT
REMARK Flexibility Score: inf
ROOT
ATOM      1  C   UNL     1       5.593   8.032  29.025  1.00  0.00     0.000 C 
ENDROOT
BRANCH   1   2
ATOM      2  C   UNL     1       6.178   7.933  27.611  1.00  0.00     0.000 C 
BRANCH   2   3
ATOM      3  C   UNL     1       6.697   6.516  27.327  1.00  0.00     0.000 C 
BRANCH   3   4
ATOM      4  C   UNL     1       7.726   6.043  28.366  1.00  0.00     0.000 C 
BRANCH   4   5
ATOM      5  C   UNL     1       7.997   4.530  28.277  1.00  0.00     0.000 C 
BRANCH   5   6
ATOM      6  C   UNL     1       8.994   4.171  27.165  1.00  0.00     0.000 C 
BRANCH   6   7
ATOM      7  C   UNL     1       9.872   2.961  27.519  1.00  0.00     0.000 C 
BRANCH   7   8
ATOM      8  C   UNL     1      11.357   3.357  27.550  1.00  0.00     0.000 C 
BRANCH   8   9
ATOM      9  C   UNL     1      11.724   4.199  28.782  1.00  0.00     0.000 C 
BRANCH   9  10
ATOM     10  C   UNL     1      11.835   5.697  28.466  1.00  0.00     0.006 C 
BRANCH  10  11
ATOM     11  C   UNL     1      13.297   6.158  28.493  1.00  0.00     0.053 C 
BRANCH  11  12
ATOM     12  C   UNL     1      13.802   6.397  27.105  1.00  0.00     0.041 C 
ATOM     13  O   UNL     1      14.956   6.012  26.773  1.00  0.00    -0.550 OA
ATOM     14  O   UNL     1      12.989   7.021  26.166  1.00  0.00    -0.550 OA
ENDBRANCH  11  12
ENDBRANCH  10  11
ENDBRANCH   9  10
ENDBRANCH   8   9
ENDBRANCH   7   8
ENDBRANCH   6   7
ENDBRANCH   5   6
ENDBRANCH   4   5
ENDBRANCH   3   4
ENDBRANCH   2   3
ENDBRANCH   1   2
BRANCH   1  15
ATOM     15  C   UNL     1       5.185   9.476  29.349  1.00  0.00     0.000 C 
BRANCH  15  16
ATOM     16  C   UNL     1       4.317   9.588  30.615  1.00  0.00     0.000 C 
BRANCH  16  17
ATOM     17  C   UNL     1       4.880  10.511  31.716  1.00  0.00     0.000 C 
BRANCH  17  18
ATOM     18  C   UNL     1       6.333  10.974  31.500  1.00  0.00    -0.000 C 
BRANCH  18  19
ATOM     19  C   UNL     1       7.308  10.372  32.521  1.00  0.00    -0.000 C 
BRANCH  19  20
ATOM     20  C   UNL     1       8.579   9.861  31.828  1.00  0.00    -0.000 C 
BRANCH  20  21
ATOM     21  C   UNL     1       8.706  10.347  30.374  1.00  0.00    -0.000 C 
BRANCH  21  22
ATOM     22  C   UNL     1       9.139   9.240  29.390  1.00  0.00    -0.000 C 
BRANCH  22  23
ATOM     23  C   UNL     1       9.319   9.776  27.959  1.00  0.00    -0.000 C 
BRANCH  23  24
ATOM     24  C   UNL     1      10.182   8.855  27.078  1.00  0.00    -0.000 C 
BRANCH  24  25
ATOM     25  C   UNL     1       9.670   8.675  25.638  1.00  0.00    -0.003 C 
ATOM     26  C   UNL     1       9.551   7.210  25.221  1.00  0.00     0.004 C 
ENDBRANCH  24  25
ENDBRANCH  23  24
ENDBRANCH  22  23
ENDBRANCH  21  22
ENDBRANCH  20  21
ENDBRANCH  19  20
ENDBRANCH  18  19
ENDBRANCH  17  18
ENDBRANCH  16  17
ENDBRANCH  15  16
ENDBRANCH   1  15
TORSDOF 22
ENDMDL
MODEL 5
REMARK VINA RESULT:    -5.003      1.696      6.861
REMARK INTER + INTRA:         -14.963
REMARK INTER:                 -11.662
REMARK INTRA:                  -3.301
REMARK UNBOUND:                -3.525
REMARK SMILES CCCCCCCCCCCCCCCCCCCCCCCC(=O)[O-]
REMARK SMILES IDX 13 1 14 2 15 3 16 4 17 5 18 6 19 7 20 8 21 9 22 10 23 11
REMARK SMILES IDX 24 12 25 13 26 14 12 15 11 16 10 17 9 18 8 19 7 20 6 21 5 22
REMARK SMILES IDX 4 23 3 24 2 25 1 26
REMARK H PARENT
REMARK Flexibility Score: inf
ROOT
ATOM      1  C   UNL     1       9.444   8.239  30.135  1.00  0.00     0.000 C 
ENDROOT
BRANCH   1   2
ATOM      2  C   UNL     1       9.119   9.258  31.233  1.00  0.00     0.000 C 
BRANCH   2   3
ATOM      3  C   UNL     1       8.386  10.477  30.656  1.00  0.00     0.000 C 
BRANCH   3   4
ATOM      4  C   UNL     1       7.316  11.031  31.610  1.00  0.00     0.000 C 
BRANCH   4   5
ATOM      5  C   UNL     1       6.247   9.982  31.965  1.00  0.00     0.000 C 
BRANCH   5   6
ATOM      6  C   UNL     1       4.816  10.524  31.828  1.00  0.00     0.000 C 
BRANCH   6   7
ATOM      7  C   UNL     1       3.979   9.743  30.804  1.00  0.00     0.000 C 
BRANCH   7   8
ATOM      8  C   UNL     1       4.861   8.769  30.008  1.00  0.00     0.000 C 
BRANCH   8   9
ATOM      9  C   UNL     1       5.034   9.186  28.539  1.00  0.00     0.000 C 
BRANCH   9  10
ATOM     10  C   UNL     1       6.409   8.804  27.971  1.00  0.00     0.006 C 
BRANCH  10  11
ATOM     11  C   UNL     1       6.635   7.290  28.053  1.00  0.00     0.053 C 
BRANCH  11  12
ATOM     12  C   UNL     1       6.696   6.688  26.684  1.00  0.00     0.041 C 
ATOM     13  O   UNL     1       6.192   5.554  26.465  1.00  0.00    -0.550 OA
ATOM     14  O   UNL     1       7.288   7.391  25.641  1.00  0.00    -0.550 OA
ENDBRANCH  11  12
ENDBRANCH  10  11
ENDBRANCH   9  10
ENDBRANCH   8   9
ENDBRANCH   7   8
ENDBRANCH   6   7
ENDBRANCH   5   6
ENDBRANCH   4   5
ENDBRANCH   3   4
ENDBRANCH   2   3
ENDBRANCH   1   2
BRANCH   1  15
ATOM     15  C   UNL     1      10.312   8.873  29.039  1.00  0.00     0.000 C 
BRANCH  15  16
ATOM     16  C   UNL     1      10.121   8.213  27.661  1.00  0.00     0.000 C 
BRANCH  16  17
ATOM     17  C   UNL     1      11.390   7.576  27.058  1.00  0.00     0.000 C 
BRANCH  17  18
ATOM     18  C   UNL     1      11.340   6.045  26.899  1.00  0.00    -0.000 C 
BRANCH  18  19
ATOM     19  C   UNL     1       9.919   5.479  27.027  1.00  0.00    -0.000 C 
BRANCH  19  20
ATOM     20  C   UNL     1       9.875   4.340  28.056  1.00  0.00    -0.000 C 
BRANCH  20  21
ATOM     21  C   UNL     1      10.693   3.111  27.625  1.00  0.00    -0.000 C 
BRANCH  21  22
ATOM     22  C   UNL     1      11.974   2.900  28.459  1.00  0.00    -0.000 C 
BRANCH  22  23
ATOM     23  C   UNL     1      11.763   3.247  29.942  1.00  0.00    -0.000 C 
BRANCH  23  24
ATOM     24  C   UNL     1      12.637   4.424  30.414  1.00  0.00    -0.000 C 
BRANCH  24  25
ATOM     25  C   UNL     1      14.004   4.532  29.716  1.00  0.00    -0.003 C 
ATOM     26  C   UNL     1      14.237   5.892  29.059  1.00  0.00     0.004 C 
ENDBRANCH  24  25
ENDBRANCH  23  24
ENDBRANCH  22  23
ENDBRANCH  21  22
ENDBRANCH  20  21
ENDBRANCH  19  20
ENDBRANCH  18  19
ENDBRANCH  17  18
ENDBRANCH  16  17
ENDBRANCH  15  16
ENDBRANCH   1  15
TORSDOF 22
ENDMDL
MODEL 6
REMARK VINA RESULT:    -4.990      2.359      2.851
REMARK INTER + INTRA:         -14.933
REMARK INTER:                 -11.588
REMARK INTRA:                  -3.345
REMARK UNBOUND:                -3.525
REMARK SMILES CCCCCCCCCCCCCCCCCCCCCCCC(=O)[O-]
REMARK SMILES IDX 13 1 14 2 15 3 16 4 17 5 18 6 19 7 20 8 21 9 22 10 23 11
REMARK SMILES IDX 24 12 25 13 26 14 12 15 11 16 10 17 9 18 8 19 7 20 6 21 5 22
REMARK SMILES IDX 4 23 3 24 2 25 1 26
REMARK H PARENT
REMARK Flexibility Score: inf
ROOT
ATOM      1  C   UNL     1       8.559  10.542  30.795  1.00  0.00     0.000 C 
ENDROOT
BRANCH   1   2
ATOM      2  C   UNL     1       8.190  10.960  29.367  1.00  0.00     0.000 C 
BRANCH   2   3
ATOM      3  C   UNL     1       9.402  10.852  28.429  1.00  0.00     0.000 C 
BRANCH   3   4
ATOM      4  C   UNL     1       9.148   9.912  27.240  1.00  0.00     0.000 C 
BRANCH   4   5
ATOM      5  C   UNL     1      10.108   8.709  27.226  1.00  0.00     0.000 C 
BRANCH   5   6
ATOM      6  C   UNL     1      10.608   8.336  28.630  1.00  0.00     0.000 C 
BRANCH   6   7
ATOM      7  C   UNL     1      11.105   6.884  28.719  1.00  0.00     0.000 C 
BRANCH   7   8
ATOM      8  C   UNL     1      11.776   6.457  27.404  1.00  0.00     0.000 C 
BRANCH   8   9
ATOM      9  C   UNL     1      13.307   6.392  27.510  1.00  0.00     0.000 C 
BRANCH   9  10
ATOM     10  C   UNL     1      13.961   5.747  26.279  1.00  0.00     0.006 C 
BRANCH  10  11
ATOM     11  C   UNL     1      14.260   4.265  26.528  1.00  0.00     0.053 C 
BRANCH  11  12
ATOM     12  C   UNL     1      15.712   4.060  26.824  1.00  0.00     0.041 C 
ATOM     13  O   UNL     1      16.140   2.919  27.146  1.00  0.00    -0.550 OA
ATOM     14  O   UNL     1      16.601   5.124  26.719  1.00  0.00    -0.550 OA
ENDBRANCH  11  12
ENDBRANCH  10  11
ENDBRANCH   9  10
ENDBRANCH   8   9
ENDBRANCH   7   8
ENDBRANCH   6   7
ENDBRANCH   5   6
ENDBRANCH   4   5
ENDBRANCH   3   4
ENDBRANCH   2   3
ENDBRANCH   1   2
BRANCH   1  15
ATOM     15  C   UNL     1       7.566  11.124  31.810  1.00  0.00     0.000 C 
BRANCH  15  16
ATOM     16  C   UNL     1       6.457  10.132  32.205  1.00  0.00     0.000 C 
BRANCH  16  17
ATOM     17  C   UNL     1       5.018  10.670  32.071  1.00  0.00     0.000 C 
BRANCH  17  18
ATOM     18  C   UNL     1       4.194  10.054  30.925  1.00  0.00    -0.000 C 
BRANCH  18  19
ATOM     19  C   UNL     1       4.891   8.854  30.268  1.00  0.00    -0.000 C 
BRANCH  19  20
ATOM     20  C   UNL     1       4.660   8.850  28.751  1.00  0.00    -0.000 C 
BRANCH  20  21
ATOM     21  C   UNL     1       5.855   8.287  27.964  1.00  0.00    -0.000 C 
BRANCH  21  22
ATOM     22  C   UNL     1       6.727   7.312  28.782  1.00  0.00    -0.000 C 
BRANCH  22  23
ATOM     23  C   UNL     1       7.426   6.272  27.890  1.00  0.00    -0.000 C 
BRANCH  23  24
ATOM     24  C   UNL     1       6.661   5.990  26.584  1.00  0.00    -0.000 C 
BRANCH  24  25
ATOM     25  C   UNL     1       7.443   6.307  25.297  1.00  0.00    -0.003 C 
ATOM     26  C   UNL     1       8.848   5.705  25.285  1.00  0.00     0.004 C 
ENDBRANCH  24  25
ENDBRANCH  23  24
ENDBRANCH  22  23
ENDBRANCH  21  22
ENDBRANCH  20  21
ENDBRANCH  19  20
ENDBRANCH  18  19
ENDBRANCH  17  18
ENDBRANCH  16  17
ENDBRANCH  15  16
ENDBRANCH   1  15
TORSDOF 22
ENDMDL
MODEL 7
REMARK VINA RESULT:    -4.988      1.620      6.606
REMARK INTER + INTRA:         -14.927
REMARK INTER:                 -11.866
REMARK INTRA:                  -3.060
REMARK UNBOUND:                -3.525
REMARK SMILES CCCCCCCCCCCCCCCCCCCCCCCC(=O)[O-]
REMARK SMILES IDX 13 1 14 2 15 3 16 4 17 5 18 6 19 7 20 8 21 9 22 10 23 11
REMARK SMILES IDX 24 12 25 13 26 14 12 15 11 16 10 17 9 18 8 19 7 20 6 21 5 22
REMARK SMILES IDX 4 23 3 24 2 25 1 26
REMARK H PARENT
REMARK Flexibility Score: inf
ROOT
ATOM      1  C   UNL     1       9.514   8.784  31.157  1.00  0.00     0.000 C 
ENDROOT
BRANCH   1   2
ATOM      2  C   UNL     1       8.700  10.044  30.843  1.00  0.00     0.000 C 
BRANCH   2   3
ATOM      3  C   UNL     1       7.717  10.364  31.980  1.00  0.00     0.000 C 
BRANCH   3   4
ATOM      4  C   UNL     1       6.466  11.110  31.489  1.00  0.00     0.000 C 
BRANCH   4   5
ATOM      5  C   UNL     1       5.164  10.480  32.015  1.00  0.00     0.000 C 
BRANCH   5   6
ATOM      6  C   UNL     1       4.412   9.687  30.936  1.00  0.00     0.000 C 
BRANCH   6   7
ATOM      7  C   UNL     1       5.163   9.643  29.596  1.00  0.00     0.000 C 
BRANCH   7   8
ATOM      8  C   UNL     1       5.431   8.191  29.170  1.00  0.00     0.000 C 
BRANCH   8   9
ATOM      9  C   UNL     1       6.718   8.040  28.344  1.00  0.00     0.000 C 
BRANCH   9  10
ATOM     10  C   UNL     1       6.499   8.305  26.848  1.00  0.00     0.006 C 
BRANCH  10  11
ATOM     11  C   UNL     1       7.638   7.712  26.012  1.00  0.00     0.053 C 
BRANCH  11  12
ATOM     12  C   UNL     1       7.314   6.313  25.592  1.00  0.00     0.041 C 
ATOM     13  O   UNL     1       8.058   5.706  24.775  1.00  0.00    -0.550 OA
ATOM     14  O   UNL     1       6.203   5.667  26.122  1.00  0.00    -0.550 OA
ENDBRANCH  11  12
ENDBRANCH  10  11
ENDBRANCH   9  10
ENDBRANCH   8   9
ENDBRANCH   7   8
ENDBRANCH   6   7
ENDBRANCH   5   6
ENDBRANCH   4   5
ENDBRANCH   3   4
ENDBRANCH   2   3
ENDBRANCH   1   2
BRANCH   1  15
ATOM     15  C   UNL     1       9.718   7.936  29.893  1.00  0.00     0.000 C 
BRANCH  15  16
ATOM     16  C   UNL     1      10.684   8.583  28.884  1.00  0.00     0.000 C 
BRANCH  16  17
ATOM     17  C   UNL     1      10.690   7.942  27.480  1.00  0.00     0.000 C 
BRANCH  17  18
ATOM     18  C   UNL     1      11.741   6.836  27.273  1.00  0.00    -0.000 C 
BRANCH  18  19
ATOM     19  C   UNL     1      12.763   6.761  28.416  1.00  0.00    -0.000 C 
BRANCH  19  20
ATOM     20  C   UNL     1      13.954   5.874  28.029  1.00  0.00    -0.000 C 
BRANCH  20  21
ATOM     21  C   UNL     1      13.567   4.737  27.068  1.00  0.00    -0.000 C 
BRANCH  21  22
ATOM     22  C   UNL     1      13.303   3.393  27.779  1.00  0.00    -0.000 C 
BRANCH  22  23
ATOM     23  C   UNL     1      11.897   2.847  27.480  1.00  0.00    -0.000 C 
BRANCH  23  24
ATOM     24  C   UNL     1      10.816   3.429  28.409  1.00  0.00    -0.000 C 
BRANCH  24  25
ATOM     25  C   UNL     1       9.460   3.699  27.733  1.00  0.00    -0.003 C 
ATOM     26  C   UNL     1       8.597   4.702  28.497  1.00  0.00     0.004 C 
ENDBRANCH  24  25
ENDBRANCH  23  24
ENDBRANCH  22  23
ENDBRANCH  21  22
ENDBRANCH  20  21
ENDBRANCH  19  20
ENDBRANCH  18  19
ENDBRANCH  17  18
ENDBRANCH  16  17
ENDBRANCH  15  16
ENDBRANCH   1  15
TORSDOF 22
ENDMDL
MODEL 8
REMARK VINA RESULT:    -4.967      1.945      4.829
REMARK INTER + INTRA:         -14.880
REMARK INTER:                 -11.349
REMARK INTRA:                  -3.531
REMARK UNBOUND:                -3.525
REMARK SMILES CCCCCCCCCCCCCCCCCCCCCCCC(=O)[O-]
REMARK SMILES IDX 13 1 14 2 15 3 16 4 17 5 18 6 19 7 20 8 21 9 22 10 23 11
REMARK SMILES IDX 24 12 25 13 26 14 12 15 11 16 10 17 9 18 8 19 7 20 6 21 5 22
REMARK SMILES IDX 4 23 3 24 2 25 1 26
REMARK H PARENT
REMARK Flexibility Score: inf
ROOT
ATOM      1  C   UNL     1       4.943  10.055  30.983  1.00  0.00     0.000 C 
ENDROOT
BRANCH   1   2
ATOM      2  C   UNL     1       6.297   9.973  31.698  1.00  0.00     0.000 C 
BRANCH   2   3
ATOM      3  C   UNL     1       7.240  11.090  31.224  1.00  0.00     0.000 C 
BRANCH   3   4
ATOM      4  C   UNL     1       8.458  10.550  30.458  1.00  0.00     0.000 C 
BRANCH   4   5
ATOM      5  C   UNL     1       9.020   9.261  31.082  1.00  0.00     0.000 C 
BRANCH   5   6
ATOM      6  C   UNL     1       9.308   8.174  30.035  1.00  0.00     0.000 C 
BRANCH   6   7
ATOM      7  C   UNL     1      10.459   8.548  29.088  1.00  0.00     0.000 C 
BRANCH   7   8
ATOM      8  C   UNL     1       9.976   8.576  27.629  1.00  0.00     0.000 C 
BRANCH   8   9
ATOM      9  C   UNL     1      10.861   7.738  26.693  1.00  0.00     0.000 C 
BRANCH   9  10
ATOM     10  C   UNL     1      12.067   7.118  27.412  1.00  0.00     0.006 C 
BRANCH  10  11
ATOM     11  C   UNL     1      12.739   6.052  26.540  1.00  0.00     0.053 C 
BRANCH  11  12
ATOM     12  C   UNL     1      14.229   6.166  26.618  1.00  0.00     0.041 C 
ATOM     13  O   UNL     1      14.902   5.296  27.233  1.00  0.00    -0.550 OA
ATOM     14  O   UNL     1      14.880   7.221  25.988  1.00  0.00    -0.550 OA
ENDBRANCH  11  12
ENDBRANCH  10  11
ENDBRANCH   9  10
ENDBRANCH   8   9
ENDBRANCH   7   8
ENDBRANCH   6   7
ENDBRANCH   5   6
ENDBRANCH   4   5
ENDBRANCH   3   4
ENDBRANCH   2   3
ENDBRANCH   1   2
BRANCH   1  15
ATOM     15  C   UNL     1       4.879   9.058  29.817  1.00  0.00     0.000 C 
BRANCH  15  16
ATOM     16  C   UNL     1       5.286   9.681  28.469  1.00  0.00     0.000 C 
BRANCH  16  17
ATOM     17  C   UNL     1       6.172   8.788  27.576  1.00  0.00     0.000 C 
BRANCH  17  18
ATOM     18  C   UNL     1       6.338   7.336  28.062  1.00  0.00    -0.000 C 
BRANCH  18  19
ATOM     19  C   UNL     1       6.613   6.352  26.917  1.00  0.00    -0.000 C 
BRANCH  19  20
ATOM     20  C   UNL     1       7.959   5.641  27.119  1.00  0.00    -0.000 C 
BRANCH  20  21
ATOM     21  C   UNL     1       7.842   4.367  27.971  1.00  0.00    -0.000 C 
BRANCH  21  22
ATOM     22  C   UNL     1       9.189   3.892  28.557  1.00  0.00    -0.000 C 
BRANCH  22  23
ATOM     23  C   UNL     1      10.181   3.470  27.461  1.00  0.00    -0.000 C 
BRANCH  23  24
ATOM     24  C   UNL     1      11.538   3.009  28.025  1.00  0.00    -0.000 C 
BRANCH  24  25
ATOM     25  C   UNL     1      11.711   3.217  29.540  1.00  0.00    -0.003 C 
ATOM     26  C   UNL     1      12.630   4.390  29.884  1.00  0.00     0.004 C 
ENDBRANCH  24  25
ENDBRANCH  23  24
ENDBRANCH  22  23
ENDBRANCH  21  22
ENDBRANCH  20  21
ENDBRANCH  19  20
ENDBRANCH  18  19
ENDBRANCH  17  18
ENDBRANCH  16  17
ENDBRANCH  15  16
ENDBRANCH   1  15
TORSDOF 22
ENDMDL
MODEL 9
REMARK VINA RESULT:    -4.833      1.758      6.424
REMARK INTER + INTRA:         -14.575
REMARK INTER:                 -11.348
REMARK INTRA:                  -3.227
REMARK UNBOUND:                -3.525
REMARK SMILES CCCCCCCCCCCCCCCCCCCCCCCC(=O)[O-]
REMARK SMILES IDX 13 1 14 2 15 3 16 4 17 5 18 6 19 7 20 8 21 9 22 10 23 11
REMARK SMILES IDX 24 12 25 13 26 14 12 15 11 16 10 17 9 18 8 19 7 20 6 21 5 22
REMARK SMILES IDX 4 23 3 24 2 25 1 26
REMARK H PARENT
REMARK Flexibility Score: inf
ROOT
ATOM      1  C   UNL     1       8.605   9.853  30.499  1.00  0.00     0.000 C 
ENDROOT
BRANCH   1   2
ATOM      2  C   UNL     1       8.179  10.646  31.740  1.00  0.00     0.000 C 
BRANCH   2   3
ATOM      3  C   UNL     1       6.708  10.376  32.090  1.00  0.00     0.000 C 
BRANCH   3   4
ATOM      4  C   UNL     1       5.774  10.527  30.878  1.00  0.00     0.000 C 
BRANCH   4   5
ATOM      5  C   UNL     1       4.680   9.445  30.843  1.00  0.00     0.000 C 
BRANCH   5   6
ATOM      6  C   UNL     1       4.581   8.747  29.478  1.00  0.00     0.000 C 
BRANCH   6   7
ATOM      7  C   UNL     1       5.069   9.631  28.320  1.00  0.00     0.000 C 
BRANCH   7   8
ATOM      8  C   UNL     1       6.272   8.988  27.613  1.00  0.00     0.000 C 
BRANCH   8   9
ATOM      9  C   UNL     1       6.476   7.516  28.004  1.00  0.00     0.000 C 
BRANCH   9  10
ATOM     10  C   UNL     1       7.360   6.753  27.007  1.00  0.00     0.006 C 
BRANCH  10  11
ATOM     11  C   UNL     1       7.486   7.520  25.686  1.00  0.00     0.053 C 
BRANCH  11  12
ATOM     12  C   UNL     1       7.979   6.621  24.596  1.00  0.00     0.041 C 
ATOM     13  O   UNL     1       8.468   5.493  24.876  1.00  0.00    -0.550 OA
ATOM     14  O   UNL     1       7.876   7.015  23.267  1.00  0.00    -0.550 OA
ENDBRANCH  11  12
ENDBRANCH  10  11
ENDBRANCH   9  10
ENDBRANCH   8   9
ENDBRANCH   7   8
ENDBRANCH   6   7
ENDBRANCH   5   6
ENDBRANCH   4   5
ENDBRANCH   3   4
ENDBRANCH   2   3
ENDBRANCH   1   2
BRANCH   1  15
ATOM     15  C   UNL     1       9.059  10.795  29.376  1.00  0.00     0.000 C 
BRANCH  15  16
ATOM     16  C   UNL     1       9.712  10.055  28.195  1.00  0.00     0.000 C 
BRANCH  16  17
ATOM     17  C   UNL     1      10.238   8.641  28.518  1.00  0.00     0.000 C 
BRANCH  17  18
ATOM     18  C   UNL     1      10.876   7.894  27.332  1.00  0.00    -0.000 C 
BRANCH  18  19
ATOM     19  C   UNL     1      11.737   6.702  27.772  1.00  0.00    -0.000 C 
BRANCH  19  20
ATOM     20  C   UNL     1      10.923   5.732  28.641  1.00  0.00    -0.000 C 
BRANCH  20  21
ATOM     21  C   UNL     1      10.208   4.647  27.819  1.00  0.00    -0.000 C 
BRANCH  21  22
ATOM     22  C   UNL     1      10.771   3.228  28.047  1.00  0.00    -0.000 C 
BRANCH  22  23
ATOM     23  C   UNL     1      12.283   3.244  28.328  1.00  0.00    -0.000 C 
BRANCH  23  24
ATOM     24  C   UNL     1      12.677   2.386  29.544  1.00  0.00    -0.000 C 
BRANCH  24  25
ATOM     25  C   UNL     1      11.977   2.771  30.859  1.00  0.00    -0.003 C 
ATOM     26  C   UNL     1      11.032   1.687  31.377  1.00  0.00     0.004 C 
ENDBRANCH  24  25
ENDBRANCH  23  24
ENDBRANCH  22  23
ENDBRANCH  21  22
ENDBRANCH  20  21
ENDBRANCH  19  20
ENDBRANCH  18  19
ENDBRANCH  17  18
ENDBRANCH  16  17
ENDBRANCH  15  16
ENDBRANCH   1  15
TORSDOF 22
ENDMDL
