MODEL 1
REMARK VINA RESULT:    -1.812      0.000      0.000
REMARK INTER + INTRA:          -2.181
REMARK INTER:                  -1.971
REMARK INTRA:                  -0.210
REMARK UNBOUND:                -0.210
REMARK SMILES C[C@@H]1[C@H]2C3=CC[C@@H]4[C@]5(C)CC[C@H](O)C(C)(C)[C@@H]5CC[C@@]4(C)[C@@]3(C)CC[C@@]2(C(=O)[O-])CC[C@@H]1C
REMARK SMILES IDX 26 1 30 2 25 3 3 4 31 5 24 6 4 7 2 8 32 9 22 10 5 11 1 12
REMARK SMILES IDX 33 13 23 14 20 15 6 16 7 17 19 18 21 19 8 20 18 21 17 22
REMARK SMILES IDX 10 23 9 24 14 25 11 26 12 27 15 28 16 29 27 30 28 31 29 32
REMARK SMILES IDX 13 33
REMARK H PARENT 13 34
REMARK Flexibility Score: inf
ROOT
ATOM      1  C   UNL     1     -11.506  22.828  -9.840  1.00  0.00     0.017 C 
ATOM      2  C   UNL     1     -11.573  24.125  -8.982  1.00  0.00     0.014 C 
ATOM      3  C   UNL     1     -12.949  22.213  -9.984  1.00  0.00     0.014 C 
ATOM      4  C   UNL     1     -10.463  21.807  -9.236  1.00  0.00     0.030 C 
ATOM      5  C   UNL     1     -11.750  23.857  -7.487  1.00  0.00     0.004 C 
ATOM      6  C   UNL     1     -13.068  20.699  -9.727  1.00  0.00     0.013 C 
ATOM      7  C   UNL     1     -10.572  20.439  -9.931  1.00  0.00    -0.063 C 
ATOM      8  C   UNL     1     -10.519  21.656  -7.673  1.00  0.00    -0.003 C 
ATOM      9  C   UNL     1     -10.597  23.018  -6.930  1.00  0.00    -0.011 C 
ATOM     10  C   UNL     1     -11.930  19.836 -10.350  1.00  0.00    -0.006 C 
ATOM     11  C   UNL     1      -9.447  19.725 -10.160  1.00  0.00    -0.027 C 
ATOM     12  C   UNL     1      -9.345  20.822  -7.119  1.00  0.00     0.008 C 
ATOM     13  C   UNL     1      -9.270  23.807  -6.921  1.00  0.00     0.008 C 
ATOM     14  C   UNL     1     -12.011  20.046 -11.901  1.00  0.00     0.017 C 
ATOM     15  C   UNL     1     -12.050  18.240  -9.943  1.00  0.00    -0.020 C 
ATOM     16  C   UNL     1      -9.537  18.244 -10.421  1.00  0.00     0.032 C 
ATOM     17  C   UNL     1     -10.652  17.678  -9.506  1.00  0.00     0.006 C 
ATOM     18  C   UNL     1     -12.956  17.990  -8.701  1.00  0.00     0.008 C 
ATOM     19  C   UNL     1     -12.649  17.425 -11.132  1.00  0.00     0.012 C 
ATOM     20  C   UNL     1     -10.527  16.151  -9.088  1.00  0.00    -0.025 C 
ATOM     21  C   UNL     1     -13.121  16.505  -8.342  1.00  0.00     0.005 C 
ATOM     22  C   UNL     1     -11.828  15.610  -8.320  1.00  0.00     0.003 C 
ATOM     23  C   UNL     1     -10.182  15.249 -10.306  1.00  0.00     0.010 C 
ATOM     24  C   UNL     1      -9.296  16.081  -8.107  1.00  0.00     0.012 C 
ATOM     25  C   UNL     1     -12.164  14.056  -8.541  1.00  0.00    -0.006 C 
ATOM     26  C   UNL     1     -10.020  13.752  -9.963  1.00  0.00     0.033 C 
ATOM     27  C   UNL     1     -10.850  13.248  -8.756  1.00  0.00     0.120 C 
ATOM     28  C   UNL     1     -13.125  13.756  -9.733  1.00  0.00     0.014 C 
ATOM     29  C   UNL     1     -12.856  13.513  -7.263  1.00  0.00     0.014 C 
ENDROOT
BRANCH   1  30
ATOM     30  C   UNL     1     -11.034  23.291 -11.222  1.00  0.00     0.048 C 
ATOM     31  O   UNL     1     -11.864  23.757 -12.048  1.00  0.00    -0.550 OA
ATOM     32  O   UNL     1      -9.695  23.223 -11.595  1.00  0.00    -0.550 OA
ENDBRANCH   1  30
BRANCH  27  33
ATOM     33  O   UNL     1     -11.129  11.877  -8.926  1.00  0.00    -0.393 OA
ATOM     34  H   UNL     1     -11.498  11.766  -9.841  1.00  0.00     0.210 HD
ENDBRANCH  27  33
TORSDOF 2
ENDMDL
MODEL 2
REMARK VINA RESULT:     0.707      1.747      2.896
REMARK INTER + INTRA:           0.559
REMARK INTER:                   0.610
REMARK INTRA:                  -0.051
REMARK UNBOUND:                -0.210
REMARK SMILES C[C@@H]1[C@H]2C3=CC[C@@H]4[C@]5(C)CC[C@H](O)C(C)(C)[C@@H]5CC[C@@]4(C)[C@@]3(C)CC[C@@]2(C(=O)[O-])CC[C@@H]1C
REMARK SMILES IDX 26 1 30 2 25 3 3 4 31 5 24 6 4 7 2 8 32 9 22 10 5 11 1 12
REMARK SMILES IDX 33 13 23 14 20 15 6 16 7 17 19 18 21 19 8 20 18 21 17 22
REMARK SMILES IDX 10 23 9 24 14 25 11 26 12 27 15 28 16 29 27 30 28 31 29 32
REMARK SMILES IDX 13 33
REMARK H PARENT 13 34
REMARK Flexibility Score: inf
ROOT
ATOM      1  C   UNL     1     -10.147  22.273 -11.266  1.00  0.00     0.017 C 
ATOM      2  C   UNL     1     -10.933  23.500 -11.813  1.00  0.00     0.014 C 
ATOM      3  C   UNL     1      -9.960  21.210 -12.413  1.00  0.00     0.014 C 
ATOM      4  C   UNL     1     -10.857  21.676  -9.987  1.00  0.00     0.030 C 
ATOM      5  C   UNL     1     -12.428  23.236 -11.991  1.00  0.00     0.004 C 
ATOM      6  C   UNL     1     -10.288  19.751 -12.043  1.00  0.00     0.013 C 
ATOM      7  C   UNL     1     -10.229  20.328  -9.593  1.00  0.00    -0.063 C 
ATOM      8  C   UNL     1     -12.421  21.563 -10.095  1.00  0.00    -0.003 C 
ATOM      9  C   UNL     1     -13.087  22.845 -10.666  1.00  0.00    -0.011 C 
ATOM     10  C   UNL     1      -9.770  19.295 -10.646  1.00  0.00    -0.006 C 
ATOM     11  C   UNL     1     -10.096  20.021  -8.283  1.00  0.00    -0.027 C 
ATOM     12  C   UNL     1     -13.077  21.184  -8.750  1.00  0.00     0.008 C 
ATOM     13  C   UNL     1     -13.125  24.030  -9.677  1.00  0.00     0.008 C 
ATOM     14  C   UNL     1      -8.208  19.419 -10.688  1.00  0.00     0.017 C 
ATOM     15  C   UNL     1     -10.252  17.764 -10.260  1.00  0.00    -0.020 C 
ATOM     16  C   UNL     1      -9.907  18.588  -7.862  1.00  0.00     0.032 C 
ATOM     17  C   UNL     1     -10.790  17.713  -8.787  1.00  0.00     0.006 C 
ATOM     18  C   UNL     1     -11.456  17.266 -11.113  1.00  0.00     0.008 C 
ATOM     19  C   UNL     1      -9.076  16.760 -10.477  1.00  0.00     0.012 C 
ATOM     20  C   UNL     1     -11.291  16.327  -8.194  1.00  0.00    -0.025 C 
ATOM     21  C   UNL     1     -11.882  15.822 -10.803  1.00  0.00     0.005 C 
ATOM     22  C   UNL     1     -12.018  15.409  -9.291  1.00  0.00     0.003 C 
ATOM     23  C   UNL     1     -10.142  15.553  -7.491  1.00  0.00     0.010 C 
ATOM     24  C   UNL     1     -12.338  16.701  -7.077  1.00  0.00     0.012 C 
ATOM     25  C   UNL     1     -11.859  13.826  -9.081  1.00  0.00    -0.006 C 
ATOM     26  C   UNL     1     -10.569  14.206  -6.868  1.00  0.00     0.033 C 
ATOM     27  C   UNL     1     -11.755  13.493  -7.563  1.00  0.00     0.120 C 
ATOM     28  C   UNL     1     -10.636  13.186  -9.808  1.00  0.00     0.014 C 
ATOM     29  C   UNL     1     -13.125  13.123  -9.639  1.00  0.00     0.014 C 
ENDROOT
BRANCH   1  30
ATOM     30  C   UNL     1      -8.770  22.823 -10.882  1.00  0.00     0.048 C 
ATOM     31  O   UNL     1      -8.425  22.867  -9.670  1.00  0.00    -0.550 OA
ATOM     32  O   UNL     1      -7.870  23.269 -11.845  1.00  0.00    -0.550 OA
ENDBRANCH   1  30
BRANCH  27  33
ATOM     33  O   UNL     1     -11.642  12.103  -7.363  1.00  0.00    -0.393 OA
ATOM     34  H   UNL     1     -12.190  11.878  -6.565  1.00  0.00     0.210 HD
ENDBRANCH  27  33
TORSDOF 2
ENDMDL
