MODEL 1
REMARK VINA RESULT:    -4.529      0.000      0.000
REMARK INTER + INTRA:          -7.153
REMARK INTER:                  -6.117
REMARK INTRA:                  -1.036
REMARK UNBOUND:                -1.036
REMARK SMILES CC(=O)CCC=C(C)CCC=C(C)C
REMARK SMILES IDX 7 1 6 2 8 3 9 4 10 5 11 6 13 7 12 8 14 9 5 10 4 11 2 12 3 13
REMARK SMILES IDX 1 14
REMARK H PARENT
REMARK Flexibility Score: inf
ROOT
ATOM      1  C   UNL     1       5.086 145.993  -7.947  1.00  0.00    -0.077 C 
ATOM      2  C   UNL     1       4.866 146.341  -6.658  1.00  0.00    -0.028 C 
ATOM      3  C   UNL     1       4.397 146.701  -9.092  1.00  0.00     0.039 C 
ENDROOT
BRANCH   1   4
ATOM      4  C   UNL     1       6.060 144.877  -8.252  1.00  0.00     0.034 C 
BRANCH   4   5
ATOM      5  C   UNL     1       5.663 143.594  -7.513  1.00  0.00     0.032 C 
BRANCH   5   6
ATOM      6  C   UNL     1       4.724 142.764  -8.352  1.00  0.00    -0.028 C 
ATOM      7  C   UNL     1       2.692 143.480  -7.074  1.00  0.00     0.039 C 
ATOM      8  C   UNL     1       3.383 142.721  -8.183  1.00  0.00    -0.080 C 
ATOM      9  C   UNL     1       2.566 141.875  -9.125  1.00  0.00     0.039 C 
ENDBRANCH   5   6
ENDBRANCH   4   5
ENDBRANCH   1   4
BRANCH   2  10
ATOM     10  C   UNL     1       3.886 147.398  -6.215  1.00  0.00     0.035 C 
BRANCH  10  11
ATOM     11  C   UNL     1       2.774 146.783  -5.362  1.00  0.00     0.079 C 
BRANCH  11  12
ATOM     12  C   UNL     1       1.425 147.048  -5.975  1.00  0.00     0.130 C 
ATOM     13  O   UNL     1       1.066 146.397  -6.946  1.00  0.00    -0.300 OA
ATOM     14  C   UNL     1       0.511 148.102  -5.425  1.00  0.00     0.087 C 
ENDBRANCH  11  12
ENDBRANCH  10  11
ENDBRANCH   2  10
TORSDOF 6
ENDMDL
MODEL 2
REMARK VINA RESULT:    -4.176      1.315      4.570
REMARK INTER + INTRA:          -6.676
REMARK INTER:                  -6.170
REMARK INTRA:                  -0.506
REMARK UNBOUND:                -1.036
REMARK SMILES CC(=O)CCC=C(C)CCC=C(C)C
REMARK SMILES IDX 7 1 6 2 8 3 9 4 10 5 11 6 13 7 12 8 14 9 5 10 4 11 2 12 3 13
REMARK SMILES IDX 1 14
REMARK H PARENT
REMARK Flexibility Score: inf
ROOT
ATOM      1  C   UNL     1       5.212 145.930  -7.692  1.00  0.00    -0.077 C 
ATOM      2  C   UNL     1       5.151 144.637  -7.296  1.00  0.00    -0.028 C 
ATOM      3  C   UNL     1       5.809 146.327  -9.023  1.00  0.00     0.039 C 
ENDROOT
BRANCH   1   4
ATOM      4  C   UNL     1       4.652 147.004  -6.787  1.00  0.00     0.034 C 
BRANCH   4   5
ATOM      5  C   UNL     1       3.770 146.387  -5.695  1.00  0.00     0.032 C 
BRANCH   5   6
ATOM      6  C   UNL     1       2.580 147.268  -5.409  1.00  0.00    -0.028 C 
ATOM      7  C   UNL     1       1.076 146.020  -6.974  1.00  0.00     0.039 C 
ATOM      8  C   UNL     1       1.356 147.101  -5.957  1.00  0.00    -0.080 C 
ATOM      9  C   UNL     1       0.250 148.038  -5.546  1.00  0.00     0.039 C 
ENDBRANCH   5   6
ENDBRANCH   4   5
ENDBRANCH   1   4
BRANCH   2  10
ATOM     10  C   UNL     1       5.715 143.478  -8.078  1.00  0.00     0.035 C 
BRANCH  10  11
ATOM     11  C   UNL     1       4.707 142.987  -9.121  1.00  0.00     0.079 C 
BRANCH  11  12
ATOM     12  C   UNL     1       3.299 143.127  -8.606  1.00  0.00     0.130 C 
ATOM     13  O   UNL     1       2.547 143.940  -9.124  1.00  0.00    -0.300 OA
ATOM     14  C   UNL     1       2.798 142.294  -7.465  1.00  0.00     0.087 C 
ENDBRANCH  11  12
ENDBRANCH  10  11
ENDBRANCH   2  10
TORSDOF 6
ENDMDL
MODEL 3
REMARK VINA RESULT:    -4.121      1.685      3.221
REMARK INTER + INTRA:          -6.602
REMARK INTER:                  -6.034
REMARK INTRA:                  -0.568
REMARK UNBOUND:                -1.036
REMARK SMILES CC(=O)CCC=C(C)CCC=C(C)C
REMARK SMILES IDX 7 1 6 2 8 3 9 4 10 5 11 6 13 7 12 8 14 9 5 10 4 11 2 12 3 13
REMARK SMILES IDX 1 14
REMARK H PARENT
REMARK Flexibility Score: inf
ROOT
ATOM      1  C   UNL     1       2.572 144.968  -8.295  1.00  0.00    -0.077 C 
ATOM      2  C   UNL     1       1.964 145.324  -7.140  1.00  0.00    -0.028 C 
ATOM      3  C   UNL     1       3.355 145.961  -9.122  1.00  0.00     0.039 C 
ENDROOT
BRANCH   1   4
ATOM      4  C   UNL     1       2.480 143.532  -8.761  1.00  0.00     0.034 C 
BRANCH   4   5
ATOM      5  C   UNL     1       3.873 142.897  -8.841  1.00  0.00     0.032 C 
BRANCH   5   6
ATOM      6  C   UNL     1       4.599 143.037  -7.526  1.00  0.00    -0.028 C 
ATOM      7  C   UNL     1       6.381 144.514  -8.482  1.00  0.00     0.039 C 
ATOM      8  C   UNL     1       5.713 143.780  -7.343  1.00  0.00    -0.080 C 
ATOM      9  C   UNL     1       6.308 143.857  -5.960  1.00  0.00     0.039 C 
ENDBRANCH   5   6
ENDBRANCH   4   5
ENDBRANCH   1   4
BRANCH   2  10
ATOM     10  C   UNL     1       1.935 146.728  -6.588  1.00  0.00     0.035 C 
BRANCH  10  11
ATOM     11  C   UNL     1       2.730 146.812  -5.283  1.00  0.00     0.079 C 
BRANCH  11  12
ATOM     12  C   UNL     1       4.039 147.524  -5.502  1.00  0.00     0.130 C 
ATOM     13  O   UNL     1       4.405 148.372  -4.700  1.00  0.00    -0.300 OA
ATOM     14  C   UNL     1       4.903 147.223  -6.690  1.00  0.00     0.087 C 
ENDBRANCH  11  12
ENDBRANCH  10  11
ENDBRANCH   2  10
TORSDOF 6
ENDMDL
MODEL 4
REMARK VINA RESULT:    -3.939      1.281      3.332
REMARK INTER + INTRA:          -6.356
REMARK INTER:                  -5.806
REMARK INTRA:                  -0.550
REMARK UNBOUND:                -1.036
REMARK SMILES CC(=O)CCC=C(C)CCC=C(C)C
REMARK SMILES IDX 7 1 6 2 8 3 9 4 10 5 11 6 13 7 12 8 14 9 5 10 4 11 2 12 3 13
REMARK SMILES IDX 1 14
REMARK H PARENT
REMARK Flexibility Score: inf
ROOT
ATOM      1  C   UNL     1       3.269 143.426  -8.382  1.00  0.00    -0.077 C 
ATOM      2  C   UNL     1       2.729 144.577  -8.846  1.00  0.00    -0.028 C 
ATOM      3  C   UNL     1       2.651 142.663  -7.233  1.00  0.00     0.039 C 
ENDROOT
BRANCH   1   4
ATOM      4  C   UNL     1       4.515 142.880  -9.044  1.00  0.00     0.034 C 
BRANCH   4   5
ATOM      5  C   UNL     1       5.762 143.620  -8.547  1.00  0.00     0.032 C 
BRANCH   5   6
ATOM      6  C   UNL     1       5.823 145.011  -9.125  1.00  0.00    -0.028 C 
ATOM      7  C   UNL     1       5.432 146.122  -6.915  1.00  0.00     0.039 C 
ATOM      8  C   UNL     1       5.701 146.146  -8.401  1.00  0.00    -0.080 C 
ATOM      9  C   UNL     1       5.822 147.470  -9.112  1.00  0.00     0.039 C 
ENDBRANCH   5   6
ENDBRANCH   4   5
ENDBRANCH   1   4
BRANCH   2  10
ATOM     10  C   UNL     1       1.522 145.255  -8.248  1.00  0.00     0.035 C 
BRANCH  10  11
ATOM     11  C   UNL     1       1.941 146.237  -7.151  1.00  0.00     0.079 C 
BRANCH  11  12
ATOM     12  C   UNL     1       0.737 146.746  -6.404  1.00  0.00     0.130 C 
ATOM     13  O   UNL     1      -0.315 146.126  -6.465  1.00  0.00    -0.300 OA
ATOM     14  C   UNL     1       0.797 148.004  -5.590  1.00  0.00     0.087 C 
ENDBRANCH  11  12
ENDBRANCH  10  11
ENDBRANCH   2  10
TORSDOF 6
ENDMDL
MODEL 5
REMARK VINA RESULT:    -3.605      1.680      2.841
REMARK INTER + INTRA:          -5.905
REMARK INTER:                  -5.213
REMARK INTRA:                  -0.692
REMARK UNBOUND:                -1.036
REMARK SMILES CC(=O)CCC=C(C)CCC=C(C)C
REMARK SMILES IDX 7 1 6 2 8 3 9 4 10 5 11 6 13 7 12 8 14 9 5 10 4 11 2 12 3 13
REMARK SMILES IDX 1 14
REMARK H PARENT
REMARK Flexibility Score: inf
ROOT
ATOM      1  C   UNL     1       3.147 145.881  -8.426  1.00  0.00    -0.077 C 
ATOM      2  C   UNL     1       2.769 146.310  -7.200  1.00  0.00    -0.028 C 
ATOM      3  C   UNL     1       2.439 144.743  -9.125  1.00  0.00     0.039 C 
ENDROOT
BRANCH   1   4
ATOM      4  C   UNL     1       4.297 146.572  -9.125  1.00  0.00     0.034 C 
BRANCH   4   5
ATOM      5  C   UNL     1       5.548 145.687  -9.115  1.00  0.00     0.032 C 
BRANCH   5   6
ATOM      6  C   UNL     1       5.978 145.386  -7.701  1.00  0.00    -0.028 C 
ATOM      7  C   UNL     1       5.310 142.977  -7.837  1.00  0.00     0.039 C 
ATOM      8  C   UNL     1       5.901 144.168  -7.120  1.00  0.00    -0.080 C 
ATOM      9  C   UNL     1       6.406 144.010  -5.710  1.00  0.00     0.039 C 
ENDBRANCH   5   6
ENDBRANCH   4   5
ENDBRANCH   1   4
BRANCH   2  10
ATOM     10  C   UNL     1       1.675 145.680  -6.375  1.00  0.00     0.035 C 
BRANCH  10  11
ATOM     11  C   UNL     1       0.373 146.474  -6.506  1.00  0.00     0.079 C 
BRANCH  11  12
ATOM     12  C   UNL     1       0.338 147.605  -5.513  1.00  0.00     0.130 C 
ATOM     13  O   UNL     1       0.968 148.628  -5.743  1.00  0.00    -0.300 OA
ATOM     14  C   UNL     1      -0.448 147.504  -4.240  1.00  0.00     0.087 C 
ENDBRANCH  11  12
ENDBRANCH  10  11
ENDBRANCH   2  10
TORSDOF 6
ENDMDL
MODEL 6
REMARK VINA RESULT:    -3.549      2.059      4.186
REMARK INTER + INTRA:          -5.830
REMARK INTER:                  -4.983
REMARK INTRA:                  -0.847
REMARK UNBOUND:                -1.036
REMARK SMILES CC(=O)CCC=C(C)CCC=C(C)C
REMARK SMILES IDX 7 1 6 2 8 3 9 4 10 5 11 6 13 7 12 8 14 9 5 10 4 11 2 12 3 13
REMARK SMILES IDX 1 14
REMARK H PARENT
REMARK Flexibility Score: inf
ROOT
ATOM      1  C   UNL     1       3.492 147.138  -6.299  1.00  0.00    -0.077 C 
ATOM      2  C   UNL     1       4.076 146.826  -7.479  1.00  0.00    -0.028 C 
ATOM      3  C   UNL     1       4.304 147.543  -5.091  1.00  0.00     0.039 C 
ENDROOT
BRANCH   1   4
ATOM      4  C   UNL     1       1.984 147.099  -6.192  1.00  0.00     0.034 C 
BRANCH   4   5
ATOM      5  C   UNL     1       1.401 146.028  -7.122  1.00  0.00     0.032 C 
BRANCH   5   6
ATOM      6  C   UNL     1       1.935 144.664  -6.765  1.00  0.00    -0.028 C 
ATOM      7  C   UNL     1       2.569 144.116  -9.125  1.00  0.00     0.039 C 
ATOM      8  C   UNL     1       2.486 143.803  -7.650  1.00  0.00    -0.080 C 
ATOM      9  C   UNL     1       3.013 142.487  -7.139  1.00  0.00     0.039 C 
ENDBRANCH   5   6
ENDBRANCH   4   5
ENDBRANCH   1   4
BRANCH   2  10
ATOM     10  C   UNL     1       5.566 146.777  -7.707  1.00  0.00     0.035 C 
BRANCH  10  11
ATOM     11  C   UNL     1       5.922 145.697  -8.731  1.00  0.00     0.079 C 
BRANCH  11  12
ATOM     12  C   UNL     1       6.000 144.345  -8.073  1.00  0.00     0.130 C 
ATOM     13  O   UNL     1       5.962 143.336  -8.764  1.00  0.00    -0.300 OA
ATOM     14  C   UNL     1       6.115 144.206  -6.585  1.00  0.00     0.087 C 
ENDBRANCH  11  12
ENDBRANCH  10  11
ENDBRANCH   2  10
TORSDOF 6
ENDMDL
MODEL 7
REMARK VINA RESULT:    -3.295      2.200      3.789
REMARK INTER + INTRA:          -5.486
REMARK INTER:                  -4.932
REMARK INTRA:                  -0.555
REMARK UNBOUND:                -1.036
REMARK SMILES CC(=O)CCC=C(C)CCC=C(C)C
REMARK SMILES IDX 7 1 6 2 8 3 9 4 10 5 11 6 13 7 12 8 14 9 5 10 4 11 2 12 3 13
REMARK SMILES IDX 1 14
REMARK H PARENT
REMARK Flexibility Score: inf
ROOT
ATOM      1  C   UNL     1       1.672 146.260  -6.803  1.00  0.00    -0.077 C 
ATOM      2  C   UNL     1       0.415 146.608  -6.446  1.00  0.00    -0.028 C 
ATOM      3  C   UNL     1       2.883 146.773  -6.058  1.00  0.00     0.039 C 
ENDROOT
BRANCH   1   4
ATOM      4  C   UNL     1       1.871 145.316  -7.968  1.00  0.00     0.034 C 
BRANCH   4   5
ATOM      5  C   UNL     1       2.976 144.299  -7.661  1.00  0.00     0.032 C 
BRANCH   5   6
ATOM      6  C   UNL     1       4.201 144.572  -8.497  1.00  0.00    -0.028 C 
ATOM      7  C   UNL     1       5.756 144.490  -6.536  1.00  0.00     0.039 C 
ATOM      8  C   UNL     1       5.460 144.637  -8.010  1.00  0.00    -0.080 C 
ATOM      9  C   UNL     1       6.593 144.879  -8.974  1.00  0.00     0.039 C 
ENDBRANCH   5   6
ENDBRANCH   4   5
ENDBRANCH   1   4
BRANCH   2  10
ATOM     10  C   UNL     1       0.080 147.576  -5.339  1.00  0.00     0.035 C 
BRANCH  10  11
ATOM     11  C   UNL     1      -0.739 146.885  -4.246  1.00  0.00     0.079 C 
BRANCH  11  12
ATOM     12  C   UNL     1      -1.047 147.843  -3.126  1.00  0.00     0.130 C 
ATOM     13  O   UNL     1      -0.612 147.619  -2.005  1.00  0.00    -0.300 OA
ATOM     14  C   UNL     1      -1.884 149.067  -3.351  1.00  0.00     0.087 C 
ENDBRANCH  11  12
ENDBRANCH  10  11
ENDBRANCH   2  10
TORSDOF 6
ENDMDL
MODEL 8
REMARK VINA RESULT:    -3.234      2.126      5.772
REMARK INTER + INTRA:          -5.404
REMARK INTER:                  -4.776
REMARK INTRA:                  -0.628
REMARK UNBOUND:                -1.036
REMARK SMILES CC(=O)CCC=C(C)CCC=C(C)C
REMARK SMILES IDX 7 1 6 2 8 3 9 4 10 5 11 6 13 7 12 8 14 9 5 10 4 11 2 12 3 13
REMARK SMILES IDX 1 14
REMARK H PARENT
REMARK Flexibility Score: inf
ROOT
ATOM      1  C   UNL     1       2.886 146.365  -7.366  1.00  0.00    -0.077 C 
ATOM      2  C   UNL     1       4.103 146.746  -7.817  1.00  0.00    -0.028 C 
ATOM      3  C   UNL     1       2.084 145.284  -8.054  1.00  0.00     0.039 C 
ENDROOT
BRANCH   1   4
ATOM      4  C   UNL     1       2.319 147.027  -6.129  1.00  0.00     0.034 C 
BRANCH   4   5
ATOM      5  C   UNL     1       0.787 147.049  -6.179  1.00  0.00     0.032 C 
BRANCH   5   6
ATOM      6  C   UNL     1       0.229 147.900  -5.067  1.00  0.00    -0.028 C 
ATOM      7  C   UNL     1      -1.513 146.217  -4.434  1.00  0.00     0.039 C 
ATOM      8  C   UNL     1      -0.788 147.530  -4.257  1.00  0.00    -0.080 C 
ATOM      9  C   UNL     1      -1.214 148.472  -3.161  1.00  0.00     0.039 C 
ENDBRANCH   5   6
ENDBRANCH   4   5
ENDBRANCH   1   4
BRANCH   2  10
ATOM     10  C   UNL     1       4.760 146.205  -9.062  1.00  0.00     0.035 C 
BRANCH  10  11
ATOM     11  C   UNL     1       6.035 145.435  -8.709  1.00  0.00     0.079 C 
BRANCH  11  12
ATOM     12  C   UNL     1       5.703 144.157  -7.986  1.00  0.00     0.130 C 
ATOM     13  O   UNL     1       6.031 144.025  -6.816  1.00  0.00    -0.300 OA
ATOM     14  C   UNL     1       4.984 143.035  -8.673  1.00  0.00     0.087 C 
ENDBRANCH  11  12
ENDBRANCH  10  11
ENDBRANCH   2  10
TORSDOF 6
ENDMDL
MODEL 9
REMARK VINA RESULT:    -1.638      1.984      5.090
REMARK INTER + INTRA:          -3.248
REMARK INTER:                  -2.175
REMARK INTRA:                  -1.073
REMARK UNBOUND:                -1.036
REMARK SMILES CC(=O)CCC=C(C)CCC=C(C)C
REMARK SMILES IDX 7 1 6 2 8 3 9 4 10 5 11 6 13 7 12 8 14 9 5 10 4 11 2 12 3 13
REMARK SMILES IDX 1 14
REMARK H PARENT
REMARK Flexibility Score: inf
ROOT
ATOM      1  C   UNL     1       2.632 144.389  -8.096  1.00  0.00    -0.077 C 
ATOM      2  C   UNL     1       3.614 144.447  -9.025  1.00  0.00    -0.028 C 
ATOM      3  C   UNL     1       2.627 143.342  -7.006  1.00  0.00     0.039 C 
ENDROOT
BRANCH   1   4
ATOM      4  C   UNL     1       1.518 145.411  -8.140  1.00  0.00     0.034 C 
BRANCH   4   5
ATOM      5  C   UNL     1       1.276 146.009  -6.749  1.00  0.00     0.032 C 
BRANCH   5   6
ATOM      6  C   UNL     1       2.246 147.130  -6.473  1.00  0.00    -0.028 C 
ATOM      7  C   UNL     1       3.353 145.922  -4.579  1.00  0.00     0.039 C 
ATOM      8  C   UNL     1       3.202 147.096  -5.518  1.00  0.00    -0.080 C 
ATOM      9  C   UNL     1       4.128 148.277  -5.384  1.00  0.00     0.039 C 
ENDBRANCH   5   6
ENDBRANCH   4   5
ENDBRANCH   1   4
BRANCH   2  10
ATOM     10  C   UNL     1       4.753 143.463  -9.125  1.00  0.00     0.035 C 
BRANCH  10  11
ATOM     11  C   UNL     1       6.084 144.141  -8.791  1.00  0.00     0.079 C 
BRANCH  11  12
ATOM     12  C   UNL     1       5.995 144.868  -7.475  1.00  0.00     0.130 C 
ATOM     13  O   UNL     1       5.843 146.081  -7.467  1.00  0.00    -0.300 OA
ATOM     14  C   UNL     1       6.098 144.138  -6.170  1.00  0.00     0.087 C 
ENDBRANCH  11  12
ENDBRANCH  10  11
ENDBRANCH   2  10
TORSDOF 6
ENDMDL
