MODEL 1
REMARK VINA RESULT:    -2.737      0.000      0.000
REMARK INTER + INTRA:          -2.908
REMARK INTER:                  -2.897
REMARK INTRA:                  -0.011
REMARK UNBOUND:                -0.011
REMARK SMILES O=Cc1ccco1
REMARK SMILES IDX 5 1 6 2 7 3 3 4 4 5 2 6 1 7
REMARK H PARENT
REMARK Flexibility Score: inf
ROOT
ATOM      1  C   UNL     1     -14.178  26.982 -36.017  1.00  0.00     0.043 A 
ATOM      2  C   UNL     1     -13.248  26.182 -36.648  1.00  0.00     0.196 A 
ATOM      3  O   UNL     1     -13.010  25.118 -35.916  1.00  0.00    -0.462 OA
ATOM      4  C   UNL     1     -13.745  25.186 -34.831  1.00  0.00     0.166 A 
ATOM      5  C   UNL     1     -14.502  26.339 -34.840  1.00  0.00     0.054 A 
ENDROOT
BRANCH   4   6
ATOM      6  C   UNL     1     -13.751  24.174 -33.773  1.00  0.00     0.298 C 
ATOM      7  O   UNL     1     -12.947  24.261 -32.808  1.00  0.00    -0.294 OA
ENDBRANCH   4   6
TORSDOF 1
ENDMDL
MODEL 2
REMARK VINA RESULT:    -2.728      1.259      3.342
REMARK INTER + INTRA:          -2.898
REMARK INTER:                  -2.887
REMARK INTRA:                  -0.011
REMARK UNBOUND:                -0.011
REMARK SMILES O=Cc1ccco1
REMARK SMILES IDX 5 1 6 2 7 3 3 4 4 5 2 6 1 7
REMARK H PARENT
REMARK Flexibility Score: inf
ROOT
ATOM      1  C   UNL     1     -13.531  23.510 -33.377  1.00  0.00     0.043 A 
ATOM      2  C   UNL     1     -12.992  24.572 -32.679  1.00  0.00     0.196 A 
ATOM      3  O   UNL     1     -13.274  25.696 -33.297  1.00  0.00    -0.462 OA
ATOM      4  C   UNL     1     -13.976  25.416 -34.370  1.00  0.00     0.166 A 
ATOM      5  C   UNL     1     -14.169  24.054 -34.472  1.00  0.00     0.054 A 
ENDROOT
BRANCH   4   6
ATOM      6  C   UNL     1     -14.476  26.418 -35.314  1.00  0.00     0.298 C 
ATOM      7  O   UNL     1     -13.868  26.629 -36.396  1.00  0.00    -0.294 OA
ENDBRANCH   4   6
TORSDOF 1
ENDMDL
MODEL 3
REMARK VINA RESULT:    -2.628      1.789      2.982
REMARK INTER + INTRA:          -2.793
REMARK INTER:                  -2.781
REMARK INTRA:                  -0.012
REMARK UNBOUND:                -0.011
REMARK SMILES O=Cc1ccco1
REMARK SMILES IDX 5 1 6 2 7 3 3 4 4 5 2 6 1 7
REMARK H PARENT
REMARK Flexibility Score: inf
ROOT
ATOM      1  C   UNL     1     -13.791  22.284 -35.205  1.00  0.00     0.043 A 
ATOM      2  C   UNL     1     -12.729  22.904 -35.831  1.00  0.00     0.196 A 
ATOM      3  O   UNL     1     -12.753  24.192 -35.573  1.00  0.00    -0.462 OA
ATOM      4  C   UNL     1     -13.787  24.442 -34.804  1.00  0.00     0.166 A 
ATOM      5  C   UNL     1     -14.477  23.278 -34.539  1.00  0.00     0.054 A 
ENDROOT
BRANCH   4   6
ATOM      6  C   UNL     1     -14.141  25.773 -34.305  1.00  0.00     0.298 C 
ATOM      7  O   UNL     1     -14.641  26.628 -35.083  1.00  0.00    -0.294 OA
ENDBRANCH   4   6
TORSDOF 1
ENDMDL
MODEL 4
REMARK VINA RESULT:    -2.608      1.693      1.938
REMARK INTER + INTRA:          -2.771
REMARK INTER:                  -2.760
REMARK INTRA:                  -0.012
REMARK UNBOUND:                -0.011
REMARK SMILES O=Cc1ccco1
REMARK SMILES IDX 5 1 6 2 7 3 3 4 4 5 2 6 1 7
REMARK H PARENT
REMARK Flexibility Score: inf
ROOT
ATOM      1  C   UNL     1     -14.382  26.256 -34.911  1.00  0.00     0.043 A 
ATOM      2  C   UNL     1     -13.535  25.213 -35.228  1.00  0.00     0.196 A 
ATOM      3  O   UNL     1     -12.875  24.837 -34.156  1.00  0.00    -0.462 OA
ATOM      4  C   UNL     1     -13.254  25.590 -33.149  1.00  0.00     0.166 A 
ATOM      5  C   UNL     1     -14.202  26.501 -33.566  1.00  0.00     0.054 A 
ENDROOT
BRANCH   4   6
ATOM      6  C   UNL     1     -12.736  25.465 -31.785  1.00  0.00     0.298 C 
ATOM      7  O   UNL     1     -13.449  25.805 -30.804  1.00  0.00    -0.294 OA
ENDBRANCH   4   6
TORSDOF 1
ENDMDL
MODEL 5
REMARK VINA RESULT:    -2.530     17.177     18.055
REMARK INTER + INTRA:          -2.689
REMARK INTER:                  -2.678
REMARK INTRA:                  -0.011
REMARK UNBOUND:                -0.011
REMARK SMILES O=Cc1ccco1
REMARK SMILES IDX 5 1 6 2 7 3 3 4 4 5 2 6 1 7
REMARK H PARENT
REMARK Flexibility Score: inf
ROOT
ATOM      1  C   UNL     1     -27.585  12.049 -33.934  1.00  0.00     0.043 A 
ATOM      2  C   UNL     1     -27.046  11.842 -35.187  1.00  0.00     0.196 A 
ATOM      3  O   UNL     1     -25.750  12.048 -35.152  1.00  0.00    -0.462 OA
ATOM      4  C   UNL     1     -25.415  12.381 -33.927  1.00  0.00     0.166 A 
ATOM      5  C   UNL     1     -26.531  12.397 -33.116  1.00  0.00     0.054 A 
ENDROOT
BRANCH   4   6
ATOM      6  C   UNL     1     -24.048  12.686 -33.499  1.00  0.00     0.298 C 
ATOM      7  O   UNL     1     -23.490  11.984 -32.615  1.00  0.00    -0.294 OA
ENDBRANCH   4   6
TORSDOF 1
ENDMDL
MODEL 6
REMARK VINA RESULT:    -2.455     20.804     22.014
REMARK INTER + INTRA:          -2.609
REMARK INTER:                  -2.593
REMARK INTRA:                  -0.016
REMARK UNBOUND:                -0.011
REMARK SMILES O=Cc1ccco1
REMARK SMILES IDX 5 1 6 2 7 3 3 4 4 5 2 6 1 7
REMARK H PARENT
REMARK Flexibility Score: inf
ROOT
ATOM      1  C   UNL     1     -15.618   9.009 -22.873  1.00  0.00     0.043 A 
ATOM      2  C   UNL     1     -14.862   9.742 -21.979  1.00  0.00     0.196 A 
ATOM      3  O   UNL     1     -15.186   9.411 -20.751  1.00  0.00    -0.462 OA
ATOM      4  C   UNL     1     -16.122   8.492 -20.800  1.00  0.00     0.166 A 
ATOM      5  C   UNL     1     -16.434   8.199 -22.111  1.00  0.00     0.054 A 
ENDROOT
BRANCH   4   6
ATOM      6  C   UNL     1     -16.736   7.875 -19.622  1.00  0.00     0.298 C 
ATOM      7  O   UNL     1     -16.405   8.249 -18.466  1.00  0.00    -0.294 OA
ENDBRANCH   4   6
TORSDOF 1
ENDMDL
MODEL 7
REMARK VINA RESULT:    -2.440     22.368     23.366
REMARK INTER + INTRA:          -2.594
REMARK INTER:                  -2.581
REMARK INTRA:                  -0.012
REMARK UNBOUND:                -0.011
REMARK SMILES O=Cc1ccco1
REMARK SMILES IDX 5 1 6 2 7 3 3 4 4 5 2 6 1 7
REMARK H PARENT
REMARK Flexibility Score: inf
ROOT
ATOM      1  C   UNL     1     -17.249  10.205 -17.401  1.00  0.00     0.043 A 
ATOM      2  C   UNL     1     -16.735   9.028 -16.896  1.00  0.00     0.196 A 
ATOM      3  O   UNL     1     -16.351   8.253 -17.884  1.00  0.00    -0.462 OA
ATOM      4  C   UNL     1     -16.591   8.872 -19.016  1.00  0.00     0.166 A 
ATOM      5  C   UNL     1     -17.157  10.107 -18.774  1.00  0.00     0.054 A 
ENDROOT
BRANCH   4   6
ATOM      6  C   UNL     1     -16.293   8.318 -20.339  1.00  0.00     0.298 C 
ATOM      7  O   UNL     1     -16.468   9.017 -21.372  1.00  0.00    -0.294 OA
ENDBRANCH   4   6
TORSDOF 1
ENDMDL
MODEL 8
REMARK VINA RESULT:    -2.405     18.868     20.735
REMARK INTER + INTRA:          -2.557
REMARK INTER:                  -2.544
REMARK INTRA:                  -0.012
REMARK UNBOUND:                -0.011
REMARK SMILES O=Cc1ccco1
REMARK SMILES IDX 5 1 6 2 7 3 3 4 4 5 2 6 1 7
REMARK H PARENT
REMARK Flexibility Score: inf
ROOT
ATOM      1  C   UNL     1     -16.472   8.311 -21.042  1.00  0.00     0.043 A 
ATOM      2  C   UNL     1     -15.451   9.088 -20.533  1.00  0.00     0.196 A 
ATOM      3  O   UNL     1     -14.861   9.737 -21.510  1.00  0.00    -0.462 OA
ATOM      4  C   UNL     1     -15.452   9.420 -22.638  1.00  0.00     0.166 A 
ATOM      5  C   UNL     1     -16.475   8.524 -22.404  1.00  0.00     0.054 A 
ENDROOT
BRANCH   4   6
ATOM      6  C   UNL     1     -15.070   9.950 -23.948  1.00  0.00     0.298 C 
ATOM      7  O   UNL     1     -15.214  11.175 -24.203  1.00  0.00    -0.294 OA
ENDBRANCH   4   6
TORSDOF 1
ENDMDL
MODEL 9
REMARK VINA RESULT:    -2.378     14.535     15.427
REMARK INTER + INTRA:          -2.528
REMARK INTER:                  -2.517
REMARK INTRA:                  -0.011
REMARK UNBOUND:                -0.011
REMARK SMILES O=Cc1ccco1
REMARK SMILES IDX 5 1 6 2 7 3 3 4 4 5 2 6 1 7
REMARK H PARENT
REMARK Flexibility Score: inf
ROOT
ATOM      1  C   UNL     1     -27.290  24.530 -25.157  1.00  0.00     0.043 A 
ATOM      2  C   UNL     1     -26.122  23.795 -25.189  1.00  0.00     0.196 A 
ATOM      3  O   UNL     1     -25.355  24.225 -26.165  1.00  0.00    -0.462 OA
ATOM      4  C   UNL     1     -25.971  25.211 -26.774  1.00  0.00     0.166 A 
ATOM      5  C   UNL     1     -27.194  25.448 -26.182  1.00  0.00     0.054 A 
ENDROOT
BRANCH   4   6
ATOM      6  C   UNL     1     -25.423  25.946 -27.916  1.00  0.00     0.298 C 
ATOM      7  O   UNL     1     -26.165  26.254 -28.886  1.00  0.00    -0.294 OA
ENDBRANCH   4   6
TORSDOF 1
ENDMDL
