MODEL 1
REMARK VINA RESULT:    -5.266      0.000      0.000
REMARK INTER + INTRA:          -6.860
REMARK INTER:                  -6.344
REMARK INTRA:                  -0.516
REMARK UNBOUND:                -0.516
REMARK SMILES CCCCc1oc(O)c2ccccc12
REMARK SMILES IDX 4 1 5 2 7 3 6 4 9 5 14 6 10 7 13 8 11 9 12 10 8 11 3 13 2 14
REMARK SMILES IDX 1 15
REMARK H PARENT 8 12
REMARK Flexibility Score: inf
ROOT
ATOM      1  C   UNL     1       6.316 -14.049  -3.855  1.00  0.00     0.076 C 
ENDROOT
BRANCH   1   2
ATOM      2  C   UNL     1       7.655 -14.503  -4.350  1.00  0.00     0.116 A 
ATOM      3  C   UNL     1       9.624 -15.351  -4.335  1.00  0.00     0.290 A 
ATOM      4  O   UNL     1       8.586 -15.044  -3.582  1.00  0.00    -0.430 OA
ATOM      5  C   UNL     1       9.370 -15.007  -5.643  1.00  0.00     0.066 A 
ATOM      6  C   UNL     1       8.112 -14.467  -5.656  1.00  0.00     0.027 A 
ATOM      7  C   UNL     1      10.133 -15.132  -6.801  1.00  0.00     0.016 A 
ATOM      8  C   UNL     1       7.521 -14.014  -6.835  1.00  0.00     0.012 A 
ATOM      9  C   UNL     1       9.566 -14.681  -8.008  1.00  0.00     0.001 A 
ATOM     10  C   UNL     1       8.266 -14.126  -8.026  1.00  0.00     0.001 A 
BRANCH   3  11
ATOM     11  O   UNL     1      10.791 -15.939  -3.862  1.00  0.00    -0.480 OA
ATOM     12  H   UNL     1      11.401 -16.447  -4.491  1.00  0.00     0.297 HD
ENDBRANCH   3  11
ENDBRANCH   1   2
BRANCH   1  13
ATOM     13  C   UNL     1       5.336 -15.227  -3.807  1.00  0.00     0.008 C 
BRANCH  13  14
ATOM     14  C   UNL     1       4.349 -15.220  -4.985  1.00  0.00    -0.003 C 
ATOM     15  C   UNL     1       4.088 -13.814  -5.525  1.00  0.00     0.004 C 
ENDBRANCH  13  14
ENDBRANCH   1  13
TORSDOF 4
ENDMDL
MODEL 2
REMARK VINA RESULT:    -5.176      2.029      4.705
REMARK INTER + INTRA:          -6.751
REMARK INTER:                  -6.236
REMARK INTRA:                  -0.515
REMARK UNBOUND:                -0.516
REMARK SMILES CCCCc1oc(O)c2ccccc12
REMARK SMILES IDX 4 1 5 2 7 3 6 4 9 5 14 6 10 7 13 8 11 9 12 10 8 11 3 13 2 14
REMARK SMILES IDX 1 15
REMARK H PARENT 8 12
REMARK Flexibility Score: inf
ROOT
ATOM      1  C   UNL     1       8.791 -16.071  -4.585  1.00  0.00     0.076 C 
ENDROOT
BRANCH   1   2
ATOM      2  C   UNL     1       7.811 -15.329  -5.440  1.00  0.00     0.116 A 
ATOM      3  C   UNL     1       6.909 -14.472  -7.186  1.00  0.00     0.290 A 
ATOM      4  O   UNL     1       7.959 -15.134  -6.740  1.00  0.00    -0.430 OA
ATOM      5  C   UNL     1       6.038 -14.226  -6.151  1.00  0.00     0.066 A 
ATOM      6  C   UNL     1       6.610 -14.773  -5.034  1.00  0.00     0.027 A 
ATOM      7  C   UNL     1       4.805 -13.578  -6.109  1.00  0.00     0.016 A 
ATOM      8  C   UNL     1       5.986 -14.717  -3.788  1.00  0.00     0.012 A 
ATOM      9  C   UNL     1       4.151 -13.502  -4.864  1.00  0.00     0.001 A 
ATOM     10  C   UNL     1       4.738 -14.070  -3.710  1.00  0.00     0.001 A 
BRANCH   3  11
ATOM     11  O   UNL     1       6.725 -14.092  -8.511  1.00  0.00    -0.480 OA
ATOM     12  H   UNL     1       5.808 -14.149  -8.937  1.00  0.00     0.297 HD
ENDBRANCH   3  11
ENDBRANCH   1   2
BRANCH   1  13
ATOM     13  C   UNL     1      10.163 -15.386  -4.626  1.00  0.00     0.008 C 
BRANCH  13  14
ATOM     14  C   UNL     1      10.131 -13.969  -4.033  1.00  0.00    -0.003 C 
ATOM     15  C   UNL     1       9.630 -13.945  -2.590  1.00  0.00     0.004 C 
ENDBRANCH  13  14
ENDBRANCH   1  13
TORSDOF 4
ENDMDL
MODEL 3
REMARK VINA RESULT:    -5.128      1.984      2.829
REMARK INTER + INTRA:          -6.693
REMARK INTER:                  -6.417
REMARK INTRA:                  -0.276
REMARK UNBOUND:                -0.516
REMARK SMILES CCCCc1oc(O)c2ccccc12
REMARK SMILES IDX 4 1 5 2 7 3 6 4 9 5 14 6 10 7 13 8 11 9 12 10 8 11 3 13 2 14
REMARK SMILES IDX 1 15
REMARK H PARENT 8 12
REMARK Flexibility Score: inf
ROOT
ATOM      1  C   UNL     1       5.684 -15.164  -3.686  1.00  0.00     0.076 C 
ENDROOT
BRANCH   1   2
ATOM      2  C   UNL     1       6.534 -15.022  -4.911  1.00  0.00     0.116 A 
ATOM      3  C   UNL     1       7.067 -14.736  -6.968  1.00  0.00     0.290 A 
ATOM      4  O   UNL     1       6.054 -14.851  -6.131  1.00  0.00    -0.430 OA
ATOM      5  C   UNL     1       8.254 -14.827  -6.279  1.00  0.00     0.066 A 
ATOM      6  C   UNL     1       7.917 -15.008  -4.964  1.00  0.00     0.027 A 
ATOM      7  C   UNL     1       9.580 -14.760  -6.700  1.00  0.00     0.016 A 
ATOM      8  C   UNL     1       8.887 -15.131  -3.969  1.00  0.00     0.012 A 
ATOM      9  C   UNL     1      10.583 -14.884  -5.720  1.00  0.00     0.001 A 
ATOM     10  C   UNL     1      10.238 -15.067  -4.361  1.00  0.00     0.001 A 
BRANCH   3  11
ATOM     11  O   UNL     1       6.936 -14.546  -8.338  1.00  0.00    -0.480 OA
ATOM     12  H   UNL     1       6.201 -15.016  -8.853  1.00  0.00     0.297 HD
ENDBRANCH   3  11
ENDBRANCH   1   2
BRANCH   1  13
ATOM     13  C   UNL     1       4.268 -15.611  -4.066  1.00  0.00     0.008 C 
BRANCH  13  14
ATOM     14  C   UNL     1       3.232 -14.489  -3.896  1.00  0.00    -0.003 C 
ATOM     15  C   UNL     1       2.784 -13.893  -5.230  1.00  0.00     0.004 C 
ENDBRANCH  13  14
ENDBRANCH   1  13
TORSDOF 4
ENDMDL
MODEL 4
REMARK VINA RESULT:    -4.996      1.700      4.375
REMARK INTER + INTRA:          -6.534
REMARK INTER:                  -6.027
REMARK INTRA:                  -0.507
REMARK UNBOUND:                -0.516
REMARK SMILES CCCCc1oc(O)c2ccccc12
REMARK SMILES IDX 4 1 5 2 7 3 6 4 9 5 14 6 10 7 13 8 11 9 12 10 8 11 3 13 2 14
REMARK SMILES IDX 1 15
REMARK H PARENT 8 12
REMARK Flexibility Score: inf
ROOT
ATOM      1  C   UNL     1      10.667 -14.808  -6.641  1.00  0.00     0.076 C 
ENDROOT
BRANCH   1   2
ATOM      2  C   UNL     1       9.977 -14.435  -5.365  1.00  0.00     0.116 A 
ATOM      3  C   UNL     1       9.675 -14.062  -3.275  1.00  0.00     0.290 A 
ATOM      4  O   UNL     1      10.547 -14.479  -4.173  1.00  0.00    -0.430 OA
ATOM      5  C   UNL     1       8.493 -13.727  -3.894  1.00  0.00     0.066 A 
ATOM      6  C   UNL     1       8.683 -13.962  -5.229  1.00  0.00     0.027 A 
ATOM      7  C   UNL     1       7.290 -13.237  -3.393  1.00  0.00     0.016 A 
ATOM      8  C   UNL     1       7.679 -13.718  -6.166  1.00  0.00     0.012 A 
ATOM      9  C   UNL     1       6.255 -12.983  -4.313  1.00  0.00     0.001 A 
ATOM     10  C   UNL     1       6.449 -13.221  -5.693  1.00  0.00     0.001 A 
BRANCH   3  11
ATOM     11  O   UNL     1       9.931 -13.977  -1.912  1.00  0.00    -0.480 OA
ATOM     12  H   UNL     1       9.221 -13.632  -1.277  1.00  0.00     0.297 HD
ENDBRANCH   3  11
ENDBRANCH   1   2
BRANCH   1  13
ATOM     13  C   UNL     1      11.171 -13.553  -7.364  1.00  0.00     0.008 C 
BRANCH  13  14
ATOM     14  C   UNL     1      10.532 -13.376  -8.750  1.00  0.00    -0.003 C 
ATOM     15  C   UNL     1       9.745 -14.607  -9.198  1.00  0.00     0.004 C 
ENDBRANCH  13  14
ENDBRANCH   1  13
TORSDOF 4
ENDMDL
MODEL 5
REMARK VINA RESULT:    -4.921     10.384     12.123
REMARK INTER + INTRA:          -6.444
REMARK INTER:                  -6.205
REMARK INTRA:                  -0.239
REMARK UNBOUND:                -0.516
REMARK SMILES CCCCc1oc(O)c2ccccc12
REMARK SMILES IDX 4 1 5 2 7 3 6 4 9 5 14 6 10 7 13 8 11 9 12 10 8 11 3 13 2 14
REMARK SMILES IDX 1 15
REMARK H PARENT 8 12
REMARK Flexibility Score: inf
ROOT
ATOM      1  C   UNL     1       2.461 -22.671   2.065  1.00  0.00     0.076 C 
ENDROOT
BRANCH   1   2
ATOM      2  C   UNL     1       2.203 -23.607   0.925  1.00  0.00     0.116 A 
ATOM      3  C   UNL     1       1.638 -25.386  -0.129  1.00  0.00     0.290 A 
ATOM      4  O   UNL     1       1.790 -24.855   1.069  1.00  0.00    -0.430 OA
ATOM      5  C   UNL     1       1.955 -24.460  -1.094  1.00  0.00     0.066 A 
ATOM      6  C   UNL     1       2.315 -23.321  -0.425  1.00  0.00     0.027 A 
ATOM      7  C   UNL     1       1.949 -24.529  -2.485  1.00  0.00     0.016 A 
ATOM      8  C   UNL     1       2.693 -22.161  -1.101  1.00  0.00     0.012 A 
ATOM      9  C   UNL     1       2.328 -23.375  -3.197  1.00  0.00     0.001 A 
ATOM     10  C   UNL     1       2.698 -22.197  -2.509  1.00  0.00     0.001 A 
BRANCH   3  11
ATOM     11  O   UNL     1       1.214 -26.690  -0.362  1.00  0.00    -0.480 OA
ATOM     12  H   UNL     1       0.261 -26.963  -0.156  1.00  0.00     0.297 HD
ENDBRANCH   3  11
ENDBRANCH   1   2
BRANCH   1  13
ATOM     13  C   UNL     1       1.220 -21.815   2.346  1.00  0.00     0.008 C 
BRANCH  13  14
ATOM     14  C   UNL     1       1.237 -21.200   3.754  1.00  0.00    -0.003 C 
ATOM     15  C   UNL     1       1.177 -19.673   3.730  1.00  0.00     0.004 C 
ENDBRANCH  13  14
ENDBRANCH   1  13
TORSDOF 4
ENDMDL
MODEL 6
REMARK VINA RESULT:    -4.831     10.713     12.276
REMARK INTER + INTRA:          -6.336
REMARK INTER:                  -6.164
REMARK INTRA:                  -0.171
REMARK UNBOUND:                -0.516
REMARK SMILES CCCCc1oc(O)c2ccccc12
REMARK SMILES IDX 4 1 5 2 7 3 6 4 9 5 14 6 10 7 13 8 11 9 12 10 8 11 3 13 2 14
REMARK SMILES IDX 1 15
REMARK H PARENT 8 12
REMARK Flexibility Score: inf
ROOT
ATOM      1  C   UNL     1       1.410 -22.248   2.271  1.00  0.00     0.076 C 
ENDROOT
BRANCH   1   2
ATOM      2  C   UNL     1       1.584 -22.583   0.821  1.00  0.00     0.116 A 
ATOM      3  C   UNL     1       1.812 -22.312  -1.293  1.00  0.00     0.290 A 
ATOM      4  O   UNL     1       1.622 -21.685  -0.148  1.00  0.00    -0.430 OA
ATOM      5  C   UNL     1       1.908 -23.666  -1.073  1.00  0.00     0.066 A 
ATOM      6  C   UNL     1       1.765 -23.843   0.277  1.00  0.00     0.027 A 
ATOM      7  C   UNL     1       2.112 -24.736  -1.941  1.00  0.00     0.016 A 
ATOM      8  C   UNL     1       1.819 -25.108   0.861  1.00  0.00     0.012 A 
ATOM      9  C   UNL     1       2.170 -26.027  -1.383  1.00  0.00     0.001 A 
ATOM     10  C   UNL     1       2.025 -26.213   0.012  1.00  0.00     0.001 A 
BRANCH   3  11
ATOM     11  O   UNL     1       1.904 -21.682  -2.528  1.00  0.00    -0.480 OA
ATOM     12  H   UNL     1       2.107 -22.218  -3.364  1.00  0.00     0.297 HD
ENDBRANCH   3  11
ENDBRANCH   1   2
BRANCH   1  13
ATOM     13  C   UNL     1       0.971 -20.787   2.433  1.00  0.00     0.008 C 
BRANCH  13  14
ATOM     14  C   UNL     1       1.172 -20.268   3.865  1.00  0.00    -0.003 C 
ATOM     15  C   UNL     1       0.885 -18.773   3.996  1.00  0.00     0.004 C 
ENDBRANCH  13  14
ENDBRANCH   1  13
TORSDOF 4
ENDMDL
MODEL 7
REMARK VINA RESULT:    -4.830      9.538     11.332
REMARK INTER + INTRA:          -6.333
REMARK INTER:                  -5.937
REMARK INTRA:                  -0.396
REMARK UNBOUND:                -0.516
REMARK SMILES CCCCc1oc(O)c2ccccc12
REMARK SMILES IDX 4 1 5 2 7 3 6 4 9 5 14 6 10 7 13 8 11 9 12 10 8 11 3 13 2 14
REMARK SMILES IDX 1 15
REMARK H PARENT 8 12
REMARK Flexibility Score: inf
ROOT
ATOM      1  C   UNL     1       1.844 -24.176   0.638  1.00  0.00     0.076 C 
ENDROOT
BRANCH   1   2
ATOM      2  C   UNL     1       2.574 -23.365  -0.389  1.00  0.00     0.116 A 
ATOM      3  C   UNL     1       4.126 -22.204  -1.304  1.00  0.00     0.290 A 
ATOM      4  O   UNL     1       3.764 -22.823  -0.197  1.00  0.00    -0.430 OA
ATOM      5  C   UNL     1       3.147 -22.346  -2.260  1.00  0.00     0.066 A 
ATOM      6  C   UNL     1       2.155 -23.089  -1.679  1.00  0.00     0.027 A 
ATOM      7  C   UNL     1       3.058 -21.892  -3.573  1.00  0.00     0.016 A 
ATOM      8  C   UNL     1       0.997 -23.437  -2.375  1.00  0.00     0.012 A 
ATOM      9  C   UNL     1       1.900 -22.224  -4.302  1.00  0.00     0.001 A 
ATOM     10  C   UNL     1       0.875 -22.994  -3.706  1.00  0.00     0.001 A 
BRANCH   3  11
ATOM     11  O   UNL     1       5.325 -21.519  -1.465  1.00  0.00    -0.480 OA
ATOM     12  H   UNL     1       5.689 -21.335  -2.392  1.00  0.00     0.297 HD
ENDBRANCH   3  11
ENDBRANCH   1   2
BRANCH   1  13
ATOM     13  C   UNL     1       2.387 -25.610   0.672  1.00  0.00     0.008 C 
BRANCH  13  14
ATOM     14  C   UNL     1       1.497 -26.595  -0.102  1.00  0.00    -0.003 C 
ATOM     15  C   UNL     1       2.292 -27.739  -0.729  1.00  0.00     0.004 C 
ENDBRANCH  13  14
ENDBRANCH   1  13
TORSDOF 4
ENDMDL
MODEL 8
REMARK VINA RESULT:    -4.765      9.221     10.789
REMARK INTER + INTRA:          -6.255
REMARK INTER:                  -5.998
REMARK INTRA:                  -0.258
REMARK UNBOUND:                -0.516
REMARK SMILES CCCCc1oc(O)c2ccccc12
REMARK SMILES IDX 4 1 5 2 7 3 6 4 9 5 14 6 10 7 13 8 11 9 12 10 8 11 3 13 2 14
REMARK SMILES IDX 1 15
REMARK H PARENT 8 12
REMARK Flexibility Score: inf
ROOT
ATOM      1  C   UNL     1       2.088 -23.381   1.371  1.00  0.00     0.076 C 
ENDROOT
BRANCH   1   2
ATOM      2  C   UNL     1       2.819 -22.938   0.140  1.00  0.00     0.116 A 
ATOM      3  C   UNL     1       4.417 -22.254  -1.114  1.00  0.00     0.290 A 
ATOM      4  O   UNL     1       4.082 -22.549   0.127  1.00  0.00    -0.430 OA
ATOM      5  C   UNL     1       3.343 -22.460  -1.948  1.00  0.00     0.066 A 
ATOM      6  C   UNL     1       2.321 -22.899  -1.151  1.00  0.00     0.027 A 
ATOM      7  C   UNL     1       3.193 -22.302  -3.324  1.00  0.00     0.016 A 
ATOM      8  C   UNL     1       1.068 -23.217  -1.674  1.00  0.00     0.012 A 
ATOM      9  C   UNL     1       1.939 -22.614  -3.883  1.00  0.00     0.001 A 
ATOM     10  C   UNL     1       0.882 -23.070  -3.062  1.00  0.00     0.001 A 
BRANCH   3  11
ATOM     11  O   UNL     1       5.675 -21.808  -1.503  1.00  0.00    -0.480 OA
ATOM     12  H   UNL     1       6.113 -21.030  -1.025  1.00  0.00     0.297 HD
ENDBRANCH   3  11
ENDBRANCH   1   2
BRANCH   1  13
ATOM     13  C   UNL     1       1.215 -22.243   1.913  1.00  0.00     0.008 C 
BRANCH  13  14
ATOM     14  C   UNL     1       1.700 -21.728   3.277  1.00  0.00    -0.003 C 
ATOM     15  C   UNL     1       1.278 -20.284   3.545  1.00  0.00     0.004 C 
ENDBRANCH  13  14
ENDBRANCH   1  13
TORSDOF 4
ENDMDL
MODEL 9
REMARK VINA RESULT:    -4.745      2.518      3.907
REMARK INTER + INTRA:          -6.232
REMARK INTER:                  -5.712
REMARK INTRA:                  -0.520
REMARK UNBOUND:                -0.516
REMARK SMILES CCCCc1oc(O)c2ccccc12
REMARK SMILES IDX 4 1 5 2 7 3 6 4 9 5 14 6 10 7 13 8 11 9 12 10 8 11 3 13 2 14
REMARK SMILES IDX 1 15
REMARK H PARENT 8 12
REMARK Flexibility Score: inf
ROOT
ATOM      1  C   UNL     1       8.065 -15.274  -4.628  1.00  0.00     0.076 C 
ENDROOT
BRANCH   1   2
ATOM      2  C   UNL     1       8.114 -14.947  -6.089  1.00  0.00     0.116 A 
ATOM      3  C   UNL     1       7.442 -14.562  -8.088  1.00  0.00     0.290 A 
ATOM      4  O   UNL     1       7.052 -14.905  -6.875  1.00  0.00    -0.430 OA
ATOM      5  C   UNL     1       8.804 -14.367  -8.102  1.00  0.00     0.066 A 
ATOM      6  C   UNL     1       9.236 -14.609  -6.826  1.00  0.00     0.027 A 
ATOM      7  C   UNL     1       9.678 -13.994  -9.120  1.00  0.00     0.016 A 
ATOM      8  C   UNL     1      10.580 -14.493  -6.472  1.00  0.00     0.012 A 
ATOM      9  C   UNL     1      11.042 -13.870  -8.796  1.00  0.00     0.001 A 
ATOM     10  C   UNL     1      11.491 -14.117  -7.478  1.00  0.00     0.001 A 
BRANCH   3  11
ATOM     11  O   UNL     1       6.590 -14.421  -9.176  1.00  0.00    -0.480 OA
ATOM     12  H   UNL     1       6.044 -13.576  -9.293  1.00  0.00     0.297 HD
ENDBRANCH   3  11
ENDBRANCH   1   2
BRANCH   1  13
ATOM     13  C   UNL     1       7.988 -13.990  -3.794  1.00  0.00     0.008 C 
BRANCH  13  14
ATOM     14  C   UNL     1       9.270 -13.736  -2.984  1.00  0.00    -0.003 C 
ATOM     15  C   UNL     1      10.130 -14.991  -2.835  1.00  0.00     0.004 C 
ENDBRANCH  13  14
ENDBRANCH   1  13
TORSDOF 4
ENDMDL
