MODEL 1
REMARK VINA RESULT:    -6.993      0.000      0.000
REMARK INTER + INTRA:          -6.993
REMARK INTER:                  -6.993
REMARK INTRA:                   0.000
REMARK UNBOUND:                 0.000
REMARK SMILES O=c1ccc2ccccc2o1
REMARK SMILES IDX 7 1 8 2 9 3 10 4 5 5 6 6 4 7 3 8 2 9 1 10 11 11
REMARK H PARENT
REMARK Flexibility Score: inf
ROOT
ATOM      1  C   UNL     1      11.756 -13.769  27.316  1.00  0.00     0.001 A 
ATOM      2  C   UNL     1      13.029 -13.594  27.870  1.00  0.00     0.004 A 
ATOM      3  C   UNL     1      13.258 -12.569  28.795  1.00  0.00     0.048 A 
ATOM      4  C   UNL     1      12.215 -11.716  29.169  1.00  0.00     0.138 A 
ATOM      5  C   UNL     1      10.929 -11.893  28.609  1.00  0.00     0.018 A 
ATOM      6  C   UNL     1      10.706 -12.921  27.683  1.00  0.00     0.012 A 
ATOM      7  C   UNL     1       9.906 -11.024  29.003  1.00  0.00     0.019 A 
ATOM      8  C   UNL     1      10.181 -10.018  29.927  1.00  0.00     0.094 A 
ATOM      9  C   UNL     1      11.478  -9.903  30.440  1.00  0.00     0.336 A 
ATOM     10  O   UNL     1      11.745  -9.000  31.276  1.00  0.00    -0.246 OA
ATOM     11  O   UNL     1      12.434 -10.742  30.048  1.00  0.00    -0.423 OA
ENDROOT
TORSDOF 0
ENDMDL
MODEL 2
REMARK VINA RESULT:    -6.938      1.672      2.469
REMARK INTER + INTRA:          -6.938
REMARK INTER:                  -6.938
REMARK INTRA:                   0.000
REMARK UNBOUND:                 0.000
REMARK SMILES O=c1ccc2ccccc2o1
REMARK SMILES IDX 7 1 8 2 9 3 10 4 5 5 6 6 4 7 3 8 2 9 1 10 11 11
REMARK H PARENT
REMARK Flexibility Score: inf
ROOT
ATOM      1  C   UNL     1      13.846 -14.018  28.386  1.00  0.00     0.001 A 
ATOM      2  C   UNL     1      13.959 -13.180  29.501  1.00  0.00     0.004 A 
ATOM      3  C   UNL     1      12.908 -12.325  29.848  1.00  0.00     0.048 A 
ATOM      4  C   UNL     1      11.738 -12.304  29.080  1.00  0.00     0.138 A 
ATOM      5  C   UNL     1      11.624 -13.151  27.954  1.00  0.00     0.018 A 
ATOM      6  C   UNL     1      12.681 -14.005  27.612  1.00  0.00     0.012 A 
ATOM      7  C   UNL     1      10.444 -13.108  27.206  1.00  0.00     0.019 A 
ATOM      8  C   UNL     1       9.422 -12.240  27.588  1.00  0.00     0.094 A 
ATOM      9  C   UNL     1       9.605 -11.431  28.716  1.00  0.00     0.336 A 
ATOM     10  O   UNL     1       8.695 -10.641  29.076  1.00  0.00    -0.246 OA
ATOM     11  O   UNL     1      10.739 -11.490  29.410  1.00  0.00    -0.423 OA
ENDROOT
TORSDOF 0
ENDMDL
MODEL 3
REMARK VINA RESULT:    -6.869      1.072      2.277
REMARK INTER + INTRA:          -6.869
REMARK INTER:                  -6.869
REMARK INTRA:                   0.000
REMARK UNBOUND:                 0.000
REMARK SMILES O=c1ccc2ccccc2o1
REMARK SMILES IDX 7 1 8 2 9 3 10 4 5 5 6 6 4 7 3 8 2 9 1 10 11 11
REMARK H PARENT
REMARK Flexibility Score: inf
ROOT
ATOM      1  C   UNL     1      10.945 -13.439  27.246  1.00  0.00     0.001 A 
ATOM      2  C   UNL     1       9.869 -12.552  27.366  1.00  0.00     0.004 A 
ATOM      3  C   UNL     1       9.901 -11.533  28.324  1.00  0.00     0.048 A 
ATOM      4  C   UNL     1      11.010 -11.397  29.167  1.00  0.00     0.138 A 
ATOM      5  C   UNL     1      12.097 -12.292  29.044  1.00  0.00     0.018 A 
ATOM      6  C   UNL     1      12.058 -13.311  28.083  1.00  0.00     0.012 A 
ATOM      7  C   UNL     1      13.191 -12.132  29.900  1.00  0.00     0.019 A 
ATOM      8  C   UNL     1      13.179 -11.102  30.840  1.00  0.00     0.094 A 
ATOM      9  C   UNL     1      12.068 -10.253  30.903  1.00  0.00     0.336 A 
ATOM     10  O   UNL     1      12.040  -9.317  31.745  1.00  0.00    -0.246 OA
ATOM     11  O   UNL     1      11.039 -10.428  30.077  1.00  0.00    -0.423 OA
ENDROOT
TORSDOF 0
ENDMDL
MODEL 4
REMARK VINA RESULT:    -6.867      1.623      2.365
REMARK INTER + INTRA:          -6.867
REMARK INTER:                  -6.867
REMARK INTRA:                   0.000
REMARK UNBOUND:                 0.000
REMARK SMILES O=c1ccc2ccccc2o1
REMARK SMILES IDX 7 1 8 2 9 3 10 4 5 5 6 6 4 7 3 8 2 9 1 10 11 11
REMARK H PARENT
REMARK Flexibility Score: inf
ROOT
ATOM      1  C   UNL     1      13.730 -13.286  28.311  1.00  0.00     0.001 A 
ATOM      2  C   UNL     1      12.676 -13.885  27.612  1.00  0.00     0.004 A 
ATOM      3  C   UNL     1      11.379 -13.375  27.724  1.00  0.00     0.048 A 
ATOM      4  C   UNL     1      11.129 -12.263  28.535  1.00  0.00     0.138 A 
ATOM      5  C   UNL     1      12.194 -11.657  29.240  1.00  0.00     0.018 A 
ATOM      6  C   UNL     1      13.492 -12.173  29.124  1.00  0.00     0.012 A 
ATOM      7  C   UNL     1      11.915 -10.547  30.043  1.00  0.00     0.019 A 
ATOM      8  C   UNL     1      10.606 -10.073  30.123  1.00  0.00     0.094 A 
ATOM      9  C   UNL     1       9.602 -10.723  29.396  1.00  0.00     0.336 A 
ATOM     10  O   UNL     1       8.415 -10.310  29.456  1.00  0.00    -0.246 OA
ATOM     11  O   UNL     1       9.895 -11.779  28.640  1.00  0.00    -0.423 OA
ENDROOT
TORSDOF 0
ENDMDL
MODEL 5
REMARK VINA RESULT:    -6.582      1.516      3.796
REMARK INTER + INTRA:          -6.582
REMARK INTER:                  -6.582
REMARK INTRA:                   0.000
REMARK UNBOUND:                 0.000
REMARK SMILES O=c1ccc2ccccc2o1
REMARK SMILES IDX 7 1 8 2 9 3 10 4 5 5 6 6 4 7 3 8 2 9 1 10 11 11
REMARK H PARENT
REMARK Flexibility Score: inf
ROOT
ATOM      1  C   UNL     1       9.726 -10.060  29.808  1.00  0.00     0.001 A 
ATOM      2  C   UNL     1      10.982  -9.724  30.327  1.00  0.00     0.004 A 
ATOM      3  C   UNL     1      12.110 -10.473  29.976  1.00  0.00     0.048 A 
ATOM      4  C   UNL     1      11.987 -11.560  29.104  1.00  0.00     0.138 A 
ATOM      5  C   UNL     1      10.719 -11.898  28.580  1.00  0.00     0.018 A 
ATOM      6  C   UNL     1       9.592 -11.144  28.935  1.00  0.00     0.012 A 
ATOM      7  C   UNL     1      10.627 -12.990  27.711  1.00  0.00     0.019 A 
ATOM      8  C   UNL     1      11.779 -13.707  27.389  1.00  0.00     0.094 A 
ATOM      9  C   UNL     1      13.001 -13.314  27.947  1.00  0.00     0.336 A 
ATOM     10  O   UNL     1      14.051 -13.949  27.668  1.00  0.00    -0.246 OA
ATOM     11  O   UNL     1      13.061 -12.271  28.771  1.00  0.00    -0.423 OA
ENDROOT
TORSDOF 0
ENDMDL
MODEL 6
REMARK VINA RESULT:    -6.506      2.386      4.207
REMARK INTER + INTRA:          -6.506
REMARK INTER:                  -6.506
REMARK INTRA:                   0.000
REMARK UNBOUND:                 0.000
REMARK SMILES O=c1ccc2ccccc2o1
REMARK SMILES IDX 7 1 8 2 9 3 10 4 5 5 6 6 4 7 3 8 2 9 1 10 11 11
REMARK H PARENT
REMARK Flexibility Score: inf
ROOT
ATOM      1  C   UNL     1      10.136 -10.633  28.841  1.00  0.00     0.001 A 
ATOM      2  C   UNL     1       9.563 -11.579  27.984  1.00  0.00     0.004 A 
ATOM      3  C   UNL     1      10.247 -12.763  27.686  1.00  0.00     0.048 A 
ATOM      4  C   UNL     1      11.506 -13.006  28.246  1.00  0.00     0.138 A 
ATOM      5  C   UNL     1      12.083 -12.050  29.113  1.00  0.00     0.018 A 
ATOM      6  C   UNL     1      11.394 -10.865  29.407  1.00  0.00     0.012 A 
ATOM      7  C   UNL     1      13.343 -12.320  29.657  1.00  0.00     0.019 A 
ATOM      8  C   UNL     1      13.986 -13.513  29.333  1.00  0.00     0.094 A 
ATOM      9  C   UNL     1      13.353 -14.413  28.468  1.00  0.00     0.336 A 
ATOM     10  O   UNL     1      13.919 -15.496  28.164  1.00  0.00    -0.246 OA
ATOM     11  O   UNL     1      12.155 -14.132  27.963  1.00  0.00    -0.423 OA
ENDROOT
TORSDOF 0
ENDMDL
MODEL 7
REMARK VINA RESULT:    -6.253      1.943      4.094
REMARK INTER + INTRA:          -6.253
REMARK INTER:                  -6.253
REMARK INTRA:                   0.000
REMARK UNBOUND:                 0.000
REMARK SMILES O=c1ccc2ccccc2o1
REMARK SMILES IDX 7 1 8 2 9 3 10 4 5 5 6 6 4 7 3 8 2 9 1 10 11 11
REMARK H PARENT
REMARK Flexibility Score: inf
ROOT
ATOM      1  C   UNL     1      12.909 -10.341  31.394  1.00  0.00     0.001 A 
ATOM      2  C   UNL     1      11.782  -9.553  31.131  1.00  0.00     0.004 A 
ATOM      3  C   UNL     1      10.884  -9.923  30.125  1.00  0.00     0.048 A 
ATOM      4  C   UNL     1      11.109 -11.083  29.376  1.00  0.00     0.138 A 
ATOM      5  C   UNL     1      12.247 -11.879  29.642  1.00  0.00     0.018 A 
ATOM      6  C   UNL     1      13.143 -11.503  30.652  1.00  0.00     0.012 A 
ATOM      7  C   UNL     1      12.445 -13.033  28.877  1.00  0.00     0.019 A 
ATOM      8  C   UNL     1      11.524 -13.363  27.884  1.00  0.00     0.094 A 
ATOM      9  C   UNL     1      10.420 -12.527  27.678  1.00  0.00     0.336 A 
ATOM     10  O   UNL     1       9.577 -12.808  26.786  1.00  0.00    -0.246 OA
ATOM     11  O   UNL     1      10.255 -11.434  28.419  1.00  0.00    -0.423 OA
ENDROOT
TORSDOF 0
ENDMDL
MODEL 8
REMARK VINA RESULT:    -6.235     10.623     11.696
REMARK INTER + INTRA:          -6.235
REMARK INTER:                  -6.235
REMARK INTRA:                   0.000
REMARK UNBOUND:                 0.000
REMARK SMILES O=c1ccc2ccccc2o1
REMARK SMILES IDX 7 1 8 2 9 3 10 4 5 5 6 6 4 7 3 8 2 9 1 10 11 11
REMARK H PARENT
REMARK Flexibility Score: inf
ROOT
ATOM      1  C   UNL     1      17.767  -3.425  27.257  1.00  0.00     0.001 A 
ATOM      2  C   UNL     1      18.501  -2.495  26.511  1.00  0.00     0.004 A 
ATOM      3  C   UNL     1      17.919  -1.281  26.132  1.00  0.00     0.048 A 
ATOM      4  C   UNL     1      16.600  -0.990  26.498  1.00  0.00     0.138 A 
ATOM      5  C   UNL     1      15.860  -1.929  27.252  1.00  0.00     0.018 A 
ATOM      6  C   UNL     1      16.448  -3.144  27.628  1.00  0.00     0.012 A 
ATOM      7  C   UNL     1      14.544  -1.611  27.603  1.00  0.00     0.019 A 
ATOM      8  C   UNL     1      14.005  -0.389  27.204  1.00  0.00     0.094 A 
ATOM      9  C   UNL     1      14.799   0.492  26.459  1.00  0.00     0.336 A 
ATOM     10  O   UNL     1      14.330   1.600  26.090  1.00  0.00    -0.246 OA
ATOM     11  O   UNL     1      16.048   0.164  26.137  1.00  0.00    -0.423 OA
ENDROOT
TORSDOF 0
ENDMDL
MODEL 9
REMARK VINA RESULT:    -5.955     10.561     11.901
REMARK INTER + INTRA:          -5.955
REMARK INTER:                  -5.955
REMARK INTRA:                   0.000
REMARK UNBOUND:                 0.000
REMARK SMILES O=c1ccc2ccccc2o1
REMARK SMILES IDX 7 1 8 2 9 3 10 4 5 5 6 6 4 7 3 8 2 9 1 10 11 11
REMARK H PARENT
REMARK Flexibility Score: inf
ROOT
ATOM      1  C   UNL     1      14.148  -0.073  25.804  1.00  0.00     0.001 A 
ATOM      2  C   UNL     1      13.731  -0.968  26.797  1.00  0.00     0.004 A 
ATOM      3  C   UNL     1      14.645  -1.858  27.370  1.00  0.00     0.048 A 
ATOM      4  C   UNL     1      15.981  -1.858  26.953  1.00  0.00     0.138 A 
ATOM      5  C   UNL     1      16.401  -0.954  25.951  1.00  0.00     0.018 A 
ATOM      6  C   UNL     1      15.481  -0.064  25.380  1.00  0.00     0.012 A 
ATOM      7  C   UNL     1      17.742  -0.977  25.554  1.00  0.00     0.019 A 
ATOM      8  C   UNL     1      18.618  -1.882  26.153  1.00  0.00     0.094 A 
ATOM      9  C   UNL     1      18.130  -2.746  27.140  1.00  0.00     0.336 A 
ATOM     10  O   UNL     1      18.905  -3.570  27.692  1.00  0.00    -0.246 OA
ATOM     11  O   UNL     1      16.849  -2.705  27.498  1.00  0.00    -0.423 OA
ENDROOT
TORSDOF 0
ENDMDL
