MODEL 1
REMARK VINA RESULT:    -1.501      0.000      0.000
REMARK INTER + INTRA:          -1.788
REMARK INTER:                  -1.764
REMARK INTRA:                  -0.024
REMARK UNBOUND:                -0.024
REMARK SMILES CCCCC(=O)[O-]
REMARK SMILES IDX 4 1 5 2 6 3 7 4 3 5 2 6 1 7
REMARK H PARENT
REMARK Flexibility Score: inf
ROOT
ATOM      1  C   UNL     1      31.110  -9.903  16.241  1.00  0.00     0.053 C 
ENDROOT
BRANCH   1   2
ATOM      2  C   UNL     1      30.581 -10.313  17.581  1.00  0.00     0.041 C 
ATOM      3  O   UNL     1      29.621 -11.125  17.663  1.00  0.00    -0.550 OA
ATOM      4  O   UNL     1      31.125  -9.773  18.740  1.00  0.00    -0.550 OA
ENDBRANCH   1   2
BRANCH   1   5
ATOM      5  C   UNL     1      30.867 -10.982  15.178  1.00  0.00     0.006 C 
BRANCH   5   6
ATOM      6  C   UNL     1      30.875 -10.407  13.755  1.00  0.00    -0.003 C 
ATOM      7  C   UNL     1      29.649 -10.862  12.969  1.00  0.00     0.004 C 
ENDBRANCH   5   6
ENDBRANCH   1   5
TORSDOF 3
ENDMDL
MODEL 2
REMARK VINA RESULT:    -1.281      3.105      4.332
REMARK INTER + INTRA:          -1.530
REMARK INTER:                  -1.481
REMARK INTRA:                  -0.049
REMARK UNBOUND:                -0.024
REMARK SMILES CCCCC(=O)[O-]
REMARK SMILES IDX 4 1 5 2 6 3 7 4 3 5 2 6 1 7
REMARK H PARENT
REMARK Flexibility Score: inf
ROOT
ATOM      1  C   UNL     1      30.516  -9.765  14.088  1.00  0.00     0.053 C 
ENDROOT
BRANCH   1   2
ATOM      2  C   UNL     1      30.017 -10.423  12.839  1.00  0.00     0.041 C 
ATOM      3  O   UNL     1      28.971 -11.125  12.866  1.00  0.00    -0.550 OA
ATOM      4  O   UNL     1      30.725 -10.291  11.651  1.00  0.00    -0.550 OA
ENDBRANCH   1   2
BRANCH   1   5
ATOM      5  C   UNL     1      31.125 -10.780  15.064  1.00  0.00     0.006 C 
BRANCH   5   6
ATOM      6  C   UNL     1      30.216 -11.039  16.274  1.00  0.00    -0.003 C 
ATOM      7  C   UNL     1      30.728 -10.310  17.513  1.00  0.00     0.004 C 
ENDBRANCH   5   6
ENDBRANCH   1   5
TORSDOF 3
ENDMDL
MODEL 3
REMARK VINA RESULT:    -1.279      1.248      1.824
REMARK INTER + INTRA:          -1.527
REMARK INTER:                  -1.435
REMARK INTRA:                  -0.092
REMARK UNBOUND:                -0.024
REMARK SMILES CCCCC(=O)[O-]
REMARK SMILES IDX 4 1 5 2 6 3 7 4 3 5 2 6 1 7
REMARK H PARENT
REMARK Flexibility Score: inf
ROOT
ATOM      1  C   UNL     1      30.573 -11.125  14.873  1.00  0.00     0.053 C 
ENDROOT
BRANCH   1   2
ATOM      2  C   UNL     1      30.338 -10.383  16.152  1.00  0.00     0.041 C 
ATOM      3  O   UNL     1      30.325  -9.124  16.162  1.00  0.00    -0.550 OA
ATOM      4  O   UNL     1      30.168 -11.081  17.341  1.00  0.00    -0.550 OA
ENDBRANCH   1   2
BRANCH   1   5
ATOM      5  C   UNL     1      31.123 -10.206  13.773  1.00  0.00     0.006 C 
BRANCH   5   6
ATOM      6  C   UNL     1      30.353 -10.355  12.454  1.00  0.00    -0.003 C 
ATOM      7  C   UNL     1      28.901  -9.912  12.611  1.00  0.00     0.004 C 
ENDBRANCH   5   6
ENDBRANCH   1   5
TORSDOF 3
ENDMDL
MODEL 4
REMARK VINA RESULT:    -1.250      1.583      2.433
REMARK INTER + INTRA:          -1.493
REMARK INTER:                  -1.455
REMARK INTRA:                  -0.038
REMARK UNBOUND:                -0.024
REMARK SMILES CCCCC(=O)[O-]
REMARK SMILES IDX 4 1 5 2 6 3 7 4 3 5 2 6 1 7
REMARK H PARENT
REMARK Flexibility Score: inf
ROOT
ATOM      1  C   UNL     1      29.376  -9.966  17.964  1.00  0.00     0.053 C 
ENDROOT
BRANCH   1   2
ATOM      2  C   UNL     1      29.725  -9.940  19.421  1.00  0.00     0.041 C 
ATOM      3  O   UNL     1      30.815  -9.437  19.802  1.00  0.00    -0.550 OA
ATOM      4  O   UNL     1      28.863 -10.501  20.354  1.00  0.00    -0.550 OA
ENDBRANCH   1   2
BRANCH   1   5
ATOM      5  C   UNL     1      30.073 -11.120  17.231  1.00  0.00     0.006 C 
BRANCH   5   6
ATOM      6  C   UNL     1      30.955 -10.625  16.076  1.00  0.00    -0.003 C 
ATOM      7  C   UNL     1      30.432 -11.125  14.732  1.00  0.00     0.004 C 
ENDBRANCH   5   6
ENDBRANCH   1   5
TORSDOF 3
ENDMDL
MODEL 5
REMARK VINA RESULT:    -1.221      6.308      8.050
REMARK INTER + INTRA:          -1.459
REMARK INTER:                  -1.382
REMARK INTRA:                  -0.077
REMARK UNBOUND:                -0.024
REMARK SMILES CCCCC(=O)[O-]
REMARK SMILES IDX 4 1 5 2 6 3 7 4 3 5 2 6 1 7
REMARK H PARENT
REMARK Flexibility Score: inf
ROOT
ATOM      1  C   UNL     1      30.007 -11.031  22.913  1.00  0.00     0.053 C 
ENDROOT
BRANCH   1   2
ATOM      2  C   UNL     1      29.082 -10.344  21.956  1.00  0.00     0.041 C 
ATOM      3  O   UNL     1      29.091 -10.652  20.734  1.00  0.00    -0.550 OA
ATOM      4  O   UNL     1      28.232  -9.341  22.405  1.00  0.00    -0.550 OA
ENDBRANCH   1   2
BRANCH   1   5
ATOM      5  C   UNL     1      31.123 -10.096  23.397  1.00  0.00     0.006 C 
BRANCH   5   6
ATOM      6  C   UNL     1      31.123  -9.934  24.924  1.00  0.00    -0.003 C 
ATOM      7  C   UNL     1      30.336 -11.055  25.596  1.00  0.00     0.004 C 
ENDBRANCH   5   6
ENDBRANCH   1   5
TORSDOF 3
ENDMDL
MODEL 6
REMARK VINA RESULT:    -1.202      2.536      3.582
REMARK INTER + INTRA:          -1.437
REMARK INTER:                  -1.415
REMARK INTRA:                  -0.022
REMARK UNBOUND:                -0.024
REMARK SMILES CCCCC(=O)[O-]
REMARK SMILES IDX 4 1 5 2 6 3 7 4 3 5 2 6 1 7
REMARK H PARENT
REMARK Flexibility Score: inf
ROOT
ATOM      1  C   UNL     1      29.090  -9.878  19.557  1.00  0.00     0.053 C 
ENDROOT
BRANCH   1   2
ATOM      2  C   UNL     1      29.670 -10.102  20.919  1.00  0.00     0.041 C 
ATOM      3  O   UNL     1      29.077 -10.843  21.747  1.00  0.00    -0.550 OA
ATOM      4  O   UNL     1      30.849  -9.466  21.287  1.00  0.00    -0.550 OA
ENDBRANCH   1   2
BRANCH   1   5
ATOM      5  C   UNL     1      30.152 -10.001  18.456  1.00  0.00     0.006 C 
BRANCH   5   6
ATOM      6  C   UNL     1      29.828 -11.123  17.460  1.00  0.00    -0.003 C 
ATOM      7  C   UNL     1      30.670 -10.995  16.194  1.00  0.00     0.004 C 
ENDBRANCH   5   6
ENDBRANCH   1   5
TORSDOF 3
ENDMDL
MODEL 7
REMARK VINA RESULT:    -1.182      2.384      3.764
REMARK INTER + INTRA:          -1.414
REMARK INTER:                  -1.318
REMARK INTRA:                  -0.096
REMARK UNBOUND:                -0.024
REMARK SMILES CCCCC(=O)[O-]
REMARK SMILES IDX 4 1 5 2 6 3 7 4 3 5 2 6 1 7
REMARK H PARENT
REMARK Flexibility Score: inf
ROOT
ATOM      1  C   UNL     1      29.381  -9.981  16.118  1.00  0.00     0.053 C 
ENDROOT
BRANCH   1   2
ATOM      2  C   UNL     1      29.809 -10.703  14.877  1.00  0.00     0.041 C 
ATOM      3  O   UNL     1      28.971 -10.958  13.972  1.00  0.00    -0.550 OA
ATOM      4  O   UNL     1      31.125 -11.124  14.735  1.00  0.00    -0.550 OA
ENDBRANCH   1   2
BRANCH   1   5
ATOM      5  C   UNL     1      29.777 -10.746  17.388  1.00  0.00     0.006 C 
BRANCH   5   6
ATOM      6  C   UNL     1      30.772  -9.959  18.253  1.00  0.00    -0.003 C 
ATOM      7  C   UNL     1      30.976  -8.548  17.711  1.00  0.00     0.004 C 
ENDBRANCH   5   6
ENDBRANCH   1   5
TORSDOF 3
ENDMDL
MODEL 8
REMARK VINA RESULT:    -1.163      4.754      7.157
REMARK INTER + INTRA:          -1.390
REMARK INTER:                  -1.355
REMARK INTRA:                  -0.035
REMARK UNBOUND:                -0.024
REMARK SMILES CCCCC(=O)[O-]
REMARK SMILES IDX 4 1 5 2 6 3 7 4 3 5 2 6 1 7
REMARK H PARENT
REMARK Flexibility Score: inf
ROOT
ATOM      1  C   UNL     1      31.002  -9.038  21.512  1.00  0.00     0.053 C 
ENDROOT
BRANCH   1   2
ATOM      2  C   UNL     1      30.401  -9.645  20.282  1.00  0.00     0.041 C 
ATOM      3  O   UNL     1      29.253 -10.161  20.325  1.00  0.00    -0.550 OA
ATOM      4  O   UNL     1      31.122  -9.672  19.095  1.00  0.00    -0.550 OA
ENDBRANCH   1   2
BRANCH   1   5
ATOM      5  C   UNL     1      31.103 -10.053  22.659  1.00  0.00     0.006 C 
BRANCH   5   6
ATOM      6  C   UNL     1      30.588  -9.481  23.987  1.00  0.00    -0.003 C 
ATOM      7  C   UNL     1      31.123 -10.278  25.173  1.00  0.00     0.004 C 
ENDBRANCH   5   6
ENDBRANCH   1   5
TORSDOF 3
ENDMDL
MODEL 9
REMARK VINA RESULT:    -1.131      3.149      5.214
REMARK INTER + INTRA:          -1.353
REMARK INTER:                  -1.270
REMARK INTRA:                  -0.083
REMARK UNBOUND:                -0.024
REMARK SMILES CCCCC(=O)[O-]
REMARK SMILES IDX 4 1 5 2 6 3 7 4 3 5 2 6 1 7
REMARK H PARENT
REMARK Flexibility Score: inf
ROOT
ATOM      1  C   UNL     1      30.041  -9.215  19.310  1.00  0.00     0.053 C 
ENDROOT
BRANCH   1   2
ATOM      2  C   UNL     1      29.980 -10.269  18.247  1.00  0.00     0.041 C 
ATOM      3  O   UNL     1      29.033 -11.099  18.232  1.00  0.00    -0.550 OA
ATOM      4  O   UNL     1      30.986 -10.356  17.293  1.00  0.00    -0.550 OA
ENDBRANCH   1   2
BRANCH   1   5
ATOM      5  C   UNL     1      30.975  -9.617  20.459  1.00  0.00     0.006 C 
BRANCH   5   6
ATOM      6  C   UNL     1      30.285  -9.525  21.827  1.00  0.00    -0.003 C 
ATOM      7  C   UNL     1      28.963 -10.286  21.829  1.00  0.00     0.004 C 
ENDBRANCH   5   6
ENDBRANCH   1   5
TORSDOF 3
ENDMDL
