MODEL 1
REMARK VINA RESULT:    -3.034      0.000      0.000
REMARK INTER + INTRA:          -3.971
REMARK INTER:                  -3.744
REMARK INTRA:                  -0.227
REMARK UNBOUND:                -0.227
REMARK SMILES CCCCCC(=O)[O-]
REMARK SMILES IDX 4 1 5 2 6 3 7 4 8 5 3 6 2 7 1 8
REMARK H PARENT
REMARK Flexibility Score: inf
ROOT
ATOM      1  C   UNL     1      50.076  46.418  55.266  1.00  0.00     0.006 C 
ENDROOT
BRANCH   1   2
ATOM      2  C   UNL     1      49.220  45.199  55.635  1.00  0.00     0.053 C 
BRANCH   2   3
ATOM      3  C   UNL     1      48.563  45.406  56.963  1.00  0.00     0.041 C 
ATOM      4  O   UNL     1      47.384  45.008  57.157  1.00  0.00    -0.550 OA
ATOM      5  O   UNL     1      49.235  46.083  57.973  1.00  0.00    -0.550 OA
ENDBRANCH   2   3
ENDBRANCH   1   2
BRANCH   1   6
ATOM      6  C   UNL     1      51.498  46.036  54.815  1.00  0.00     0.000 C 
BRANCH   6   7
ATOM      7  C   UNL     1      52.227  45.048  55.743  1.00  0.00    -0.003 C 
ATOM      8  C   UNL     1      52.661  45.679  57.066  1.00  0.00     0.004 C 
ENDBRANCH   6   7
ENDBRANCH   1   6
TORSDOF 4
ENDMDL
MODEL 2
REMARK VINA RESULT:    -3.005      2.621      3.774
REMARK INTER + INTRA:          -3.935
REMARK INTER:                  -3.809
REMARK INTRA:                  -0.126
REMARK UNBOUND:                -0.227
REMARK SMILES CCCCCC(=O)[O-]
REMARK SMILES IDX 4 1 5 2 6 3 7 4 8 5 3 6 2 7 1 8
REMARK H PARENT
REMARK Flexibility Score: inf
ROOT
ATOM      1  C   UNL     1      49.542  46.417  55.881  1.00  0.00     0.006 C 
ENDROOT
BRANCH   1   2
ATOM      2  C   UNL     1      50.170  45.467  54.853  1.00  0.00     0.053 C 
BRANCH   2   3
ATOM      3  C   UNL     1      51.659  45.619  54.844  1.00  0.00     0.041 C 
ATOM      4  O   UNL     1      52.321  45.320  53.816  1.00  0.00    -0.550 OA
ATOM      5  O   UNL     1      52.321  46.044  55.989  1.00  0.00    -0.550 OA
ENDBRANCH   2   3
ENDBRANCH   1   2
BRANCH   1   6
ATOM      6  C   UNL     1      48.972  45.679  57.106  1.00  0.00     0.000 C 
BRANCH   6   7
ATOM      7  C   UNL     1      49.588  46.095  58.455  1.00  0.00    -0.003 C 
ATOM      8  C   UNL     1      48.836  47.243  59.127  1.00  0.00     0.004 C 
ENDBRANCH   6   7
ENDBRANCH   1   6
TORSDOF 4
ENDMDL
MODEL 3
REMARK VINA RESULT:    -2.979      1.473      2.024
REMARK INTER + INTRA:          -3.903
REMARK INTER:                  -3.680
REMARK INTRA:                  -0.223
REMARK UNBOUND:                -0.227
REMARK SMILES CCCCCC(=O)[O-]
REMARK SMILES IDX 4 1 5 2 6 3 7 4 8 5 3 6 2 7 1 8
REMARK H PARENT
REMARK Flexibility Score: inf
ROOT
ATOM      1  C   UNL     1      49.253  45.212  56.125  1.00  0.00     0.006 C 
ENDROOT
BRANCH   1   2
ATOM      2  C   UNL     1      48.502  45.628  57.397  1.00  0.00     0.053 C 
BRANCH   2   3
ATOM      3  C   UNL     1      49.470  45.973  58.484  1.00  0.00     0.041 C 
ATOM      4  O   UNL     1      50.422  45.195  58.756  1.00  0.00    -0.550 OA
ATOM      5  O   UNL     1      49.293  47.130  59.232  1.00  0.00    -0.550 OA
ENDBRANCH   2   3
ENDBRANCH   1   2
BRANCH   1   6
ATOM      6  C   UNL     1      49.844  46.411  55.361  1.00  0.00     0.000 C 
BRANCH   6   7
ATOM      7  C   UNL     1      51.241  46.170  54.760  1.00  0.00    -0.003 C 
ATOM      8  C   UNL     1      52.272  45.736  55.802  1.00  0.00     0.004 C 
ENDBRANCH   6   7
ENDBRANCH   1   6
TORSDOF 4
ENDMDL
MODEL 4
REMARK VINA RESULT:    -2.925     11.555     12.440
REMARK INTER + INTRA:          -3.836
REMARK INTER:                  -3.654
REMARK INTRA:                  -0.181
REMARK UNBOUND:                -0.227
REMARK SMILES CCCCCC(=O)[O-]
REMARK SMILES IDX 4 1 5 2 6 3 7 4 8 5 3 6 2 7 1 8
REMARK H PARENT
REMARK Flexibility Score: inf
ROOT
ATOM      1  C   UNL     1      51.364  45.840  43.228  1.00  0.00     0.006 C 
ENDROOT
BRANCH   1   2
ATOM      2  C   UNL     1      50.329  46.948  42.991  1.00  0.00     0.053 C 
BRANCH   2   3
ATOM      3  C   UNL     1      48.943  46.413  43.165  1.00  0.00     0.041 C 
ATOM      4  O   UNL     1      47.946  47.154  42.955  1.00  0.00    -0.550 OA
ATOM      5  O   UNL     1      48.751  45.111  43.608  1.00  0.00    -0.550 OA
ENDBRANCH   2   3
ENDBRANCH   1   2
BRANCH   1   6
ATOM      6  C   UNL     1      52.206  46.069  44.497  1.00  0.00     0.000 C 
BRANCH   6   7
ATOM      7  C   UNL     1      51.422  45.976  45.818  1.00  0.00    -0.003 C 
ATOM      8  C   UNL     1      51.379  47.300  46.582  1.00  0.00     0.004 C 
ENDBRANCH   6   7
ENDBRANCH   1   6
TORSDOF 4
ENDMDL
MODEL 5
REMARK VINA RESULT:    -2.863     12.158     13.125
REMARK INTER + INTRA:          -3.760
REMARK INTER:                  -3.589
REMARK INTRA:                  -0.171
REMARK UNBOUND:                -0.227
REMARK SMILES CCCCCC(=O)[O-]
REMARK SMILES IDX 4 1 5 2 6 3 7 4 8 5 3 6 2 7 1 8
REMARK H PARENT
REMARK Flexibility Score: inf
ROOT
ATOM      1  C   UNL     1      52.718  45.888  44.237  1.00  0.00     0.006 C 
ENDROOT
BRANCH   1   2
ATOM      2  C   UNL     1      52.460  45.693  42.737  1.00  0.00     0.053 C 
BRANCH   2   3
ATOM      3  C   UNL     1      51.885  46.939  42.141  1.00  0.00     0.041 C 
ATOM      4  O   UNL     1      52.622  47.736  41.503  1.00  0.00    -0.550 OA
ATOM      5  O   UNL     1      50.543  47.245  42.331  1.00  0.00    -0.550 OA
ENDBRANCH   2   3
ENDBRANCH   1   2
BRANCH   1   6
ATOM      6  C   UNL     1      51.623  45.260  45.118  1.00  0.00     0.000 C 
BRANCH   6   7
ATOM      7  C   UNL     1      50.658  46.268  45.768  1.00  0.00    -0.003 C 
ATOM      8  C   UNL     1      51.373  47.310  46.628  1.00  0.00     0.004 C 
ENDBRANCH   6   7
ENDBRANCH   1   6
TORSDOF 4
ENDMDL
MODEL 6
REMARK VINA RESULT:    -2.855     11.969     12.822
REMARK INTER + INTRA:          -3.750
REMARK INTER:                  -3.590
REMARK INTRA:                  -0.160
REMARK UNBOUND:                -0.227
REMARK SMILES CCCCCC(=O)[O-]
REMARK SMILES IDX 4 1 5 2 6 3 7 4 8 5 3 6 2 7 1 8
REMARK H PARENT
REMARK Flexibility Score: inf
ROOT
ATOM      1  C   UNL     1      51.761  46.476  43.125  1.00  0.00     0.006 C 
ENDROOT
BRANCH   1   2
ATOM      2  C   UNL     1      50.351  45.952  42.824  1.00  0.00     0.053 C 
BRANCH   2   3
ATOM      3  C   UNL     1      49.392  47.090  42.676  1.00  0.00     0.041 C 
ATOM      4  O   UNL     1      48.374  47.162  43.414  1.00  0.00    -0.550 OA
ATOM      5  O   UNL     1      49.595  48.048  41.691  1.00  0.00    -0.550 OA
ENDBRANCH   2   3
ENDBRANCH   1   2
BRANCH   1   6
ATOM      6  C   UNL     1      52.330  45.937  44.450  1.00  0.00     0.000 C 
BRANCH   6   7
ATOM      7  C   UNL     1      51.319  45.875  45.609  1.00  0.00    -0.003 C 
ATOM      8  C   UNL     1      51.353  47.117  46.499  1.00  0.00     0.004 C 
ENDBRANCH   6   7
ENDBRANCH   1   6
TORSDOF 4
ENDMDL
MODEL 7
REMARK VINA RESULT:    -2.718     11.751     12.562
REMARK INTER + INTRA:          -3.581
REMARK INTER:                  -3.353
REMARK INTRA:                  -0.227
REMARK UNBOUND:                -0.227
REMARK SMILES CCCCCC(=O)[O-]
REMARK SMILES IDX 4 1 5 2 6 3 7 4 8 5 3 6 2 7 1 8
REMARK H PARENT
REMARK Flexibility Score: inf
ROOT
ATOM      1  C   UNL     1      50.210  46.761  45.433  1.00  0.00     0.006 C 
ENDROOT
BRANCH   1   2
ATOM      2  C   UNL     1      49.510  45.968  44.321  1.00  0.00     0.053 C 
BRANCH   2   3
ATOM      3  C   UNL     1      49.159  46.869  43.180  1.00  0.00     0.041 C 
ATOM      4  O   UNL     1      47.955  47.147  42.938  1.00  0.00    -0.550 OA
ATOM      5  O   UNL     1      50.158  47.363  42.351  1.00  0.00    -0.550 OA
ENDBRANCH   2   3
ENDBRANCH   1   2
BRANCH   1   6
ATOM      6  C   UNL     1      51.712  46.441  45.541  1.00  0.00     0.000 C 
BRANCH   6   7
ATOM      7  C   UNL     1      52.200  45.308  44.619  1.00  0.00    -0.003 C 
ATOM      8  C   UNL     1      53.278  45.761  43.635  1.00  0.00     0.004 C 
ENDBRANCH   6   7
ENDBRANCH   1   6
TORSDOF 4
ENDMDL
MODEL 8
REMARK VINA RESULT:    -2.707     16.044     16.689
REMARK INTER + INTRA:          -3.568
REMARK INTER:                  -3.468
REMARK INTRA:                  -0.099
REMARK UNBOUND:                -0.227
REMARK SMILES CCCCCC(=O)[O-]
REMARK SMILES IDX 4 1 5 2 6 3 7 4 8 5 3 6 2 7 1 8
REMARK H PARENT
REMARK Flexibility Score: inf
ROOT
ATOM      1  C   UNL     1      42.532  48.099  41.459  1.00  0.00     0.006 C 
ENDROOT
BRANCH   1   2
ATOM      2  C   UNL     1      43.923  48.594  41.042  1.00  0.00     0.053 C 
BRANCH   2   3
ATOM      3  C   UNL     1      44.238  49.892  41.716  1.00  0.00     0.041 C 
ATOM      4  O   UNL     1      44.715  50.851  41.054  1.00  0.00    -0.550 OA
ATOM      5  O   UNL     1      44.050  50.028  43.086  1.00  0.00    -0.550 OA
ENDBRANCH   2   3
ENDBRANCH   1   2
BRANCH   1   6
ATOM      6  C   UNL     1      42.266  46.641  41.041  1.00  0.00     0.000 C 
BRANCH   6   7
ATOM      7  C   UNL     1      43.111  45.591  41.785  1.00  0.00    -0.003 C 
ATOM      8  C   UNL     1      44.110  44.875  40.877  1.00  0.00     0.004 C 
ENDBRANCH   6   7
ENDBRANCH   1   6
TORSDOF 4
ENDMDL
MODEL 9
REMARK VINA RESULT:    -2.656     11.448     12.412
REMARK INTER + INTRA:          -3.504
REMARK INTER:                  -3.348
REMARK INTRA:                  -0.157
REMARK UNBOUND:                -0.227
REMARK SMILES CCCCCC(=O)[O-]
REMARK SMILES IDX 4 1 5 2 6 3 7 4 8 5 3 6 2 7 1 8
REMARK H PARENT
REMARK Flexibility Score: inf
ROOT
ATOM      1  C   UNL     1      52.176  45.489  44.216  1.00  0.00     0.006 C 
ENDROOT
BRANCH   1   2
ATOM      2  C   UNL     1      51.974  46.448  45.397  1.00  0.00     0.053 C 
BRANCH   2   3
ATOM      3  C   UNL     1      50.537  46.849  45.503  1.00  0.00     0.041 C 
ATOM      4  O   UNL     1      49.798  46.837  44.483  1.00  0.00    -0.550 OA
ATOM      5  O   UNL     1      50.024  47.285  46.718  1.00  0.00    -0.550 OA
ENDBRANCH   2   3
ENDBRANCH   1   2
BRANCH   1   6
ATOM      6  C   UNL     1      53.544  45.661  43.532  1.00  0.00     0.000 C 
BRANCH   6   7
ATOM      7  C   UNL     1      53.504  46.405  42.185  1.00  0.00    -0.003 C 
ATOM      8  C   UNL     1      52.086  46.765  41.743  1.00  0.00     0.004 C 
ENDBRANCH   6   7
ENDBRANCH   1   6
TORSDOF 4
ENDMDL
