MODEL 1
REMARK VINA RESULT:    -5.391      0.000      0.000
REMARK INTER + INTRA:          -7.221
REMARK INTER:                  -7.598
REMARK INTRA:                   0.377
REMARK UNBOUND:                 0.377
REMARK SMILES CC1=CCC(=C(C)C)C(=O)CC(C)=CCC1
REMARK SMILES IDX 12 1 14 2 13 3 15 4 16 5 2 6 1 7 3 8 11 10 9 11 10 12 5 13
REMARK SMILES IDX 6 14 7 15 8 16 4 17
REMARK H PARENT
REMARK Flexibility Score: 60.00
ROOT
ATOM      1  C   UNL     1     -21.445 -37.852  -5.560  1.00  0.00    -0.070 C 
ATOM      2  C   UNL     1     -21.158 -37.055  -4.503  1.00  0.00    -0.027 C 
ATOM      3  C   UNL     1     -22.816 -38.481  -5.604  1.00  0.00     0.039 C 
ENDROOT
BRANCH   2   4
ATOM      4  C   UNL     1     -19.825 -36.413  -4.203  1.00  0.00     0.032 C 
BRANCH   4   5
ATOM      5  C   UNL     1     -18.843 -37.381  -3.514  1.00  0.00     0.034 C 
BRANCH   5   6
ATOM      6  C   UNL     1     -17.448 -37.294  -4.100  1.00  0.00    -0.077 C 
ATOM      7  C   UNL     1     -16.657 -36.030  -3.878  1.00  0.00     0.039 C 
ATOM      8  C   UNL     1     -16.859 -38.297  -4.791  1.00  0.00    -0.023 CG0
ATOM      9  G   UNL     1     -17.474 -39.644  -5.085  1.00  0.00     0.000 G0
ENDBRANCH   5   6
ENDBRANCH   4   5
ENDBRANCH   2   4
BRANCH   1  10
ATOM     10  C   UNL     1     -20.448 -38.195  -6.655  1.00  0.00     0.111 C 
BRANCH  10  11
ATOM     11  C   UNL     1     -19.725 -39.487  -6.361  1.00  0.00     0.163 C 
ATOM     12  O   UNL     1     -20.416 -40.507  -6.098  1.00  0.00    -0.294 OA
BRANCH  11  13
ATOM     13  C   UNL     1     -18.234 -39.591  -6.426  1.00  0.00    -0.002 C 
ATOM     14  C   UNL     1     -17.572 -39.695  -7.618  1.00  0.00    -0.069 C 
ATOM     15  C   UNL     1     -16.061 -39.761  -7.677  1.00  0.00     0.039 C 
ATOM     16  C   UNL     1     -18.314 -39.784  -8.932  1.00  0.00     0.039 C 
BRANCH  13  17
ATOM     17  C   UNL     1     -17.488 -39.652  -5.104  1.00  0.00     0.066 CG0
ATOM     18  G   UNL     1     -16.857 -38.312  -4.812  1.00  0.00     0.000 G0
ENDBRANCH  13  17
ENDBRANCH  11  13
ENDBRANCH  10  11
ENDBRANCH   1  10
TORSDOF 0
ENDMDL
MODEL 2
REMARK VINA RESULT:    -4.922      1.944      4.975
REMARK INTER + INTRA:          -6.560
REMARK INTER:                  -7.115
REMARK INTRA:                   0.555
REMARK UNBOUND:                 0.377
REMARK SMILES CC1=CCC(=C(C)C)C(=O)CC(C)=CCC1
REMARK SMILES IDX 12 1 14 2 13 3 15 4 16 5 2 6 1 7 3 8 11 10 9 11 10 12 5 13
REMARK SMILES IDX 6 14 7 15 8 16 4 17
REMARK H PARENT
REMARK Flexibility Score: 60.00
ROOT
ATOM      1  C   UNL     1     -17.204 -37.496  -4.028  1.00  0.00    -0.070 C 
ATOM      2  C   UNL     1     -16.425 -38.423  -4.636  1.00  0.00    -0.027 C 
ATOM      3  C   UNL     1     -16.560 -36.183  -3.656  1.00  0.00     0.039 C 
ENDROOT
BRANCH   2   4
ATOM      4  C   UNL     1     -16.829 -39.831  -4.998  1.00  0.00     0.032 C 
BRANCH   4   5
ATOM      5  C   UNL     1     -17.598 -39.903  -6.331  1.00  0.00     0.034 C 
BRANCH   5   6
ATOM      6  C   UNL     1     -19.002 -40.448  -6.154  1.00  0.00    -0.077 C 
ATOM      7  C   UNL     1     -19.164 -41.908  -5.814  1.00  0.00     0.039 C 
ATOM      8  C   UNL     1     -20.119 -39.694  -6.258  1.00  0.00    -0.023 CG0
ATOM      9  G   UNL     1     -20.159 -38.215  -6.556  1.00  0.00     0.000 G0
ENDBRANCH   5   6
ENDBRANCH   4   5
ENDBRANCH   2   4
BRANCH   1  10
ATOM     10  C   UNL     1     -18.657 -37.732  -3.647  1.00  0.00     0.111 C 
BRANCH  10  11
ATOM     11  C   UNL     1     -19.589 -36.860  -4.451  1.00  0.00     0.163 C 
ATOM     12  O   UNL     1     -19.438 -35.611  -4.386  1.00  0.00    -0.294 OA
BRANCH  11  13
ATOM     13  C   UNL     1     -20.638 -37.440  -5.348  1.00  0.00    -0.002 C 
ATOM     14  C   UNL     1     -21.970 -37.335  -5.058  1.00  0.00    -0.069 C 
ATOM     15  C   UNL     1     -23.026 -37.889  -5.990  1.00  0.00     0.039 C 
ATOM     16  C   UNL     1     -22.454 -36.693  -3.777  1.00  0.00     0.039 C 
BRANCH  13  17
ATOM     17  C   UNL     1     -20.156 -38.216  -6.561  1.00  0.00     0.066 CG0
ATOM     18  G   UNL     1     -20.135 -39.692  -6.247  1.00  0.00     0.000 G0
ENDBRANCH  13  17
ENDBRANCH  11  13
ENDBRANCH  10  11
ENDBRANCH   1  10
TORSDOF 0
ENDMDL
MODEL 3
REMARK VINA RESULT:    -4.851      1.554      3.886
REMARK INTER + INTRA:          -6.459
REMARK INTER:                  -6.783
REMARK INTRA:                   0.324
REMARK UNBOUND:                 0.377
REMARK SMILES CC1=CCC(=C(C)C)C(=O)CC(C)=CCC1
REMARK SMILES IDX 12 1 14 2 13 3 15 4 16 5 2 6 1 7 3 8 11 10 9 11 10 12 5 13
REMARK SMILES IDX 6 14 7 15 8 16 4 17
REMARK H PARENT
REMARK Flexibility Score: 60.00
ROOT
ATOM      1  C   UNL     1     -18.618 -40.017  -6.866  1.00  0.00    -0.070 C 
ATOM      2  C   UNL     1     -17.421 -40.135  -6.243  1.00  0.00    -0.027 C 
ATOM      3  C   UNL     1     -19.177 -41.248  -7.536  1.00  0.00     0.039 C 
ENDROOT
BRANCH   2   4
ATOM      4  C   UNL     1     -16.632 -39.018  -5.604  1.00  0.00     0.032 C 
BRANCH   4   5
ATOM      5  C   UNL     1     -17.155 -38.650  -4.202  1.00  0.00     0.034 C 
BRANCH   5   6
ATOM      6  C   UNL     1     -17.499 -37.178  -4.088  1.00  0.00    -0.077 C 
ATOM      7  C   UNL     1     -16.383 -36.171  -4.210  1.00  0.00     0.039 C 
ATOM      8  C   UNL     1     -18.756 -36.712  -3.908  1.00  0.00    -0.023 CG0
ATOM      9  G   UNL     1     -20.002 -37.558  -3.798  1.00  0.00     0.000 G0
ENDBRANCH   5   6
ENDBRANCH   4   5
ENDBRANCH   2   4
BRANCH   1  10
ATOM     10  C   UNL     1     -19.385 -38.710  -6.982  1.00  0.00     0.111 C 
BRANCH  10  11
ATOM     11  C   UNL     1     -20.561 -38.672  -6.038  1.00  0.00     0.163 C 
ATOM     12  O   UNL     1     -21.338 -39.663  -6.016  1.00  0.00    -0.294 OA
BRANCH  11  13
ATOM     13  C   UNL     1     -20.789 -37.524  -5.105  1.00  0.00    -0.002 C 
ATOM     14  C   UNL     1     -21.597 -36.473  -5.442  1.00  0.00    -0.069 C 
ATOM     15  C   UNL     1     -21.854 -35.335  -4.478  1.00  0.00     0.039 C 
ATOM     16  C   UNL     1     -22.246 -36.378  -6.805  1.00  0.00     0.039 C 
BRANCH  13  17
ATOM     17  C   UNL     1     -20.025 -37.538  -3.792  1.00  0.00     0.066 CG0
ATOM     18  G   UNL     1     -18.768 -36.713  -3.925  1.00  0.00     0.000 G0
ENDBRANCH  13  17
ENDBRANCH  11  13
ENDBRANCH  10  11
ENDBRANCH   1  10
TORSDOF 0
ENDMDL
MODEL 4
REMARK VINA RESULT:    -4.741      1.941      3.980
REMARK INTER + INTRA:          -6.305
REMARK INTER:                  -6.890
REMARK INTRA:                   0.585
REMARK UNBOUND:                 0.377
REMARK SMILES CC1=CCC(=C(C)C)C(=O)CC(C)=CCC1
REMARK SMILES IDX 12 1 14 2 13 3 15 4 16 5 2 6 1 7 3 8 11 10 9 11 10 12 5 13
REMARK SMILES IDX 6 14 7 15 8 16 4 17
REMARK H PARENT
REMARK Flexibility Score: 60.00
ROOT
ATOM      1  C   UNL     1     -15.603 -38.985  -5.756  1.00  0.00    -0.070 C 
ATOM      2  C   UNL     1     -15.962 -38.250  -4.676  1.00  0.00    -0.027 C 
ATOM      3  C   UNL     1     -14.156 -39.398  -5.864  1.00  0.00     0.039 C 
ENDROOT
BRANCH   2   4
ATOM      4  C   UNL     1     -17.321 -37.644  -4.419  1.00  0.00     0.032 C 
BRANCH   4   5
ATOM      5  C   UNL     1     -18.396 -38.706  -4.115  1.00  0.00     0.034 C 
BRANCH   5   6
ATOM      6  C   UNL     1     -19.652 -38.501  -4.939  1.00  0.00    -0.077 C 
ATOM      7  C   UNL     1     -20.302 -37.141  -4.926  1.00  0.00     0.039 C 
ATOM      8  C   UNL     1     -20.211 -39.464  -5.707  1.00  0.00    -0.023 CG0
ATOM      9  G   UNL     1     -19.689 -40.870  -5.876  1.00  0.00     0.000 G0
ENDBRANCH   5   6
ENDBRANCH   4   5
ENDBRANCH   2   4
BRANCH   1  10
ATOM     10  C   UNL     1     -16.555 -39.352  -6.882  1.00  0.00     0.111 C 
BRANCH  10  11
ATOM     11  C   UNL     1     -17.242 -40.669  -6.619  1.00  0.00     0.163 C 
ATOM     12  O   UNL     1     -16.594 -41.568  -6.020  1.00  0.00    -0.294 OA
BRANCH  11  13
ATOM     13  C   UNL     1     -18.669 -40.907  -7.002  1.00  0.00    -0.002 C 
ATOM     14  C   UNL     1     -19.044 -41.084  -8.306  1.00  0.00    -0.069 C 
ATOM     15  C   UNL     1     -20.483 -41.363  -8.681  1.00  0.00     0.039 C 
ATOM     16  C   UNL     1     -18.048 -40.975  -9.438  1.00  0.00     0.039 C 
BRANCH  13  17
ATOM     17  C   UNL     1     -19.699 -40.871  -5.886  1.00  0.00     0.066 CG0
ATOM     18  G   UNL     1     -20.217 -39.464  -5.716  1.00  0.00     0.000 G0
ENDBRANCH  13  17
ENDBRANCH  11  13
ENDBRANCH  10  11
ENDBRANCH   1  10
TORSDOF 0
ENDMDL
MODEL 5
REMARK VINA RESULT:    -4.659      1.918      3.831
REMARK INTER + INTRA:          -6.189
REMARK INTER:                  -6.770
REMARK INTRA:                   0.581
REMARK UNBOUND:                 0.377
REMARK SMILES CC1=CCC(=C(C)C)C(=O)CC(C)=CCC1
REMARK SMILES IDX 12 1 14 2 13 3 15 4 16 5 2 6 1 7 3 8 11 10 9 11 10 12 5 13
REMARK SMILES IDX 6 14 7 15 8 16 4 17
REMARK H PARENT
REMARK Flexibility Score: 60.00
ROOT
ATOM      1  C   UNL     1     -18.095 -37.118  -4.024  1.00  0.00    -0.070 C 
ATOM      2  C   UNL     1     -19.272 -36.470  -4.195  1.00  0.00    -0.027 C 
ATOM      3  C   UNL     1     -16.876 -36.277  -3.732  1.00  0.00     0.039 C 
ENDROOT
BRANCH   2   4
ATOM      4  C   UNL     1     -20.586 -37.096  -4.596  1.00  0.00     0.032 C 
BRANCH   4   5
ATOM      5  C   UNL     1     -20.668 -37.384  -6.107  1.00  0.00     0.034 C 
BRANCH   5   6
ATOM      6  C   UNL     1     -20.937 -38.847  -6.398  1.00  0.00    -0.077 C 
ATOM      7  C   UNL     1     -22.290 -39.410  -6.043  1.00  0.00     0.039 C 
ATOM      8  C   UNL     1     -20.040 -39.674  -6.981  1.00  0.00    -0.023 CG0
ATOM      9  G   UNL     1     -18.653 -39.290  -7.436  1.00  0.00     0.000 G0
ENDBRANCH   5   6
ENDBRANCH   4   5
ENDBRANCH   2   4
BRANCH   1  10
ATOM     10  C   UNL     1     -17.927 -38.621  -4.175  1.00  0.00     0.111 C 
BRANCH  10  11
ATOM     11  C   UNL     1     -17.105 -38.967  -5.391  1.00  0.00     0.163 C 
ATOM     12  O   UNL     1     -15.937 -38.502  -5.471  1.00  0.00    -0.294 OA
BRANCH  11  13
ATOM     13  C   UNL     1     -17.620 -39.878  -6.461  1.00  0.00    -0.002 C 
ATOM     14  C   UNL     1     -17.147 -41.153  -6.609  1.00  0.00    -0.069 C 
ATOM     15  C   UNL     1     -17.700 -42.081  -7.669  1.00  0.00     0.039 C 
ATOM     16  C   UNL     1     -16.025 -41.687  -5.747  1.00  0.00     0.039 C 
BRANCH  13  17
ATOM     17  C   UNL     1     -18.642 -39.302  -7.426  1.00  0.00     0.066 CG0
ATOM     18  G   UNL     1     -20.034 -39.676  -6.978  1.00  0.00     0.000 G0
ENDBRANCH  13  17
ENDBRANCH  11  13
ENDBRANCH  10  11
ENDBRANCH   1  10
TORSDOF 0
ENDMDL
MODEL 6
REMARK VINA RESULT:    -4.623      1.808      3.953
REMARK INTER + INTRA:          -6.138
REMARK INTER:                  -6.686
REMARK INTRA:                   0.548
REMARK UNBOUND:                 0.377
REMARK SMILES CC1=CCC(=C(C)C)C(=O)CC(C)=CCC1
REMARK SMILES IDX 12 1 14 2 13 3 15 4 16 5 2 6 1 7 3 8 11 10 9 11 10 12 5 13
REMARK SMILES IDX 6 14 7 15 8 16 4 17
REMARK H PARENT
REMARK Flexibility Score: 60.00
ROOT
ATOM      1  C   UNL     1     -17.992 -37.452  -4.151  1.00  0.00    -0.070 C 
ATOM      2  C   UNL     1     -16.653 -37.605  -4.290  1.00  0.00    -0.027 C 
ATOM      3  C   UNL     1     -18.495 -36.095  -3.722  1.00  0.00     0.039 C 
ENDROOT
BRANCH   2   4
ATOM      4  C   UNL     1     -15.929 -38.892  -4.604  1.00  0.00     0.032 C 
BRANCH   4   5
ATOM      5  C   UNL     1     -15.940 -39.226  -6.108  1.00  0.00     0.034 C 
BRANCH   5   6
ATOM      6  C   UNL     1     -16.633 -40.544  -6.396  1.00  0.00    -0.077 C 
ATOM      7  C   UNL     1     -15.972 -41.816  -5.929  1.00  0.00     0.039 C 
ATOM      8  C   UNL     1     -17.824 -40.644  -7.028  1.00  0.00    -0.023 CG0
ATOM      9  G   UNL     1     -18.652 -39.488  -7.536  1.00  0.00     0.000 G0
ENDBRANCH   5   6
ENDBRANCH   4   5
ENDBRANCH   2   4
BRANCH   1  10
ATOM     10  C   UNL     1     -18.996 -38.578  -4.338  1.00  0.00     0.111 C 
BRANCH  10  11
ATOM     11  C   UNL     1     -19.857 -38.357  -5.557  1.00  0.00     0.163 C 
ATOM     12  O   UNL     1     -20.512 -37.283  -5.634  1.00  0.00    -0.294 OA
BRANCH  11  13
ATOM     13  C   UNL     1     -19.907 -39.345  -6.680  1.00  0.00    -0.002 C 
ATOM     14  C   UNL     1     -21.005 -40.132  -6.896  1.00  0.00    -0.069 C 
ATOM     15  C   UNL     1     -21.064 -41.101  -8.057  1.00  0.00     0.039 C 
ATOM     16  C   UNL     1     -22.198 -40.100  -5.968  1.00  0.00     0.039 C 
BRANCH  13  17
ATOM     17  C   UNL     1     -18.656 -39.490  -7.528  1.00  0.00     0.066 CG0
ATOM     18  G   UNL     1     -17.828 -40.647  -7.023  1.00  0.00     0.000 G0
ENDBRANCH  13  17
ENDBRANCH  11  13
ENDBRANCH  10  11
ENDBRANCH   1  10
TORSDOF 0
ENDMDL
MODEL 7
REMARK VINA RESULT:    -4.499      1.487      3.774
REMARK INTER + INTRA:          -5.964
REMARK INTER:                  -6.570
REMARK INTRA:                   0.607
REMARK UNBOUND:                 0.377
REMARK SMILES CC1=CCC(=C(C)C)C(=O)CC(C)=CCC1
REMARK SMILES IDX 12 1 14 2 13 3 15 4 16 5 2 6 1 7 3 8 11 10 9 11 10 12 5 13
REMARK SMILES IDX 6 14 7 15 8 16 4 17
REMARK H PARENT
REMARK Flexibility Score: 60.00
ROOT
ATOM      1  C   UNL     1     -21.322 -39.588  -6.492  1.00  0.00    -0.070 C 
ATOM      2  C   UNL     1     -20.922 -40.729  -7.103  1.00  0.00    -0.027 C 
ATOM      3  C   UNL     1     -22.656 -39.609  -5.788  1.00  0.00     0.039 C 
ENDROOT
BRANCH   2   4
ATOM      4  C   UNL     1     -19.683 -40.902  -7.949  1.00  0.00     0.032 C 
BRANCH   4   5
ATOM      5  C   UNL     1     -18.451 -41.308  -7.119  1.00  0.00     0.034 C 
BRANCH   5   6
ATOM      6  C   UNL     1     -17.382 -40.232  -7.117  1.00  0.00    -0.077 C 
ATOM      7  C   UNL     1     -16.487 -40.111  -8.324  1.00  0.00     0.039 C 
ATOM      8  C   UNL     1     -17.201 -39.356  -6.103  1.00  0.00    -0.023 CG0
ATOM      9  G   UNL     1     -18.016 -39.296  -4.833  1.00  0.00     0.000 G0
ENDBRANCH   5   6
ENDBRANCH   4   5
ENDBRANCH   2   4
BRANCH   1  10
ATOM     10  C   UNL     1     -20.539 -38.286  -6.536  1.00  0.00     0.111 C 
BRANCH  10  11
ATOM     11  C   UNL     1     -20.118 -37.846  -5.156  1.00  0.00     0.163 C 
ATOM     12  O   UNL     1     -21.009 -37.434  -4.366  1.00  0.00    -0.294 OA
BRANCH  11  13
ATOM     13  C   UNL     1     -18.697 -37.936  -4.695  1.00  0.00    -0.002 C 
ATOM     14  C   UNL     1     -18.015 -36.838  -4.247  1.00  0.00    -0.069 C 
ATOM     15  C   UNL     1     -16.591 -36.945  -3.746  1.00  0.00     0.039 C 
ATOM     16  C   UNL     1     -18.636 -35.460  -4.261  1.00  0.00     0.039 C 
BRANCH  13  17
ATOM     17  C   UNL     1     -18.017 -39.289  -4.816  1.00  0.00     0.066 CG0
ATOM     18  G   UNL     1     -17.234 -39.354  -6.105  1.00  0.00     0.000 G0
ENDBRANCH  13  17
ENDBRANCH  11  13
ENDBRANCH  10  11
ENDBRANCH   1  10
TORSDOF 0
ENDMDL
MODEL 8
REMARK VINA RESULT:    -4.490      1.816      4.168
REMARK INTER + INTRA:          -5.951
REMARK INTER:                  -6.596
REMARK INTRA:                   0.645
REMARK UNBOUND:                 0.377
REMARK SMILES CC1=CCC(=C(C)C)C(=O)CC(C)=CCC1
REMARK SMILES IDX 12 1 14 2 13 3 15 4 16 5 2 6 1 7 3 8 11 10 9 11 10 12 5 13
REMARK SMILES IDX 6 14 7 15 8 16 4 17
REMARK H PARENT
REMARK Flexibility Score: 60.00
ROOT
ATOM      1  C   UNL     1     -17.916 -40.440  -7.928  1.00  0.00    -0.070 C 
ATOM      2  C   UNL     1     -19.165 -40.034  -8.259  1.00  0.00    -0.027 C 
ATOM      3  C   UNL     1     -16.766 -39.862  -8.716  1.00  0.00     0.039 C 
ENDROOT
BRANCH   2   4
ATOM      4  C   UNL     1     -20.457 -40.557  -7.680  1.00  0.00     0.032 C 
BRANCH   4   5
ATOM      5  C   UNL     1     -20.530 -40.391  -6.149  1.00  0.00     0.034 C 
BRANCH   5   6
ATOM      6  C   UNL     1     -20.229 -38.971  -5.712  1.00  0.00    -0.077 C 
ATOM      7  C   UNL     1     -21.129 -37.866  -6.203  1.00  0.00     0.039 C 
ATOM      8  C   UNL     1     -19.212 -38.640  -4.885  1.00  0.00    -0.023 CG0
ATOM      9  G   UNL     1     -18.230 -39.604  -4.265  1.00  0.00     0.000 G0
ENDBRANCH   5   6
ENDBRANCH   4   5
ENDBRANCH   2   4
BRANCH   1  10
ATOM     10  C   UNL     1     -17.621 -41.483  -6.863  1.00  0.00     0.111 C 
BRANCH  10  11
ATOM     11  C   UNL     1     -16.680 -40.949  -5.810  1.00  0.00     0.163 C 
ATOM     12  O   UNL     1     -15.619 -41.589  -5.583  1.00  0.00    -0.294 OA
BRANCH  11  13
ATOM     13  C   UNL     1     -16.953 -39.671  -5.081  1.00  0.00    -0.002 C 
ATOM     14  C   UNL     1     -16.070 -38.626  -5.108  1.00  0.00    -0.069 C 
ATOM     15  C   UNL     1     -16.371 -37.323  -4.399  1.00  0.00     0.039 C 
ATOM     16  C   UNL     1     -14.738 -38.732  -5.815  1.00  0.00     0.039 C 
BRANCH  13  17
ATOM     17  C   UNL     1     -18.220 -39.609  -4.246  1.00  0.00     0.066 CG0
ATOM     18  G   UNL     1     -19.196 -38.644  -4.872  1.00  0.00     0.000 G0
ENDBRANCH  13  17
ENDBRANCH  11  13
ENDBRANCH  10  11
ENDBRANCH   1  10
TORSDOF 0
ENDMDL
MODEL 9
REMARK VINA RESULT:    -4.431      1.289      2.124
REMARK INTER + INTRA:          -5.867
REMARK INTER:                  -6.314
REMARK INTRA:                   0.447
REMARK UNBOUND:                 0.377
REMARK SMILES CC1=CCC(=C(C)C)C(=O)CC(C)=CCC1
REMARK SMILES IDX 12 1 14 2 13 3 15 4 16 5 2 6 1 7 3 8 11 10 9 11 10 12 5 13
REMARK SMILES IDX 6 14 7 15 8 16 4 17
REMARK H PARENT
REMARK Flexibility Score: 60.00
ROOT
ATOM      1  C   UNL     1     -21.470 -39.261  -6.490  1.00  0.00    -0.070 C 
ATOM      2  C   UNL     1     -22.230 -38.332  -5.862  1.00  0.00    -0.027 C 
ATOM      3  C   UNL     1     -22.110 -40.593  -6.793  1.00  0.00     0.039 C 
ENDROOT
BRANCH   2   4
ATOM      4  C   UNL     1     -21.767 -36.981  -5.371  1.00  0.00     0.032 C 
BRANCH   4   5
ATOM      5  C   UNL     1     -20.933 -37.075  -4.079  1.00  0.00     0.034 C 
BRANCH   5   6
ATOM      6  C   UNL     1     -19.599 -36.365  -4.206  1.00  0.00    -0.077 C 
ATOM      7  C   UNL     1     -19.602 -34.871  -4.414  1.00  0.00     0.039 C 
ATOM      8  C   UNL     1     -18.404 -36.990  -4.118  1.00  0.00    -0.023 CG0
ATOM      9  G   UNL     1     -18.197 -38.466  -3.879  1.00  0.00     0.000 G0
ENDBRANCH   5   6
ENDBRANCH   4   5
ENDBRANCH   2   4
BRANCH   1  10
ATOM     10  C   UNL     1     -20.005 -39.058  -6.839  1.00  0.00     0.111 C 
BRANCH  10  11
ATOM     11  C   UNL     1     -19.100 -39.806  -5.892  1.00  0.00     0.163 C 
ATOM     12  O   UNL     1     -19.326 -41.031  -5.698  1.00  0.00    -0.294 OA
BRANCH  11  13
ATOM     13  C   UNL     1     -17.929 -39.149  -5.231  1.00  0.00    -0.002 C 
ATOM     14  C   UNL     1     -16.671 -39.220  -5.761  1.00  0.00    -0.069 C 
ATOM     15  C   UNL     1     -15.499 -38.520  -5.107  1.00  0.00     0.039 C 
ATOM     16  C   UNL     1     -16.379 -40.028  -7.005  1.00  0.00     0.039 C 
BRANCH  13  17
ATOM     17  C   UNL     1     -18.185 -38.459  -3.902  1.00  0.00     0.066 CG0
ATOM     18  G   UNL     1     -18.390 -36.980  -4.126  1.00  0.00     0.000 G0
ENDBRANCH  13  17
ENDBRANCH  11  13
ENDBRANCH  10  11
ENDBRANCH   1  10
TORSDOF 0
ENDMDL
