MODEL 1
REMARK VINA RESULT:    -9.552      0.000      0.000
REMARK INTER + INTRA:         -16.177
REMARK INTER:                 -15.695
REMARK INTRA:                  -0.483
REMARK UNBOUND:                -0.483
REMARK SMILES C[C@@H]1O[C@@H](OC[C@@H]2O[C@@H](Oc3c(-c4ccc(O)c(O)c4)oc4cc(O)cc(O)c4c3=O)[C@H](O)[C@H](O)[C@@H]2O)[C@@H](O)[C@@H](O)[C@@H]1O
REMARK SMILES IDX 7 1 36 2 34 3 32 4 9 5 8 6 6 7 5 8 4 9 1 10 2 11 42 12 3 13
REMARK SMILES IDX 40 14 38 15 43 16 41 18 39 20 37 22 35 24 10 26 11 27 12 28
REMARK SMILES IDX 30 29 21 30 29 31 31 32 22 33 27 34 23 35 26 36 24 37 13 38
REMARK SMILES IDX 20 39 14 40 18 41 15 42 16 43 19 44 17 46 28 48 25 50 33 52
REMARK H PARENT 43 17 41 19 39 21 37 23 35 25 19 45 17 47 28 49 25 51 33 53
REMARK Flexibility Score: inf
ROOT
ATOM      1  C   UNL     1     110.114 111.984 111.597  1.00  0.00     0.180 C 
ATOM      2  C   UNL     1     109.471 110.572 111.503  1.00  0.00     0.177 C 
ATOM      3  C   UNL     1     109.434 110.136 110.016  1.00  0.00     0.180 C 
ATOM      4  C   UNL     1     108.772 111.231 109.141  1.00  0.00     0.214 C 
ATOM      5  C   UNL     1     109.482 112.573 109.394  1.00  0.00     0.339 C 
ATOM      6  O   UNL     1     109.430 112.922 110.776  1.00  0.00    -0.332 OA
ENDROOT
BRANCH   1   7
ATOM      7  C   UNL     1     110.093 112.491 113.051  1.00  0.00     0.198 C 
BRANCH   7   8
ATOM      8  O   UNL     1     110.210 111.393 113.938  1.00  0.00    -0.347 OA
BRANCH   8   9
ATOM      9  C   UNL     1     110.142 111.777 115.310  1.00  0.00     0.281 C 
ATOM     10  C   UNL     1     112.886 112.136 117.718  1.00  0.00     0.041 C 
ATOM     11  C   UNL     1     112.088 111.275 116.730  1.00  0.00     0.150 C 
ATOM     12  C   UNL     1     111.195 110.226 117.472  1.00  0.00     0.174 C 
ATOM     13  O   UNL     1     111.408 112.167 115.851  1.00  0.00    -0.344 OA
ATOM     14  C   UNL     1     109.762 110.744 117.623  1.00  0.00     0.179 C 
ATOM     15  C   UNL     1     109.193 110.892 116.201  1.00  0.00     0.202 C 
BRANCH  12  16
ATOM     16  O   UNL     1     111.741 109.806 118.692  1.00  0.00    -0.388 OA
ATOM     17  H   UNL     1     111.576 108.828 118.785  1.00  0.00     0.211 HD
ENDBRANCH  12  16
BRANCH  14  18
ATOM     18  O   UNL     1     109.022 109.853 118.432  1.00  0.00    -0.387 OA
ATOM     19  H   UNL     1     109.610 109.417 119.104  1.00  0.00     0.211 HD
ENDBRANCH  14  18
BRANCH  15  20
ATOM     20  O   UNL     1     108.925 109.611 115.679  1.00  0.00    -0.385 OA
ATOM     21  H   UNL     1     109.779 109.153 115.444  1.00  0.00     0.211 HD
ENDBRANCH  15  20
ENDBRANCH   8   9
ENDBRANCH   7   8
ENDBRANCH   1   7
BRANCH   2  22
ATOM     22  O   UNL     1     108.192 110.588 112.083  1.00  0.00    -0.387 OA
ATOM     23  H   UNL     1     107.537 110.518 111.343  1.00  0.00     0.211 HD
ENDBRANCH   2  22
BRANCH   3  24
ATOM     24  O   UNL     1     108.780 108.904 109.847  1.00  0.00    -0.387 OA
ATOM     25  H   UNL     1     109.198 108.451 109.074  1.00  0.00     0.211 HD
ENDBRANCH   3  24
BRANCH   5  26
ATOM     26  O   UNL     1     110.840 112.510 108.939  1.00  0.00    -0.454 OA
BRANCH  26  27
ATOM     27  C   UNL     1     111.277 111.673 107.905  1.00  0.00     0.214 A 
ATOM     28  C   UNL     1     112.153 110.610 108.181  1.00  0.00     0.180 A 
ATOM     29  C   UNL     1     110.902 111.923 106.584  1.00  0.00     0.239 A 
ATOM     30  O   UNL     1     112.618 109.859 107.187  1.00  0.00    -0.452 OA
ATOM     31  C   UNL     1     111.447 111.141 105.547  1.00  0.00     0.111 A 
ATOM     32  O   UNL     1     110.107 112.871 106.341  1.00  0.00    -0.285 OA
ATOM     33  C   UNL     1     112.327 110.087 105.912  1.00  0.00     0.146 A 
ATOM     34  C   UNL     1     111.209 111.386 104.177  1.00  0.00     0.134 A 
ATOM     35  C   UNL     1     112.932 109.300 104.927  1.00  0.00     0.094 A 
ATOM     36  C   UNL     1     111.860 110.612 103.204  1.00  0.00     0.093 A 
ATOM     37  C   UNL     1     112.726 109.581 103.575  1.00  0.00     0.123 A 
BRANCH  28  38
ATOM     38  C   UNL     1     112.593 110.364 109.556  1.00  0.00     0.025 A 
ATOM     39  C   UNL     1     113.022 111.448 110.336  1.00  0.00     0.062 A 
ATOM     40  C   UNL     1     112.504 109.088 110.128  1.00  0.00     0.016 A 
ATOM     41  C   UNL     1     113.280 111.278 111.699  1.00  0.00     0.158 A 
ATOM     42  C   UNL     1     112.769 108.914 111.493  1.00  0.00     0.051 A 
ATOM     43  C   UNL     1     113.148 110.006 112.280  1.00  0.00     0.157 A 
BRANCH  41  44
ATOM     44  O   UNL     1     113.657 112.369 112.477  1.00  0.00    -0.504 OA
ATOM     45  H   UNL     1     113.723 112.291 113.490  1.00  0.00     0.293 HD
ENDBRANCH  41  44
BRANCH  43  46
ATOM     46  O   UNL     1     113.363 109.823 113.646  1.00  0.00    -0.504 OA
ATOM     47  H   UNL     1     113.324 110.592 114.309  1.00  0.00     0.293 HD
ENDBRANCH  43  46
ENDBRANCH  28  38
BRANCH  34  48
ATOM     48  O   UNL     1     110.344 112.407 103.768  1.00  0.00    -0.507 OA
ATOM     49  H   UNL     1     110.650 113.103 103.097  1.00  0.00     0.293 HD
ENDBRANCH  34  48
BRANCH  37  50
ATOM     50  O   UNL     1     113.408 108.867 102.590  1.00  0.00    -0.508 OA
ATOM     51  H   UNL     1     113.241 107.877 102.427  1.00  0.00     0.293 HD
ENDBRANCH  37  50
ENDBRANCH  26  27
ENDBRANCH   5  26
BRANCH   4  52
ATOM     52  O   UNL     1     107.389 111.396 109.358  1.00  0.00    -0.384 OA
ATOM     53  H   UNL     1     107.107 112.326 109.146  1.00  0.00     0.211 HD
ENDBRANCH   4  52
TORSDOF 16
ENDMDL
MODEL 2
REMARK VINA RESULT:    -9.526      1.649      4.051
REMARK INTER + INTRA:         -16.134
REMARK INTER:                 -15.676
REMARK INTRA:                  -0.459
REMARK UNBOUND:                -0.483
REMARK SMILES C[C@@H]1O[C@@H](OC[C@@H]2O[C@@H](Oc3c(-c4ccc(O)c(O)c4)oc4cc(O)cc(O)c4c3=O)[C@H](O)[C@H](O)[C@@H]2O)[C@@H](O)[C@@H](O)[C@@H]1O
REMARK SMILES IDX 7 1 36 2 34 3 32 4 9 5 8 6 6 7 5 8 4 9 1 10 2 11 42 12 3 13
REMARK SMILES IDX 40 14 38 15 43 16 41 18 39 20 37 22 35 24 10 26 11 27 12 28
REMARK SMILES IDX 30 29 21 30 29 31 31 32 22 33 27 34 23 35 26 36 24 37 13 38
REMARK SMILES IDX 20 39 14 40 18 41 15 42 16 43 19 44 17 46 28 48 25 50 33 52
REMARK H PARENT 43 17 41 19 39 21 37 23 35 25 19 45 17 47 28 49 25 51 33 53
REMARK Flexibility Score: inf
ROOT
ATOM      1  C   UNL     1     112.160 110.304 111.834  1.00  0.00     0.180 C 
ATOM      2  C   UNL     1     112.766 111.733 111.753  1.00  0.00     0.177 C 
ATOM      3  C   UNL     1     112.799 112.181 110.270  1.00  0.00     0.180 C 
ATOM      4  C   UNL     1     113.493 111.110 109.390  1.00  0.00     0.214 C 
ATOM      5  C   UNL     1     112.817 109.749 109.630  1.00  0.00     0.339 C 
ATOM      6  O   UNL     1     112.871 109.391 111.009  1.00  0.00    -0.332 OA
ENDROOT
BRANCH   1   7
ATOM      7  C   UNL     1     112.187 109.787 113.284  1.00  0.00     0.198 C 
BRANCH   7   8
ATOM      8  O   UNL     1     111.846 110.838 114.169  1.00  0.00    -0.347 OA
BRANCH   8   9
ATOM      9  C   UNL     1     111.958 110.467 115.542  1.00  0.00     0.281 C 
ATOM     10  C   UNL     1     109.306 110.229 118.066  1.00  0.00     0.041 C 
ATOM     11  C   UNL     1     110.091 111.051 117.035  1.00  0.00     0.150 C 
ATOM     12  C   UNL     1     111.048 112.078 117.726  1.00  0.00     0.174 C 
ATOM     13  O   UNL     1     110.703 110.126 116.140  1.00  0.00    -0.344 OA
ATOM     14  C   UNL     1     112.468 111.513 117.825  1.00  0.00     0.179 C 
ATOM     15  C   UNL     1     112.972 111.330 116.382  1.00  0.00     0.202 C 
BRANCH  12  16
ATOM     16  O   UNL     1     110.568 112.530 118.962  1.00  0.00    -0.388 OA
ATOM     17  H   UNL     1     109.689 112.973 118.810  1.00  0.00     0.211 HD
ENDBRANCH  12  16
BRANCH  14  18
ATOM     18  O   UNL     1     113.271 112.388 118.590  1.00  0.00    -0.387 OA
ATOM     19  H   UNL     1     113.332 112.075 119.532  1.00  0.00     0.211 HD
ENDBRANCH  14  18
BRANCH  15  20
ATOM     20  O   UNL     1     113.261 112.595 115.833  1.00  0.00    -0.385 OA
ATOM     21  H   UNL     1     112.567 112.841 115.161  1.00  0.00     0.211 HD
ENDBRANCH  15  20
ENDBRANCH   8   9
ENDBRANCH   7   8
ENDBRANCH   1   7
BRANCH   2  22
ATOM     22  O   UNL     1     114.043 111.745 112.340  1.00  0.00    -0.387 OA
ATOM     23  H   UNL     1     113.912 111.773 113.321  1.00  0.00     0.211 HD
ENDBRANCH   2  22
BRANCH   3  24
ATOM     24  O   UNL     1     113.422 113.430 110.114  1.00  0.00    -0.387 OA
ATOM     25  H   UNL     1     114.297 113.384 110.573  1.00  0.00     0.211 HD
ENDBRANCH   3  24
BRANCH   5  26
ATOM     26  O   UNL     1     111.460 109.780 109.168  1.00  0.00    -0.454 OA
BRANCH  26  27
ATOM     27  C   UNL     1     111.007 110.610 108.136  1.00  0.00     0.214 A 
ATOM     28  C   UNL     1     110.110 111.654 108.412  1.00  0.00     0.180 A 
ATOM     29  C   UNL     1     111.388 110.369 106.815  1.00  0.00     0.239 A 
ATOM     30  O   UNL     1     109.631 112.399 107.419  1.00  0.00    -0.452 OA
ATOM     31  C   UNL     1     110.829 111.142 105.778  1.00  0.00     0.111 A 
ATOM     32  O   UNL     1     112.202 109.438 106.570  1.00  0.00    -0.285 OA
ATOM     33  C   UNL     1     109.928 112.178 106.144  1.00  0.00     0.146 A 
ATOM     34  C   UNL     1     111.072 110.904 104.408  1.00  0.00     0.134 A 
ATOM     35  C   UNL     1     109.308 112.955 105.160  1.00  0.00     0.094 A 
ATOM     36  C   UNL     1     110.407 111.667 103.436  1.00  0.00     0.093 A 
ATOM     37  C   UNL     1     109.521 112.680 103.808  1.00  0.00     0.123 A 
BRANCH  28  38
ATOM     38  C   UNL     1     109.664 111.890 109.787  1.00  0.00     0.025 A 
ATOM     39  C   UNL     1     109.276 110.794 110.572  1.00  0.00     0.062 A 
ATOM     40  C   UNL     1     109.709 113.170 110.355  1.00  0.00     0.016 A 
ATOM     41  C   UNL     1     109.015 110.959 111.935  1.00  0.00     0.158 A 
ATOM     42  C   UNL     1     109.440 113.340 111.720  1.00  0.00     0.051 A 
ATOM     43  C   UNL     1     109.102 112.237 112.512  1.00  0.00     0.157 A 
BRANCH  41  44
ATOM     44  O   UNL     1     108.678 109.859 112.718  1.00  0.00    -0.504 OA
ATOM     45  H   UNL     1     107.707 109.576 112.832  1.00  0.00     0.293 HD
ENDBRANCH  41  44
BRANCH  43  46
ATOM     46  O   UNL     1     108.883 112.417 113.877  1.00  0.00    -0.504 OA
ATOM     47  H   UNL     1     108.510 111.680 114.469  1.00  0.00     0.293 HD
ENDBRANCH  43  46
ENDBRANCH  28  38
BRANCH  34  48
ATOM     48  O   UNL     1     111.958 109.901 103.998  1.00  0.00    -0.507 OA
ATOM     49  H   UNL     1     112.426 109.963 103.101  1.00  0.00     0.293 HD
ENDBRANCH  34  48
BRANCH  37  50
ATOM     50  O   UNL     1     108.826 113.382 102.824  1.00  0.00    -0.508 OA
ATOM     51  H   UNL     1     108.888 114.393 102.735  1.00  0.00     0.293 HD
ENDBRANCH  37  50
ENDBRANCH  26  27
ENDBRANCH   5  26
BRANCH   4  52
ATOM     52  O   UNL     1     114.879 110.979 109.613  1.00  0.00    -0.384 OA
ATOM     53  H   UNL     1     115.112 110.040 109.843  1.00  0.00     0.211 HD
ENDBRANCH   4  52
TORSDOF 16
ENDMDL
MODEL 3
REMARK VINA RESULT:    -9.094      1.756      8.993
REMARK INTER + INTRA:         -15.424
REMARK INTER:                 -14.526
REMARK INTRA:                  -0.898
REMARK UNBOUND:                -0.483
REMARK SMILES C[C@@H]1O[C@@H](OC[C@@H]2O[C@@H](Oc3c(-c4ccc(O)c(O)c4)oc4cc(O)cc(O)c4c3=O)[C@H](O)[C@H](O)[C@@H]2O)[C@@H](O)[C@@H](O)[C@@H]1O
REMARK SMILES IDX 7 1 36 2 34 3 32 4 9 5 8 6 6 7 5 8 4 9 1 10 2 11 42 12 3 13
REMARK SMILES IDX 40 14 38 15 43 16 41 18 39 20 37 22 35 24 10 26 11 27 12 28
REMARK SMILES IDX 30 29 21 30 29 31 31 32 22 33 27 34 23 35 26 36 24 37 13 38
REMARK SMILES IDX 20 39 14 40 18 41 15 42 16 43 19 44 17 46 28 48 25 50 33 52
REMARK H PARENT 43 17 41 19 39 21 37 23 35 25 19 45 17 47 28 49 25 51 33 53
REMARK Flexibility Score: inf
ROOT
ATOM      1  C   UNL     1     109.459 111.092 109.851  1.00  0.00     0.180 C 
ATOM      2  C   UNL     1     110.014 112.543 109.783  1.00  0.00     0.177 C 
ATOM      3  C   UNL     1     110.466 112.973 111.201  1.00  0.00     0.180 C 
ATOM      4  C   UNL     1     109.332 112.740 112.232  1.00  0.00     0.214 C 
ATOM      5  C   UNL     1     108.855 111.280 112.132  1.00  0.00     0.339 C 
ATOM      6  O   UNL     1     108.414 110.980 110.809  1.00  0.00    -0.332 OA
ENDROOT
BRANCH   1   7
ATOM      7  C   UNL     1     108.919 110.655 108.477  1.00  0.00     0.198 C 
BRANCH   7   8
ATOM      8  O   UNL     1     109.671 109.554 108.000  1.00  0.00    -0.347 OA
BRANCH   8   9
ATOM      9  C   UNL     1     110.381 109.845 106.797  1.00  0.00     0.281 C 
ATOM     10  C   UNL     1     111.681 113.072 105.636  1.00  0.00     0.041 C 
ATOM     11  C   UNL     1     110.505 112.197 106.088  1.00  0.00     0.150 C 
ATOM     12  C   UNL     1     109.575 111.818 104.888  1.00  0.00     0.174 C 
ATOM     13  O   UNL     1     111.051 111.108 106.827  1.00  0.00    -0.344 OA
ATOM     14  C   UNL     1     109.931 110.431 104.344  1.00  0.00     0.179 C 
ATOM     15  C   UNL     1     109.640 109.426 105.472  1.00  0.00     0.202 C 
BRANCH  12  16
ATOM     16  O   UNL     1     109.552 112.794 103.882  1.00  0.00    -0.388 OA
ATOM     17  H   UNL     1     110.367 113.357 103.978  1.00  0.00     0.211 HD
ENDBRANCH  12  16
BRANCH  14  18
ATOM     18  O   UNL     1     109.190 110.181 103.168  1.00  0.00    -0.387 OA
ATOM     19  H   UNL     1     108.213 110.206 103.356  1.00  0.00     0.211 HD
ENDBRANCH  14  18
BRANCH  15  20
ATOM     20  O   UNL     1     108.245 109.275 105.603  1.00  0.00    -0.385 OA
ATOM     21  H   UNL     1     107.789 109.596 104.776  1.00  0.00     0.211 HD
ENDBRANCH  15  20
ENDBRANCH   8   9
ENDBRANCH   7   8
ENDBRANCH   1   7
BRANCH   2  22
ATOM     22  O   UNL     1     109.038 113.404 109.253  1.00  0.00    -0.387 OA
ATOM     23  H   UNL     1     108.941 113.176 108.294  1.00  0.00     0.211 HD
ENDBRANCH   2  22
BRANCH   3  24
ATOM     24  O   UNL     1     110.894 114.311 111.231  1.00  0.00    -0.387 OA
ATOM     25  H   UNL     1     111.115 114.530 112.170  1.00  0.00     0.211 HD
ENDBRANCH   3  24
BRANCH   5  26
ATOM     26  O   UNL     1     109.903 110.386 112.529  1.00  0.00    -0.454 OA
BRANCH  26  27
ATOM     27  C   UNL     1     110.734 110.603 113.636  1.00  0.00     0.214 A 
ATOM     28  C   UNL     1     112.101 110.863 113.453  1.00  0.00     0.180 A 
ATOM     29  C   UNL     1     110.227 110.498 114.933  1.00  0.00     0.239 A 
ATOM     30  O   UNL     1     112.898 111.002 114.509  1.00  0.00    -0.452 OA
ATOM     31  C   UNL     1     111.102 110.603 116.031  1.00  0.00     0.111 A 
ATOM     32  O   UNL     1     108.997 110.276 115.095  1.00  0.00    -0.285 OA
ATOM     33  C   UNL     1     112.472 110.865 115.758  1.00  0.00     0.146 A 
ATOM     34  C   UNL     1     110.701 110.406 117.371  1.00  0.00     0.134 A 
ATOM     35  C   UNL     1     113.398 110.940 116.803  1.00  0.00     0.094 A 
ATOM     36  C   UNL     1     111.655 110.444 118.400  1.00  0.00     0.093 A 
ATOM     37  C   UNL     1     112.998 110.699 118.118  1.00  0.00     0.123 A 
BRANCH  28  38
ATOM     38  C   UNL     1     112.657 110.929 112.099  1.00  0.00     0.025 A 
ATOM     39  C   UNL     1     112.480 109.835 111.239  1.00  0.00     0.062 A 
ATOM     40  C   UNL     1     113.275 112.094 111.625  1.00  0.00     0.016 A 
ATOM     41  C   UNL     1     112.840 109.932 109.892  1.00  0.00     0.158 A 
ATOM     42  C   UNL     1     113.643 112.191 110.276  1.00  0.00     0.051 A 
ATOM     43  C   UNL     1     113.420 111.117 109.408  1.00  0.00     0.157 A 
BRANCH  41  44
ATOM     44  O   UNL     1     112.617 108.861 109.032  1.00  0.00    -0.504 OA
ATOM     45  H   UNL     1     111.694 108.439 108.952  1.00  0.00     0.293 HD
ENDBRANCH  41  44
BRANCH  43  46
ATOM     46  O   UNL     1     113.751 111.247 108.060  1.00  0.00    -0.504 OA
ATOM     47  H   UNL     1     113.147 111.726 107.397  1.00  0.00     0.293 HD
ENDBRANCH  43  46
ENDBRANCH  28  38
BRANCH  34  48
ATOM     48  O   UNL     1     109.362 110.154 117.692  1.00  0.00    -0.507 OA
ATOM     49  H   UNL     1     108.620 110.705 117.274  1.00  0.00     0.293 HD
ENDBRANCH  34  48
BRANCH  37  50
ATOM     50  O   UNL     1     113.935 110.669 119.150  1.00  0.00    -0.508 OA
ATOM     51  H   UNL     1     114.814 111.178 119.097  1.00  0.00     0.293 HD
ENDBRANCH  37  50
ENDBRANCH  26  27
ENDBRANCH   5  26
BRANCH   4  52
ATOM     52  O   UNL     1     108.222 113.595 112.084  1.00  0.00    -0.384 OA
ATOM     53  H   UNL     1     108.064 113.807 111.126  1.00  0.00     0.211 HD
ENDBRANCH   4  52
TORSDOF 16
ENDMDL
MODEL 4
REMARK VINA RESULT:    -9.090      1.654      9.461
REMARK INTER + INTRA:         -15.418
REMARK INTER:                 -14.520
REMARK INTRA:                  -0.899
REMARK UNBOUND:                -0.483
REMARK SMILES C[C@@H]1O[C@@H](OC[C@@H]2O[C@@H](Oc3c(-c4ccc(O)c(O)c4)oc4cc(O)cc(O)c4c3=O)[C@H](O)[C@H](O)[C@@H]2O)[C@@H](O)[C@@H](O)[C@@H]1O
REMARK SMILES IDX 7 1 36 2 34 3 32 4 9 5 8 6 6 7 5 8 4 9 1 10 2 11 42 12 3 13
REMARK SMILES IDX 40 14 38 15 43 16 41 18 39 20 37 22 35 24 10 26 11 27 12 28
REMARK SMILES IDX 30 29 21 30 29 31 31 32 22 33 27 34 23 35 26 36 24 37 13 38
REMARK SMILES IDX 20 39 14 40 18 41 15 42 16 43 19 44 17 46 28 48 25 50 33 52
REMARK H PARENT 43 17 41 19 39 21 37 23 35 25 19 45 17 47 28 49 25 51 33 53
REMARK Flexibility Score: inf
ROOT
ATOM      1  C   UNL     1     112.818 111.171 109.869  1.00  0.00     0.180 C 
ATOM      2  C   UNL     1     112.210 109.742 109.811  1.00  0.00     0.177 C 
ATOM      3  C   UNL     1     111.772 109.325 111.238  1.00  0.00     0.180 C 
ATOM      4  C   UNL     1     112.935 109.515 112.245  1.00  0.00     0.214 C 
ATOM      5  C   UNL     1     113.462 110.957 112.136  1.00  0.00     0.339 C 
ATOM      6  O   UNL     1     113.886 111.243 110.805  1.00  0.00    -0.332 OA
ENDROOT
BRANCH   1   7
ATOM      7  C   UNL     1     113.345 111.591 108.485  1.00  0.00     0.198 C 
BRANCH   7   8
ATOM      8  O   UNL     1     112.601 112.699 108.010  1.00  0.00    -0.347 OA
BRANCH   8   9
ATOM      9  C   UNL     1     111.896 112.420 106.802  1.00  0.00     0.281 C 
ATOM     10  C   UNL     1     110.476 109.232 105.672  1.00  0.00     0.041 C 
ATOM     11  C   UNL     1     111.682 110.063 106.127  1.00  0.00     0.150 C 
ATOM     12  C   UNL     1     112.643 110.385 104.934  1.00  0.00     0.174 C 
ATOM     13  O   UNL     1     111.173 111.186 106.842  1.00  0.00    -0.344 OA
ATOM     14  C   UNL     1     112.352 111.776 104.365  1.00  0.00     0.179 C 
ATOM     15  C   UNL     1     112.671 112.786 105.481  1.00  0.00     0.202 C 
BRANCH  12  16
ATOM     16  O   UNL     1     112.638 109.393 103.944  1.00  0.00    -0.388 OA
ATOM     17  H   UNL     1     113.069 108.578 104.321  1.00  0.00     0.211 HD
ENDBRANCH  12  16
BRANCH  14  18
ATOM     18  O   UNL     1     113.119 111.976 103.195  1.00  0.00    -0.387 OA
ATOM     19  H   UNL     1     113.004 112.902 102.853  1.00  0.00     0.211 HD
ENDBRANCH  14  18
BRANCH  15  20
ATOM     20  O   UNL     1     114.069 112.880 105.629  1.00  0.00    -0.385 OA
ATOM     21  H   UNL     1     114.417 113.649 105.097  1.00  0.00     0.211 HD
ENDBRANCH  15  20
ENDBRANCH   8   9
ENDBRANCH   7   8
ENDBRANCH   1   7
BRANCH   2  22
ATOM     22  O   UNL     1     113.142 108.847 109.259  1.00  0.00    -0.387 OA
ATOM     23  H   UNL     1     113.661 108.468 110.013  1.00  0.00     0.211 HD
ENDBRANCH   2  22
BRANCH   3  24
ATOM     24  O   UNL     1     111.296 108.004 111.274  1.00  0.00    -0.387 OA
ATOM     25  H   UNL     1     111.776 107.497 110.573  1.00  0.00     0.211 HD
ENDBRANCH   3  24
BRANCH   5  26
ATOM     26  O   UNL     1     112.455 111.887 112.557  1.00  0.00    -0.454 OA
BRANCH  26  27
ATOM     27  C   UNL     1     111.663 111.714 113.698  1.00  0.00     0.214 A 
ATOM     28  C   UNL     1     110.282 111.492 113.572  1.00  0.00     0.180 A 
ATOM     29  C   UNL     1     112.222 111.825 114.972  1.00  0.00     0.239 A 
ATOM     30  O   UNL     1     109.523 111.395 114.660  1.00  0.00    -0.452 OA
ATOM     31  C   UNL     1     111.387 111.765 116.105  1.00  0.00     0.111 A 
ATOM     32  O   UNL     1     113.464 112.013 115.084  1.00  0.00    -0.285 OA
ATOM     33  C   UNL     1     110.001 111.539 115.889  1.00  0.00     0.146 A 
ATOM     34  C   UNL     1     111.846 111.971 117.425  1.00  0.00     0.134 A 
ATOM     35  C   UNL     1     109.114 111.509 116.970  1.00  0.00     0.094 A 
ATOM     36  C   UNL     1     110.932 111.979 118.490  1.00  0.00     0.093 A 
ATOM     37  C   UNL     1     109.571 111.760 118.264  1.00  0.00     0.123 A 
BRANCH  28  38
ATOM     38  C   UNL     1     109.672 111.421 112.242  1.00  0.00     0.025 A 
ATOM     39  C   UNL     1     109.852 112.492 111.355  1.00  0.00     0.062 A 
ATOM     40  C   UNL     1     108.999 110.268 111.814  1.00  0.00     0.016 A 
ATOM     41  C   UNL     1     109.437 112.383 110.024  1.00  0.00     0.158 A 
ATOM     42  C   UNL     1     108.576 110.160 110.482  1.00  0.00     0.051 A 
ATOM     43  C   UNL     1     108.800 111.210 109.586  1.00  0.00     0.157 A 
BRANCH  41  44
ATOM     44  O   UNL     1     109.662 113.432 109.137  1.00  0.00    -0.504 OA
ATOM     45  H   UNL     1     110.596 113.814 109.005  1.00  0.00     0.293 HD
ENDBRANCH  41  44
BRANCH  43  46
ATOM     46  O   UNL     1     108.413 111.067 108.254  1.00  0.00    -0.504 OA
ATOM     47  H   UNL     1     108.277 111.865 107.640  1.00  0.00     0.293 HD
ENDBRANCH  43  46
ENDBRANCH  28  38
BRANCH  34  48
ATOM     48  O   UNL     1     113.202 112.188 117.690  1.00  0.00    -0.507 OA
ATOM     49  H   UNL     1     113.821 112.530 116.963  1.00  0.00     0.293 HD
ENDBRANCH  34  48
BRANCH  37  50
ATOM     50  O   UNL     1     108.676 111.835 119.331  1.00  0.00    -0.508 OA
ATOM     51  H   UNL     1     108.545 112.688 119.867  1.00  0.00     0.293 HD
ENDBRANCH  37  50
ENDBRANCH  26  27
ENDBRANCH   5  26
BRANCH   4  52
ATOM     52  O   UNL     1     114.010 108.621 112.073  1.00  0.00    -0.384 OA
ATOM     53  H   UNL     1     114.206 108.487 111.107  1.00  0.00     0.211 HD
ENDBRANCH   4  52
TORSDOF 16
ENDMDL
MODEL 5
REMARK VINA RESULT:    -9.025      0.920      1.434
REMARK INTER + INTRA:         -15.310
REMARK INTER:                 -14.120
REMARK INTRA:                  -1.191
REMARK UNBOUND:                -0.483
REMARK SMILES C[C@@H]1O[C@@H](OC[C@@H]2O[C@@H](Oc3c(-c4ccc(O)c(O)c4)oc4cc(O)cc(O)c4c3=O)[C@H](O)[C@H](O)[C@@H]2O)[C@@H](O)[C@@H](O)[C@@H]1O
REMARK SMILES IDX 7 1 36 2 34 3 32 4 9 5 8 6 6 7 5 8 4 9 1 10 2 11 42 12 3 13
REMARK SMILES IDX 40 14 38 15 43 16 41 18 39 20 37 22 35 24 10 26 11 27 12 28
REMARK SMILES IDX 30 29 21 30 29 31 31 32 22 33 27 34 23 35 26 36 24 37 13 38
REMARK SMILES IDX 20 39 14 40 18 41 15 42 16 43 19 44 17 46 28 48 25 50 33 52
REMARK H PARENT 43 17 41 19 39 21 37 23 35 25 19 45 17 47 28 49 25 51 33 53
REMARK Flexibility Score: inf
ROOT
ATOM      1  C   UNL     1     110.079 112.019 111.850  1.00  0.00     0.180 C 
ATOM      2  C   UNL     1     109.494 110.579 111.822  1.00  0.00     0.177 C 
ATOM      3  C   UNL     1     109.470 110.077 110.356  1.00  0.00     0.180 C 
ATOM      4  C   UNL     1     108.763 111.104 109.436  1.00  0.00     0.214 C 
ATOM      5  C   UNL     1     109.418 112.484 109.626  1.00  0.00     0.339 C 
ATOM      6  O   UNL     1     109.355 112.891 110.992  1.00  0.00    -0.332 OA
ENDROOT
BRANCH   1   7
ATOM      7  C   UNL     1     110.040 112.589 113.280  1.00  0.00     0.198 C 
BRANCH   7   8
ATOM      8  O   UNL     1     111.157 112.115 114.010  1.00  0.00    -0.347 OA
BRANCH   8   9
ATOM      9  C   UNL     1     110.791 111.281 115.108  1.00  0.00     0.281 C 
ATOM     10  C   UNL     1     108.702 112.112 118.007  1.00  0.00     0.041 C 
ATOM     11  C   UNL     1     109.937 112.381 117.137  1.00  0.00     0.150 C 
ATOM     12  C   UNL     1     111.255 111.937 117.855  1.00  0.00     0.174 C 
ATOM     13  O   UNL     1     109.688 111.793 115.863  1.00  0.00    -0.344 OA
ATOM     14  C   UNL     1     111.678 110.539 117.394  1.00  0.00     0.179 C 
ATOM     15  C   UNL     1     112.000 110.647 115.893  1.00  0.00     0.202 C 
BRANCH  12  16
ATOM     16  O   UNL     1     111.180 112.037 119.250  1.00  0.00    -0.388 OA
ATOM     17  H   UNL     1     111.954 111.545 119.638  1.00  0.00     0.211 HD
ENDBRANCH  12  16
BRANCH  14  18
ATOM     18  O   UNL     1     112.774 110.099 118.170  1.00  0.00    -0.387 OA
ATOM     19  H   UNL     1     112.486 109.407 118.823  1.00  0.00     0.211 HD
ENDBRANCH  14  18
BRANCH  15  20
ATOM     20  O   UNL     1     113.223 111.327 115.734  1.00  0.00    -0.385 OA
ATOM     21  H   UNL     1     113.774 110.877 115.034  1.00  0.00     0.211 HD
ENDBRANCH  15  20
ENDBRANCH   8   9
ENDBRANCH   7   8
ENDBRANCH   1   7
BRANCH   2  22
ATOM     22  O   UNL     1     108.216 110.570 112.406  1.00  0.00    -0.387 OA
ATOM     23  H   UNL     1     108.077 111.462 112.813  1.00  0.00     0.211 HD
ENDBRANCH   2  22
BRANCH   3  24
ATOM     24  O   UNL     1     108.867 108.813 110.244  1.00  0.00    -0.387 OA
ATOM     25  H   UNL     1     109.349 108.317 109.538  1.00  0.00     0.211 HD
ENDBRANCH   3  24
BRANCH   5  26
ATOM     26  O   UNL     1     110.776 112.456 109.169  1.00  0.00    -0.454 OA
BRANCH  26  27
ATOM     27  C   UNL     1     111.208 111.725 108.055  1.00  0.00     0.214 A 
ATOM     28  C   UNL     1     112.108 110.659 108.217  1.00  0.00     0.180 A 
ATOM     29  C   UNL     1     110.804 112.087 106.770  1.00  0.00     0.239 A 
ATOM     30  O   UNL     1     112.568 110.010 107.150  1.00  0.00    -0.452 OA
ATOM     31  C   UNL     1     111.342 111.413 105.656  1.00  0.00     0.111 A 
ATOM     32  O   UNL     1     109.987 113.037 106.628  1.00  0.00    -0.285 OA
ATOM     33  C   UNL     1     112.248 110.348 105.907  1.00  0.00     0.146 A 
ATOM     34  C   UNL     1     111.074 111.778 104.318  1.00  0.00     0.134 A 
ATOM     35  C   UNL     1     112.848 109.666 104.844  1.00  0.00     0.094 A 
ATOM     36  C   UNL     1     111.720 111.108 103.267  1.00  0.00     0.093 A 
ATOM     37  C   UNL     1     112.611 110.064 103.527  1.00  0.00     0.123 A 
BRANCH  28  38
ATOM     38  C   UNL     1     112.580 110.298 109.556  1.00  0.00     0.025 A 
ATOM     39  C   UNL     1     113.030 111.312 110.413  1.00  0.00     0.062 A 
ATOM     40  C   UNL     1     112.499 108.978 110.021  1.00  0.00     0.016 A 
ATOM     41  C   UNL     1     113.319 111.027 111.751  1.00  0.00     0.158 A 
ATOM     42  C   UNL     1     112.796 108.689 111.360  1.00  0.00     0.051 A 
ATOM     43  C   UNL     1     113.196 109.711 112.227  1.00  0.00     0.157 A 
BRANCH  41  44
ATOM     44  O   UNL     1     113.718 112.048 112.609  1.00  0.00    -0.504 OA
ATOM     45  H   UNL     1     114.687 112.357 112.638  1.00  0.00     0.293 HD
ENDBRANCH  41  44
BRANCH  43  46
ATOM     46  O   UNL     1     113.443 109.414 113.567  1.00  0.00    -0.504 OA
ATOM     47  H   UNL     1     113.200 110.054 114.318  1.00  0.00     0.293 HD
ENDBRANCH  43  46
ENDBRANCH  28  38
BRANCH  34  48
ATOM     48  O   UNL     1     110.183 112.814 104.019  1.00  0.00    -0.507 OA
ATOM     49  H   UNL     1     110.323 113.394 103.199  1.00  0.00     0.293 HD
ENDBRANCH  34  48
BRANCH  37  50
ATOM     50  O   UNL     1     113.286 109.457 102.469  1.00  0.00    -0.508 OA
ATOM     51  H   UNL     1     114.077 108.836 102.619  1.00  0.00     0.293 HD
ENDBRANCH  37  50
ENDBRANCH  26  27
ENDBRANCH   5  26
BRANCH   4  52
ATOM     52  O   UNL     1     107.375 111.223 109.651  1.00  0.00    -0.384 OA
ATOM     53  H   UNL     1     106.923 111.589 108.845  1.00  0.00     0.211 HD
ENDBRANCH   4  52
TORSDOF 16
ENDMDL
MODEL 6
REMARK VINA RESULT:    -8.655      2.041      5.317
REMARK INTER + INTRA:         -14.703
REMARK INTER:                 -13.846
REMARK INTRA:                  -0.857
REMARK UNBOUND:                -0.483
REMARK SMILES C[C@@H]1O[C@@H](OC[C@@H]2O[C@@H](Oc3c(-c4ccc(O)c(O)c4)oc4cc(O)cc(O)c4c3=O)[C@H](O)[C@H](O)[C@@H]2O)[C@@H](O)[C@@H](O)[C@@H]1O
REMARK SMILES IDX 7 1 36 2 34 3 32 4 9 5 8 6 6 7 5 8 4 9 1 10 2 11 42 12 3 13
REMARK SMILES IDX 40 14 38 15 43 16 41 18 39 20 37 22 35 24 10 26 11 27 12 28
REMARK SMILES IDX 30 29 21 30 29 31 31 32 22 33 27 34 23 35 26 36 24 37 13 38
REMARK SMILES IDX 20 39 14 40 18 41 15 42 16 43 19 44 17 46 28 48 25 50 33 52
REMARK H PARENT 43 17 41 19 39 21 37 23 35 25 19 45 17 47 28 49 25 51 33 53
REMARK Flexibility Score: inf
ROOT
ATOM      1  C   UNL     1     112.077 109.702 115.207  1.00  0.00     0.180 C 
ATOM      2  C   UNL     1     112.677 111.136 115.216  1.00  0.00     0.177 C 
ATOM      3  C   UNL     1     112.821 111.629 113.754  1.00  0.00     0.180 C 
ATOM      4  C   UNL     1     113.589 110.589 112.899  1.00  0.00     0.214 C 
ATOM      5  C   UNL     1     112.907 109.217 113.044  1.00  0.00     0.339 C 
ATOM      6  O   UNL     1     112.857 108.818 114.413  1.00  0.00    -0.332 OA
ENDROOT
BRANCH   1   7
ATOM      7  C   UNL     1     111.996 109.141 116.638  1.00  0.00     0.198 C 
BRANCH   7   8
ATOM      8  O   UNL     1     111.383 110.095 117.487  1.00  0.00    -0.347 OA
BRANCH   8   9
ATOM      9  C   UNL     1     111.715 109.910 118.862  1.00  0.00     0.281 C 
ATOM     10  C   UNL     1     109.537 110.218 121.798  1.00  0.00     0.041 C 
ATOM     11  C   UNL     1     110.168 110.830 120.540  1.00  0.00     0.150 C 
ATOM     12  C   UNL     1     111.281 111.869 120.902  1.00  0.00     0.174 C 
ATOM     13  O   UNL     1     110.569 109.748 119.704  1.00  0.00    -0.344 OA
ATOM     14  C   UNL     1     112.667 111.220 120.847  1.00  0.00     0.179 C 
ATOM     15  C   UNL     1     112.901 110.803 119.385  1.00  0.00     0.202 C 
BRANCH  12  16
ATOM     16  O   UNL     1     111.047 112.521 122.120  1.00  0.00    -0.388 OA
ATOM     17  H   UNL     1     110.094 112.377 122.371  1.00  0.00     0.211 HD
ENDBRANCH  12  16
BRANCH  14  18
ATOM     18  O   UNL     1     113.633 112.130 121.330  1.00  0.00    -0.387 OA
ATOM     19  H   UNL     1     113.646 112.134 122.325  1.00  0.00     0.211 HD
ENDBRANCH  14  18
BRANCH  15  20
ATOM     20  O   UNL     1     113.151 111.956 118.614  1.00  0.00    -0.385 OA
ATOM     21  H   UNL     1     112.307 112.267 118.184  1.00  0.00     0.211 HD
ENDBRANCH  15  20
ENDBRANCH   8   9
ENDBRANCH   7   8
ENDBRANCH   1   7
BRANCH   2  22
ATOM     22  O   UNL     1     113.904 111.137 115.900  1.00  0.00    -0.387 OA
ATOM     23  H   UNL     1     114.618 111.102 115.214  1.00  0.00     0.211 HD
ENDBRANCH   2  22
BRANCH   3  24
ATOM     24  O   UNL     1     113.444 112.886 113.684  1.00  0.00    -0.387 OA
ATOM     25  H   UNL     1     112.954 113.493 114.292  1.00  0.00     0.211 HD
ENDBRANCH   3  24
BRANCH   5  26
ATOM     26  O   UNL     1     111.590 109.255 112.480  1.00  0.00    -0.454 OA
BRANCH  26  27
ATOM     27  C   UNL     1     111.223 110.085 111.414  1.00  0.00     0.214 A 
ATOM     28  C   UNL     1     110.320 111.140 111.620  1.00  0.00     0.180 A 
ATOM     29  C   UNL     1     111.696 109.833 110.125  1.00  0.00     0.239 A 
ATOM     30  O   UNL     1     109.922 111.884 110.591  1.00  0.00    -0.452 OA
ATOM     31  C   UNL     1     111.222 110.607 109.048  1.00  0.00     0.111 A 
ATOM     32  O   UNL     1     112.515 108.892 109.945  1.00  0.00    -0.285 OA
ATOM     33  C   UNL     1     110.309 111.655 109.342  1.00  0.00     0.146 A 
ATOM     34  C   UNL     1     111.562 110.359 107.699  1.00  0.00     0.134 A 
ATOM     35  C   UNL     1     109.771 112.432 108.312  1.00  0.00     0.094 A 
ATOM     36  C   UNL     1     110.978 111.124 106.678  1.00  0.00     0.093 A 
ATOM     37  C   UNL     1     110.078 112.149 106.980  1.00  0.00     0.123 A 
BRANCH  28  38
ATOM     38  C   UNL     1     109.777 111.387 112.958  1.00  0.00     0.025 A 
ATOM     39  C   UNL     1     109.242 110.312 113.682  1.00  0.00     0.062 A 
ATOM     40  C   UNL     1     109.869 112.652 113.555  1.00  0.00     0.016 A 
ATOM     41  C   UNL     1     108.879 110.475 115.022  1.00  0.00     0.158 A 
ATOM     42  C   UNL     1     109.499 112.819 114.897  1.00  0.00     0.051 A 
ATOM     43  C   UNL     1     109.013 111.734 115.632  1.00  0.00     0.157 A 
BRANCH  41  44
ATOM     44  O   UNL     1     108.395 109.392 115.749  1.00  0.00    -0.504 OA
ATOM     45  H   UNL     1     107.400 109.180 115.772  1.00  0.00     0.293 HD
ENDBRANCH  41  44
BRANCH  43  46
ATOM     46  O   UNL     1     108.692 111.908 116.978  1.00  0.00    -0.504 OA
ATOM     47  H   UNL     1     108.328 112.785 117.340  1.00  0.00     0.293 HD
ENDBRANCH  43  46
ENDBRANCH  28  38
BRANCH  34  48
ATOM     48  O   UNL     1     112.464 109.345 107.360  1.00  0.00    -0.507 OA
ATOM     49  H   UNL     1     112.282 108.738 106.568  1.00  0.00     0.293 HD
ENDBRANCH  34  48
BRANCH  37  50
ATOM     50  O   UNL     1     109.465 112.853 105.945  1.00  0.00    -0.508 OA
ATOM     51  H   UNL     1     108.497 112.690 105.681  1.00  0.00     0.293 HD
ENDBRANCH  37  50
ENDBRANCH  26  27
ENDBRANCH   5  26
BRANCH   4  52
ATOM     52  O   UNL     1     114.954 110.459 113.224  1.00  0.00    -0.384 OA
ATOM     53  H   UNL     1     115.439 109.954 112.518  1.00  0.00     0.211 HD
ENDBRANCH   4  52
TORSDOF 16
ENDMDL
MODEL 7
REMARK VINA RESULT:    -8.340      2.076      3.388
REMARK INTER + INTRA:         -14.185
REMARK INTER:                 -14.032
REMARK INTRA:                  -0.153
REMARK UNBOUND:                -0.483
REMARK SMILES C[C@@H]1O[C@@H](OC[C@@H]2O[C@@H](Oc3c(-c4ccc(O)c(O)c4)oc4cc(O)cc(O)c4c3=O)[C@H](O)[C@H](O)[C@@H]2O)[C@@H](O)[C@@H](O)[C@@H]1O
REMARK SMILES IDX 7 1 36 2 34 3 32 4 9 5 8 6 6 7 5 8 4 9 1 10 2 11 42 12 3 13
REMARK SMILES IDX 40 14 38 15 43 16 41 18 39 20 37 22 35 24 10 26 11 27 12 28
REMARK SMILES IDX 30 29 21 30 29 31 31 32 22 33 27 34 23 35 26 36 24 37 13 38
REMARK SMILES IDX 20 39 14 40 18 41 15 42 16 43 19 44 17 46 28 48 25 50 33 52
REMARK H PARENT 43 17 41 19 39 21 37 23 35 25 19 45 17 47 28 49 25 51 33 53
REMARK Flexibility Score: inf
ROOT
ATOM      1  C   UNL     1     110.213 112.575 115.195  1.00  0.00     0.180 C 
ATOM      2  C   UNL     1     109.630 111.135 115.260  1.00  0.00     0.177 C 
ATOM      3  C   UNL     1     109.509 110.579 113.818  1.00  0.00     0.180 C 
ATOM      4  C   UNL     1     108.740 111.571 112.910  1.00  0.00     0.214 C 
ATOM      5  C   UNL     1     109.404 112.956 113.004  1.00  0.00     0.339 C 
ATOM      6  O   UNL     1     109.432 113.414 114.355  1.00  0.00    -0.332 OA
ENDROOT
BRANCH   1   7
ATOM      7  C   UNL     1     110.269 113.198 116.602  1.00  0.00     0.198 C 
BRANCH   7   8
ATOM      8  O   UNL     1     109.215 112.679 117.393  1.00  0.00    -0.347 OA
BRANCH   8   9
ATOM      9  C   UNL     1     109.596 112.459 118.751  1.00  0.00     0.281 C 
ATOM     10  C   UNL     1     112.962 112.467 120.208  1.00  0.00     0.041 C 
ATOM     11  C   UNL     1     111.951 111.908 119.198  1.00  0.00     0.150 C 
ATOM     12  C   UNL     1     111.473 110.472 119.597  1.00  0.00     0.174 C 
ATOM     13  O   UNL     1     110.929 112.888 119.041  1.00  0.00    -0.344 OA
ATOM     14  C   UNL     1     110.142 110.535 120.352  1.00  0.00     0.179 C 
ATOM     15  C   UNL     1     109.102 111.096 119.367  1.00  0.00     0.202 C 
BRANCH  12  16
ATOM     16  O   UNL     1     112.446 109.744 120.294  1.00  0.00    -0.388 OA
ATOM     17  H   UNL     1     113.089 109.373 119.631  1.00  0.00     0.211 HD
ENDBRANCH  12  16
BRANCH  14  18
ATOM     18  O   UNL     1     109.814 109.249 120.837  1.00  0.00    -0.387 OA
ATOM     19  H   UNL     1     109.245 109.315 121.650  1.00  0.00     0.211 HD
ENDBRANCH  14  18
BRANCH  15  20
ATOM     20  O   UNL     1     108.786 110.104 118.417  1.00  0.00    -0.385 OA
ATOM     21  H   UNL     1     109.116 110.378 117.517  1.00  0.00     0.211 HD
ENDBRANCH  15  20
ENDBRANCH   8   9
ENDBRANCH   7   8
ENDBRANCH   1   7
BRANCH   2  22
ATOM     22  O   UNL     1     108.394 111.149 115.928  1.00  0.00    -0.387 OA
ATOM     23  H   UNL     1     107.693 111.276 115.239  1.00  0.00     0.211 HD
ENDBRANCH   2  22
BRANCH   3  24
ATOM     24  O   UNL     1     108.902 109.312 113.795  1.00  0.00    -0.387 OA
ATOM     25  H   UNL     1     108.478 109.204 112.908  1.00  0.00     0.211 HD
ENDBRANCH   3  24
BRANCH   5  26
ATOM     26  O   UNL     1     110.729 112.910 112.458  1.00  0.00    -0.454 OA
BRANCH  26  27
ATOM     27  C   UNL     1     111.101 112.091 111.385  1.00  0.00     0.214 A 
ATOM     28  C   UNL     1     112.006 111.037 111.583  1.00  0.00     0.180 A 
ATOM     29  C   UNL     1     110.630 112.354 110.098  1.00  0.00     0.239 A 
ATOM     30  O   UNL     1     112.408 110.304 110.548  1.00  0.00    -0.452 OA
ATOM     31  C   UNL     1     111.108 111.592 109.014  1.00  0.00     0.111 A 
ATOM     32  O   UNL     1     109.808 113.295 109.924  1.00  0.00    -0.285 OA
ATOM     33  C   UNL     1     112.024 110.544 109.301  1.00  0.00     0.146 A 
ATOM     34  C   UNL     1     110.771 111.852 107.667  1.00  0.00     0.134 A 
ATOM     35  C   UNL     1     112.567 109.778 108.264  1.00  0.00     0.094 A 
ATOM     36  C   UNL     1     111.360 111.098 106.640  1.00  0.00     0.093 A 
ATOM     37  C   UNL     1     112.261 110.073 106.935  1.00  0.00     0.123 A 
BRANCH  28  38
ATOM     38  C   UNL     1     112.547 110.779 112.919  1.00  0.00     0.025 A 
ATOM     39  C   UNL     1     113.054 111.852 113.665  1.00  0.00     0.062 A 
ATOM     40  C   UNL     1     112.478 109.502 113.495  1.00  0.00     0.016 A 
ATOM     41  C   UNL     1     113.413 111.674 115.005  1.00  0.00     0.158 A 
ATOM     42  C   UNL     1     112.844 109.320 114.836  1.00  0.00     0.051 A 
ATOM     43  C   UNL     1     113.303 110.403 115.593  1.00  0.00     0.157 A 
BRANCH  41  44
ATOM     44  O   UNL     1     113.870 112.755 115.753  1.00  0.00    -0.504 OA
ATOM     45  H   UNL     1     114.258 113.578 115.298  1.00  0.00     0.293 HD
ENDBRANCH  41  44
BRANCH  43  46
ATOM     46  O   UNL     1     113.619 110.212 116.937  1.00  0.00    -0.504 OA
ATOM     47  H   UNL     1     112.999 110.505 117.687  1.00  0.00     0.293 HD
ENDBRANCH  43  46
ENDBRANCH  28  38
BRANCH  34  48
ATOM     48  O   UNL     1     109.867 112.867 107.335  1.00  0.00    -0.507 OA
ATOM     49  H   UNL     1     108.880 112.767 107.547  1.00  0.00     0.293 HD
ENDBRANCH  34  48
BRANCH  37  50
ATOM     50  O   UNL     1     112.879 109.381 105.894  1.00  0.00    -0.508 OA
ATOM     51  H   UNL     1     112.737 109.632 104.919  1.00  0.00     0.293 HD
ENDBRANCH  37  50
ENDBRANCH  26  27
ENDBRANCH   5  26
BRANCH   4  52
ATOM     52  O   UNL     1     107.369 111.698 113.213  1.00  0.00    -0.384 OA
ATOM     53  H   UNL     1     107.101 111.048 113.916  1.00  0.00     0.211 HD
ENDBRANCH   4  52
TORSDOF 16
ENDMDL
MODEL 8
REMARK VINA RESULT:    -7.771      1.579      9.301
REMARK INTER + INTRA:         -13.252
REMARK INTER:                 -12.537
REMARK INTRA:                  -0.714
REMARK UNBOUND:                -0.483
REMARK SMILES C[C@@H]1O[C@@H](OC[C@@H]2O[C@@H](Oc3c(-c4ccc(O)c(O)c4)oc4cc(O)cc(O)c4c3=O)[C@H](O)[C@H](O)[C@@H]2O)[C@@H](O)[C@@H](O)[C@@H]1O
REMARK SMILES IDX 7 1 36 2 34 3 32 4 9 5 8 6 6 7 5 8 4 9 1 10 2 11 42 12 3 13
REMARK SMILES IDX 40 14 38 15 43 16 41 18 39 20 37 22 35 24 10 26 11 27 12 28
REMARK SMILES IDX 30 29 21 30 29 31 31 32 22 33 27 34 23 35 26 36 24 37 13 38
REMARK SMILES IDX 20 39 14 40 18 41 15 42 16 43 19 44 17 46 28 48 25 50 33 52
REMARK H PARENT 43 17 41 19 39 21 37 23 35 25 19 45 17 47 28 49 25 51 33 53
REMARK Flexibility Score: inf
ROOT
ATOM      1  C   UNL     1     109.862 110.764 110.592  1.00  0.00     0.180 C 
ATOM      2  C   UNL     1     109.829 112.297 110.847  1.00  0.00     0.177 C 
ATOM      3  C   UNL     1     109.833 112.550 112.376  1.00  0.00     0.180 C 
ATOM      4  C   UNL     1     108.714 111.732 113.070  1.00  0.00     0.214 C 
ATOM      5  C   UNL     1     108.851 110.253 112.669  1.00  0.00     0.339 C 
ATOM      6  O   UNL     1     108.791 110.103 111.252  1.00  0.00    -0.332 OA
ENDROOT
BRANCH   1   7
ATOM      7  C   UNL     1     109.773 110.465 109.084  1.00  0.00     0.198 C 
BRANCH   7   8
ATOM      8  O   UNL     1     110.712 111.264 108.386  1.00  0.00    -0.347 OA
BRANCH   8   9
ATOM      9  C   UNL     1     110.288 111.594 107.064  1.00  0.00     0.281 C 
ATOM     10  C   UNL     1     109.246 109.333 104.370  1.00  0.00     0.041 C 
ATOM     11  C   UNL     1     110.301 109.798 105.383  1.00  0.00     0.150 C 
ATOM     12  C   UNL     1     111.480 110.550 104.682  1.00  0.00     0.174 C 
ATOM     13  O   UNL     1     109.614 110.520 106.402  1.00  0.00    -0.344 OA
ATOM     14  C   UNL     1     111.270 112.065 104.746  1.00  0.00     0.179 C 
ATOM     15  C   UNL     1     111.312 112.455 106.234  1.00  0.00     0.202 C 
BRANCH  12  16
ATOM     16  O   UNL     1     111.718 110.100 103.376  1.00  0.00    -0.388 OA
ATOM     17  H   UNL     1     112.670 110.288 103.153  1.00  0.00     0.211 HD
ENDBRANCH  12  16
BRANCH  14  18
ATOM     18  O   UNL     1     112.260 112.711 103.971  1.00  0.00    -0.387 OA
ATOM     19  H   UNL     1     112.965 112.067 103.693  1.00  0.00     0.211 HD
ENDBRANCH  14  18
BRANCH  15  20
ATOM     20  O   UNL     1     112.643 112.383 106.690  1.00  0.00    -0.385 OA
ATOM     21  H   UNL     1     113.181 113.120 106.287  1.00  0.00     0.211 HD
ENDBRANCH  15  20
ENDBRANCH   8   9
ENDBRANCH   7   8
ENDBRANCH   1   7
BRANCH   2  22
ATOM     22  O   UNL     1     108.706 112.862 110.219  1.00  0.00    -0.387 OA
ATOM     23  H   UNL     1     109.011 113.216 109.345  1.00  0.00     0.211 HD
ENDBRANCH   2  22
BRANCH   3  24
ATOM     24  O   UNL     1     109.710 113.916 112.681  1.00  0.00    -0.387 OA
ATOM     25  H   UNL     1     109.725 114.412 111.825  1.00  0.00     0.211 HD
ENDBRANCH   3  24
BRANCH   5  26
ATOM     26  O   UNL     1     110.074 109.710 113.183  1.00  0.00    -0.454 OA
BRANCH  26  27
ATOM     27  C   UNL     1     110.761 110.241 114.282  1.00  0.00     0.214 A 
ATOM     28  C   UNL     1     112.029 110.818 114.110  1.00  0.00     0.180 A 
ATOM     29  C   UNL     1     110.224 110.142 115.567  1.00  0.00     0.239 A 
ATOM     30  O   UNL     1     112.706 111.261 115.167  1.00  0.00    -0.452 OA
ATOM     31  C   UNL     1     110.983 110.576 116.672  1.00  0.00     0.111 A 
ATOM     32  O   UNL     1     109.080 109.634 115.718  1.00  0.00    -0.285 OA
ATOM     33  C   UNL     1     112.257 111.148 116.411  1.00  0.00     0.146 A 
ATOM     34  C   UNL     1     110.568 110.421 118.013  1.00  0.00     0.134 A 
ATOM     35  C   UNL     1     113.075 111.560 117.467  1.00  0.00     0.094 A 
ATOM     36  C   UNL     1     111.423 110.803 119.058  1.00  0.00     0.093 A 
ATOM     37  C   UNL     1     112.675 111.360 118.789  1.00  0.00     0.123 A 
BRANCH  28  38
ATOM     38  C   UNL     1     112.626 110.885 112.775  1.00  0.00     0.025 A 
ATOM     39  C   UNL     1     112.622 109.737 111.971  1.00  0.00     0.062 A 
ATOM     40  C   UNL     1     113.113 112.094 112.258  1.00  0.00     0.016 A 
ATOM     41  C   UNL     1     113.021 109.810 110.633  1.00  0.00     0.158 A 
ATOM     42  C   UNL     1     113.521 112.168 110.919  1.00  0.00     0.051 A 
ATOM     43  C   UNL     1     113.468 111.033 110.105  1.00  0.00     0.157 A 
BRANCH  41  44
ATOM     44  O   UNL     1     112.967 108.676 109.827  1.00  0.00    -0.504 OA
ATOM     45  H   UNL     1     113.295 107.776 110.169  1.00  0.00     0.293 HD
ENDBRANCH  41  44
BRANCH  43  46
ATOM     46  O   UNL     1     113.834 111.135 108.763  1.00  0.00    -0.504 OA
ATOM     47  H   UNL     1     113.682 111.982 108.222  1.00  0.00     0.293 HD
ENDBRANCH  43  46
ENDBRANCH  28  38
BRANCH  34  48
ATOM     48  O   UNL     1     109.318 109.872 118.321  1.00  0.00    -0.507 OA
ATOM     49  H   UNL     1     109.163 109.413 119.211  1.00  0.00     0.293 HD
ENDBRANCH  34  48
BRANCH  37  50
ATOM     50  O   UNL     1     113.530 111.673 119.845  1.00  0.00    -0.508 OA
ATOM     51  H   UNL     1     114.204 111.006 120.211  1.00  0.00     0.293 HD
ENDBRANCH  37  50
ENDBRANCH  26  27
ENDBRANCH   5  26
BRANCH   4  52
ATOM     52  O   UNL     1     107.405 112.166 112.777  1.00  0.00    -0.384 OA
ATOM     53  H   UNL     1     107.051 112.737 113.510  1.00  0.00     0.211 HD
ENDBRANCH   4  52
TORSDOF 16
ENDMDL
