MODEL 1
REMARK VINA RESULT:    -5.200      0.000      0.000
REMARK INTER + INTRA:          -6.374
REMARK INTER:                  -6.112
REMARK INTRA:                  -0.263
REMARK UNBOUND:                -0.263
REMARK SMILES O=c1cc(-c2ccc(O)c(O)c2)oc2cc(O)cc(O)c12
REMARK SMILES IDX 4 1 3 2 2 3 1 4 21 5 19 6 18 7 16 8 15 9 14 10 13 11 5 12
REMARK SMILES IDX 6 13 7 14 8 15 12 16 10 17 9 18 11 20 20 22 17 24
REMARK H PARENT 9 19 11 21 20 23 17 25
REMARK Flexibility Score: inf
ROOT
ATOM      1  C   UNL     1     150.984 145.254 137.124  1.00  0.00     0.138 A 
ATOM      2  C   UNL     1     151.965 144.524 136.440  1.00  0.00     0.100 A 
ATOM      3  C   UNL     1     151.982 143.132 136.538  1.00  0.00     0.197 A 
ATOM      4  O   UNL     1     152.911 142.508 135.964  1.00  0.00    -0.289 OA
ATOM      5  C   UNL     1     150.992 142.468 137.300  1.00  0.00     0.107 A 
ATOM      6  C   UNL     1     150.887 141.052 137.439  1.00  0.00     0.134 A 
ATOM      7  C   UNL     1     149.936 140.512 138.314  1.00  0.00     0.093 A 
ATOM      8  C   UNL     1     149.047 141.334 139.008  1.00  0.00     0.123 A 
ATOM      9  C   UNL     1     149.106 142.717 138.839  1.00  0.00     0.094 A 
ATOM     10  C   UNL     1     150.066 143.287 138.000  1.00  0.00     0.146 A 
ATOM     11  O   UNL     1     150.099 144.611 137.877  1.00  0.00    -0.456 OA
ENDROOT
BRANCH   1  12
ATOM     12  C   UNL     1     150.918 146.737 137.053  1.00  0.00     0.021 A 
ATOM     13  C   UNL     1     150.087 147.396 136.130  1.00  0.00     0.016 A 
ATOM     14  C   UNL     1     150.038 148.791 136.093  1.00  0.00     0.051 A 
ATOM     15  C   UNL     1     150.806 149.557 136.976  1.00  0.00     0.157 A 
ATOM     16  C   UNL     1     151.679 147.508 137.949  1.00  0.00     0.062 A 
ATOM     17  C   UNL     1     151.636 148.907 137.918  1.00  0.00     0.158 A 
BRANCH  15  18
ATOM     18  O   UNL     1     150.711 150.947 136.884  1.00  0.00    -0.504 OA
ATOM     19  H   UNL     1     150.108 151.431 136.233  1.00  0.00     0.293 HD
ENDBRANCH  15  18
BRANCH  17  20
ATOM     20  O   UNL     1     152.426 149.604 138.833  1.00  0.00    -0.504 OA
ATOM     21  H   UNL     1     152.785 150.534 138.676  1.00  0.00     0.293 HD
ENDBRANCH  17  20
ENDBRANCH   1  12
BRANCH   6  22
ATOM     22  O   UNL     1     151.668 140.137 136.727  1.00  0.00    -0.507 OA
ATOM     23  H   UNL     1     152.630 139.915 136.936  1.00  0.00     0.293 HD
ENDBRANCH   6  22
BRANCH   8  24
ATOM     24  O   UNL     1     148.104 140.761 139.858  1.00  0.00    -0.508 OA
ATOM     25  H   UNL     1     147.393 140.128 139.510  1.00  0.00     0.293 HD
ENDBRANCH   8  24
TORSDOF 5
ENDMDL
MODEL 2
REMARK VINA RESULT:    -5.197      8.389     11.792
REMARK INTER + INTRA:          -6.371
REMARK INTER:                  -6.108
REMARK INTRA:                  -0.262
REMARK UNBOUND:                -0.263
REMARK SMILES O=c1cc(-c2ccc(O)c(O)c2)oc2cc(O)cc(O)c12
REMARK SMILES IDX 4 1 3 2 2 3 1 4 21 5 19 6 18 7 16 8 15 9 14 10 13 11 5 12
REMARK SMILES IDX 6 13 7 14 8 15 12 16 10 17 9 18 11 20 20 22 17 24
REMARK H PARENT 9 19 11 21 20 23 17 25
REMARK Flexibility Score: inf
ROOT
ATOM      1  C   UNL     1     141.625 147.377 137.161  1.00  0.00     0.138 A 
ATOM      2  C   UNL     1     140.620 148.089 136.491  1.00  0.00     0.100 A 
ATOM      3  C   UNL     1     140.577 149.481 136.589  1.00  0.00     0.197 A 
ATOM      4  O   UNL     1     139.628 150.086 136.029  1.00  0.00    -0.289 OA
ATOM      5  C   UNL     1     141.565 150.163 137.339  1.00  0.00     0.107 A 
ATOM      6  C   UNL     1     141.645 151.581 137.476  1.00  0.00     0.134 A 
ATOM      7  C   UNL     1     142.598 152.139 138.338  1.00  0.00     0.093 A 
ATOM      8  C   UNL     1     143.512 151.334 139.020  1.00  0.00     0.123 A 
ATOM      9  C   UNL     1     143.477 149.950 138.850  1.00  0.00     0.094 A 
ATOM     10  C   UNL     1     142.517 149.361 138.025  1.00  0.00     0.146 A 
ATOM     11  O   UNL     1     142.508 148.038 137.902  1.00  0.00    -0.456 OA
ENDROOT
BRANCH   1  12
ATOM     12  C   UNL     1     141.718 145.896 137.088  1.00  0.00     0.021 A 
ATOM     13  C   UNL     1     142.608 145.255 136.209  1.00  0.00     0.016 A 
ATOM     14  C   UNL     1     142.681 143.861 136.169  1.00  0.00     0.051 A 
ATOM     15  C   UNL     1     141.880 143.079 137.007  1.00  0.00     0.157 A 
ATOM     16  C   UNL     1     140.923 145.109 137.939  1.00  0.00     0.062 A 
ATOM     17  C   UNL     1     140.990 143.711 137.905  1.00  0.00     0.158 A 
BRANCH  15  18
ATOM     18  O   UNL     1     142.001 141.691 136.915  1.00  0.00    -0.504 OA
ATOM     19  H   UNL     1     141.448 141.115 136.295  1.00  0.00     0.293 HD
ENDBRANCH  15  18
BRANCH  17  20
ATOM     20  O   UNL     1     140.163 142.998 138.774  1.00  0.00    -0.504 OA
ATOM     21  H   UNL     1     139.208 142.746 138.566  1.00  0.00     0.293 HD
ENDBRANCH  17  20
ENDBRANCH   1  12
BRANCH   6  22
ATOM     22  O   UNL     1     140.836 152.481 136.776  1.00  0.00    -0.507 OA
ATOM     23  H   UNL     1     139.902 152.749 137.048  1.00  0.00     0.293 HD
ENDBRANCH   6  22
BRANCH   8  24
ATOM     24  O   UNL     1     144.456 151.925 139.856  1.00  0.00    -0.508 OA
ATOM     25  H   UNL     1     144.992 151.377 140.518  1.00  0.00     0.293 HD
ENDBRANCH   8  24
TORSDOF 5
ENDMDL
MODEL 3
REMARK VINA RESULT:    -5.192      5.587      8.276
REMARK INTER + INTRA:          -6.365
REMARK INTER:                  -6.102
REMARK INTRA:                  -0.263
REMARK UNBOUND:                -0.263
REMARK SMILES O=c1cc(-c2ccc(O)c(O)c2)oc2cc(O)cc(O)c12
REMARK SMILES IDX 4 1 3 2 2 3 1 4 21 5 19 6 18 7 16 8 15 9 14 10 13 11 5 12
REMARK SMILES IDX 6 13 7 14 8 15 12 16 10 17 9 18 11 20 20 22 17 24
REMARK H PARENT 9 19 11 21 20 23 17 25
REMARK Flexibility Score: inf
ROOT
ATOM      1  C   UNL     1     147.408 150.928 137.139  1.00  0.00     0.138 A 
ATOM      2  C   UNL     1     148.133 151.912 136.454  1.00  0.00     0.100 A 
ATOM      3  C   UNL     1     149.525 151.938 136.553  1.00  0.00     0.197 A 
ATOM      4  O   UNL     1     150.144 152.870 135.980  1.00  0.00    -0.289 OA
ATOM      5  C   UNL     1     150.194 150.953 137.318  1.00  0.00     0.107 A 
ATOM      6  C   UNL     1     151.611 150.856 137.457  1.00  0.00     0.134 A 
ATOM      7  C   UNL     1     152.155 149.908 138.334  1.00  0.00     0.093 A 
ATOM      8  C   UNL     1     151.339 149.016 139.028  1.00  0.00     0.123 A 
ATOM      9  C   UNL     1     149.955 149.066 138.857  1.00  0.00     0.094 A 
ATOM     10  C   UNL     1     149.380 150.022 138.017  1.00  0.00     0.146 A 
ATOM     11  O   UNL     1     148.056 150.047 137.893  1.00  0.00    -0.456 OA
ENDROOT
BRANCH   1  12
ATOM     12  C   UNL     1     145.926 150.853 137.067  1.00  0.00     0.021 A 
ATOM     13  C   UNL     1     145.273 150.010 136.150  1.00  0.00     0.016 A 
ATOM     14  C   UNL     1     143.878 149.953 136.112  1.00  0.00     0.051 A 
ATOM     15  C   UNL     1     143.106 150.724 136.986  1.00  0.00     0.157 A 
ATOM     16  C   UNL     1     145.149 151.617 137.954  1.00  0.00     0.062 A 
ATOM     17  C   UNL     1     143.751 151.566 137.922  1.00  0.00     0.158 A 
BRANCH  15  18
ATOM     18  O   UNL     1     141.717 150.621 136.894  1.00  0.00    -0.504 OA
ATOM     19  H   UNL     1     141.107 150.480 137.686  1.00  0.00     0.293 HD
ENDBRANCH  15  18
BRANCH  17  20
ATOM     20  O   UNL     1     143.048 152.361 138.829  1.00  0.00    -0.504 OA
ATOM     21  H   UNL     1     142.499 151.995 139.593  1.00  0.00     0.293 HD
ENDBRANCH  17  20
ENDBRANCH   1  12
BRANCH   6  22
ATOM     22  O   UNL     1     152.522 151.642 136.746  1.00  0.00    -0.507 OA
ATOM     23  H   UNL     1     152.279 152.264 135.989  1.00  0.00     0.293 HD
ENDBRANCH   6  22
BRANCH   8  24
ATOM     24  O   UNL     1     151.916 148.076 139.878  1.00  0.00    -0.508 OA
ATOM     25  H   UNL     1     151.553 147.912 140.811  1.00  0.00     0.293 HD
ENDBRANCH   8  24
TORSDOF 5
ENDMDL
MODEL 4
REMARK VINA RESULT:    -5.189      5.567      8.269
REMARK INTER + INTRA:          -6.361
REMARK INTER:                  -6.099
REMARK INTRA:                  -0.262
REMARK UNBOUND:                -0.263
REMARK SMILES O=c1cc(-c2ccc(O)c(O)c2)oc2cc(O)cc(O)c12
REMARK SMILES IDX 4 1 3 2 2 3 1 4 21 5 19 6 18 7 16 8 15 9 14 10 13 11 5 12
REMARK SMILES IDX 6 13 7 14 8 15 12 16 10 17 9 18 11 20 20 22 17 24
REMARK H PARENT 9 19 11 21 20 23 17 25
REMARK Flexibility Score: inf
ROOT
ATOM      1  C   UNL     1     145.318 141.629 137.132  1.00  0.00     0.138 A 
ATOM      2  C   UNL     1     144.617 140.625 136.451  1.00  0.00     0.100 A 
ATOM      3  C   UNL     1     143.224 140.580 136.530  1.00  0.00     0.197 A 
ATOM      4  O   UNL     1     142.627 139.631 135.960  1.00  0.00    -0.289 OA
ATOM      5  C   UNL     1     142.530 141.565 137.272  1.00  0.00     0.107 A 
ATOM      6  C   UNL     1     141.110 141.643 137.390  1.00  0.00     0.134 A 
ATOM      7  C   UNL     1     140.540 142.593 138.246  1.00  0.00     0.093 A 
ATOM      8  C   UNL     1     141.333 143.507 138.940  1.00  0.00     0.123 A 
ATOM      9  C   UNL     1     142.720 143.474 138.790  1.00  0.00     0.094 A 
ATOM     10  C   UNL     1     143.321 142.516 137.970  1.00  0.00     0.146 A 
ATOM     11  O   UNL     1     144.646 142.509 137.865  1.00  0.00    -0.456 OA
ENDROOT
BRANCH   1  12
ATOM     12  C   UNL     1     146.800 141.724 137.080  1.00  0.00     0.021 A 
ATOM     13  C   UNL     1     147.451 142.634 136.229  1.00  0.00     0.016 A 
ATOM     14  C   UNL     1     148.846 142.709 136.208  1.00  0.00     0.051 A 
ATOM     15  C   UNL     1     149.618 141.889 137.037  1.00  0.00     0.157 A 
ATOM     16  C   UNL     1     147.577 140.910 137.922  1.00  0.00     0.062 A 
ATOM     17  C   UNL     1     148.975 140.979 137.907  1.00  0.00     0.158 A 
BRANCH  15  18
ATOM     18  O   UNL     1     151.007 142.013 136.965  1.00  0.00    -0.504 OA
ATOM     19  H   UNL     1     151.548 141.830 136.131  1.00  0.00     0.293 HD
ENDBRANCH  15  18
BRANCH  17  20
ATOM     20  O   UNL     1     149.678 140.133 138.766  1.00  0.00    -0.504 OA
ATOM     21  H   UNL     1     150.564 139.705 138.539  1.00  0.00     0.293 HD
ENDBRANCH  17  20
ENDBRANCH   1  12
BRANCH   6  22
ATOM     22  O   UNL     1     140.221 140.834 136.676  1.00  0.00    -0.507 OA
ATOM     23  H   UNL     1     140.480 140.225 135.914  1.00  0.00     0.293 HD
ENDBRANCH   6  22
BRANCH   8  24
ATOM     24  O   UNL     1     140.730 144.449 139.770  1.00  0.00    -0.508 OA
ATOM     25  H   UNL     1     140.443 144.216 140.713  1.00  0.00     0.293 HD
ENDBRANCH   8  24
TORSDOF 5
ENDMDL
MODEL 5
REMARK VINA RESULT:    -5.079      9.016     12.213
REMARK INTER + INTRA:          -6.233
REMARK INTER:                  -5.969
REMARK INTRA:                  -0.264
REMARK UNBOUND:                -0.263
REMARK SMILES O=c1cc(-c2ccc(O)c(O)c2)oc2cc(O)cc(O)c12
REMARK SMILES IDX 4 1 3 2 2 3 1 4 21 5 19 6 18 7 16 8 15 9 14 10 13 11 5 12
REMARK SMILES IDX 6 13 7 14 8 15 12 16 10 17 9 18 11 20 20 22 17 24
REMARK H PARENT 9 19 11 21 20 23 17 25
REMARK Flexibility Score: inf
ROOT
ATOM      1  C   UNL     1     140.704 145.192 136.812  1.00  0.00     0.138 A 
ATOM      2  C   UNL     1     139.471 145.729 136.418  1.00  0.00     0.100 A 
ATOM      3  C   UNL     1     139.304 147.114 136.373  1.00  0.00     0.197 A 
ATOM      4  O   UNL     1     138.169 147.566 136.077  1.00  0.00    -0.289 OA
ATOM      5  C   UNL     1     140.389 147.964 136.697  1.00  0.00     0.107 A 
ATOM      6  C   UNL     1     140.347 149.389 136.648  1.00  0.00     0.134 A 
ATOM      7  C   UNL     1     141.447 150.128 137.102  1.00  0.00     0.093 A 
ATOM      8  C   UNL     1     142.608 149.494 137.546  1.00  0.00     0.123 A 
ATOM      9  C   UNL     1     142.679 148.101 137.547  1.00  0.00     0.094 A 
ATOM     10  C   UNL     1     141.587 147.336 137.132  1.00  0.00     0.146 A 
ATOM     11  O   UNL     1     141.689 146.011 137.162  1.00  0.00    -0.456 OA
ENDROOT
BRANCH   1  12
ATOM     12  C   UNL     1     140.936 143.726 136.874  1.00  0.00     0.021 A 
ATOM     13  C   UNL     1     141.074 143.052 138.101  1.00  0.00     0.016 A 
ATOM     14  C   UNL     1     141.282 141.672 138.130  1.00  0.00     0.051 A 
ATOM     15  C   UNL     1     141.350 140.934 136.944  1.00  0.00     0.157 A 
ATOM     16  C   UNL     1     140.991 142.981 135.684  1.00  0.00     0.062 A 
ATOM     17  C   UNL     1     141.200 141.597 135.704  1.00  0.00     0.158 A 
BRANCH  15  18
ATOM     18  O   UNL     1     141.562 139.557 137.044  1.00  0.00    -0.504 OA
ATOM     19  H   UNL     1     142.329 139.070 136.602  1.00  0.00     0.293 HD
ENDBRANCH  15  18
BRANCH  17  20
ATOM     20  O   UNL     1     141.251 140.927 134.480  1.00  0.00    -0.504 OA
ATOM     21  H   UNL     1     141.151 139.928 134.379  1.00  0.00     0.293 HD
ENDBRANCH  17  20
ENDBRANCH   1  12
BRANCH   6  22
ATOM     22  O   UNL     1     139.269 150.123 136.144  1.00  0.00    -0.507 OA
ATOM     23  H   UNL     1     138.769 150.837 136.653  1.00  0.00     0.293 HD
ENDBRANCH   6  22
BRANCH   8  24
ATOM     24  O   UNL     1     143.688 150.261 137.975  1.00  0.00    -0.508 OA
ATOM     25  H   UNL     1     143.784 151.235 137.710  1.00  0.00     0.293 HD
ENDBRANCH   8  24
TORSDOF 5
ENDMDL
MODEL 6
REMARK VINA RESULT:    -5.042      6.320     10.072
REMARK INTER + INTRA:          -6.189
REMARK INTER:                  -5.924
REMARK INTRA:                  -0.265
REMARK UNBOUND:                -0.263
REMARK SMILES O=c1cc(-c2ccc(O)c(O)c2)oc2cc(O)cc(O)c12
REMARK SMILES IDX 4 1 3 2 2 3 1 4 21 5 19 6 18 7 16 8 15 9 14 10 13 11 5 12
REMARK SMILES IDX 6 13 7 14 8 15 12 16 10 17 9 18 11 20 20 22 17 24
REMARK H PARENT 9 19 11 21 20 23 17 25
REMARK Flexibility Score: inf
ROOT
ATOM      1  C   UNL     1     145.177 151.744 136.767  1.00  0.00     0.138 A 
ATOM      2  C   UNL     1     145.702 152.979 136.365  1.00  0.00     0.100 A 
ATOM      3  C   UNL     1     147.086 153.163 136.333  1.00  0.00     0.197 A 
ATOM      4  O   UNL     1     147.526 154.301 136.029  1.00  0.00    -0.289 OA
ATOM      5  C   UNL     1     147.945 152.092 136.675  1.00  0.00     0.107 A 
ATOM      6  C   UNL     1     149.371 152.151 136.639  1.00  0.00     0.134 A 
ATOM      7  C   UNL     1     150.119 151.065 137.111  1.00  0.00     0.093 A 
ATOM      8  C   UNL     1     149.495 149.901 137.560  1.00  0.00     0.123 A 
ATOM      9  C   UNL     1     148.103 149.813 137.549  1.00  0.00     0.094 A 
ATOM     10  C   UNL     1     147.328 150.891 137.116  1.00  0.00     0.146 A 
ATOM     11  O   UNL     1     146.004 150.772 137.135  1.00  0.00    -0.456 OA
ENDROOT
BRANCH   1  12
ATOM     12  C   UNL     1     143.713 151.494 136.818  1.00  0.00     0.021 A 
ATOM     13  C   UNL     1     143.059 151.183 138.024  1.00  0.00     0.016 A 
ATOM     14  C   UNL     1     141.681 150.962 138.044  1.00  0.00     0.051 A 
ATOM     15  C   UNL     1     140.925 151.054 136.871  1.00  0.00     0.157 A 
ATOM     16  C   UNL     1     142.950 151.599 135.643  1.00  0.00     0.062 A 
ATOM     17  C   UNL     1     141.567 151.379 135.654  1.00  0.00     0.158 A 
BRANCH  15  18
ATOM     18  O   UNL     1     139.551 150.819 136.961  1.00  0.00    -0.504 OA
ATOM     19  H   UNL     1     138.953 150.651 136.163  1.00  0.00     0.293 HD
ENDBRANCH  15  18
BRANCH  17  20
ATOM     20  O   UNL     1     140.879 151.494 134.445  1.00  0.00    -0.504 OA
ATOM     21  H   UNL     1     141.307 151.379 133.538  1.00  0.00     0.293 HD
ENDBRANCH  17  20
ENDBRANCH   1  12
BRANCH   6  22
ATOM     22  O   UNL     1     150.095 153.233 136.131  1.00  0.00    -0.507 OA
ATOM     23  H   UNL     1     150.659 153.861 136.685  1.00  0.00     0.293 HD
ENDBRANCH   6  22
BRANCH   8  24
ATOM     24  O   UNL     1     150.272 148.835 138.007  1.00  0.00    -0.508 OA
ATOM     25  H   UNL     1     150.825 148.278 137.367  1.00  0.00     0.293 HD
ENDBRANCH   8  24
TORSDOF 5
ENDMDL
MODEL 7
REMARK VINA RESULT:    -4.990      4.882      7.260
REMARK INTER + INTRA:          -6.128
REMARK INTER:                  -5.862
REMARK INTRA:                  -0.266
REMARK UNBOUND:                -0.263
REMARK SMILES O=c1cc(-c2ccc(O)c(O)c2)oc2cc(O)cc(O)c12
REMARK SMILES IDX 4 1 3 2 2 3 1 4 21 5 19 6 18 7 16 8 15 9 14 10 13 11 5 12
REMARK SMILES IDX 6 13 7 14 8 15 12 16 10 17 9 18 11 20 20 22 17 24
REMARK H PARENT 9 19 11 21 20 23 17 25
REMARK Flexibility Score: inf
ROOT
ATOM      1  C   UNL     1     147.429 140.967 136.883  1.00  0.00     0.138 A 
ATOM      2  C   UNL     1     146.863 139.724 136.571  1.00  0.00     0.100 A 
ATOM      3  C   UNL     1     145.474 139.583 136.557  1.00  0.00     0.197 A 
ATOM      4  O   UNL     1     144.996 138.441 136.335  1.00  0.00    -0.289 OA
ATOM      5  C   UNL     1     144.650 140.701 136.828  1.00  0.00     0.107 A 
ATOM      6  C   UNL     1     143.224 140.685 136.803  1.00  0.00     0.134 A 
ATOM      7  C   UNL     1     142.513 141.825 137.202  1.00  0.00     0.093 A 
ATOM      8  C   UNL     1     143.176 142.997 137.566  1.00  0.00     0.123 A 
ATOM      9  C   UNL     1     144.570 143.040 137.543  1.00  0.00     0.094 A 
ATOM     10  C   UNL     1     145.308 141.910 137.183  1.00  0.00     0.146 A 
ATOM     11  O   UNL     1     146.635 141.988 137.187  1.00  0.00    -0.456 OA
ENDROOT
BRANCH   1  12
ATOM     12  C   UNL     1     148.900 141.174 136.911  1.00  0.00     0.021 A 
ATOM     13  C   UNL     1     149.582 141.465 138.106  1.00  0.00     0.016 A 
ATOM     14  C   UNL     1     150.967 141.645 138.103  1.00  0.00     0.051 A 
ATOM     15  C   UNL     1     151.701 141.531 136.918  1.00  0.00     0.157 A 
ATOM     16  C   UNL     1     149.640 141.047 135.723  1.00  0.00     0.062 A 
ATOM     17  C   UNL     1     151.029 141.226 135.712  1.00  0.00     0.158 A 
BRANCH  15  18
ATOM     18  O   UNL     1     153.082 141.725 136.985  1.00  0.00    -0.504 OA
ATOM     19  H   UNL     1     153.731 141.044 137.355  1.00  0.00     0.293 HD
ENDBRANCH  15  18
BRANCH  17  20
ATOM     20  O   UNL     1     151.694 141.092 134.492  1.00  0.00    -0.504 OA
ATOM     21  H   UNL     1     151.513 140.353 133.828  1.00  0.00     0.293 HD
ENDBRANCH  17  20
ENDBRANCH   1  12
BRANCH   6  22
ATOM     22  O   UNL     1     142.462 139.594 136.374  1.00  0.00    -0.507 OA
ATOM     23  H   UNL     1     141.686 139.197 136.883  1.00  0.00     0.293 HD
ENDBRANCH   6  22
BRANCH   8  24
ATOM     24  O   UNL     1     142.436 144.115 137.942  1.00  0.00    -0.508 OA
ATOM     25  H   UNL     1     141.637 144.428 137.402  1.00  0.00     0.293 HD
ENDBRANCH   8  24
TORSDOF 5
ENDMDL
MODEL 8
REMARK VINA RESULT:    -4.970      1.769      2.720
REMARK INTER + INTRA:          -6.104
REMARK INTER:                  -5.839
REMARK INTRA:                  -0.264
REMARK UNBOUND:                -0.263
REMARK SMILES O=c1cc(-c2ccc(O)c(O)c2)oc2cc(O)cc(O)c12
REMARK SMILES IDX 4 1 3 2 2 3 1 4 21 5 19 6 18 7 16 8 15 9 14 10 13 11 5 12
REMARK SMILES IDX 6 13 7 14 8 15 12 16 10 17 9 18 11 20 20 22 17 24
REMARK H PARENT 9 19 11 21 20 23 17 25
REMARK Flexibility Score: inf
ROOT
ATOM      1  C   UNL     1     151.695 147.372 136.823  1.00  0.00     0.138 A 
ATOM      2  C   UNL     1     152.946 146.820 136.516  1.00  0.00     0.100 A 
ATOM      3  C   UNL     1     153.102 145.433 136.492  1.00  0.00     0.197 A 
ATOM      4  O   UNL     1     154.249 144.968 136.275  1.00  0.00    -0.289 OA
ATOM      5  C   UNL     1     151.989 144.596 136.748  1.00  0.00     0.107 A 
ATOM      6  C   UNL     1     152.020 143.170 136.712  1.00  0.00     0.134 A 
ATOM      7  C   UNL     1     150.885 142.445 137.097  1.00  0.00     0.093 A 
ATOM      8  C   UNL     1     149.703 143.094 137.458  1.00  0.00     0.123 A 
ATOM      9  C   UNL     1     149.646 144.488 137.445  1.00  0.00     0.094 A 
ATOM     10  C   UNL     1     150.771 145.239 137.099  1.00  0.00     0.146 A 
ATOM     11  O   UNL     1     150.680 146.565 137.113  1.00  0.00    -0.456 OA
ENDROOT
BRANCH   1  12
ATOM     12  C   UNL     1     151.474 148.841 136.860  1.00  0.00     0.021 A 
ATOM     13  C   UNL     1     151.222 149.519 138.066  1.00  0.00     0.016 A 
ATOM     14  C   UNL     1     151.027 150.902 138.072  1.00  0.00     0.051 A 
ATOM     15  C   UNL     1     151.087 151.637 136.884  1.00  0.00     0.157 A 
ATOM     16  C   UNL     1     151.547 149.583 135.669  1.00  0.00     0.062 A 
ATOM     17  C   UNL     1     151.352 150.969 135.666  1.00  0.00     0.158 A 
BRANCH  15  18
ATOM     18  O   UNL     1     150.881 153.016 136.960  1.00  0.00    -0.504 OA
ATOM     19  H   UNL     1     150.495 153.572 136.209  1.00  0.00     0.293 HD
ENDBRANCH  15  18
BRANCH  17  20
ATOM     20  O   UNL     1     151.431 151.636 134.443  1.00  0.00    -0.504 OA
ATOM     21  H   UNL     1     150.931 151.355 133.613  1.00  0.00     0.293 HD
ENDBRANCH  17  20
ENDBRANCH   1  12
BRANCH   6  22
ATOM     22  O   UNL     1     153.121 142.423 136.286  1.00  0.00    -0.507 OA
ATOM     23  H   UNL     1     154.022 142.413 136.740  1.00  0.00     0.293 HD
ENDBRANCH   6  22
BRANCH   8  24
ATOM     24  O   UNL     1     148.590 142.340 137.819  1.00  0.00    -0.508 OA
ATOM     25  H   UNL     1     148.460 141.392 137.485  1.00  0.00     0.293 HD
ENDBRANCH   8  24
TORSDOF 5
ENDMDL
MODEL 9
REMARK VINA RESULT:    -4.960      3.178      7.429
REMARK INTER + INTRA:          -6.092
REMARK INTER:                  -5.799
REMARK INTRA:                  -0.293
REMARK UNBOUND:                -0.263
REMARK SMILES O=c1cc(-c2ccc(O)c(O)c2)oc2cc(O)cc(O)c12
REMARK SMILES IDX 4 1 3 2 2 3 1 4 21 5 19 6 18 7 16 8 15 9 14 10 13 11 5 12
REMARK SMILES IDX 6 13 7 14 8 15 12 16 10 17 9 18 11 20 20 22 17 24
REMARK H PARENT 9 19 11 21 20 23 17 25
REMARK Flexibility Score: inf
ROOT
ATOM      1  C   UNL     1     151.742 147.114 136.589  1.00  0.00     0.138 A 
ATOM      2  C   UNL     1     150.475 146.688 137.009  1.00  0.00     0.100 A 
ATOM      3  C   UNL     1     149.496 147.634 137.319  1.00  0.00     0.197 A 
ATOM      4  O   UNL     1     148.390 147.223 137.753  1.00  0.00    -0.289 OA
ATOM      5  C   UNL     1     149.781 149.013 137.177  1.00  0.00     0.107 A 
ATOM      6  C   UNL     1     148.850 150.065 137.425  1.00  0.00     0.134 A 
ATOM      7  C   UNL     1     149.280 151.396 137.363  1.00  0.00     0.093 A 
ATOM      8  C   UNL     1     150.589 151.715 137.004  1.00  0.00     0.123 A 
ATOM      9  C   UNL     1     151.494 150.695 136.707  1.00  0.00     0.094 A 
ATOM     10  C   UNL     1     151.105 149.357 136.793  1.00  0.00     0.146 A 
ATOM     11  O   UNL     1     152.001 148.415 136.516  1.00  0.00    -0.456 OA
ENDROOT
BRANCH   1  12
ATOM     12  C   UNL     1     152.819 146.150 136.245  1.00  0.00     0.021 A 
ATOM     13  C   UNL     1     154.162 146.554 136.132  1.00  0.00     0.016 A 
ATOM     14  C   UNL     1     155.155 145.624 135.817  1.00  0.00     0.051 A 
ATOM     15  C   UNL     1     154.837 144.277 135.617  1.00  0.00     0.157 A 
ATOM     16  C   UNL     1     152.502 144.794 136.058  1.00  0.00     0.062 A 
ATOM     17  C   UNL     1     153.492 143.856 135.741  1.00  0.00     0.158 A 
BRANCH  15  18
ATOM     18  O   UNL     1     155.877 143.401 135.303  1.00  0.00    -0.504 OA
ATOM     19  H   UNL     1     156.839 143.544 135.577  1.00  0.00     0.293 HD
ENDBRANCH  15  18
BRANCH  17  20
ATOM     20  O   UNL     1     153.099 142.528 135.562  1.00  0.00    -0.504 OA
ATOM     21  H   UNL     1     153.648 141.838 135.071  1.00  0.00     0.293 HD
ENDBRANCH  17  20
ENDBRANCH   1  12
BRANCH   6  22
ATOM     22  O   UNL     1     147.497 149.859 137.709  1.00  0.00    -0.507 OA
ATOM     23  H   UNL     1     146.874 150.557 138.088  1.00  0.00     0.293 HD
ENDBRANCH   6  22
BRANCH   8  24
ATOM     24  O   UNL     1     150.977 153.051 136.937  1.00  0.00    -0.508 OA
ATOM     25  H   UNL     1     151.001 153.637 137.763  1.00  0.00     0.293 HD
ENDBRANCH   8  24
TORSDOF 5
ENDMDL
