MODEL 1
REMARK VINA RESULT:    -4.498      0.000      0.000
REMARK INTER + INTRA:          -5.567
REMARK INTER:                  -5.287
REMARK INTRA:                  -0.280
REMARK UNBOUND:                -0.280
REMARK SMILES O=c1c(O)c(-c2ccc(O)cc2)oc2cc(O)cc(O)c12
REMARK SMILES IDX 5 1 3 2 2 3 1 4 21 5 19 6 18 7 16 8 15 9 14 10 13 11 6 12
REMARK SMILES IDX 7 13 8 14 9 15 12 16 11 17 10 18 4 20 20 22 17 24
REMARK H PARENT 10 19 4 21 20 23 17 25
REMARK Flexibility Score: inf
ROOT
ATOM      1  C   UNL     1      13.523  -4.317  20.850  1.00  0.00     0.180 A 
ATOM      2  C   UNL     1      13.516  -5.519  20.121  1.00  0.00     0.208 A 
ATOM      3  C   UNL     1      14.484  -6.496  20.408  1.00  0.00     0.238 A 
ATOM      4  O   UNL     1      14.439  -7.592  19.790  1.00  0.00    -0.285 OA
ATOM      5  C   UNL     1      15.454  -6.252  21.409  1.00  0.00     0.111 A 
ATOM      6  C   UNL     1      16.506  -7.154  21.755  1.00  0.00     0.134 A 
ATOM      7  C   UNL     1      17.330  -6.866  22.850  1.00  0.00     0.093 A 
ATOM      8  C   UNL     1      17.184  -5.682  23.569  1.00  0.00     0.123 A 
ATOM      9  C   UNL     1      16.198  -4.764  23.202  1.00  0.00     0.094 A 
ATOM     10  C   UNL     1      15.337  -5.040  22.137  1.00  0.00     0.146 A 
ATOM     11  O   UNL     1      14.406  -4.146  21.827  1.00  0.00    -0.452 OA
ENDROOT
BRANCH   1  12
ATOM     12  C   UNL     1      12.552  -3.232  20.588  1.00  0.00     0.021 A 
ATOM     13  C   UNL     1      12.876  -2.140  19.762  1.00  0.00     0.016 A 
ATOM     14  C   UNL     1      11.951  -1.113  19.549  1.00  0.00     0.047 A 
ATOM     15  C   UNL     1      10.695  -1.158  20.168  1.00  0.00     0.115 A 
ATOM     16  C   UNL     1      11.297  -3.258  21.220  1.00  0.00     0.016 A 
ATOM     17  C   UNL     1      10.373  -2.231  21.004  1.00  0.00     0.047 A 
BRANCH  15  18
ATOM     18  O   UNL     1       9.764  -0.143  19.962  1.00  0.00    -0.508 OA
ATOM     19  H   UNL     1       9.712   0.357  19.081  1.00  0.00     0.293 HD
ENDBRANCH  15  18
ENDBRANCH   1  12
BRANCH   2  20
ATOM     20  O   UNL     1      12.535  -5.749  19.152  1.00  0.00    -0.502 OA
ATOM     21  H   UNL     1      12.742  -5.760  18.160  1.00  0.00     0.293 HD
ENDBRANCH   2  20
BRANCH   6  22
ATOM     22  O   UNL     1      16.797  -8.322  21.045  1.00  0.00    -0.507 OA
ATOM     23  H   UNL     1      16.179  -9.115  20.964  1.00  0.00     0.293 HD
ENDBRANCH   6  22
BRANCH   8  24
ATOM     24  O   UNL     1      18.032  -5.420  24.643  1.00  0.00    -0.508 OA
ATOM     25  H   UNL     1      18.670  -6.124  25.000  1.00  0.00     0.293 HD
ENDBRANCH   8  24
TORSDOF 5
ENDMDL
MODEL 2
REMARK VINA RESULT:    -4.400      0.984      1.109
REMARK INTER + INTRA:          -5.452
REMARK INTER:                  -5.278
REMARK INTRA:                  -0.174
REMARK UNBOUND:                -0.280
REMARK SMILES O=c1c(O)c(-c2ccc(O)cc2)oc2cc(O)cc(O)c12
REMARK SMILES IDX 5 1 3 2 2 3 1 4 21 5 19 6 18 7 16 8 15 9 14 10 13 11 6 12
REMARK SMILES IDX 7 13 8 14 9 15 12 16 11 17 10 18 4 20 20 22 17 24
REMARK H PARENT 10 19 4 21 20 23 17 25
REMARK Flexibility Score: inf
ROOT
ATOM      1  C   UNL     1      13.227  -4.776  20.531  1.00  0.00     0.180 A 
ATOM      2  C   UNL     1      12.780  -5.994  19.989  1.00  0.00     0.208 A 
ATOM      3  C   UNL     1      13.578  -7.140  20.137  1.00  0.00     0.238 A 
ATOM      4  O   UNL     1      13.147  -8.238  19.698  1.00  0.00    -0.285 OA
ATOM      5  C   UNL     1      14.819  -7.051  20.812  1.00  0.00     0.111 A 
ATOM      6  C   UNL     1      15.726  -8.139  20.986  1.00  0.00     0.134 A 
ATOM      7  C   UNL     1      16.865  -7.968  21.784  1.00  0.00     0.093 A 
ATOM      8  C   UNL     1      17.163  -6.734  22.358  1.00  0.00     0.123 A 
ATOM      9  C   UNL     1      16.313  -5.646  22.145  1.00  0.00     0.094 A 
ATOM     10  C   UNL     1      15.151  -5.796  21.384  1.00  0.00     0.146 A 
ATOM     11  O   UNL     1      14.365  -4.740  21.215  1.00  0.00    -0.452 OA
ENDROOT
BRANCH   1  12
ATOM     12  C   UNL     1      12.454  -3.522  20.393  1.00  0.00     0.021 A 
ATOM     13  C   UNL     1      12.916  -2.459  19.595  1.00  0.00     0.016 A 
ATOM     14  C   UNL     1      12.180  -1.274  19.500  1.00  0.00     0.047 A 
ATOM     15  C   UNL     1      10.981  -1.130  20.210  1.00  0.00     0.115 A 
ATOM     16  C   UNL     1      11.261  -3.361  21.117  1.00  0.00     0.016 A 
ATOM     17  C   UNL     1      10.526  -2.176  21.019  1.00  0.00     0.047 A 
BRANCH  15  18
ATOM     18  O   UNL     1      10.239   0.044  20.121  1.00  0.00    -0.508 OA
ATOM     19  H   UNL     1      10.688   0.953  20.074  1.00  0.00     0.293 HD
ENDBRANCH  15  18
ENDBRANCH   1  12
BRANCH   2  20
ATOM     20  O   UNL     1      11.541  -6.065  19.345  1.00  0.00    -0.502 OA
ATOM     21  H   UNL     1      11.341  -5.557  18.492  1.00  0.00     0.293 HD
ENDBRANCH   2  20
BRANCH   6  22
ATOM     22  O   UNL     1      15.571  -9.389  20.381  1.00  0.00    -0.507 OA
ATOM     23  H   UNL     1      16.212 -10.162  20.483  1.00  0.00     0.293 HD
ENDBRANCH   6  22
BRANCH   8  24
ATOM     24  O   UNL     1      18.313  -6.595  23.133  1.00  0.00    -0.508 OA
ATOM     25  H   UNL     1      19.025  -7.317  23.160  1.00  0.00     0.293 HD
ENDBRANCH   8  24
TORSDOF 5
ENDMDL
MODEL 3
REMARK VINA RESULT:    -4.377     12.242     15.207
REMARK INTER + INTRA:          -5.424
REMARK INTER:                  -5.260
REMARK INTRA:                  -0.164
REMARK UNBOUND:                -0.280
REMARK SMILES O=c1c(O)c(-c2ccc(O)cc2)oc2cc(O)cc(O)c12
REMARK SMILES IDX 5 1 3 2 2 3 1 4 21 5 19 6 18 7 16 8 15 9 14 10 13 11 6 12
REMARK SMILES IDX 7 13 8 14 9 15 12 16 11 17 10 18 4 20 20 22 17 24
REMARK H PARENT 10 19 4 21 20 23 17 25
REMARK Flexibility Score: inf
ROOT
ATOM      1  C   UNL     1      13.021   8.778  17.783  1.00  0.00     0.180 A 
ATOM      2  C   UNL     1      11.772   8.837  17.141  1.00  0.00     0.208 A 
ATOM      3  C   UNL     1      11.721   9.167  15.777  1.00  0.00     0.238 A 
ATOM      4  O   UNL     1      10.605   9.164  15.195  1.00  0.00    -0.285 OA
ATOM      5  C   UNL     1      12.918   9.448  15.076  1.00  0.00     0.111 A 
ATOM      6  C   UNL     1      12.982   9.832  13.702  1.00  0.00     0.134 A 
ATOM      7  C   UNL     1      14.229   9.959  13.078  1.00  0.00     0.093 A 
ATOM      8  C   UNL     1      15.413   9.781  13.791  1.00  0.00     0.123 A 
ATOM      9  C   UNL     1      15.363   9.463  15.150  1.00  0.00     0.094 A 
ATOM     10  C   UNL     1      14.133   9.294  15.792  1.00  0.00     0.146 A 
ATOM     11  O   UNL     1      14.130   8.983  17.081  1.00  0.00    -0.452 OA
ENDROOT
BRANCH   1  12
ATOM     12  C   UNL     1      13.152   8.462  19.222  1.00  0.00     0.021 A 
ATOM     13  C   UNL     1      13.601   9.423  20.147  1.00  0.00     0.016 A 
ATOM     14  C   UNL     1      13.741   9.093  21.499  1.00  0.00     0.047 A 
ATOM     15  C   UNL     1      13.447   7.797  21.942  1.00  0.00     0.115 A 
ATOM     16  C   UNL     1      12.879   7.159  19.673  1.00  0.00     0.016 A 
ATOM     17  C   UNL     1      13.019   6.833  21.025  1.00  0.00     0.047 A 
BRANCH  15  18
ATOM     18  O   UNL     1      13.581   7.458  23.285  1.00  0.00    -0.508 OA
ATOM     19  H   UNL     1      14.200   7.973  23.903  1.00  0.00     0.293 HD
ENDBRANCH  15  18
ENDBRANCH   1  12
BRANCH   2  20
ATOM     20  O   UNL     1      10.604   8.534  17.846  1.00  0.00    -0.502 OA
ATOM     21  H   UNL     1       9.687   8.837  17.537  1.00  0.00     0.293 HD
ENDBRANCH   2  20
BRANCH   6  22
ATOM     22  O   UNL     1      11.860  10.125  12.921  1.00  0.00    -0.507 OA
ATOM     23  H   UNL     1      11.890  10.398  11.951  1.00  0.00     0.293 HD
ENDBRANCH   6  22
BRANCH   8  24
ATOM     24  O   UNL     1      16.636   9.930  13.141  1.00  0.00    -0.508 OA
ATOM     25  H   UNL     1      17.514   9.744  13.613  1.00  0.00     0.293 HD
ENDBRANCH   8  24
TORSDOF 5
ENDMDL
MODEL 4
REMARK VINA RESULT:    -4.239      4.643      6.477
REMARK INTER + INTRA:          -5.263
REMARK INTER:                  -4.978
REMARK INTRA:                  -0.285
REMARK UNBOUND:                -0.280
REMARK SMILES O=c1c(O)c(-c2ccc(O)cc2)oc2cc(O)cc(O)c12
REMARK SMILES IDX 5 1 3 2 2 3 1 4 21 5 19 6 18 7 16 8 15 9 14 10 13 11 6 12
REMARK SMILES IDX 7 13 8 14 9 15 12 16 11 17 10 18 4 20 20 22 17 24
REMARK H PARENT 10 19 4 21 20 23 17 25
REMARK Flexibility Score: inf
ROOT
ATOM      1  C   UNL     1       9.916  -7.367  21.218  1.00  0.00     0.180 A 
ATOM      2  C   UNL     1      11.006  -8.027  20.626  1.00  0.00     0.208 A 
ATOM      3  C   UNL     1      12.056  -7.265  20.088  1.00  0.00     0.238 A 
ATOM      4  O   UNL     1      13.054  -7.863  19.609  1.00  0.00    -0.285 OA
ATOM      5  C   UNL     1      11.994  -5.852  20.135  1.00  0.00     0.111 A 
ATOM      6  C   UNL     1      12.981  -4.979  19.586  1.00  0.00     0.134 A 
ATOM      7  C   UNL     1      12.882  -3.599  19.805  1.00  0.00     0.093 A 
ATOM      8  C   UNL     1      11.800  -3.055  20.496  1.00  0.00     0.123 A 
ATOM      9  C   UNL     1      10.798  -3.895  20.986  1.00  0.00     0.094 A 
ATOM     10  C   UNL     1      10.888  -5.279  20.814  1.00  0.00     0.146 A 
ATOM     11  O   UNL     1       9.919  -6.042  21.304  1.00  0.00    -0.452 OA
ENDROOT
BRANCH   1  12
ATOM     12  C   UNL     1       8.762  -8.102  21.782  1.00  0.00     0.021 A 
ATOM     13  C   UNL     1       7.592  -8.321  21.032  1.00  0.00     0.016 A 
ATOM     14  C   UNL     1       6.506  -8.996  21.595  1.00  0.00     0.047 A 
ATOM     15  C   UNL     1       6.568  -9.450  22.919  1.00  0.00     0.115 A 
ATOM     16  C   UNL     1       8.808  -8.542  23.116  1.00  0.00     0.016 A 
ATOM     17  C   UNL     1       7.720  -9.218  23.677  1.00  0.00     0.047 A 
BRANCH  15  18
ATOM     18  O   UNL     1       5.493 -10.125  23.491  1.00  0.00    -0.508 OA
ATOM     19  H   UNL     1       4.845 -10.663  22.926  1.00  0.00     0.293 HD
ENDBRANCH  15  18
ENDBRANCH   1  12
BRANCH   2  20
ATOM     20  O   UNL     1      11.058  -9.424  20.609  1.00  0.00    -0.502 OA
ATOM     21  H   UNL     1      10.345  -9.990  20.163  1.00  0.00     0.293 HD
ENDBRANCH   2  20
BRANCH   6  22
ATOM     22  O   UNL     1      14.054  -5.410  18.801  1.00  0.00    -0.507 OA
ATOM     23  H   UNL     1      14.178  -5.188  17.824  1.00  0.00     0.293 HD
ENDBRANCH   6  22
BRANCH   8  24
ATOM     24  O   UNL     1      11.726  -1.677  20.682  1.00  0.00    -0.508 OA
ATOM     25  H   UNL     1      11.678  -1.037  19.897  1.00  0.00     0.293 HD
ENDBRANCH   8  24
TORSDOF 5
ENDMDL
MODEL 5
REMARK VINA RESULT:    -4.161      3.280      5.027
REMARK INTER + INTRA:          -5.171
REMARK INTER:                  -5.666
REMARK INTRA:                   0.494
REMARK UNBOUND:                -0.280
REMARK SMILES O=c1c(O)c(-c2ccc(O)cc2)oc2cc(O)cc(O)c12
REMARK SMILES IDX 5 1 3 2 2 3 1 4 21 5 19 6 18 7 16 8 15 9 14 10 13 11 6 12
REMARK SMILES IDX 7 13 8 14 9 15 12 16 11 17 10 18 4 20 20 22 17 24
REMARK H PARENT 10 19 4 21 20 23 17 25
REMARK Flexibility Score: inf
ROOT
ATOM      1  C   UNL     1      11.276  -4.902  20.546  1.00  0.00     0.180 A 
ATOM      2  C   UNL     1      12.371  -5.678  20.129  1.00  0.00     0.208 A 
ATOM      3  C   UNL     1      12.261  -7.077  20.146  1.00  0.00     0.238 A 
ATOM      4  O   UNL     1      13.225  -7.765  19.720  1.00  0.00    -0.285 OA
ATOM      5  C   UNL     1      11.064  -7.684  20.595  1.00  0.00     0.111 A 
ATOM      6  C   UNL     1      10.856  -9.093  20.693  1.00  0.00     0.134 A 
ATOM      7  C   UNL     1       9.586  -9.582  21.026  1.00  0.00     0.093 A 
ATOM      8  C   UNL     1       8.537  -8.716  21.328  1.00  0.00     0.123 A 
ATOM      9  C   UNL     1       8.746  -7.336  21.294  1.00  0.00     0.094 A 
ATOM     10  C   UNL     1       9.991  -6.817  20.930  1.00  0.00     0.146 A 
ATOM     11  O   UNL     1      10.144  -5.500  20.900  1.00  0.00    -0.452 OA
ENDROOT
BRANCH   1  12
ATOM     12  C   UNL     1      11.325  -3.423  20.580  1.00  0.00     0.021 A 
ATOM     13  C   UNL     1      12.434  -2.714  20.081  1.00  0.00     0.016 A 
ATOM     14  C   UNL     1      12.469  -1.318  20.146  1.00  0.00     0.047 A 
ATOM     15  C   UNL     1      11.404  -0.613  20.722  1.00  0.00     0.115 A 
ATOM     16  C   UNL     1      10.272  -2.708  21.174  1.00  0.00     0.016 A 
ATOM     17  C   UNL     1      10.309  -1.312  21.237  1.00  0.00     0.047 A 
BRANCH  15  18
ATOM     18  O   UNL     1      11.427   0.778  20.791  1.00  0.00    -0.508 OA
ATOM     19  H   UNL     1      10.668   1.339  20.420  1.00  0.00     0.293 HD
ENDBRANCH  15  18
ENDBRANCH   1  12
BRANCH   2  20
ATOM     20  O   UNL     1      13.537  -5.059  19.669  1.00  0.00    -0.502 OA
ATOM     21  H   UNL     1      13.909  -4.216  20.090  1.00  0.00     0.293 HD
ENDBRANCH   2  20
BRANCH   6  22
ATOM     22  O   UNL     1      11.861 -10.044  20.502  1.00  0.00    -0.507 OA
ATOM     23  H   UNL     1      12.669  -9.917  19.911  1.00  0.00     0.293 HD
ENDBRANCH   6  22
BRANCH   8  24
ATOM     24  O   UNL     1       7.292  -9.238  21.671  1.00  0.00    -0.508 OA
ATOM     25  H   UNL     1       6.661  -8.742  22.291  1.00  0.00     0.293 HD
ENDBRANCH   8  24
TORSDOF 5
ENDMDL
MODEL 6
REMARK VINA RESULT:    -4.130     11.991     13.953
REMARK INTER + INTRA:          -5.134
REMARK INTER:                  -5.341
REMARK INTRA:                   0.207
REMARK UNBOUND:                -0.280
REMARK SMILES O=c1c(O)c(-c2ccc(O)cc2)oc2cc(O)cc(O)c12
REMARK SMILES IDX 5 1 3 2 2 3 1 4 21 5 19 6 18 7 16 8 15 9 14 10 13 11 6 12
REMARK SMILES IDX 7 13 8 14 9 15 12 16 11 17 10 18 4 20 20 22 17 24
REMARK H PARENT 10 19 4 21 20 23 17 25
REMARK Flexibility Score: inf
ROOT
ATOM      1  C   UNL     1      13.905   8.161  22.266  1.00  0.00     0.180 A 
ATOM      2  C   UNL     1      12.653   8.100  22.903  1.00  0.00     0.208 A 
ATOM      3  C   UNL     1      11.537   7.659  22.173  1.00  0.00     0.238 A 
ATOM      4  O   UNL     1      10.431   7.555  22.764  1.00  0.00    -0.285 OA
ATOM      5  C   UNL     1      11.684   7.299  20.812  1.00  0.00     0.111 A 
ATOM      6  C   UNL     1      10.615   6.876  19.966  1.00  0.00     0.134 A 
ATOM      7  C   UNL     1      10.898   6.419  18.672  1.00  0.00     0.093 A 
ATOM      8  C   UNL     1      12.199   6.431  18.173  1.00  0.00     0.123 A 
ATOM      9  C   UNL     1      13.245   6.899  18.971  1.00  0.00     0.094 A 
ATOM     10  C   UNL     1      12.999   7.327  20.279  1.00  0.00     0.146 A 
ATOM     11  O   UNL     1      14.022   7.754  21.008  1.00  0.00    -0.452 OA
ENDROOT
BRANCH   1  12
ATOM     12  C   UNL     1      15.120   8.639  22.963  1.00  0.00     0.021 A 
ATOM     13  C   UNL     1      15.062   9.673  23.916  1.00  0.00     0.016 A 
ATOM     14  C   UNL     1      16.227  10.125  24.542  1.00  0.00     0.047 A 
ATOM     15  C   UNL     1      17.466   9.560  24.215  1.00  0.00     0.115 A 
ATOM     16  C   UNL     1      16.370   8.093  22.626  1.00  0.00     0.016 A 
ATOM     17  C   UNL     1      17.534   8.546  23.255  1.00  0.00     0.047 A 
BRANCH  15  18
ATOM     18  O   UNL     1      18.633  10.001  24.834  1.00  0.00    -0.508 OA
ATOM     19  H   UNL     1      19.502  10.097  24.319  1.00  0.00     0.293 HD
ENDBRANCH  15  18
ENDBRANCH   1  12
BRANCH   2  20
ATOM     20  O   UNL     1      12.534   8.440  24.254  1.00  0.00    -0.502 OA
ATOM     21  H   UNL     1      12.026   7.866  24.917  1.00  0.00     0.293 HD
ENDBRANCH   2  20
BRANCH   6  22
ATOM     22  O   UNL     1       9.268   6.911  20.335  1.00  0.00    -0.507 OA
ATOM     23  H   UNL     1       8.495   6.928  19.687  1.00  0.00     0.293 HD
ENDBRANCH   6  22
BRANCH   8  24
ATOM     24  O   UNL     1      12.442   5.984  16.876  1.00  0.00    -0.508 OA
ATOM     25  H   UNL     1      13.034   6.503  16.237  1.00  0.00     0.293 HD
ENDBRANCH   8  24
TORSDOF 5
ENDMDL
MODEL 7
REMARK VINA RESULT:    -4.089     13.240     14.481
REMARK INTER + INTRA:          -5.086
REMARK INTER:                  -4.787
REMARK INTRA:                  -0.299
REMARK UNBOUND:                -0.280
REMARK SMILES O=c1c(O)c(-c2ccc(O)cc2)oc2cc(O)cc(O)c12
REMARK SMILES IDX 5 1 3 2 2 3 1 4 21 5 19 6 18 7 16 8 15 9 14 10 13 11 6 12
REMARK SMILES IDX 7 13 8 14 9 15 12 16 11 17 10 18 4 20 20 22 17 24
REMARK H PARENT 10 19 4 21 20 23 17 25
REMARK Flexibility Score: inf
ROOT
ATOM      1  C   UNL     1      11.974   8.237  25.744  1.00  0.00     0.180 A 
ATOM      2  C   UNL     1      10.678   8.712  26.007  1.00  0.00     0.208 A 
ATOM      3  C   UNL     1      10.050   8.350  27.210  1.00  0.00     0.238 A 
ATOM      4  O   UNL     1       8.912   8.823  27.465  1.00  0.00    -0.285 OA
ATOM      5  C   UNL     1      10.720   7.506  28.127  1.00  0.00     0.111 A 
ATOM      6  C   UNL     1      10.164   7.043  29.358  1.00  0.00     0.134 A 
ATOM      7  C   UNL     1      10.966   6.318  30.249  1.00  0.00     0.093 A 
ATOM      8  C   UNL     1      12.280   5.983  29.926  1.00  0.00     0.123 A 
ATOM      9  C   UNL     1      12.815   6.380  28.699  1.00  0.00     0.094 A 
ATOM     10  C   UNL     1      12.051   7.135  27.805  1.00  0.00     0.146 A 
ATOM     11  O   UNL     1      12.601   7.501  26.654  1.00  0.00    -0.452 OA
ENDROOT
BRANCH   1  12
ATOM     12  C   UNL     1      12.689   8.555  24.488  1.00  0.00     0.021 A 
ATOM     13  C   UNL     1      12.540   7.761  23.337  1.00  0.00     0.016 A 
ATOM     14  C   UNL     1      13.245   8.066  22.169  1.00  0.00     0.047 A 
ATOM     15  C   UNL     1      14.119   9.161  22.140  1.00  0.00     0.115 A 
ATOM     16  C   UNL     1      13.583   9.639  24.456  1.00  0.00     0.016 A 
ATOM     17  C   UNL     1      14.287   9.943  23.287  1.00  0.00     0.047 A 
BRANCH  15  18
ATOM     18  O   UNL     1      14.825   9.476  20.983  1.00  0.00    -0.508 OA
ATOM     19  H   UNL     1      14.392   9.984  20.219  1.00  0.00     0.293 HD
ENDBRANCH  15  18
ENDBRANCH   1  12
BRANCH   2  20
ATOM     20  O   UNL     1      10.042   9.563  25.098  1.00  0.00    -0.502 OA
ATOM     21  H   UNL     1      10.309  10.533  24.982  1.00  0.00     0.293 HD
ENDBRANCH   2  20
BRANCH   6  22
ATOM     22  O   UNL     1       8.834   7.243  29.737  1.00  0.00    -0.507 OA
ATOM     23  H   UNL     1       8.322   8.102  29.608  1.00  0.00     0.293 HD
ENDBRANCH   6  22
BRANCH   8  24
ATOM     24  O   UNL     1      13.044   5.247  30.829  1.00  0.00    -0.508 OA
ATOM     25  H   UNL     1      13.906   4.793  30.549  1.00  0.00     0.293 HD
ENDBRANCH   8  24
TORSDOF 5
ENDMDL
MODEL 8
REMARK VINA RESULT:    -3.996      8.074     12.777
REMARK INTER + INTRA:          -4.977
REMARK INTER:                  -4.680
REMARK INTRA:                  -0.298
REMARK UNBOUND:                -0.280
REMARK SMILES O=c1c(O)c(-c2ccc(O)cc2)oc2cc(O)cc(O)c12
REMARK SMILES IDX 5 1 3 2 2 3 1 4 21 5 19 6 18 7 16 8 15 9 14 10 13 11 6 12
REMARK SMILES IDX 7 13 8 14 9 15 12 16 11 17 10 18 4 20 20 22 17 24
REMARK H PARENT 10 19 4 21 20 23 17 25
REMARK Flexibility Score: inf
ROOT
ATOM      1  C   UNL     1       8.595   0.506  14.352  1.00  0.00     0.180 A 
ATOM      2  C   UNL     1       7.622   0.405  15.362  1.00  0.00     0.208 A 
ATOM      3  C   UNL     1       6.498   1.246  15.313  1.00  0.00     0.238 A 
ATOM      4  O   UNL     1       5.604   1.112  16.189  1.00  0.00    -0.285 OA
ATOM      5  C   UNL     1       6.369   2.188  14.264  1.00  0.00     0.111 A 
ATOM      6  C   UNL     1       5.293   3.117  14.138  1.00  0.00     0.134 A 
ATOM      7  C   UNL     1       5.201   3.914  12.989  1.00  0.00     0.093 A 
ATOM      8  C   UNL     1       6.177   3.863  11.997  1.00  0.00     0.123 A 
ATOM      9  C   UNL     1       7.266   3.001  12.139  1.00  0.00     0.094 A 
ATOM     10  C   UNL     1       7.367   2.167  13.256  1.00  0.00     0.146 A 
ATOM     11  O   UNL     1       8.412   1.355  13.348  1.00  0.00    -0.452 OA
ENDROOT
BRANCH   1  12
ATOM     12  C   UNL     1       9.817  -0.328  14.351  1.00  0.00     0.021 A 
ATOM     13  C   UNL     1      10.975   0.065  15.047  1.00  0.00     0.016 A 
ATOM     14  C   UNL     1      12.126  -0.728  15.010  1.00  0.00     0.047 A 
ATOM     15  C   UNL     1      12.140  -1.915  14.267  1.00  0.00     0.115 A 
ATOM     16  C   UNL     1       9.847  -1.510  13.591  1.00  0.00     0.016 A 
ATOM     17  C   UNL     1      10.999  -2.301  13.557  1.00  0.00     0.047 A 
BRANCH  15  18
ATOM     18  O   UNL     1      13.280  -2.714  14.224  1.00  0.00    -0.508 OA
ATOM     19  H   UNL     1      14.200  -2.316  14.064  1.00  0.00     0.293 HD
ENDBRANCH  15  18
ENDBRANCH   1  12
BRANCH   2  20
ATOM     20  O   UNL     1       7.757  -0.547  16.377  1.00  0.00    -0.502 OA
ATOM     21  H   UNL     1       8.094  -0.312  17.303  1.00  0.00     0.293 HD
ENDBRANCH   2  20
BRANCH   6  22
ATOM     22  O   UNL     1       4.313   3.314  15.114  1.00  0.00    -0.507 OA
ATOM     23  H   UNL     1       3.871   2.577  15.642  1.00  0.00     0.293 HD
ENDBRANCH   6  22
BRANCH   8  24
ATOM     24  O   UNL     1       6.062   4.681  10.875  1.00  0.00    -0.508 OA
ATOM     25  H   UNL     1       5.266   4.615  10.249  1.00  0.00     0.293 HD
ENDBRANCH   8  24
TORSDOF 5
ENDMDL
MODEL 9
REMARK VINA RESULT:    -3.904     12.372     14.212
REMARK INTER + INTRA:          -4.869
REMARK INTER:                  -4.638
REMARK INTRA:                  -0.231
REMARK UNBOUND:                -0.280
REMARK SMILES O=c1c(O)c(-c2ccc(O)cc2)oc2cc(O)cc(O)c12
REMARK SMILES IDX 5 1 3 2 2 3 1 4 21 5 19 6 18 7 16 8 15 9 14 10 13 11 6 12
REMARK SMILES IDX 7 13 8 14 9 15 12 16 11 17 10 18 4 20 20 22 17 24
REMARK H PARENT 10 19 4 21 20 23 17 25
REMARK Flexibility Score: inf
ROOT
ATOM      1  C   UNL     1      13.249   8.567  22.018  1.00  0.00     0.180 A 
ATOM      2  C   UNL     1      14.439   9.075  22.569  1.00  0.00     0.208 A 
ATOM      3  C   UNL     1      14.486   9.364  23.942  1.00  0.00     0.238 A 
ATOM      4  O   UNL     1      15.571   9.766  24.439  1.00  0.00    -0.285 OA
ATOM      5  C   UNL     1      13.339   9.157  24.744  1.00  0.00     0.111 A 
ATOM      6  C   UNL     1      13.261   9.453  26.139  1.00  0.00     0.134 A 
ATOM      7  C   UNL     1      12.117   9.086  26.860  1.00  0.00     0.093 A 
ATOM      8  C   UNL     1      11.026   8.495  26.227  1.00  0.00     0.123 A 
ATOM      9  C   UNL     1      11.068   8.255  24.852  1.00  0.00     0.094 A 
ATOM     10  C   UNL     1      12.209   8.577  24.112  1.00  0.00     0.146 A 
ATOM     11  O   UNL     1      12.212   8.323  22.810  1.00  0.00    -0.452 OA
ENDROOT
BRANCH   1  12
ATOM     12  C   UNL     1      13.116   8.263  20.576  1.00  0.00     0.021 A 
ATOM     13  C   UNL     1      13.019   9.287  19.615  1.00  0.00     0.016 A 
ATOM     14  C   UNL     1      12.868   8.974  18.261  1.00  0.00     0.047 A 
ATOM     15  C   UNL     1      12.799   7.637  17.850  1.00  0.00     0.115 A 
ATOM     16  C   UNL     1      13.025   6.925  20.157  1.00  0.00     0.016 A 
ATOM     17  C   UNL     1      12.876   6.616  18.801  1.00  0.00     0.047 A 
BRANCH  15  18
ATOM     18  O   UNL     1      12.651   7.314  16.504  1.00  0.00    -0.508 OA
ATOM     19  H   UNL     1      13.329   6.735  16.020  1.00  0.00     0.293 HD
ENDBRANCH  15  18
ENDBRANCH   1  12
BRANCH   2  20
ATOM     20  O   UNL     1      15.568   9.251  21.763  1.00  0.00    -0.502 OA
ATOM     21  H   UNL     1      15.823   8.597  21.032  1.00  0.00     0.293 HD
ENDBRANCH   2  20
BRANCH   6  22
ATOM     22  O   UNL     1      14.259  10.125  26.850  1.00  0.00    -0.507 OA
ATOM     23  H   UNL     1      14.619  11.037  26.614  1.00  0.00     0.293 HD
ENDBRANCH   6  22
BRANCH   8  24
ATOM     24  O   UNL     1       9.899   8.157  26.972  1.00  0.00    -0.508 OA
ATOM     25  H   UNL     1       8.963   8.376  26.649  1.00  0.00     0.293 HD
ENDBRANCH   8  24
TORSDOF 5
ENDMDL
