MODEL 1
REMARK VINA RESULT:    -4.344      0.000      0.000
REMARK INTER + INTRA:          -6.555
REMARK INTER:                  -5.867
REMARK INTRA:                  -0.688
REMARK UNBOUND:                -0.688
REMARK SMILES O=C[C@@H](O)[C@H](O)[C@@H](O)CO
REMARK SMILES IDX 7 1 9 2 10 3 5 5 3 6 2 7 1 8 4 9 6 11 8 13
REMARK H PARENT 10 4 4 10 6 12 8 14
REMARK Flexibility Score: inf
ROOT
ATOM      1  C   UNL     1       5.693 -12.730 -17.419  1.00  0.00     0.171 C 
ENDROOT
BRANCH   1   2
ATOM      2  C   UNL     1       6.714 -11.721 -17.972  1.00  0.00     0.190 C 
BRANCH   2   3
ATOM      3  O   UNL     1       7.883 -12.379 -18.382  1.00  0.00    -0.394 OA
ATOM      4  H   UNL     1       8.029 -13.129 -17.748  1.00  0.00     0.210 HD
ENDBRANCH   2   3
ENDBRANCH   1   2
BRANCH   1   5
ATOM      5  C   UNL     1       4.712 -13.191 -18.534  1.00  0.00     0.181 C 
BRANCH   5   6
ATOM      6  C   UNL     1       4.009 -14.550 -18.264  1.00  0.00     0.209 C 
BRANCH   6   7
ATOM      7  C   UNL     1       2.657 -14.688 -18.925  1.00  0.00     0.258 C 
ATOM      8  O   UNL     1       2.363 -13.996 -19.885  1.00  0.00    -0.300 OA
ENDBRANCH   6   7
BRANCH   6   9
ATOM      9  O   UNL     1       4.848 -15.626 -18.608  1.00  0.00    -0.383 OA
ATOM     10  H   UNL     1       5.777 -15.286 -18.676  1.00  0.00     0.211 HD
ENDBRANCH   6   9
ENDBRANCH   5   6
BRANCH   5  11
ATOM     11  O   UNL     1       5.323 -13.189 -19.802  1.00  0.00    -0.387 OA
ATOM     12  H   UNL     1       6.234 -13.567 -19.706  1.00  0.00     0.211 HD
ENDBRANCH   5  11
ENDBRANCH   1   5
BRANCH   1  13
ATOM     13  O   UNL     1       6.370 -13.835 -16.875  1.00  0.00    -0.388 OA
ATOM     14  H   UNL     1       5.792 -14.209 -16.159  1.00  0.00     0.211 HD
ENDBRANCH   1  13
TORSDOF 8
ENDMDL
MODEL 2
REMARK VINA RESULT:    -3.937      1.326      2.035
REMARK INTER + INTRA:          -6.005
REMARK INTER:                  -5.544
REMARK INTRA:                  -0.461
REMARK UNBOUND:                -0.688
REMARK SMILES O=C[C@@H](O)[C@H](O)[C@@H](O)CO
REMARK SMILES IDX 7 1 9 2 10 3 5 5 3 6 2 7 1 8 4 9 6 11 8 13
REMARK H PARENT 10 4 4 10 6 12 8 14
REMARK Flexibility Score: inf
ROOT
ATOM      1  C   UNL     1       6.832 -11.648 -17.815  1.00  0.00     0.171 C 
ENDROOT
BRANCH   1   2
ATOM      2  C   UNL     1       6.928 -10.204 -18.336  1.00  0.00     0.190 C 
BRANCH   2   3
ATOM      3  O   UNL     1       7.033  -9.303 -17.267  1.00  0.00    -0.394 OA
ATOM      4  H   UNL     1       6.388  -9.602 -16.573  1.00  0.00     0.210 HD
ENDBRANCH   2   3
ENDBRANCH   1   2
BRANCH   1   5
ATOM      5  C   UNL     1       5.553 -12.348 -18.357  1.00  0.00     0.181 C 
BRANCH   5   6
ATOM      6  C   UNL     1       5.026 -13.517 -17.480  1.00  0.00     0.209 C 
BRANCH   6   7
ATOM      7  C   UNL     1       3.910 -14.312 -18.116  1.00  0.00     0.258 C 
ATOM      8  O   UNL     1       4.157 -15.291 -18.800  1.00  0.00    -0.300 OA
ENDBRANCH   6   7
BRANCH   6   9
ATOM      9  O   UNL     1       6.079 -14.361 -17.082  1.00  0.00    -0.383 OA
ATOM     10  H   UNL     1       5.688 -15.172 -16.666  1.00  0.00     0.211 HD
ENDBRANCH   6   9
ENDBRANCH   5   6
BRANCH   5  11
ATOM     11  O   UNL     1       5.710 -12.760 -19.694  1.00  0.00    -0.387 OA
ATOM     12  H   UNL     1       5.205 -12.133 -20.272  1.00  0.00     0.211 HD
ENDBRANCH   5  11
ENDBRANCH   1   5
BRANCH   1  13
ATOM     13  O   UNL     1       7.981 -12.364 -18.196  1.00  0.00    -0.388 OA
ATOM     14  H   UNL     1       8.148 -12.160 -19.153  1.00  0.00     0.211 HD
ENDBRANCH   1  13
TORSDOF 8
ENDMDL
MODEL 3
REMARK VINA RESULT:    -3.792      1.673      2.679
REMARK INTER + INTRA:          -5.810
REMARK INTER:                  -5.522
REMARK INTRA:                  -0.288
REMARK UNBOUND:                -0.688
REMARK SMILES O=C[C@@H](O)[C@H](O)[C@@H](O)CO
REMARK SMILES IDX 7 1 9 2 10 3 5 5 3 6 2 7 1 8 4 9 6 11 8 13
REMARK H PARENT 10 4 4 10 6 12 8 14
REMARK Flexibility Score: inf
ROOT
ATOM      1  C   UNL     1       4.105 -14.513 -18.357  1.00  0.00     0.171 C 
ENDROOT
BRANCH   1   2
ATOM      2  C   UNL     1       4.712 -14.212 -16.976  1.00  0.00     0.190 C 
BRANCH   2   3
ATOM      3  O   UNL     1       6.111 -14.160 -17.054  1.00  0.00    -0.394 OA
ATOM      4  H   UNL     1       6.431 -15.098 -17.109  1.00  0.00     0.210 HD
ENDBRANCH   2   3
ENDBRANCH   1   2
BRANCH   1   5
ATOM      5  C   UNL     1       4.240 -13.284 -19.300  1.00  0.00     0.181 C 
BRANCH   5   6
ATOM      6  C   UNL     1       3.067 -13.099 -20.302  1.00  0.00     0.209 C 
BRANCH   6   7
ATOM      7  C   UNL     1       1.904 -14.036 -20.073  1.00  0.00     0.258 C 
ATOM      8  O   UNL     1       1.249 -14.453 -21.014  1.00  0.00    -0.300 OA
ENDBRANCH   6   7
BRANCH   6   9
ATOM      9  O   UNL     1       2.634 -11.760 -20.327  1.00  0.00    -0.383 OA
ATOM     10  H   UNL     1       1.643 -11.752 -20.290  1.00  0.00     0.211 HD
ENDBRANCH   6   9
ENDBRANCH   5   6
BRANCH   5  11
ATOM     11  O   UNL     1       5.477 -13.273 -19.972  1.00  0.00    -0.387 OA
ATOM     12  H   UNL     1       5.342 -12.851 -20.859  1.00  0.00     0.211 HD
ENDBRANCH   5  11
ENDBRANCH   1   5
BRANCH   1  13
ATOM     13  O   UNL     1       4.744 -15.633 -18.918  1.00  0.00    -0.388 OA
ATOM     14  H   UNL     1       5.688 -15.375 -19.089  1.00  0.00     0.211 HD
ENDBRANCH   1  13
TORSDOF 8
ENDMDL
MODEL 4
REMARK VINA RESULT:    -3.717      3.092      5.730
REMARK INTER + INTRA:          -5.709
REMARK INTER:                  -5.208
REMARK INTRA:                  -0.501
REMARK UNBOUND:                -0.688
REMARK SMILES O=C[C@@H](O)[C@H](O)[C@@H](O)CO
REMARK SMILES IDX 7 1 9 2 10 3 5 5 3 6 2 7 1 8 4 9 6 11 8 13
REMARK H PARENT 10 4 4 10 6 12 8 14
REMARK Flexibility Score: inf
ROOT
ATOM      1  C   UNL     1       7.163 -11.656 -18.259  1.00  0.00     0.171 C 
ENDROOT
BRANCH   1   2
ATOM      2  C   UNL     1       6.752 -12.222 -16.889  1.00  0.00     0.190 C 
BRANCH   2   3
ATOM      3  O   UNL     1       6.435 -13.584 -16.996  1.00  0.00    -0.394 OA
ATOM      4  H   UNL     1       5.522 -13.638 -17.382  1.00  0.00     0.210 HD
ENDBRANCH   2   3
ENDBRANCH   1   2
BRANCH   1   5
ATOM      5  C   UNL     1       7.388 -10.119 -18.176  1.00  0.00     0.181 C 
BRANCH   5   6
ATOM      6  C   UNL     1       8.816  -9.646 -18.567  1.00  0.00     0.209 C 
BRANCH   6   7
ATOM      7  C   UNL     1       8.877  -8.227 -19.082  1.00  0.00     0.258 C 
ATOM      8  O   UNL     1       8.255  -7.338 -18.524  1.00  0.00    -0.300 OA
ENDBRANCH   6   7
BRANCH   6   9
ATOM      9  O   UNL     1       9.716  -9.833 -17.501  1.00  0.00    -0.383 OA
ATOM     10  H   UNL     1       9.933 -10.799 -17.443  1.00  0.00     0.211 HD
ENDBRANCH   6   9
ENDBRANCH   5   6
BRANCH   5  11
ATOM     11  O   UNL     1       7.019  -9.604 -16.919  1.00  0.00    -0.387 OA
ATOM     12  H   UNL     1       6.891  -8.625 -17.012  1.00  0.00     0.211 HD
ENDBRANCH   5  11
ENDBRANCH   1   5
BRANCH   1  13
ATOM     13  O   UNL     1       8.332 -12.299 -18.703  1.00  0.00    -0.388 OA
ATOM     14  H   UNL     1       8.923 -11.598 -19.085  1.00  0.00     0.211 HD
ENDBRANCH   1  13
TORSDOF 8
ENDMDL
MODEL 5
REMARK VINA RESULT:    -3.706      2.214      4.931
REMARK INTER + INTRA:          -5.694
REMARK INTER:                  -5.034
REMARK INTRA:                  -0.660
REMARK UNBOUND:                -0.688
REMARK SMILES O=C[C@@H](O)[C@H](O)[C@@H](O)CO
REMARK SMILES IDX 7 1 9 2 10 3 5 5 3 6 2 7 1 8 4 9 6 11 8 13
REMARK H PARENT 10 4 4 10 6 12 8 14
REMARK Flexibility Score: inf
ROOT
ATOM      1  C   UNL     1       6.217 -11.900 -18.315  1.00  0.00     0.171 C 
ENDROOT
BRANCH   1   2
ATOM      2  C   UNL     1       5.454 -12.965 -17.508  1.00  0.00     0.190 C 
BRANCH   2   3
ATOM      3  O   UNL     1       6.342 -13.920 -16.993  1.00  0.00    -0.394 OA
ATOM      4  H   UNL     1       7.067 -14.030 -17.663  1.00  0.00     0.210 HD
ENDBRANCH   2   3
ENDBRANCH   1   2
BRANCH   1   5
ATOM      5  C   UNL     1       7.615 -11.630 -17.691  1.00  0.00     0.181 C 
BRANCH   5   6
ATOM      6  C   UNL     1       8.017 -10.131 -17.614  1.00  0.00     0.209 C 
BRANCH   6   7
ATOM      7  C   UNL     1       8.653  -9.597 -18.876  1.00  0.00     0.258 C 
ATOM      8  O   UNL     1       8.517 -10.186 -19.937  1.00  0.00    -0.300 OA
ENDBRANCH   6   7
BRANCH   6   9
ATOM      9  O   UNL     1       6.922  -9.336 -17.230  1.00  0.00    -0.383 OA
ATOM     10  H   UNL     1       7.228  -8.395 -17.162  1.00  0.00     0.211 HD
ENDBRANCH   6   9
ENDBRANCH   5   6
BRANCH   5  11
ATOM     11  O   UNL     1       8.623 -12.385 -18.320  1.00  0.00    -0.387 OA
ATOM     12  H   UNL     1       8.940 -11.879 -19.110  1.00  0.00     0.211 HD
ENDBRANCH   5  11
ENDBRANCH   1   5
BRANCH   1  13
ATOM     13  O   UNL     1       6.350 -12.325 -19.649  1.00  0.00    -0.388 OA
ATOM     14  H   UNL     1       5.433 -12.472 -20.001  1.00  0.00     0.211 HD
ENDBRANCH   1  13
TORSDOF 8
ENDMDL
MODEL 6
REMARK VINA RESULT:    -3.696      1.516      4.492
REMARK INTER + INTRA:          -5.680
REMARK INTER:                  -4.781
REMARK INTRA:                  -0.899
REMARK UNBOUND:                -0.688
REMARK SMILES O=C[C@@H](O)[C@H](O)[C@@H](O)CO
REMARK SMILES IDX 7 1 9 2 10 3 5 5 3 6 2 7 1 8 4 9 6 11 8 13
REMARK H PARENT 10 4 4 10 6 12 8 14
REMARK Flexibility Score: inf
ROOT
ATOM      1  C   UNL     1       5.201 -12.448 -18.842  1.00  0.00     0.171 C 
ENDROOT
BRANCH   1   2
ATOM      2  C   UNL     1       4.196 -13.607 -18.718  1.00  0.00     0.190 C 
BRANCH   2   3
ATOM      3  O   UNL     1       3.727 -13.710 -17.401  1.00  0.00    -0.394 OA
ATOM      4  H   UNL     1       3.196 -14.548 -17.349  1.00  0.00     0.210 HD
ENDBRANCH   2   3
ENDBRANCH   1   2
BRANCH   1   5
ATOM      5  C   UNL     1       6.044 -12.306 -17.544  1.00  0.00     0.181 C 
BRANCH   5   6
ATOM      6  C   UNL     1       7.093 -11.160 -17.568  1.00  0.00     0.209 C 
BRANCH   6   7
ATOM      7  C   UNL     1       8.501 -11.617 -17.869  1.00  0.00     0.258 C 
ATOM      8  O   UNL     1       8.793 -12.037 -18.977  1.00  0.00    -0.300 OA
ENDBRANCH   6   7
BRANCH   6   9
ATOM      9  O   UNL     1       6.698 -10.137 -18.450  1.00  0.00    -0.383 OA
ATOM     10  H   UNL     1       7.498  -9.833 -18.951  1.00  0.00     0.211 HD
ENDBRANCH   6   9
ENDBRANCH   5   6
BRANCH   5  11
ATOM     11  O   UNL     1       6.646 -13.525 -17.175  1.00  0.00    -0.387 OA
ATOM     12  H   UNL     1       7.162 -13.861 -17.952  1.00  0.00     0.211 HD
ENDBRANCH   5  11
ENDBRANCH   1   5
BRANCH   1  13
ATOM     13  O   UNL     1       6.039 -12.668 -19.949  1.00  0.00    -0.388 OA
ATOM     14  H   UNL     1       5.464 -12.988 -20.693  1.00  0.00     0.211 HD
ENDBRANCH   1  13
TORSDOF 8
ENDMDL
MODEL 7
REMARK VINA RESULT:    -3.683      1.630      4.085
REMARK INTER + INTRA:          -5.662
REMARK INTER:                  -4.713
REMARK INTRA:                  -0.949
REMARK UNBOUND:                -0.688
REMARK SMILES O=C[C@@H](O)[C@H](O)[C@@H](O)CO
REMARK SMILES IDX 7 1 9 2 10 3 5 5 3 6 2 7 1 8 4 9 6 11 8 13
REMARK H PARENT 10 4 4 10 6 12 8 14
REMARK Flexibility Score: inf
ROOT
ATOM      1  C   UNL     1       5.050 -12.847 -18.245  1.00  0.00     0.171 C 
ENDROOT
BRANCH   1   2
ATOM      2  C   UNL     1       4.792 -13.912 -17.166  1.00  0.00     0.190 C 
BRANCH   2   3
ATOM      3  O   UNL     1       5.573 -15.052 -17.404  1.00  0.00    -0.394 OA
ATOM      4  H   UNL     1       5.836 -15.026 -18.361  1.00  0.00     0.210 HD
ENDBRANCH   2   3
ENDBRANCH   1   2
BRANCH   1   5
ATOM      5  C   UNL     1       6.297 -11.990 -17.889  1.00  0.00     0.181 C 
BRANCH   5   6
ATOM      6  C   UNL     1       6.620 -10.855 -18.900  1.00  0.00     0.209 C 
BRANCH   6   7
ATOM      7  C   UNL     1       7.791 -11.151 -19.808  1.00  0.00     0.258 C 
ATOM      8  O   UNL     1       7.746 -12.083 -20.594  1.00  0.00    -0.300 OA
ENDBRANCH   6   7
BRANCH   6   9
ATOM      9  O   UNL     1       5.479 -10.510 -19.649  1.00  0.00    -0.383 OA
ATOM     10  H   UNL     1       4.938  -9.872 -19.116  1.00  0.00     0.211 HD
ENDBRANCH   6   9
ENDBRANCH   5   6
BRANCH   5  11
ATOM     11  O   UNL     1       7.432 -12.789 -17.658  1.00  0.00    -0.387 OA
ATOM     12  H   UNL     1       7.614 -12.794 -16.684  1.00  0.00     0.211 HD
ENDBRANCH   5  11
ENDBRANCH   1   5
BRANCH   1  13
ATOM     13  O   UNL     1       5.225 -13.473 -19.492  1.00  0.00    -0.388 OA
ATOM     14  H   UNL     1       4.359 -13.412 -19.974  1.00  0.00     0.211 HD
ENDBRANCH   1  13
TORSDOF 8
ENDMDL
MODEL 8
REMARK VINA RESULT:    -3.674      2.832      4.953
REMARK INTER + INTRA:          -5.650
REMARK INTER:                  -5.521
REMARK INTRA:                  -0.129
REMARK UNBOUND:                -0.688
REMARK SMILES O=C[C@@H](O)[C@H](O)[C@@H](O)CO
REMARK SMILES IDX 7 1 9 2 10 3 5 5 3 6 2 7 1 8 4 9 6 11 8 13
REMARK H PARENT 10 4 4 10 6 12 8 14
REMARK Flexibility Score: inf
ROOT
ATOM      1  C   UNL     1       7.224 -11.696 -17.886  1.00  0.00     0.171 C 
ENDROOT
BRANCH   1   2
ATOM      2  C   UNL     1       6.393 -12.506 -16.875  1.00  0.00     0.190 C 
BRANCH   2   3
ATOM      3  O   UNL     1       6.338 -13.855 -17.255  1.00  0.00    -0.394 OA
ATOM      4  H   UNL     1       5.798 -14.325 -16.567  1.00  0.00     0.210 HD
ENDBRANCH   2   3
ENDBRANCH   1   2
BRANCH   1   5
ATOM      5  C   UNL     1       7.583 -10.297 -17.311  1.00  0.00     0.181 C 
BRANCH   5   6
ATOM      6  C   UNL     1       7.253  -9.101 -18.247  1.00  0.00     0.209 C 
BRANCH   6   7
ATOM      7  C   UNL     1       6.439  -9.476 -19.463  1.00  0.00     0.258 C 
ATOM      8  O   UNL     1       5.344  -8.973 -19.656  1.00  0.00    -0.300 OA
ENDBRANCH   6   7
BRANCH   6   9
ATOM      9  O   UNL     1       6.634  -8.060 -17.531  1.00  0.00    -0.383 OA
ATOM     10  H   UNL     1       7.047  -7.202 -17.809  1.00  0.00     0.211 HD
ENDBRANCH   6   9
ENDBRANCH   5   6
BRANCH   5  11
ATOM     11  O   UNL     1       8.923 -10.237 -16.880  1.00  0.00    -0.387 OA
ATOM     12  H   UNL     1       9.459 -10.838 -17.457  1.00  0.00     0.211 HD
ENDBRANCH   5  11
ENDBRANCH   1   5
BRANCH   1  13
ATOM     13  O   UNL     1       8.392 -12.406 -18.213  1.00  0.00    -0.388 OA
ATOM     14  H   UNL     1       8.137 -13.362 -18.304  1.00  0.00     0.211 HD
ENDBRANCH   1  13
TORSDOF 8
ENDMDL
