MODEL 1
REMARK VINA RESULT:    -3.132      0.000      0.000
REMARK INTER + INTRA:          -8.157
REMARK INTER:                  -5.788
REMARK INTRA:                  -2.369
REMARK UNBOUND:                -2.369
REMARK SMILES CCCCCCCCCCCCCCCCO
REMARK SMILES IDX 9 1 8 2 7 3 6 4 5 5 4 6 3 7 2 8 1 9 10 10 11 11 12 12 13 13
REMARK SMILES IDX 14 14 15 15 16 16 17 17
REMARK H PARENT 17 18
REMARK Flexibility Score: inf
ROOT
ATOM      1  C   UNL     1     168.992 170.666 164.447  1.00  0.00     0.000 C 
ENDROOT
BRANCH   1   2
ATOM      2  C   UNL     1     167.813 170.019 163.701  1.00  0.00    -0.000 C 
BRANCH   2   3
ATOM      3  C   UNL     1     166.476 170.728 163.981  1.00  0.00    -0.000 C 
BRANCH   3   4
ATOM      4  C   UNL     1     165.733 171.114 162.692  1.00  0.00    -0.000 C 
BRANCH   4   5
ATOM      5  C   UNL     1     166.175 172.481 162.141  1.00  0.00    -0.000 C 
BRANCH   5   6
ATOM      6  C   UNL     1     166.678 172.403 160.689  1.00  0.00    -0.000 C 
BRANCH   6   7
ATOM      7  C   UNL     1     166.939 170.976 160.166  1.00  0.00    -0.000 C 
BRANCH   7   8
ATOM      8  C   UNL     1     168.416 170.542 160.169  1.00  0.00    -0.003 C 
ATOM      9  C   UNL     1     169.382 171.724 160.114  1.00  0.00     0.004 C 
ENDBRANCH   7   8
ENDBRANCH   6   7
ENDBRANCH   5   6
ENDBRANCH   4   5
ENDBRANCH   3   4
ENDBRANCH   2   3
ENDBRANCH   1   2
BRANCH   1  10
ATOM     10  C   UNL     1     169.442 171.991 163.809  1.00  0.00     0.000 C 
BRANCH  10  11
ATOM     11  C   UNL     1     170.959 172.005 163.587  1.00  0.00     0.000 C 
BRANCH  11  12
ATOM     12  C   UNL     1     171.577 170.641 163.928  1.00  0.00     0.000 C 
BRANCH  12  13
ATOM     13  C   UNL     1     172.333 170.019 162.742  1.00  0.00     0.000 C 
BRANCH  13  14
ATOM     14  C   UNL     1     171.420 169.167 161.843  1.00  0.00     0.002 C 
BRANCH  14  15
ATOM     15  C   UNL     1     170.788 167.978 162.588  1.00  0.00     0.028 C 
BRANCH  15  16
ATOM     16  C   UNL     1     171.383 166.621 162.194  1.00  0.00     0.156 C 
BRANCH  16  17
ATOM     17  O   UNL     1     172.677 166.487 162.715  1.00  0.00    -0.396 OA
ATOM     18  H   UNL     1     172.842 165.513 162.795  1.00  0.00     0.210 HD
ENDBRANCH  16  17
ENDBRANCH  15  16
ENDBRANCH  14  15
ENDBRANCH  13  14
ENDBRANCH  12  13
ENDBRANCH  11  12
ENDBRANCH  10  11
ENDBRANCH   1  10
TORSDOF 15
ENDMDL
MODEL 2
REMARK VINA RESULT:    -3.118      2.941      5.654
REMARK INTER + INTRA:          -8.130
REMARK INTER:                  -6.047
REMARK INTRA:                  -2.083
REMARK UNBOUND:                -2.369
REMARK SMILES CCCCCCCCCCCCCCCCO
REMARK SMILES IDX 9 1 8 2 7 3 6 4 5 5 4 6 3 7 2 8 1 9 10 10 11 11 12 12 13 13
REMARK SMILES IDX 14 14 15 15 16 16 17 17
REMARK H PARENT 17 18
REMARK Flexibility Score: inf
ROOT
ATOM      1  C   UNL     1     170.399 172.694 161.594  1.00  0.00     0.000 C 
ENDROOT
BRANCH   1   2
ATOM      2  C   UNL     1     170.504 172.761 163.127  1.00  0.00    -0.000 C 
BRANCH   2   3
ATOM      3  C   UNL     1     171.652 171.896 163.679  1.00  0.00    -0.000 C 
BRANCH   3   4
ATOM      4  C   UNL     1     171.164 170.538 164.207  1.00  0.00    -0.000 C 
BRANCH   4   5
ATOM      5  C   UNL     1     169.633 170.471 164.343  1.00  0.00    -0.000 C 
BRANCH   5   6
ATOM      6  C   UNL     1     169.032 169.213 163.691  1.00  0.00    -0.000 C 
BRANCH   6   7
ATOM      7  C   UNL     1     170.034 168.066 163.443  1.00  0.00    -0.000 C 
BRANCH   7   8
ATOM      8  C   UNL     1     170.393 167.826 161.965  1.00  0.00    -0.003 C 
ATOM      9  C   UNL     1     169.820 168.892 161.033  1.00  0.00     0.004 C 
ENDBRANCH   7   8
ENDBRANCH   6   7
ENDBRANCH   5   6
ENDBRANCH   4   5
ENDBRANCH   3   4
ENDBRANCH   2   3
ENDBRANCH   1   2
BRANCH   1  10
ATOM     10  C   UNL     1     168.954 172.499 161.107  1.00  0.00     0.000 C 
BRANCH  10  11
ATOM     11  C   UNL     1     168.057 173.652 161.574  1.00  0.00     0.000 C 
BRANCH  11  12
ATOM     12  C   UNL     1     166.643 173.151 161.900  1.00  0.00     0.000 C 
BRANCH  12  13
ATOM     13  C   UNL     1     166.603 172.256 163.151  1.00  0.00     0.000 C 
BRANCH  13  14
ATOM     14  C   UNL     1     165.820 170.953 162.918  1.00  0.00     0.002 C 
BRANCH  14  15
ATOM     15  C   UNL     1     165.516 170.695 161.432  1.00  0.00     0.028 C 
BRANCH  15  16
ATOM     16  C   UNL     1     164.018 170.579 161.124  1.00  0.00     0.156 C 
BRANCH  16  17
ATOM     17  O   UNL     1     163.411 171.840 161.174  1.00  0.00    -0.396 OA
ATOM     18  H   UNL     1     162.971 171.969 160.295  1.00  0.00     0.210 HD
ENDBRANCH  16  17
ENDBRANCH  15  16
ENDBRANCH  14  15
ENDBRANCH  13  14
ENDBRANCH  12  13
ENDBRANCH  11  12
ENDBRANCH  10  11
ENDBRANCH   1  10
TORSDOF 15
ENDMDL
MODEL 3
REMARK VINA RESULT:    -3.055      1.564      3.609
REMARK INTER + INTRA:          -8.015
REMARK INTER:                  -5.522
REMARK INTRA:                  -2.492
REMARK UNBOUND:                -2.369
REMARK SMILES CCCCCCCCCCCCCCCCO
REMARK SMILES IDX 9 1 8 2 7 3 6 4 5 5 4 6 3 7 2 8 1 9 10 10 11 11 12 12 13 13
REMARK SMILES IDX 14 14 15 15 16 16 17 17
REMARK H PARENT 17 18
REMARK Flexibility Score: inf
ROOT
ATOM      1  C   UNL     1     167.663 171.482 160.942  1.00  0.00     0.000 C 
ENDROOT
BRANCH   1   2
ATOM      2  C   UNL     1     166.987 172.376 161.995  1.00  0.00    -0.000 C 
BRANCH   2   3
ATOM      3  C   UNL     1     167.177 171.848 163.428  1.00  0.00    -0.000 C 
BRANCH   3   4
ATOM      4  C   UNL     1     167.176 170.312 163.494  1.00  0.00    -0.000 C 
BRANCH   4   5
ATOM      5  C   UNL     1     168.523 169.738 163.966  1.00  0.00    -0.000 C 
BRANCH   5   6
ATOM      6  C   UNL     1     169.580 170.828 164.217  1.00  0.00    -0.000 C 
BRANCH   6   7
ATOM      7  C   UNL     1     171.042 170.374 164.024  1.00  0.00    -0.000 C 
BRANCH   7   8
ATOM      8  C   UNL     1     171.963 171.415 163.364  1.00  0.00    -0.003 C 
ATOM      9  C   UNL     1     171.325 172.801 163.271  1.00  0.00     0.004 C 
ENDBRANCH   7   8
ENDBRANCH   6   7
ENDBRANCH   5   6
ENDBRANCH   4   5
ENDBRANCH   3   4
ENDBRANCH   2   3
ENDBRANCH   1   2
BRANCH   1  10
ATOM     10  C   UNL     1     168.979 172.077 160.416  1.00  0.00     0.000 C 
BRANCH  10  11
ATOM     11  C   UNL     1     170.023 170.978 160.185  1.00  0.00     0.000 C 
BRANCH  11  12
ATOM     12  C   UNL     1     169.472 169.603 160.586  1.00  0.00     0.000 C 
BRANCH  12  13
ATOM     13  C   UNL     1     170.419 168.450 160.211  1.00  0.00     0.000 C 
BRANCH  13  14
ATOM     14  C   UNL     1     171.075 167.803 161.443  1.00  0.00     0.002 C 
BRANCH  14  15
ATOM     15  C   UNL     1     170.212 166.691 162.066  1.00  0.00     0.028 C 
BRANCH  15  16
ATOM     16  C   UNL     1     170.259 165.371 161.288  1.00  0.00     0.156 C 
BRANCH  16  17
ATOM     17  O   UNL     1     169.002 165.082 160.742  1.00  0.00    -0.396 OA
ATOM     18  H   UNL     1     168.456 164.717 161.485  1.00  0.00     0.210 HD
ENDBRANCH  16  17
ENDBRANCH  15  16
ENDBRANCH  14  15
ENDBRANCH  13  14
ENDBRANCH  12  13
ENDBRANCH  11  12
ENDBRANCH  10  11
ENDBRANCH   1  10
TORSDOF 15
ENDMDL
MODEL 4
REMARK VINA RESULT:    -3.005      2.731      6.101
REMARK INTER + INTRA:          -7.922
REMARK INTER:                  -5.612
REMARK INTRA:                  -2.310
REMARK UNBOUND:                -2.369
REMARK SMILES CCCCCCCCCCCCCCCCO
REMARK SMILES IDX 9 1 8 2 7 3 6 4 5 5 4 6 3 7 2 8 1 9 10 10 11 11 12 12 13 13
REMARK SMILES IDX 14 14 15 15 16 16 17 17
REMARK H PARENT 17 18
REMARK Flexibility Score: inf
ROOT
ATOM      1  C   UNL     1     168.887 171.707 161.167  1.00  0.00     0.000 C 
ENDROOT
BRANCH   1   2
ATOM      2  C   UNL     1     169.019 172.950 162.064  1.00  0.00    -0.000 C 
BRANCH   2   3
ATOM      3  C   UNL     1     170.484 173.289 162.391  1.00  0.00    -0.000 C 
BRANCH   3   4
ATOM      4  C   UNL     1     170.965 172.624 163.691  1.00  0.00    -0.000 C 
BRANCH   4   5
ATOM      5  C   UNL     1     171.902 171.431 163.435  1.00  0.00    -0.000 C 
BRANCH   5   6
ATOM      6  C   UNL     1     171.221 170.074 163.689  1.00  0.00    -0.000 C 
BRANCH   6   7
ATOM      7  C   UNL     1     171.331 169.064 162.528  1.00  0.00    -0.000 C 
BRANCH   7   8
ATOM      8  C   UNL     1     170.463 167.802 162.681  1.00  0.00    -0.003 C 
ATOM      9  C   UNL     1     169.570 167.842 163.920  1.00  0.00     0.004 C 
ENDBRANCH   7   8
ENDBRANCH   6   7
ENDBRANCH   5   6
ENDBRANCH   4   5
ENDBRANCH   3   4
ENDBRANCH   2   3
ENDBRANCH   1   2
BRANCH   1  10
ATOM     10  C   UNL     1     168.032 170.601 161.807  1.00  0.00     0.000 C 
BRANCH  10  11
ATOM     11  C   UNL     1     167.656 170.965 163.249  1.00  0.00     0.000 C 
BRANCH  11  12
ATOM     12  C   UNL     1     166.131 171.029 163.419  1.00  0.00     0.000 C 
BRANCH  12  13
ATOM     13  C   UNL     1     165.377 170.813 162.096  1.00  0.00     0.000 C 
BRANCH  13  14
ATOM     14  C   UNL     1     164.552 172.043 161.680  1.00  0.00     0.002 C 
BRANCH  14  15
ATOM     15  C   UNL     1     165.321 173.364 161.853  1.00  0.00     0.028 C 
BRANCH  15  16
ATOM     16  C   UNL     1     165.557 174.113 160.536  1.00  0.00     0.156 C 
BRANCH  16  17
ATOM     17  O   UNL     1     166.146 173.263 159.591  1.00  0.00    -0.396 OA
ATOM     18  H   UNL     1     166.545 172.515 160.105  1.00  0.00     0.210 HD
ENDBRANCH  16  17
ENDBRANCH  15  16
ENDBRANCH  14  15
ENDBRANCH  13  14
ENDBRANCH  12  13
ENDBRANCH  11  12
ENDBRANCH  10  11
ENDBRANCH   1  10
TORSDOF 15
ENDMDL
MODEL 5
REMARK VINA RESULT:    -3.002      1.705      2.830
REMARK INTER + INTRA:          -7.915
REMARK INTER:                  -5.836
REMARK INTRA:                  -2.079
REMARK UNBOUND:                -2.369
REMARK SMILES CCCCCCCCCCCCCCCCO
REMARK SMILES IDX 9 1 8 2 7 3 6 4 5 5 4 6 3 7 2 8 1 9 10 10 11 11 12 12 13 13
REMARK SMILES IDX 14 14 15 15 16 16 17 17
REMARK H PARENT 17 18
REMARK Flexibility Score: inf
ROOT
ATOM      1  C   UNL     1     171.223 170.768 164.069  1.00  0.00     0.000 C 
ENDROOT
BRANCH   1   2
ATOM      2  C   UNL     1     170.026 171.647 163.668  1.00  0.00    -0.000 C 
BRANCH   2   3
ATOM      3  C   UNL     1     168.768 171.347 164.501  1.00  0.00    -0.000 C 
BRANCH   3   4
ATOM      4  C   UNL     1     167.869 170.284 163.850  1.00  0.00    -0.000 C 
BRANCH   4   5
ATOM      5  C   UNL     1     166.392 170.711 163.791  1.00  0.00    -0.000 C 
BRANCH   5   6
ATOM      6  C   UNL     1     165.945 171.116 162.375  1.00  0.00    -0.000 C 
BRANCH   6   7
ATOM      7  C   UNL     1     166.958 170.797 161.256  1.00  0.00    -0.000 C 
BRANCH   7   8
ATOM      8  C   UNL     1     167.235 171.956 160.281  1.00  0.00    -0.003 C 
ATOM      9  C   UNL     1     168.275 172.943 160.811  1.00  0.00     0.004 C 
ENDBRANCH   7   8
ENDBRANCH   6   7
ENDBRANCH   5   6
ENDBRANCH   4   5
ENDBRANCH   3   4
ENDBRANCH   2   3
ENDBRANCH   1   2
BRANCH   1  10
ATOM     10  C   UNL     1     171.672 169.826 162.940  1.00  0.00     0.000 C 
BRANCH  10  11
ATOM     11  C   UNL     1     170.846 170.060 161.669  1.00  0.00     0.000 C 
BRANCH  11  12
ATOM     12  C   UNL     1     170.165 168.763 161.210  1.00  0.00     0.000 C 
BRANCH  12  13
ATOM     13  C   UNL     1     170.117 167.694 162.315  1.00  0.00     0.000 C 
BRANCH  13  14
ATOM     14  C   UNL     1     170.615 166.322 161.828  1.00  0.00     0.002 C 
BRANCH  14  15
ATOM     15  C   UNL     1     170.676 166.217 160.294  1.00  0.00     0.028 C 
BRANCH  15  16
ATOM     16  C   UNL     1     169.751 165.140 159.715  1.00  0.00     0.156 C 
BRANCH  16  17
ATOM     17  O   UNL     1     168.721 164.847 160.618  1.00  0.00    -0.396 OA
ATOM     18  H   UNL     1     168.853 163.902 160.890  1.00  0.00     0.210 HD
ENDBRANCH  16  17
ENDBRANCH  15  16
ENDBRANCH  14  15
ENDBRANCH  13  14
ENDBRANCH  12  13
ENDBRANCH  11  12
ENDBRANCH  10  11
ENDBRANCH   1  10
TORSDOF 15
ENDMDL
MODEL 6
REMARK VINA RESULT:    -2.999      2.390      5.227
REMARK INTER + INTRA:          -7.910
REMARK INTER:                  -5.588
REMARK INTRA:                  -2.322
REMARK UNBOUND:                -2.369
REMARK SMILES CCCCCCCCCCCCCCCCO
REMARK SMILES IDX 9 1 8 2 7 3 6 4 5 5 4 6 3 7 2 8 1 9 10 10 11 11 12 12 13 13
REMARK SMILES IDX 14 14 15 15 16 16 17 17
REMARK H PARENT 17 18
REMARK Flexibility Score: inf
ROOT
ATOM      1  C   UNL     1     170.714 172.095 163.503  1.00  0.00     0.000 C 
ENDROOT
BRANCH   1   2
ATOM      2  C   UNL     1     171.623 170.971 164.027  1.00  0.00    -0.000 C 
BRANCH   2   3
ATOM      3  C   UNL     1     172.388 170.255 162.900  1.00  0.00    -0.000 C 
BRANCH   3   4
ATOM      4  C   UNL     1     172.262 170.981 161.551  1.00  0.00    -0.000 C 
BRANCH   4   5
ATOM      5  C   UNL     1     171.656 170.090 160.452  1.00  0.00    -0.000 C 
BRANCH   5   6
ATOM      6  C   UNL     1     170.126 169.964 160.564  1.00  0.00    -0.000 C 
BRANCH   6   7
ATOM      7  C   UNL     1     169.598 168.519 160.672  1.00  0.00    -0.000 C 
BRANCH   7   8
ATOM      8  C   UNL     1     170.541 167.535 161.386  1.00  0.00    -0.003 C 
ATOM      9  C   UNL     1     170.189 167.337 162.860  1.00  0.00     0.004 C 
ENDBRANCH   7   8
ENDBRANCH   6   7
ENDBRANCH   5   6
ENDBRANCH   4   5
ENDBRANCH   3   4
ENDBRANCH   2   3
ENDBRANCH   1   2
BRANCH   1  10
ATOM     10  C   UNL     1     169.263 171.963 163.995  1.00  0.00     0.000 C 
BRANCH  10  11
ATOM     11  C   UNL     1     168.951 170.517 164.400  1.00  0.00     0.000 C 
BRANCH  11  12
ATOM     12  C   UNL     1     167.793 169.950 163.566  1.00  0.00     0.000 C 
BRANCH  12  13
ATOM     13  C   UNL     1     166.467 170.688 163.813  1.00  0.00     0.000 C 
BRANCH  13  14
ATOM     14  C   UNL     1     165.802 171.160 162.508  1.00  0.00     0.002 C 
BRANCH  14  15
ATOM     15  C   UNL     1     166.743 171.075 161.293  1.00  0.00     0.028 C 
BRANCH  15  16
ATOM     16  C   UNL     1     166.020 170.753 159.980  1.00  0.00     0.156 C 
BRANCH  16  17
ATOM     17  O   UNL     1     164.922 169.917 160.220  1.00  0.00    -0.396 OA
ATOM     18  H   UNL     1     164.811 169.368 159.402  1.00  0.00     0.210 HD
ENDBRANCH  16  17
ENDBRANCH  15  16
ENDBRANCH  14  15
ENDBRANCH  13  14
ENDBRANCH  12  13
ENDBRANCH  11  12
ENDBRANCH  10  11
ENDBRANCH   1  10
TORSDOF 15
ENDMDL
MODEL 7
REMARK VINA RESULT:    -2.988      1.918      4.163
REMARK INTER + INTRA:          -7.889
REMARK INTER:                  -5.348
REMARK INTRA:                  -2.541
REMARK UNBOUND:                -2.369
REMARK SMILES CCCCCCCCCCCCCCCCO
REMARK SMILES IDX 9 1 8 2 7 3 6 4 5 5 4 6 3 7 2 8 1 9 10 10 11 11 12 12 13 13
REMARK SMILES IDX 14 14 15 15 16 16 17 17
REMARK H PARENT 17 18
REMARK Flexibility Score: inf
ROOT
ATOM      1  C   UNL     1     168.486 172.242 160.537  1.00  0.00     0.000 C 
ENDROOT
BRANCH   1   2
ATOM      2  C   UNL     1     169.603 171.187 160.471  1.00  0.00    -0.000 C 
BRANCH   2   3
ATOM      3  C   UNL     1     169.188 169.846 161.103  1.00  0.00    -0.000 C 
BRANCH   3   4
ATOM      4  C   UNL     1     169.948 169.548 162.405  1.00  0.00    -0.000 C 
BRANCH   4   5
ATOM      5  C   UNL     1     169.008 169.242 163.584  1.00  0.00    -0.000 C 
BRANCH   5   6
ATOM      6  C   UNL     1     168.752 170.470 164.476  1.00  0.00    -0.000 C 
BRANCH   6   7
ATOM      7  C   UNL     1     167.537 171.328 164.067  1.00  0.00    -0.000 C 
BRANCH   7   8
ATOM      8  C   UNL     1     166.325 170.534 163.549  1.00  0.00    -0.003 C 
ATOM      9  C   UNL     1     165.532 171.288 162.483  1.00  0.00     0.004 C 
ENDBRANCH   7   8
ENDBRANCH   6   7
ENDBRANCH   5   6
ENDBRANCH   4   5
ENDBRANCH   3   4
ENDBRANCH   2   3
ENDBRANCH   1   2
BRANCH   1  10
ATOM     10  C   UNL     1     168.829 173.411 161.474  1.00  0.00     0.000 C 
BRANCH  10  11
ATOM     11  C   UNL     1     170.154 174.068 161.069  1.00  0.00     0.000 C 
BRANCH  11  12
ATOM     12  C   UNL     1     171.103 174.178 162.271  1.00  0.00     0.000 C 
BRANCH  12  13
ATOM     13  C   UNL     1     170.779 173.160 163.378  1.00  0.00     0.000 C 
BRANCH  13  14
ATOM     14  C   UNL     1     171.968 172.236 163.695  1.00  0.00     0.002 C 
BRANCH  14  15
ATOM     15  C   UNL     1     173.084 172.313 162.639  1.00  0.00     0.028 C 
BRANCH  15  16
ATOM     16  C   UNL     1     173.319 170.992 161.897  1.00  0.00     0.156 C 
BRANCH  16  17
ATOM     17  O   UNL     1     174.686 170.686 161.869  1.00  0.00    -0.396 OA
ATOM     18  H   UNL     1     175.161 171.554 161.806  1.00  0.00     0.210 HD
ENDBRANCH  16  17
ENDBRANCH  15  16
ENDBRANCH  14  15
ENDBRANCH  13  14
ENDBRANCH  12  13
ENDBRANCH  11  12
ENDBRANCH  10  11
ENDBRANCH   1  10
TORSDOF 15
ENDMDL
MODEL 8
REMARK VINA RESULT:    -2.972      1.899      3.561
REMARK INTER + INTRA:          -7.861
REMARK INTER:                  -5.493
REMARK INTRA:                  -2.368
REMARK UNBOUND:                -2.369
REMARK SMILES CCCCCCCCCCCCCCCCO
REMARK SMILES IDX 9 1 8 2 7 3 6 4 5 5 4 6 3 7 2 8 1 9 10 10 11 11 12 12 13 13
REMARK SMILES IDX 14 14 15 15 16 16 17 17
REMARK H PARENT 17 18
REMARK Flexibility Score: inf
ROOT
ATOM      1  C   UNL     1     168.955 170.273 160.839  1.00  0.00     0.000 C 
ENDROOT
BRANCH   1   2
ATOM      2  C   UNL     1     169.307 171.743 160.553  1.00  0.00    -0.000 C 
BRANCH   2   3
ATOM      3  C   UNL     1     168.850 172.689 161.677  1.00  0.00    -0.000 C 
BRANCH   3   4
ATOM      4  C   UNL     1     167.565 173.452 161.318  1.00  0.00    -0.000 C 
BRANCH   4   5
ATOM      5  C   UNL     1     166.439 173.232 162.343  1.00  0.00    -0.000 C 
BRANCH   5   6
ATOM      6  C   UNL     1     166.684 172.009 163.245  1.00  0.00    -0.000 C 
BRANCH   6   7
ATOM      7  C   UNL     1     165.866 170.754 162.876  1.00  0.00    -0.000 C 
BRANCH   7   8
ATOM      8  C   UNL     1     164.852 170.952 161.735  1.00  0.00    -0.003 C 
ATOM      9  C   UNL     1     165.314 170.334 160.416  1.00  0.00     0.004 C 
ENDBRANCH   7   8
ENDBRANCH   6   7
ENDBRANCH   5   6
ENDBRANCH   4   5
ENDBRANCH   3   4
ENDBRANCH   2   3
ENDBRANCH   1   2
BRANCH   1  10
ATOM     10  C   UNL     1     169.964 169.595 161.781  1.00  0.00     0.000 C 
BRANCH  10  11
ATOM     11  C   UNL     1     169.357 169.384 163.174  1.00  0.00     0.000 C 
BRANCH  11  12
ATOM     12  C   UNL     1     170.047 170.277 164.215  1.00  0.00     0.000 C 
BRANCH  12  13
ATOM     13  C   UNL     1     171.499 170.617 163.837  1.00  0.00     0.000 C 
BRANCH  13  14
ATOM     14  C   UNL     1     171.747 172.134 163.756  1.00  0.00     0.002 C 
BRANCH  14  15
ATOM     15  C   UNL     1     172.820 172.509 162.720  1.00  0.00     0.028 C 
BRANCH  15  16
ATOM     16  C   UNL     1     173.265 171.333 161.843  1.00  0.00     0.156 C 
BRANCH  16  17
ATOM     17  O   UNL     1     174.596 170.995 162.120  1.00  0.00    -0.396 OA
ATOM     18  H   UNL     1     174.591 170.032 162.360  1.00  0.00     0.210 HD
ENDBRANCH  16  17
ENDBRANCH  15  16
ENDBRANCH  14  15
ENDBRANCH  13  14
ENDBRANCH  12  13
ENDBRANCH  11  12
ENDBRANCH  10  11
ENDBRANCH   1  10
TORSDOF 15
ENDMDL
MODEL 9
REMARK VINA RESULT:    -2.958      1.140      3.364
REMARK INTER + INTRA:          -7.835
REMARK INTER:                  -5.708
REMARK INTRA:                  -2.127
REMARK UNBOUND:                -2.369
REMARK SMILES CCCCCCCCCCCCCCCCO
REMARK SMILES IDX 9 1 8 2 7 3 6 4 5 5 4 6 3 7 2 8 1 9 10 10 11 11 12 12 13 13
REMARK SMILES IDX 14 14 15 15 16 16 17 17
REMARK H PARENT 17 18
REMARK Flexibility Score: inf
ROOT
ATOM      1  C   UNL     1     172.750 171.258 162.612  1.00  0.00     0.000 C 
ENDROOT
BRANCH   1   2
ATOM      2  C   UNL     1     171.684 171.295 163.720  1.00  0.00    -0.000 C 
BRANCH   2   3
ATOM      3  C   UNL     1     170.722 172.488 163.575  1.00  0.00    -0.000 C 
BRANCH   3   4
ATOM      4  C   UNL     1     169.259 172.048 163.409  1.00  0.00    -0.000 C 
BRANCH   4   5
ATOM      5  C   UNL     1     168.903 170.832 164.283  1.00  0.00    -0.000 C 
BRANCH   5   6
ATOM      6  C   UNL     1     167.524 170.238 163.942  1.00  0.00    -0.000 C 
BRANCH   6   7
ATOM      7  C   UNL     1     166.481 171.259 163.443  1.00  0.00    -0.000 C 
BRANCH   7   8
ATOM      8  C   UNL     1     165.634 170.790 162.247  1.00  0.00    -0.003 C 
ATOM      9  C   UNL     1     166.406 170.810 160.928  1.00  0.00     0.004 C 
ENDBRANCH   7   8
ENDBRANCH   6   7
ENDBRANCH   5   6
ENDBRANCH   4   5
ENDBRANCH   3   4
ENDBRANCH   2   3
ENDBRANCH   1   2
BRANCH   1  10
ATOM     10  C   UNL     1     172.166 171.538 161.218  1.00  0.00     0.000 C 
BRANCH  10  11
ATOM     11  C   UNL     1     171.742 170.235 160.529  1.00  0.00     0.000 C 
BRANCH  11  12
ATOM     12  C   UNL     1     170.215 170.072 160.553  1.00  0.00     0.000 C 
BRANCH  12  13
ATOM     13  C   UNL     1     169.776 168.638 160.892  1.00  0.00     0.000 C 
BRANCH  13  14
ATOM     14  C   UNL     1     170.278 168.179 162.272  1.00  0.00     0.002 C 
BRANCH  14  15
ATOM     15  C   UNL     1     170.951 166.795 162.234  1.00  0.00     0.028 C 
BRANCH  15  16
ATOM     16  C   UNL     1     172.441 166.847 161.877  1.00  0.00     0.156 C 
BRANCH  16  17
ATOM     17  O   UNL     1     173.202 166.222 162.873  1.00  0.00    -0.396 OA
ATOM     18  H   UNL     1     173.659 165.459 162.432  1.00  0.00     0.210 HD
ENDBRANCH  16  17
ENDBRANCH  15  16
ENDBRANCH  14  15
ENDBRANCH  13  14
ENDBRANCH  12  13
ENDBRANCH  11  12
ENDBRANCH  10  11
ENDBRANCH   1  10
TORSDOF 15
ENDMDL
