MODEL 1
REMARK VINA RESULT:    -3.454      0.000      0.000
REMARK INTER + INTRA:         -10.945
REMARK INTER:                  -7.493
REMARK INTRA:                  -3.452
REMARK UNBOUND:                -3.452
REMARK SMILES CCCCCCCCCCCCCCCCCCCCCC(=O)[O-]
REMARK SMILES IDX 12 1 11 2 10 3 9 4 8 5 7 6 6 7 5 8 4 9 3 10 2 11 1 12 13 13
REMARK SMILES IDX 14 14 15 15 16 16 17 17 18 18 19 19 20 20 21 21 22 22 23 23
REMARK SMILES IDX 24 24
REMARK H PARENT
REMARK Flexibility Score: inf
ROOT
ATOM      1  C   UNL     1      -3.371  37.731  42.167  1.00  0.00     0.000 C 
ENDROOT
BRANCH   1   2
ATOM      2  C   UNL     1      -4.473  37.617  43.228  1.00  0.00     0.000 C 
BRANCH   2   3
ATOM      3  C   UNL     1      -4.976  39.003  43.651  1.00  0.00     0.000 C 
BRANCH   3   4
ATOM      4  C   UNL     1      -6.448  39.202  43.252  1.00  0.00    -0.000 C 
BRANCH   4   5
ATOM      5  C   UNL     1      -7.385  39.352  44.468  1.00  0.00    -0.000 C 
BRANCH   5   6
ATOM      6  C   UNL     1      -8.187  38.081  44.809  1.00  0.00    -0.000 C 
BRANCH   6   7
ATOM      7  C   UNL     1      -7.932  37.501  46.212  1.00  0.00    -0.000 C 
BRANCH   7   8
ATOM      8  C   UNL     1      -7.094  38.394  47.151  1.00  0.00    -0.000 C 
BRANCH   8   9
ATOM      9  C   UNL     1      -5.653  37.913  47.399  1.00  0.00    -0.000 C 
BRANCH   9  10
ATOM     10  C   UNL     1      -5.554  36.395  47.605  1.00  0.00    -0.000 C 
BRANCH  10  11
ATOM     11  C   UNL     1      -4.636  35.760  46.553  1.00  0.00    -0.003 C 
ATOM     12  C   UNL     1      -4.501  34.255  46.773  1.00  0.00     0.004 C 
ENDBRANCH  10  11
ENDBRANCH   9  10
ENDBRANCH   8   9
ENDBRANCH   7   8
ENDBRANCH   6   7
ENDBRANCH   5   6
ENDBRANCH   4   5
ENDBRANCH   3   4
ENDBRANCH   2   3
ENDBRANCH   1   2
BRANCH   1  13
ATOM     13  C   UNL     1      -3.913  37.646  40.729  1.00  0.00     0.000 C 
BRANCH  13  14
ATOM     14  C   UNL     1      -3.953  36.209  40.165  1.00  0.00     0.000 C 
BRANCH  14  15
ATOM     15  C   UNL     1      -2.907  35.292  40.825  1.00  0.00     0.000 C 
BRANCH  15  16
ATOM     16  C   UNL     1      -3.527  34.046  41.484  1.00  0.00     0.000 C 
BRANCH  16  17
ATOM     17  C   UNL     1      -5.043  34.132  41.756  1.00  0.00     0.000 C 
BRANCH  17  18
ATOM     18  C   UNL     1      -5.446  34.083  43.242  1.00  0.00     0.000 C 
BRANCH  18  19
ATOM     19  C   UNL     1      -6.712  34.885  43.602  1.00  0.00     0.000 C 
BRANCH  19  20
ATOM     20  C   UNL     1      -7.667  34.182  44.581  1.00  0.00     0.006 C 
BRANCH  20  21
ATOM     21  C   UNL     1      -7.954  32.725  44.193  1.00  0.00     0.053 C 
BRANCH  21  22
ATOM     22  C   UNL     1      -9.043  32.656  43.170  1.00  0.00     0.041 C 
ATOM     23  O   UNL     1      -8.824  33.028  41.985  1.00  0.00    -0.550 OA
ATOM     24  O   UNL     1     -10.305  32.192  43.525  1.00  0.00    -0.550 OA
ENDBRANCH  21  22
ENDBRANCH  20  21
ENDBRANCH  19  20
ENDBRANCH  18  19
ENDBRANCH  17  18
ENDBRANCH  16  17
ENDBRANCH  15  16
ENDBRANCH  14  15
ENDBRANCH  13  14
ENDBRANCH   1  13
TORSDOF 20
ENDMDL
MODEL 2
REMARK VINA RESULT:    -3.412     11.783     14.700
REMARK INTER + INTRA:         -10.853
REMARK INTER:                  -8.691
REMARK INTRA:                  -2.162
REMARK UNBOUND:                -3.452
REMARK SMILES CCCCCCCCCCCCCCCCCCCCCC(=O)[O-]
REMARK SMILES IDX 12 1 11 2 10 3 9 4 8 5 7 6 6 7 5 8 4 9 3 10 2 11 1 12 13 13
REMARK SMILES IDX 14 14 15 15 16 16 17 17 18 18 19 19 20 20 21 21 22 22 23 23
REMARK SMILES IDX 24 24
REMARK H PARENT
REMARK Flexibility Score: inf
ROOT
ATOM      1  C   UNL     1       4.315  29.969  51.371  1.00  0.00     0.000 C 
ENDROOT
BRANCH   1   2
ATOM      2  C   UNL     1       4.465  30.394  52.838  1.00  0.00     0.000 C 
BRANCH   2   3
ATOM      3  C   UNL     1       3.514  29.601  53.742  1.00  0.00     0.000 C 
BRANCH   3   4
ATOM      4  C   UNL     1       4.265  28.485  54.489  1.00  0.00    -0.000 C 
BRANCH   4   5
ATOM      5  C   UNL     1       5.362  29.025  55.429  1.00  0.00    -0.000 C 
BRANCH   5   6
ATOM      6  C   UNL     1       4.950  29.086  56.912  1.00  0.00    -0.000 C 
BRANCH   6   7
ATOM      7  C   UNL     1       4.521  27.743  57.530  1.00  0.00    -0.000 C 
BRANCH   7   8
ATOM      8  C   UNL     1       3.010  27.597  57.805  1.00  0.00    -0.000 C 
BRANCH   8   9
ATOM      9  C   UNL     1       2.163  28.842  57.487  1.00  0.00    -0.000 C 
BRANCH   9  10
ATOM     10  C   UNL     1       0.721  28.500  57.087  1.00  0.00    -0.000 C 
BRANCH  10  11
ATOM     11  C   UNL     1       0.625  28.214  55.583  1.00  0.00    -0.003 C 
ATOM     12  C   UNL     1      -0.127  29.326  54.856  1.00  0.00     0.004 C 
ENDBRANCH  10  11
ENDBRANCH   9  10
ENDBRANCH   8   9
ENDBRANCH   7   8
ENDBRANCH   6   7
ENDBRANCH   5   6
ENDBRANCH   4   5
ENDBRANCH   3   4
ENDBRANCH   2   3
ENDBRANCH   1   2
BRANCH   1  13
ATOM     13  C   UNL     1       5.310  28.869  50.962  1.00  0.00     0.000 C 
BRANCH  13  14
ATOM     14  C   UNL     1       4.647  27.499  50.703  1.00  0.00     0.000 C 
BRANCH  14  15
ATOM     15  C   UNL     1       4.974  26.945  49.305  1.00  0.00     0.000 C 
BRANCH  15  16
ATOM     16  C   UNL     1       5.880  27.880  48.482  1.00  0.00     0.000 C 
BRANCH  16  17
ATOM     17  C   UNL     1       5.377  28.198  47.059  1.00  0.00     0.000 C 
BRANCH  17  18
ATOM     18  C   UNL     1       3.931  28.723  46.978  1.00  0.00     0.000 C 
BRANCH  18  19
ATOM     19  C   UNL     1       3.775  30.242  47.194  1.00  0.00     0.000 C 
BRANCH  19  20
ATOM     20  C   UNL     1       2.541  30.867  46.521  1.00  0.00     0.006 C 
BRANCH  20  21
ATOM     21  C   UNL     1       1.553  29.819  45.993  1.00  0.00     0.053 C 
BRANCH  21  22
ATOM     22  C   UNL     1       1.205  30.094  44.564  1.00  0.00     0.041 C 
ATOM     23  O   UNL     1       2.014  29.792  43.646  1.00  0.00    -0.550 OA
ATOM     24  O   UNL     1      -0.008  30.694  44.245  1.00  0.00    -0.550 OA
ENDBRANCH  21  22
ENDBRANCH  20  21
ENDBRANCH  19  20
ENDBRANCH  18  19
ENDBRANCH  17  18
ENDBRANCH  16  17
ENDBRANCH  15  16
ENDBRANCH  14  15
ENDBRANCH  13  14
ENDBRANCH   1  13
TORSDOF 20
ENDMDL
MODEL 3
REMARK VINA RESULT:    -3.398      3.796      5.397
REMARK INTER + INTRA:         -10.823
REMARK INTER:                  -8.602
REMARK INTRA:                  -2.221
REMARK UNBOUND:                -3.452
REMARK SMILES CCCCCCCCCCCCCCCCCCCCCC(=O)[O-]
REMARK SMILES IDX 12 1 11 2 10 3 9 4 8 5 7 6 6 7 5 8 4 9 3 10 2 11 1 12 13 13
REMARK SMILES IDX 14 14 15 15 16 16 17 17 18 18 19 19 20 20 21 21 22 22 23 23
REMARK SMILES IDX 24 24
REMARK H PARENT
REMARK Flexibility Score: inf
ROOT
ATOM      1  C   UNL     1      -4.315  37.368  42.905  1.00  0.00     0.000 C 
ENDROOT
BRANCH   1   2
ATOM      2  C   UNL     1      -4.807  38.636  43.613  1.00  0.00     0.000 C 
BRANCH   2   3
ATOM      3  C   UNL     1      -6.237  38.988  43.185  1.00  0.00     0.000 C 
BRANCH   3   4
ATOM      4  C   UNL     1      -6.962  39.785  44.283  1.00  0.00    -0.000 C 
BRANCH   4   5
ATOM      5  C   UNL     1      -7.470  38.894  45.435  1.00  0.00    -0.000 C 
BRANCH   5   6
ATOM      6  C   UNL     1      -8.339  37.706  44.979  1.00  0.00    -0.000 C 
BRANCH   6   7
ATOM      7  C   UNL     1      -7.764  36.313  45.295  1.00  0.00    -0.000 C 
BRANCH   7   8
ATOM      8  C   UNL     1      -7.205  35.540  44.082  1.00  0.00    -0.000 C 
BRANCH   8   9
ATOM      9  C   UNL     1      -6.483  34.224  44.420  1.00  0.00    -0.000 C 
BRANCH   9  10
ATOM     10  C   UNL     1      -6.716  33.126  43.372  1.00  0.00    -0.000 C 
BRANCH  10  11
ATOM     11  C   UNL     1      -7.963  33.429  42.532  1.00  0.00    -0.003 C 
ATOM     12  C   UNL     1      -9.138  32.551  42.951  1.00  0.00     0.004 C 
ENDBRANCH  10  11
ENDBRANCH   9  10
ENDBRANCH   8   9
ENDBRANCH   7   8
ENDBRANCH   6   7
ENDBRANCH   5   6
ENDBRANCH   4   5
ENDBRANCH   3   4
ENDBRANCH   2   3
ENDBRANCH   1   2
BRANCH   1  13
ATOM     13  C   UNL     1      -4.147  37.557  41.387  1.00  0.00     0.000 C 
BRANCH  13  14
ATOM     14  C   UNL     1      -3.854  36.244  40.627  1.00  0.00     0.000 C 
BRANCH  14  15
ATOM     15  C   UNL     1      -4.250  34.998  41.439  1.00  0.00     0.000 C 
BRANCH  15  16
ATOM     16  C   UNL     1      -3.245  33.840  41.295  1.00  0.00     0.000 C 
BRANCH  16  17
ATOM     17  C   UNL     1      -2.879  33.120  42.610  1.00  0.00     0.000 C 
BRANCH  17  18
ATOM     18  C   UNL     1      -1.910  31.933  42.459  1.00  0.00     0.000 C 
BRANCH  18  19
ATOM     19  C   UNL     1      -2.500  30.557  42.828  1.00  0.00     0.000 C 
BRANCH  19  20
ATOM     20  C   UNL     1      -1.777  29.353  42.200  1.00  0.00     0.006 C 
BRANCH  20  21
ATOM     21  C   UNL     1      -0.250  29.505  42.205  1.00  0.00     0.053 C 
BRANCH  21  22
ATOM     22  C   UNL     1       0.301  29.347  40.824  1.00  0.00     0.041 C 
ATOM     23  O   UNL     1       1.115  30.193  40.365  1.00  0.00    -0.550 OA
ATOM     24  O   UNL     1      -0.091  28.271  40.036  1.00  0.00    -0.550 OA
ENDBRANCH  21  22
ENDBRANCH  20  21
ENDBRANCH  19  20
ENDBRANCH  18  19
ENDBRANCH  17  18
ENDBRANCH  16  17
ENDBRANCH  15  16
ENDBRANCH  14  15
ENDBRANCH  13  14
ENDBRANCH   1  13
TORSDOF 20
ENDMDL
MODEL 4
REMARK VINA RESULT:    -3.338      1.344      2.701
REMARK INTER + INTRA:         -10.693
REMARK INTER:                  -6.924
REMARK INTRA:                  -3.769
REMARK UNBOUND:                -3.452
REMARK SMILES CCCCCCCCCCCCCCCCCCCCCC(=O)[O-]
REMARK SMILES IDX 12 1 11 2 10 3 9 4 8 5 7 6 6 7 5 8 4 9 3 10 2 11 1 12 13 13
REMARK SMILES IDX 14 14 15 15 16 16 17 17 18 18 19 19 20 20 21 21 22 22 23 23
REMARK SMILES IDX 24 24
REMARK H PARENT
REMARK Flexibility Score: inf
ROOT
ATOM      1  C   UNL     1      -6.768  39.064  43.613  1.00  0.00     0.000 C 
ENDROOT
BRANCH   1   2
ATOM      2  C   UNL     1      -7.498  37.766  43.981  1.00  0.00     0.000 C 
BRANCH   2   3
ATOM      3  C   UNL     1      -8.354  37.953  45.240  1.00  0.00     0.000 C 
BRANCH   3   4
ATOM      4  C   UNL     1      -7.889  39.175  46.048  1.00  0.00    -0.000 C 
BRANCH   4   5
ATOM      5  C   UNL     1      -7.045  38.793  47.281  1.00  0.00    -0.000 C 
BRANCH   5   6
ATOM      6  C   UNL     1      -5.530  39.005  47.100  1.00  0.00    -0.000 C 
BRANCH   6   7
ATOM      7  C   UNL     1      -4.670  37.733  47.226  1.00  0.00    -0.000 C 
BRANCH   7   8
ATOM      8  C   UNL     1      -5.213  36.496  46.481  1.00  0.00    -0.000 C 
BRANCH   8   9
ATOM      9  C   UNL     1      -5.463  35.258  47.362  1.00  0.00    -0.000 C 
BRANCH   9  10
ATOM     10  C   UNL     1      -6.780  35.337  48.145  1.00  0.00    -0.000 C 
BRANCH  10  11
ATOM     11  C   UNL     1      -7.682  34.140  47.819  1.00  0.00    -0.003 C 
ATOM     12  C   UNL     1      -6.859  32.878  47.574  1.00  0.00     0.004 C 
ENDBRANCH  10  11
ENDBRANCH   9  10
ENDBRANCH   8   9
ENDBRANCH   7   8
ENDBRANCH   6   7
ENDBRANCH   5   6
ENDBRANCH   4   5
ENDBRANCH   3   4
ENDBRANCH   2   3
ENDBRANCH   1   2
BRANCH   1  13
ATOM     13  C   UNL     1      -5.284  38.838  43.269  1.00  0.00     0.000 C 
BRANCH  13  14
ATOM     14  C   UNL     1      -4.937  37.366  42.956  1.00  0.00     0.000 C 
BRANCH  14  15
ATOM     15  C   UNL     1      -3.421  37.139  42.820  1.00  0.00     0.000 C 
BRANCH  15  16
ATOM     16  C   UNL     1      -3.069  35.913  41.958  1.00  0.00     0.000 C 
BRANCH  16  17
ATOM     17  C   UNL     1      -4.277  35.154  41.371  1.00  0.00     0.000 C 
BRANCH  17  18
ATOM     18  C   UNL     1      -4.680  33.877  42.133  1.00  0.00     0.000 C 
BRANCH  18  19
ATOM     19  C   UNL     1      -6.180  33.767  42.473  1.00  0.00     0.000 C 
BRANCH  19  20
ATOM     20  C   UNL     1      -6.525  33.993  43.955  1.00  0.00     0.006 C 
BRANCH  20  21
ATOM     21  C   UNL     1      -8.035  34.106  44.207  1.00  0.00     0.053 C 
BRANCH  21  22
ATOM     22  C   UNL     1      -8.719  32.812  43.899  1.00  0.00     0.041 C 
ATOM     23  O   UNL     1      -8.618  31.837  44.692  1.00  0.00    -0.550 OA
ATOM     24  O   UNL     1      -9.461  32.676  42.731  1.00  0.00    -0.550 OA
ENDBRANCH  21  22
ENDBRANCH  20  21
ENDBRANCH  19  20
ENDBRANCH  18  19
ENDBRANCH  17  18
ENDBRANCH  16  17
ENDBRANCH  15  16
ENDBRANCH  14  15
ENDBRANCH  13  14
ENDBRANCH   1  13
TORSDOF 20
ENDMDL
MODEL 5
REMARK VINA RESULT:    -3.324      1.409      5.446
REMARK INTER + INTRA:         -10.662
REMARK INTER:                  -6.769
REMARK INTRA:                  -3.893
REMARK UNBOUND:                -3.452
REMARK SMILES CCCCCCCCCCCCCCCCCCCCCC(=O)[O-]
REMARK SMILES IDX 12 1 11 2 10 3 9 4 8 5 7 6 6 7 5 8 4 9 3 10 2 11 1 12 13 13
REMARK SMILES IDX 14 14 15 15 16 16 17 17 18 18 19 19 20 20 21 21 22 22 23 23
REMARK SMILES IDX 24 24
REMARK H PARENT
REMARK Flexibility Score: inf
ROOT
ATOM      1  C   UNL     1      -5.921  37.217  43.314  1.00  0.00     0.000 C 
ENDROOT
BRANCH   1   2
ATOM      2  C   UNL     1      -4.567  36.507  43.442  1.00  0.00     0.000 C 
BRANCH   2   3
ATOM      3  C   UNL     1      -4.171  36.334  44.913  1.00  0.00     0.000 C 
BRANCH   3   4
ATOM      4  C   UNL     1      -2.896  35.485  45.046  1.00  0.00    -0.000 C 
BRANCH   4   5
ATOM      5  C   UNL     1      -3.191  33.977  45.181  1.00  0.00    -0.000 C 
BRANCH   5   6
ATOM      6  C   UNL     1      -2.453  33.094  44.157  1.00  0.00    -0.000 C 
BRANCH   6   7
ATOM      7  C   UNL     1      -3.336  32.507  43.040  1.00  0.00    -0.000 C 
BRANCH   7   8
ATOM      8  C   UNL     1      -3.584  33.441  41.838  1.00  0.00    -0.000 C 
BRANCH   8   9
ATOM      9  C   UNL     1      -2.370  34.276  41.395  1.00  0.00    -0.000 C 
BRANCH   9  10
ATOM     10  C   UNL     1      -2.700  35.264  40.268  1.00  0.00    -0.000 C 
BRANCH  10  11
ATOM     11  C   UNL     1      -2.480  36.711  40.728  1.00  0.00    -0.003 C 
ATOM     12  C   UNL     1      -3.476  37.659  40.067  1.00  0.00     0.004 C 
ENDBRANCH  10  11
ENDBRANCH   9  10
ENDBRANCH   8   9
ENDBRANCH   7   8
ENDBRANCH   6   7
ENDBRANCH   5   6
ENDBRANCH   4   5
ENDBRANCH   3   4
ENDBRANCH   2   3
ENDBRANCH   1   2
BRANCH   1  13
ATOM     13  C   UNL     1      -5.890  38.663  43.840  1.00  0.00     0.000 C 
BRANCH  13  14
ATOM     14  C   UNL     1      -7.211  39.108  44.506  1.00  0.00     0.000 C 
BRANCH  14  15
ATOM     15  C   UNL     1      -8.152  37.924  44.790  1.00  0.00     0.000 C 
BRANCH  15  16
ATOM     16  C   UNL     1      -8.174  37.512  46.274  1.00  0.00     0.000 C 
BRANCH  16  17
ATOM     17  C   UNL     1      -7.551  36.135  46.583  1.00  0.00     0.000 C 
BRANCH  17  18
ATOM     18  C   UNL     1      -7.896  35.020  45.578  1.00  0.00     0.000 C 
BRANCH  18  19
ATOM     19  C   UNL     1      -6.877  33.865  45.510  1.00  0.00     0.000 C 
BRANCH  19  20
ATOM     20  C   UNL     1      -6.795  33.154  44.148  1.00  0.00     0.006 C 
BRANCH  20  21
ATOM     21  C   UNL     1      -7.557  33.894  43.041  1.00  0.00     0.053 C 
BRANCH  21  22
ATOM     22  C   UNL     1      -8.677  33.052  42.518  1.00  0.00     0.041 C 
ATOM     23  O   UNL     1      -8.705  32.719  41.303  1.00  0.00    -0.550 OA
ATOM     24  O   UNL     1      -9.698  32.642  43.369  1.00  0.00    -0.550 OA
ENDBRANCH  21  22
ENDBRANCH  20  21
ENDBRANCH  19  20
ENDBRANCH  18  19
ENDBRANCH  17  18
ENDBRANCH  16  17
ENDBRANCH  15  16
ENDBRANCH  14  15
ENDBRANCH  13  14
ENDBRANCH   1  13
TORSDOF 20
ENDMDL
MODEL 6
REMARK VINA RESULT:    -3.275      1.322      5.100
REMARK INTER + INTRA:         -10.556
REMARK INTER:                  -6.802
REMARK INTRA:                  -3.754
REMARK UNBOUND:                -3.452
REMARK SMILES CCCCCCCCCCCCCCCCCCCCCC(=O)[O-]
REMARK SMILES IDX 12 1 11 2 10 3 9 4 8 5 7 6 6 7 5 8 4 9 3 10 2 11 1 12 13 13
REMARK SMILES IDX 14 14 15 15 16 16 17 17 18 18 19 19 20 20 21 21 22 22 23 23
REMARK SMILES IDX 24 24
REMARK H PARENT
REMARK Flexibility Score: inf
ROOT
ATOM      1  C   UNL     1      -8.366  38.180  45.336  1.00  0.00     0.000 C 
ENDROOT
BRANCH   1   2
ATOM      2  C   UNL     1      -7.668  37.857  44.009  1.00  0.00     0.000 C 
BRANCH   2   3
ATOM      3  C   UNL     1      -6.446  38.758  43.794  1.00  0.00     0.000 C 
BRANCH   3   4
ATOM      4  C   UNL     1      -5.183  37.922  43.528  1.00  0.00    -0.000 C 
BRANCH   4   5
ATOM      5  C   UNL     1      -4.559  38.203  42.146  1.00  0.00    -0.000 C 
BRANCH   5   6
ATOM      6  C   UNL     1      -3.463  37.202  41.733  1.00  0.00    -0.000 C 
BRANCH   6   7
ATOM      7  C   UNL     1      -3.887  36.160  40.682  1.00  0.00    -0.000 C 
BRANCH   7   8
ATOM      8  C   UNL     1      -4.340  34.799  41.249  1.00  0.00    -0.000 C 
BRANCH   8   9
ATOM      9  C   UNL     1      -3.218  33.761  41.436  1.00  0.00    -0.000 C 
BRANCH   9  10
ATOM     10  C   UNL     1      -3.174  33.175  42.853  1.00  0.00    -0.000 C 
BRANCH  10  11
ATOM     11  C   UNL     1      -2.596  34.191  43.847  1.00  0.00    -0.003 C 
ATOM     12  C   UNL     1      -1.227  34.689  43.395  1.00  0.00     0.004 C 
ENDBRANCH  10  11
ENDBRANCH   9  10
ENDBRANCH   8   9
ENDBRANCH   7   8
ENDBRANCH   6   7
ENDBRANCH   5   6
ENDBRANCH   4   5
ENDBRANCH   3   4
ENDBRANCH   2   3
ENDBRANCH   1   2
BRANCH   1  13
ATOM     13  C   UNL     1      -7.645  39.275  46.141  1.00  0.00     0.000 C 
BRANCH  13  14
ATOM     14  C   UNL     1      -7.002  38.762  47.448  1.00  0.00     0.000 C 
BRANCH  14  15
ATOM     15  C   UNL     1      -5.508  38.435  47.276  1.00  0.00     0.000 C 
BRANCH  15  16
ATOM     16  C   UNL     1      -5.230  36.925  47.159  1.00  0.00     0.000 C 
BRANCH  16  17
ATOM     17  C   UNL     1      -6.390  36.007  47.599  1.00  0.00     0.000 C 
BRANCH  17  18
ATOM     18  C   UNL     1      -6.854  34.987  46.542  1.00  0.00     0.000 C 
BRANCH  18  19
ATOM     19  C   UNL     1      -5.910  34.823  45.335  1.00  0.00     0.000 C 
BRANCH  19  20
ATOM     20  C   UNL     1      -6.593  34.353  44.039  1.00  0.00     0.006 C 
BRANCH  20  21
ATOM     21  C   UNL     1      -8.096  34.099  44.214  1.00  0.00     0.053 C 
BRANCH  21  22
ATOM     22  C   UNL     1      -8.517  32.880  43.456  1.00  0.00     0.041 C 
ATOM     23  O   UNL     1      -8.565  31.760  44.032  1.00  0.00    -0.550 OA
ATOM     24  O   UNL     1      -8.847  32.977  42.108  1.00  0.00    -0.550 OA
ENDBRANCH  21  22
ENDBRANCH  20  21
ENDBRANCH  19  20
ENDBRANCH  18  19
ENDBRANCH  17  18
ENDBRANCH  16  17
ENDBRANCH  15  16
ENDBRANCH  14  15
ENDBRANCH  13  14
ENDBRANCH   1  13
TORSDOF 20
ENDMDL
MODEL 7
REMARK VINA RESULT:    -3.261      2.559      5.961
REMARK INTER + INTRA:         -10.525
REMARK INTER:                  -6.525
REMARK INTRA:                  -4.001
REMARK UNBOUND:                -3.452
REMARK SMILES CCCCCCCCCCCCCCCCCCCCCC(=O)[O-]
REMARK SMILES IDX 12 1 11 2 10 3 9 4 8 5 7 6 6 7 5 8 4 9 3 10 2 11 1 12 13 13
REMARK SMILES IDX 14 14 15 15 16 16 17 17 18 18 19 19 20 20 21 21 22 22 23 23
REMARK SMILES IDX 24 24
REMARK H PARENT
REMARK Flexibility Score: inf
ROOT
ATOM      1  C   UNL     1      -8.061  36.392  45.868  1.00  0.00     0.000 C 
ENDROOT
BRANCH   1   2
ATOM      2  C   UNL     1      -7.484  35.615  44.678  1.00  0.00     0.000 C 
BRANCH   2   3
ATOM      3  C   UNL     1      -7.774  34.115  44.805  1.00  0.00     0.000 C 
BRANCH   3   4
ATOM      4  C   UNL     1      -6.844  33.293  43.897  1.00  0.00    -0.000 C 
BRANCH   4   5
ATOM      5  C   UNL     1      -5.942  34.174  43.009  1.00  0.00    -0.000 C 
BRANCH   5   6
ATOM      6  C   UNL     1      -4.467  34.217  43.453  1.00  0.00    -0.000 C 
BRANCH   6   7
ATOM      7  C   UNL     1      -4.165  33.523  44.794  1.00  0.00    -0.000 C 
BRANCH   7   8
ATOM      8  C   UNL     1      -4.008  34.468  46.003  1.00  0.00    -0.000 C 
BRANCH   8   9
ATOM      9  C   UNL     1      -3.700  35.935  45.654  1.00  0.00    -0.000 C 
BRANCH   9  10
ATOM     10  C   UNL     1      -4.535  36.934  46.467  1.00  0.00    -0.000 C 
BRANCH  10  11
ATOM     11  C   UNL     1      -3.793  38.266  46.624  1.00  0.00    -0.003 C 
ATOM     12  C   UNL     1      -2.661  38.392  45.608  1.00  0.00     0.004 C 
ENDBRANCH  10  11
ENDBRANCH   9  10
ENDBRANCH   8   9
ENDBRANCH   7   8
ENDBRANCH   6   7
ENDBRANCH   5   6
ENDBRANCH   4   5
ENDBRANCH   3   4
ENDBRANCH   2   3
ENDBRANCH   1   2
BRANCH   1  13
ATOM     13  C   UNL     1      -8.589  37.783  45.474  1.00  0.00     0.000 C 
BRANCH  13  14
ATOM     14  C   UNL     1      -7.928  38.941  46.253  1.00  0.00     0.000 C 
BRANCH  14  15
ATOM     15  C   UNL     1      -6.923  39.727  45.392  1.00  0.00     0.000 C 
BRANCH  15  16
ATOM     16  C   UNL     1      -7.098  39.479  43.882  1.00  0.00     0.000 C 
BRANCH  16  17
ATOM     17  C   UNL     1      -5.787  39.288  43.092  1.00  0.00     0.000 C 
BRANCH  17  18
ATOM     18  C   UNL     1      -5.312  37.829  42.955  1.00  0.00     0.000 C 
BRANCH  18  19
ATOM     19  C   UNL     1      -3.949  37.649  42.257  1.00  0.00     0.000 C 
BRANCH  19  20
ATOM     20  C   UNL     1      -4.016  37.557  40.722  1.00  0.00     0.006 C 
BRANCH  20  21
ATOM     21  C   UNL     1      -3.923  36.115  40.206  1.00  0.00     0.053 C 
BRANCH  21  22
ATOM     22  C   UNL     1      -2.509  35.629  40.248  1.00  0.00     0.041 C 
ATOM     23  O   UNL     1      -2.256  34.446  40.601  1.00  0.00    -0.550 OA
ATOM     24  O   UNL     1      -1.467  36.485  39.909  1.00  0.00    -0.550 OA
ENDBRANCH  21  22
ENDBRANCH  20  21
ENDBRANCH  19  20
ENDBRANCH  18  19
ENDBRANCH  17  18
ENDBRANCH  16  17
ENDBRANCH  15  16
ENDBRANCH  14  15
ENDBRANCH  13  14
ENDBRANCH   1  13
TORSDOF 20
ENDMDL
MODEL 8
REMARK VINA RESULT:    -3.259      1.840      5.565
REMARK INTER + INTRA:         -10.521
REMARK INTER:                  -6.410
REMARK INTRA:                  -4.111
REMARK UNBOUND:                -3.452
REMARK SMILES CCCCCCCCCCCCCCCCCCCCCC(=O)[O-]
REMARK SMILES IDX 12 1 11 2 10 3 9 4 8 5 7 6 6 7 5 8 4 9 3 10 2 11 1 12 13 13
REMARK SMILES IDX 14 14 15 15 16 16 17 17 18 18 19 19 20 20 21 21 22 22 23 23
REMARK SMILES IDX 24 24
REMARK H PARENT
REMARK Flexibility Score: inf
ROOT
ATOM      1  C   UNL     1      -3.344  37.810  44.333  1.00  0.00     0.000 C 
ENDROOT
BRANCH   1   2
ATOM      2  C   UNL     1      -3.774  38.557  43.065  1.00  0.00     0.000 C 
BRANCH   2   3
ATOM      3  C   UNL     1      -4.533  37.629  42.109  1.00  0.00     0.000 C 
BRANCH   3   4
ATOM      4  C   UNL     1      -3.878  37.614  40.717  1.00  0.00    -0.000 C 
BRANCH   4   5
ATOM      5  C   UNL     1      -3.879  36.214  40.069  1.00  0.00    -0.000 C 
BRANCH   5   6
ATOM      6  C   UNL     1      -4.279  35.075  41.027  1.00  0.00    -0.000 C 
BRANCH   6   7
ATOM      7  C   UNL     1      -3.124  34.163  41.480  1.00  0.00    -0.000 C 
BRANCH   7   8
ATOM      8  C   UNL     1      -2.458  34.558  42.814  1.00  0.00    -0.000 C 
BRANCH   8   9
ATOM      9  C   UNL     1      -1.052  35.172  42.689  1.00  0.00    -0.000 C 
BRANCH   9  10
ATOM     10  C   UNL     1      -0.552  35.235  41.239  1.00  0.00    -0.000 C 
BRANCH  10  11
ATOM     11  C   UNL     1       0.244  36.522  40.991  1.00  0.00    -0.003 C 
ATOM     12  C   UNL     1      -0.386  37.710  41.714  1.00  0.00     0.004 C 
ENDBRANCH  10  11
ENDBRANCH   9  10
ENDBRANCH   8   9
ENDBRANCH   7   8
ENDBRANCH   6   7
ENDBRANCH   5   6
ENDBRANCH   4   5
ENDBRANCH   3   4
ENDBRANCH   2   3
ENDBRANCH   1   2
BRANCH   1  13
ATOM     13  C   UNL     1      -3.536  38.644  45.613  1.00  0.00     0.000 C 
BRANCH  13  14
ATOM     14  C   UNL     1      -4.512  39.828  45.440  1.00  0.00     0.000 C 
BRANCH  14  15
ATOM     15  C   UNL     1      -5.598  39.855  46.530  1.00  0.00     0.000 C 
BRANCH  15  16
ATOM     16  C   UNL     1      -7.028  39.835  45.959  1.00  0.00     0.000 C 
BRANCH  16  17
ATOM     17  C   UNL     1      -7.122  39.658  44.429  1.00  0.00     0.000 C 
BRANCH  17  18
ATOM     18  C   UNL     1      -7.523  38.249  43.956  1.00  0.00     0.000 C 
BRANCH  18  19
ATOM     19  C   UNL     1      -7.751  37.222  45.083  1.00  0.00     0.000 C 
BRANCH  19  20
ATOM     20  C   UNL     1      -6.620  36.194  45.260  1.00  0.00     0.006 C 
BRANCH  20  21
ATOM     21  C   UNL     1      -6.520  35.208  44.089  1.00  0.00     0.053 C 
BRANCH  21  22
ATOM     22  C   UNL     1      -7.623  34.200  44.153  1.00  0.00     0.041 C 
ATOM     23  O   UNL     1      -8.176  33.798  43.094  1.00  0.00    -0.550 OA
ATOM     24  O   UNL     1      -8.051  33.711  45.382  1.00  0.00    -0.550 OA
ENDBRANCH  21  22
ENDBRANCH  20  21
ENDBRANCH  19  20
ENDBRANCH  18  19
ENDBRANCH  17  18
ENDBRANCH  16  17
ENDBRANCH  15  16
ENDBRANCH  14  15
ENDBRANCH  13  14
ENDBRANCH   1  13
TORSDOF 20
ENDMDL
MODEL 9
REMARK VINA RESULT:    -3.245      2.534      4.503
REMARK INTER + INTRA:         -10.492
REMARK INTER:                  -6.767
REMARK INTRA:                  -3.725
REMARK UNBOUND:                -3.452
REMARK SMILES CCCCCCCCCCCCCCCCCCCCCC(=O)[O-]
REMARK SMILES IDX 12 1 11 2 10 3 9 4 8 5 7 6 6 7 5 8 4 9 3 10 2 11 1 12 13 13
REMARK SMILES IDX 14 14 15 15 16 16 17 17 18 18 19 19 20 20 21 21 22 22 23 23
REMARK SMILES IDX 24 24
REMARK H PARENT
REMARK Flexibility Score: inf
ROOT
ATOM      1  C   UNL     1      -3.829  38.533  45.170  1.00  0.00     0.000 C 
ENDROOT
BRANCH   1   2
ATOM      2  C   UNL     1      -4.285  39.865  44.559  1.00  0.00     0.000 C 
BRANCH   2   3
ATOM      3  C   UNL     1      -5.783  40.094  44.792  1.00  0.00     0.000 C 
BRANCH   3   4
ATOM      4  C   UNL     1      -6.614  39.555  43.615  1.00  0.00    -0.000 C 
BRANCH   4   5
ATOM      5  C   UNL     1      -7.505  38.359  44.008  1.00  0.00    -0.000 C 
BRANCH   5   6
ATOM      6  C   UNL     1      -8.148  38.482  45.403  1.00  0.00    -0.000 C 
BRANCH   6   7
ATOM      7  C   UNL     1      -8.134  37.194  46.247  1.00  0.00    -0.000 C 
BRANCH   7   8
ATOM      8  C   UNL     1      -6.736  36.603  46.523  1.00  0.00    -0.000 C 
BRANCH   8   9
ATOM      9  C   UNL     1      -6.575  35.111  46.180  1.00  0.00    -0.000 C 
BRANCH   9  10
ATOM     10  C   UNL     1      -7.714  34.572  45.303  1.00  0.00    -0.000 C 
BRANCH  10  11
ATOM     11  C   UNL     1      -7.331  34.621  43.819  1.00  0.00    -0.003 C 
ATOM     12  C   UNL     1      -7.095  33.220  43.262  1.00  0.00     0.004 C 
ENDBRANCH  10  11
ENDBRANCH   9  10
ENDBRANCH   8   9
ENDBRANCH   7   8
ENDBRANCH   6   7
ENDBRANCH   5   6
ENDBRANCH   4   5
ENDBRANCH   3   4
ENDBRANCH   2   3
ENDBRANCH   1   2
BRANCH   1  13
ATOM     13  C   UNL     1      -3.178  37.594  44.139  1.00  0.00     0.000 C 
BRANCH  13  14
ATOM     14  C   UNL     1      -4.081  36.413  43.719  1.00  0.00     0.000 C 
BRANCH  14  15
ATOM     15  C   UNL     1      -4.701  36.617  42.325  1.00  0.00     0.000 C 
BRANCH  15  16
ATOM     16  C   UNL     1      -4.083  37.799  41.556  1.00  0.00     0.000 C 
BRANCH  16  17
ATOM     17  C   UNL     1      -3.578  37.467  40.137  1.00  0.00     0.000 C 
BRANCH  17  18
ATOM     18  C   UNL     1      -3.191  35.994  39.907  1.00  0.00     0.000 C 
BRANCH  18  19
ATOM     19  C   UNL     1      -1.706  35.663  40.151  1.00  0.00     0.000 C 
BRANCH  19  20
ATOM     20  C   UNL     1      -1.431  34.807  41.400  1.00  0.00     0.006 C 
BRANCH  20  21
ATOM     21  C   UNL     1      -2.465  33.691  41.599  1.00  0.00     0.053 C 
BRANCH  21  22
ATOM     22  C   UNL     1      -1.817  32.464  42.157  1.00  0.00     0.041 C 
ATOM     23  O   UNL     1      -2.509  31.442  42.413  1.00  0.00    -0.550 OA
ATOM     24  O   UNL     1      -0.449  32.450  42.406  1.00  0.00    -0.550 OA
ENDBRANCH  21  22
ENDBRANCH  20  21
ENDBRANCH  19  20
ENDBRANCH  18  19
ENDBRANCH  17  18
ENDBRANCH  16  17
ENDBRANCH  15  16
ENDBRANCH  14  15
ENDBRANCH  13  14
ENDBRANCH   1  13
TORSDOF 20
ENDMDL
