MODEL 1
REMARK VINA RESULT:    -4.116      0.000      0.000
REMARK INTER + INTRA:         -16.087
REMARK INTER:                 -10.852
REMARK INTRA:                  -5.235
REMARK UNBOUND:                -5.235
REMARK SMILES CCCCCCCCCCCCCCCCCCCCCCCCCCCCCC(=O)[O-]
REMARK SMILES IDX 16 1 17 2 18 3 19 4 20 5 21 6 22 7 23 8 24 9 25 10 26 11
REMARK SMILES IDX 27 12 28 13 29 14 30 15 31 16 32 17 15 18 14 19 13 20 12 21
REMARK SMILES IDX 11 22 10 23 9 24 8 25 7 26 6 27 5 28 4 29 3 30 2 31 1 32
REMARK H PARENT
REMARK Flexibility Score: inf
ROOT
ATOM      1  C   UNL     1      -4.567  24.641 -11.427  1.00  0.00     0.000 C 
ENDROOT
BRANCH   1   2
ATOM      2  C   UNL     1      -4.795  24.197 -12.880  1.00  0.00     0.000 C 
BRANCH   2   3
ATOM      3  C   UNL     1      -4.860  25.412 -13.816  1.00  0.00     0.000 C 
BRANCH   3   4
ATOM      4  C   UNL     1      -5.437  26.665 -13.133  1.00  0.00     0.000 C 
BRANCH   4   5
ATOM      5  C   UNL     1      -6.968  26.829 -13.247  1.00  0.00     0.000 C 
BRANCH   5   6
ATOM      6  C   UNL     1      -7.615  26.120 -14.450  1.00  0.00     0.000 C 
BRANCH   6   7
ATOM      7  C   UNL     1      -8.622  25.035 -14.036  1.00  0.00     0.000 C 
BRANCH   7   8
ATOM      8  C   UNL     1      -8.828  25.036 -12.515  1.00  0.00     0.000 C 
BRANCH   8   9
ATOM      9  C   UNL     1      -8.784  23.623 -11.911  1.00  0.00     0.000 C 
BRANCH   9  10
ATOM     10  C   UNL     1      -8.124  22.599 -12.851  1.00  0.00     0.000 C 
BRANCH  10  11
ATOM     11  C   UNL     1      -8.279  21.152 -12.339  1.00  0.00     0.000 C 
BRANCH  11  12
ATOM     12  C   UNL     1      -8.001  20.997 -10.833  1.00  0.00     0.000 C 
BRANCH  12  13
ATOM     13  C   UNL     1      -6.567  20.527 -10.535  1.00  0.00     0.006 C 
BRANCH  13  14
ATOM     14  C   UNL     1      -6.298  20.402  -9.030  1.00  0.00     0.053 C 
BRANCH  14  15
ATOM     15  C   UNL     1      -7.148  19.341  -8.397  1.00  0.00     0.041 C 
ATOM     16  O   UNL     1      -7.146  18.171  -8.860  1.00  0.00    -0.550 OA
ATOM     17  O   UNL     1      -7.949  19.649  -7.305  1.00  0.00    -0.550 OA
ENDBRANCH  14  15
ENDBRANCH  13  14
ENDBRANCH  12  13
ENDBRANCH  11  12
ENDBRANCH  10  11
ENDBRANCH   9  10
ENDBRANCH   8   9
ENDBRANCH   7   8
ENDBRANCH   6   7
ENDBRANCH   5   6
ENDBRANCH   4   5
ENDBRANCH   3   4
ENDBRANCH   2   3
ENDBRANCH   1   2
BRANCH   1  18
ATOM     18  C   UNL     1      -5.660  24.125 -10.476  1.00  0.00     0.000 C 
BRANCH  18  19
ATOM     19  C   UNL     1      -5.843  25.039  -9.253  1.00  0.00     0.000 C 
BRANCH  19  20
ATOM     20  C   UNL     1      -7.237  25.683  -9.201  1.00  0.00     0.000 C 
BRANCH  20  21
ATOM     21  C   UNL     1      -7.178  27.198  -8.935  1.00  0.00     0.000 C 
BRANCH  21  22
ATOM     22  C   UNL     1      -7.979  28.007  -9.969  1.00  0.00     0.000 C 
BRANCH  22  23
ATOM     23  C   UNL     1      -7.919  29.523  -9.707  1.00  0.00     0.000 C 
BRANCH  23  24
ATOM     24  C   UNL     1      -8.159  29.873  -8.223  1.00  0.00    -0.000 C 
BRANCH  24  25
ATOM     25  C   UNL     1      -9.622  29.713  -7.770  1.00  0.00    -0.000 C 
BRANCH  25  26
ATOM     26  C   UNL     1     -10.663  30.353  -8.702  1.00  0.00    -0.000 C 
BRANCH  26  27
ATOM     27  C   UNL     1     -11.665  29.333  -9.266  1.00  0.00    -0.000 C 
BRANCH  27  28
ATOM     28  C   UNL     1     -12.276  28.487  -8.140  1.00  0.00    -0.000 C 
BRANCH  28  29
ATOM     29  C   UNL     1     -12.048  26.977  -8.336  1.00  0.00    -0.000 C 
BRANCH  29  30
ATOM     30  C   UNL     1     -11.169  26.601  -9.546  1.00  0.00    -0.000 C 
BRANCH  30  31
ATOM     31  C   UNL     1     -11.861  25.728 -10.608  1.00  0.00    -0.003 C 
ATOM     32  C   UNL     1     -13.212  26.289 -11.050  1.00  0.00     0.004 C 
ENDBRANCH  30  31
ENDBRANCH  29  30
ENDBRANCH  28  29
ENDBRANCH  27  28
ENDBRANCH  26  27
ENDBRANCH  25  26
ENDBRANCH  24  25
ENDBRANCH  23  24
ENDBRANCH  22  23
ENDBRANCH  21  22
ENDBRANCH  20  21
ENDBRANCH  19  20
ENDBRANCH  18  19
ENDBRANCH   1  18
TORSDOF 28
ENDMDL
MODEL 2
REMARK VINA RESULT:    -3.956      1.469      2.740
REMARK INTER + INTRA:         -15.667
REMARK INTER:                 -11.164
REMARK INTRA:                  -4.503
REMARK UNBOUND:                -5.235
REMARK SMILES CCCCCCCCCCCCCCCCCCCCCCCCCCCCCC(=O)[O-]
REMARK SMILES IDX 16 1 17 2 18 3 19 4 20 5 21 6 22 7 23 8 24 9 25 10 26 11
REMARK SMILES IDX 27 12 28 13 29 14 30 15 31 16 32 17 15 18 14 19 13 20 12 21
REMARK SMILES IDX 11 22 10 23 9 24 8 25 7 26 6 27 5 28 4 29 3 30 2 31 1 32
REMARK H PARENT
REMARK Flexibility Score: inf
ROOT
ATOM      1  C   UNL     1      -7.192  25.370  -9.825  1.00  0.00     0.000 C 
ENDROOT
BRANCH   1   2
ATOM      2  C   UNL     1      -8.106  25.336 -11.060  1.00  0.00     0.000 C 
BRANCH   2   3
ATOM      3  C   UNL     1      -7.524  26.197 -12.190  1.00  0.00     0.000 C 
BRANCH   3   4
ATOM      4  C   UNL     1      -6.056  26.591 -11.949  1.00  0.00     0.000 C 
BRANCH   4   5
ATOM      5  C   UNL     1      -5.143  26.512 -13.191  1.00  0.00     0.000 C 
BRANCH   5   6
ATOM      6  C   UNL     1      -3.889  25.633 -13.029  1.00  0.00     0.000 C 
BRANCH   6   7
ATOM      7  C   UNL     1      -4.199  24.253 -12.428  1.00  0.00     0.000 C 
BRANCH   7   8
ATOM      8  C   UNL     1      -4.278  23.185 -13.529  1.00  0.00     0.000 C 
BRANCH   8   9
ATOM      9  C   UNL     1      -5.666  23.115 -14.186  1.00  0.00     0.000 C 
BRANCH   9  10
ATOM     10  C   UNL     1      -6.757  22.635 -13.212  1.00  0.00     0.000 C 
BRANCH  10  11
ATOM     11  C   UNL     1      -6.250  21.523 -12.270  1.00  0.00     0.000 C 
BRANCH  11  12
ATOM     12  C   UNL     1      -6.593  21.764 -10.790  1.00  0.00     0.000 C 
BRANCH  12  13
ATOM     13  C   UNL     1      -7.306  20.565 -10.139  1.00  0.00     0.006 C 
BRANCH  13  14
ATOM     14  C   UNL     1      -6.724  20.222  -8.762  1.00  0.00     0.053 C 
BRANCH  14  15
ATOM     15  C   UNL     1      -7.347  18.987  -8.184  1.00  0.00     0.041 C 
ATOM     16  O   UNL     1      -7.292  17.898  -8.813  1.00  0.00    -0.550 OA
ATOM     17  O   UNL     1      -7.999  19.042  -6.959  1.00  0.00    -0.550 OA
ENDBRANCH  14  15
ENDBRANCH  13  14
ENDBRANCH  12  13
ENDBRANCH  11  12
ENDBRANCH  10  11
ENDBRANCH   9  10
ENDBRANCH   8   9
ENDBRANCH   7   8
ENDBRANCH   6   7
ENDBRANCH   5   6
ENDBRANCH   4   5
ENDBRANCH   3   4
ENDBRANCH   2   3
ENDBRANCH   1   2
BRANCH   1  18
ATOM     18  C   UNL     1      -7.825  26.127  -8.646  1.00  0.00     0.000 C 
BRANCH  18  19
ATOM     19  C   UNL     1      -9.279  26.537  -8.933  1.00  0.00     0.000 C 
BRANCH  19  20
ATOM     20  C   UNL     1      -9.502  28.052  -8.800  1.00  0.00     0.000 C 
BRANCH  20  21
ATOM     21  C   UNL     1      -8.892  28.843  -9.971  1.00  0.00     0.000 C 
BRANCH  21  22
ATOM     22  C   UNL     1      -7.835  29.858  -9.506  1.00  0.00     0.000 C 
BRANCH  22  23
ATOM     23  C   UNL     1      -7.609  29.818  -7.983  1.00  0.00     0.000 C 
BRANCH  23  24
ATOM     24  C   UNL     1      -7.859  31.188  -7.317  1.00  0.00    -0.000 C 
BRANCH  24  25
ATOM     25  C   UNL     1      -8.925  31.159  -6.205  1.00  0.00    -0.000 C 
BRANCH  25  26
ATOM     26  C   UNL     1     -10.354  30.856  -6.685  1.00  0.00    -0.000 C 
BRANCH  26  27
ATOM     27  C   UNL     1     -10.724  31.612  -7.970  1.00  0.00    -0.000 C 
BRANCH  27  28
ATOM     28  C   UNL     1     -12.015  31.049  -8.583  1.00  0.00    -0.000 C 
BRANCH  28  29
ATOM     29  C   UNL     1     -12.667  29.961  -7.710  1.00  0.00    -0.000 C 
BRANCH  29  30
ATOM     30  C   UNL     1     -13.144  28.709  -8.475  1.00  0.00    -0.000 C 
BRANCH  30  31
ATOM     31  C   UNL     1     -12.914  28.750  -9.997  1.00  0.00    -0.003 C 
ATOM     32  C   UNL     1     -13.665  27.647 -10.742  1.00  0.00     0.004 C 
ENDBRANCH  30  31
ENDBRANCH  29  30
ENDBRANCH  28  29
ENDBRANCH  27  28
ENDBRANCH  26  27
ENDBRANCH  25  26
ENDBRANCH  24  25
ENDBRANCH  23  24
ENDBRANCH  22  23
ENDBRANCH  21  22
ENDBRANCH  20  21
ENDBRANCH  19  20
ENDBRANCH  18  19
ENDBRANCH   1  18
TORSDOF 28
ENDMDL
MODEL 3
REMARK VINA RESULT:    -3.925      3.344      6.114
REMARK INTER + INTRA:         -15.584
REMARK INTER:                 -10.161
REMARK INTRA:                  -5.423
REMARK UNBOUND:                -5.235
REMARK SMILES CCCCCCCCCCCCCCCCCCCCCCCCCCCCCC(=O)[O-]
REMARK SMILES IDX 16 1 17 2 18 3 19 4 20 5 21 6 22 7 23 8 24 9 25 10 26 11
REMARK SMILES IDX 27 12 28 13 29 14 30 15 31 16 32 17 15 18 14 19 13 20 12 21
REMARK SMILES IDX 11 22 10 23 9 24 8 25 7 26 6 27 5 28 4 29 3 30 2 31 1 32
REMARK H PARENT
REMARK Flexibility Score: inf
ROOT
ATOM      1  C   UNL     1      -6.862  30.246  -9.223  1.00  0.00     0.000 C 
ENDROOT
BRANCH   1   2
ATOM      2  C   UNL     1      -5.375  30.394  -8.869  1.00  0.00     0.000 C 
BRANCH   2   3
ATOM      3  C   UNL     1      -5.203  31.178  -7.560  1.00  0.00     0.000 C 
BRANCH   3   4
ATOM      4  C   UNL     1      -5.087  30.265  -6.326  1.00  0.00     0.000 C 
BRANCH   4   5
ATOM      5  C   UNL     1      -6.426  29.724  -5.781  1.00  0.00     0.000 C 
BRANCH   5   6
ATOM      6  C   UNL     1      -6.345  28.351  -5.090  1.00  0.00     0.000 C 
BRANCH   6   7
ATOM      7  C   UNL     1      -6.840  27.202  -5.981  1.00  0.00     0.000 C 
BRANCH   7   8
ATOM      8  C   UNL     1      -6.148  25.884  -5.606  1.00  0.00     0.000 C 
BRANCH   8   9
ATOM      9  C   UNL     1      -5.746  25.055  -6.837  1.00  0.00     0.000 C 
BRANCH   9  10
ATOM     10  C   UNL     1      -6.121  25.745  -8.161  1.00  0.00     0.000 C 
BRANCH  10  11
ATOM     11  C   UNL     1      -5.549  25.004  -9.387  1.00  0.00     0.000 C 
BRANCH  11  12
ATOM     12  C   UNL     1      -6.624  24.538 -10.384  1.00  0.00     0.000 C 
BRANCH  12  13
ATOM     13  C   UNL     1      -6.032  24.053 -11.719  1.00  0.00     0.006 C 
BRANCH  13  14
ATOM     14  C   UNL     1      -4.586  24.524 -11.918  1.00  0.00     0.053 C 
BRANCH  14  15
ATOM     15  C   UNL     1      -4.492  25.627 -12.929  1.00  0.00     0.041 C 
ATOM     16  O   UNL     1      -3.897  25.434 -14.021  1.00  0.00    -0.550 OA
ATOM     17  O   UNL     1      -5.051  26.870 -12.659  1.00  0.00    -0.550 OA
ENDBRANCH  14  15
ENDBRANCH  13  14
ENDBRANCH  12  13
ENDBRANCH  11  12
ENDBRANCH  10  11
ENDBRANCH   9  10
ENDBRANCH   8   9
ENDBRANCH   7   8
ENDBRANCH   6   7
ENDBRANCH   5   6
ENDBRANCH   4   5
ENDBRANCH   3   4
ENDBRANCH   2   3
ENDBRANCH   1   2
BRANCH   1  18
ATOM     18  C   UNL     1      -7.289  28.776  -9.366  1.00  0.00     0.000 C 
BRANCH  18  19
ATOM     19  C   UNL     1      -8.550  28.619 -10.233  1.00  0.00     0.000 C 
BRANCH  19  20
ATOM     20  C   UNL     1      -9.257  27.274 -10.006  1.00  0.00     0.000 C 
BRANCH  20  21
ATOM     21  C   UNL     1      -9.776  27.114  -8.566  1.00  0.00     0.000 C 
BRANCH  21  22
ATOM     22  C   UNL     1     -11.295  26.881  -8.513  1.00  0.00     0.000 C 
BRANCH  22  23
ATOM     23  C   UNL     1     -12.015  27.385  -9.777  1.00  0.00     0.000 C 
BRANCH  23  24
ATOM     24  C   UNL     1     -12.517  28.837  -9.628  1.00  0.00    -0.000 C 
BRANCH  24  25
ATOM     25  C   UNL     1     -12.981  29.197  -8.204  1.00  0.00    -0.000 C 
BRANCH  25  26
ATOM     26  C   UNL     1     -12.317  30.446  -7.602  1.00  0.00    -0.000 C 
BRANCH  26  27
ATOM     27  C   UNL     1     -10.901  30.690  -8.147  1.00  0.00    -0.000 C 
BRANCH  27  28
ATOM     28  C   UNL     1      -9.845  30.434  -7.062  1.00  0.00    -0.000 C 
BRANCH  28  29
ATOM     29  C   UNL     1     -10.464  30.086  -5.695  1.00  0.00    -0.000 C 
BRANCH  29  30
ATOM     30  C   UNL     1     -10.284  28.620  -5.251  1.00  0.00    -0.000 C 
BRANCH  30  31
ATOM     31  C   UNL     1     -11.385  28.082  -4.322  1.00  0.00    -0.003 C 
ATOM     32  C   UNL     1     -12.500  27.359  -5.076  1.00  0.00     0.004 C 
ENDBRANCH  30  31
ENDBRANCH  29  30
ENDBRANCH  28  29
ENDBRANCH  27  28
ENDBRANCH  26  27
ENDBRANCH  25  26
ENDBRANCH  24  25
ENDBRANCH  23  24
ENDBRANCH  22  23
ENDBRANCH  21  22
ENDBRANCH  20  21
ENDBRANCH  19  20
ENDBRANCH  18  19
ENDBRANCH   1  18
TORSDOF 28
ENDMDL
MODEL 4
REMARK VINA RESULT:    -3.922      2.021      4.352
REMARK INTER + INTRA:         -15.577
REMARK INTER:                 -10.490
REMARK INTRA:                  -5.087
REMARK UNBOUND:                -5.235
REMARK SMILES CCCCCCCCCCCCCCCCCCCCCCCCCCCCCC(=O)[O-]
REMARK SMILES IDX 16 1 17 2 18 3 19 4 20 5 21 6 22 7 23 8 24 9 25 10 26 11
REMARK SMILES IDX 27 12 28 13 29 14 30 15 31 16 32 17 15 18 14 19 13 20 12 21
REMARK SMILES IDX 11 22 10 23 9 24 8 25 7 26 6 27 5 28 4 29 3 30 2 31 1 32
REMARK H PARENT
REMARK Flexibility Score: inf
ROOT
ATOM      1  C   UNL     1      -7.231  30.126  -9.292  1.00  0.00     0.000 C 
ENDROOT
BRANCH   1   2
ATOM      2  C   UNL     1      -7.625  28.714  -9.750  1.00  0.00     0.000 C 
BRANCH   2   3
ATOM      3  C   UNL     1      -6.815  27.651  -8.994  1.00  0.00     0.000 C 
BRANCH   3   4
ATOM      4  C   UNL     1      -7.615  26.363  -8.729  1.00  0.00     0.000 C 
BRANCH   4   5
ATOM      5  C   UNL     1      -9.055  26.359  -9.284  1.00  0.00     0.000 C 
BRANCH   5   6
ATOM      6  C   UNL     1      -9.325  25.331 -10.398  1.00  0.00     0.000 C 
BRANCH   6   7
ATOM      7  C   UNL     1     -10.072  25.932 -11.599  1.00  0.00     0.000 C 
BRANCH   7   8
ATOM      8  C   UNL     1      -9.243  25.789 -12.883  1.00  0.00     0.000 C 
BRANCH   8   9
ATOM      9  C   UNL     1      -8.155  26.869 -13.009  1.00  0.00     0.000 C 
BRANCH   9  10
ATOM     10  C   UNL     1      -6.782  26.284 -13.380  1.00  0.00     0.000 C 
BRANCH  10  11
ATOM     11  C   UNL     1      -5.695  26.645 -12.347  1.00  0.00     0.000 C 
BRANCH  11  12
ATOM     12  C   UNL     1      -5.168  25.435 -11.556  1.00  0.00     0.000 C 
BRANCH  12  13
ATOM     13  C   UNL     1      -6.033  24.176 -11.744  1.00  0.00     0.006 C 
BRANCH  13  14
ATOM     14  C   UNL     1      -6.213  23.395 -10.437  1.00  0.00     0.053 C 
BRANCH  14  15
ATOM     15  C   UNL     1      -6.934  22.099 -10.655  1.00  0.00     0.041 C 
ATOM     16  O   UNL     1      -8.020  22.080 -11.292  1.00  0.00    -0.550 OA
ATOM     17  O   UNL     1      -6.414  20.916 -10.144  1.00  0.00    -0.550 OA
ENDBRANCH  14  15
ENDBRANCH  13  14
ENDBRANCH  12  13
ENDBRANCH  11  12
ENDBRANCH  10  11
ENDBRANCH   9  10
ENDBRANCH   8   9
ENDBRANCH   7   8
ENDBRANCH   6   7
ENDBRANCH   5   6
ENDBRANCH   4   5
ENDBRANCH   3   4
ENDBRANCH   2   3
ENDBRANCH   1   2
BRANCH   1  18
ATOM     18  C   UNL     1      -5.758  30.214  -8.858  1.00  0.00     0.000 C 
BRANCH  18  19
ATOM     19  C   UNL     1      -5.584  31.002  -7.549  1.00  0.00     0.000 C 
BRANCH  19  20
ATOM     20  C   UNL     1      -6.399  30.407  -6.390  1.00  0.00     0.000 C 
BRANCH  20  21
ATOM     21  C   UNL     1      -7.435  31.396  -5.828  1.00  0.00     0.000 C 
BRANCH  21  22
ATOM     22  C   UNL     1      -8.881  30.932  -6.069  1.00  0.00     0.000 C 
BRANCH  22  23
ATOM     23  C   UNL     1      -9.034  29.403  -5.977  1.00  0.00     0.000 C 
BRANCH  23  24
ATOM     24  C   UNL     1     -10.131  28.863  -6.919  1.00  0.00    -0.000 C 
BRANCH  24  25
ATOM     25  C   UNL     1     -10.675  29.909  -7.911  1.00  0.00    -0.000 C 
BRANCH  25  26
ATOM     26  C   UNL     1     -11.229  29.332  -9.223  1.00  0.00    -0.000 C 
BRANCH  26  27
ATOM     27  C   UNL     1     -12.744  29.542  -9.373  1.00  0.00    -0.000 C 
BRANCH  27  28
ATOM     28  C   UNL     1     -13.466  28.200  -9.569  1.00  0.00    -0.000 C 
BRANCH  28  29
ATOM     29  C   UNL     1     -14.055  28.038 -10.982  1.00  0.00    -0.000 C 
BRANCH  29  30
ATOM     30  C   UNL     1     -15.427  27.336 -11.040  1.00  0.00    -0.000 C 
BRANCH  30  31
ATOM     31  C   UNL     1     -15.789  26.727 -12.406  1.00  0.00    -0.003 C 
ATOM     32  C   UNL     1     -16.096  25.232 -12.330  1.00  0.00     0.004 C 
ENDBRANCH  30  31
ENDBRANCH  29  30
ENDBRANCH  28  29
ENDBRANCH  27  28
ENDBRANCH  26  27
ENDBRANCH  25  26
ENDBRANCH  24  25
ENDBRANCH  23  24
ENDBRANCH  22  23
ENDBRANCH  21  22
ENDBRANCH  20  21
ENDBRANCH  19  20
ENDBRANCH  18  19
ENDBRANCH   1  18
TORSDOF 28
ENDMDL
MODEL 5
REMARK VINA RESULT:    -3.920      3.720      8.608
REMARK INTER + INTRA:         -15.573
REMARK INTER:                 -11.970
REMARK INTRA:                  -3.603
REMARK UNBOUND:                -5.235
REMARK SMILES CCCCCCCCCCCCCCCCCCCCCCCCCCCCCC(=O)[O-]
REMARK SMILES IDX 16 1 17 2 18 3 19 4 20 5 21 6 22 7 23 8 24 9 25 10 26 11
REMARK SMILES IDX 27 12 28 13 29 14 30 15 31 16 32 17 15 18 14 19 13 20 12 21
REMARK SMILES IDX 11 22 10 23 9 24 8 25 7 26 6 27 5 28 4 29 3 30 2 31 1 32
REMARK H PARENT
REMARK Flexibility Score: inf
ROOT
ATOM      1  C   UNL     1      -8.992  27.089 -10.436  1.00  0.00     0.000 C 
ENDROOT
BRANCH   1   2
ATOM      2  C   UNL     1      -8.046  28.296 -10.347  1.00  0.00     0.000 C 
BRANCH   2   3
ATOM      3  C   UNL     1      -8.566  29.320  -9.329  1.00  0.00     0.000 C 
BRANCH   3   4
ATOM      4  C   UNL     1      -9.482  30.383  -9.960  1.00  0.00     0.000 C 
BRANCH   4   5
ATOM      5  C   UNL     1     -10.485  31.045  -8.991  1.00  0.00     0.000 C 
BRANCH   5   6
ATOM      6  C   UNL     1     -10.642  30.343  -7.630  1.00  0.00     0.000 C 
BRANCH   6   7
ATOM      7  C   UNL     1     -12.051  29.772  -7.409  1.00  0.00     0.000 C 
BRANCH   7   8
ATOM      8  C   UNL     1     -11.984  28.413  -6.699  1.00  0.00     0.000 C 
BRANCH   8   9
ATOM      9  C   UNL     1     -12.093  27.229  -7.676  1.00  0.00     0.000 C 
BRANCH   9  10
ATOM     10  C   UNL     1     -12.748  27.624  -9.010  1.00  0.00     0.000 C 
BRANCH  10  11
ATOM     11  C   UNL     1     -12.477  26.589 -10.122  1.00  0.00     0.000 C 
BRANCH  11  12
ATOM     12  C   UNL     1     -13.447  26.693 -11.312  1.00  0.00     0.000 C 
BRANCH  12  13
ATOM     13  C   UNL     1     -14.678  27.564 -11.006  1.00  0.00     0.006 C 
BRANCH  13  14
ATOM     14  C   UNL     1     -15.961  26.993 -11.621  1.00  0.00     0.053 C 
BRANCH  14  15
ATOM     15  C   UNL     1     -16.373  27.743 -12.852  1.00  0.00     0.041 C 
ATOM     16  O   UNL     1     -15.521  28.400 -13.506  1.00  0.00    -0.550 OA
ATOM     17  O   UNL     1     -17.699  27.727 -13.267  1.00  0.00    -0.550 OA
ENDBRANCH  14  15
ENDBRANCH  13  14
ENDBRANCH  12  13
ENDBRANCH  11  12
ENDBRANCH  10  11
ENDBRANCH   9  10
ENDBRANCH   8   9
ENDBRANCH   7   8
ENDBRANCH   6   7
ENDBRANCH   5   6
ENDBRANCH   4   5
ENDBRANCH   3   4
ENDBRANCH   2   3
ENDBRANCH   1   2
BRANCH   1  18
ATOM     18  C   UNL     1      -8.814  26.114  -9.260  1.00  0.00     0.000 C 
BRANCH  18  19
ATOM     19  C   UNL     1      -7.332  25.830  -8.962  1.00  0.00     0.000 C 
BRANCH  19  20
ATOM     20  C   UNL     1      -6.731  24.779  -9.908  1.00  0.00     0.000 C 
BRANCH  20  21
ATOM     21  C   UNL     1      -5.750  25.392 -10.923  1.00  0.00     0.000 C 
BRANCH  21  22
ATOM     22  C   UNL     1      -6.252  25.271 -12.371  1.00  0.00     0.000 C 
BRANCH  22  23
ATOM     23  C   UNL     1      -7.126  24.022 -12.591  1.00  0.00     0.000 C 
BRANCH  23  24
ATOM     24  C   UNL     1      -6.508  23.045 -13.614  1.00  0.00    -0.000 C 
BRANCH  24  25
ATOM     25  C   UNL     1      -5.187  22.403 -13.148  1.00  0.00    -0.000 C 
BRANCH  25  26
ATOM     26  C   UNL     1      -5.270  21.641 -11.816  1.00  0.00    -0.000 C 
BRANCH  26  27
ATOM     27  C   UNL     1      -6.323  20.522 -11.834  1.00  0.00    -0.000 C 
BRANCH  27  28
ATOM     28  C   UNL     1      -7.318  20.688 -10.677  1.00  0.00    -0.000 C 
BRANCH  28  29
ATOM     29  C   UNL     1      -6.706  20.340  -9.307  1.00  0.00    -0.000 C 
BRANCH  29  30
ATOM     30  C   UNL     1      -6.491  18.834  -9.052  1.00  0.00    -0.000 C 
BRANCH  30  31
ATOM     31  C   UNL     1      -6.887  18.350  -7.646  1.00  0.00    -0.003 C 
ATOM     32  C   UNL     1      -8.016  19.173  -7.028  1.00  0.00     0.004 C 
ENDBRANCH  30  31
ENDBRANCH  29  30
ENDBRANCH  28  29
ENDBRANCH  27  28
ENDBRANCH  26  27
ENDBRANCH  25  26
ENDBRANCH  24  25
ENDBRANCH  23  24
ENDBRANCH  22  23
ENDBRANCH  21  22
ENDBRANCH  20  21
ENDBRANCH  19  20
ENDBRANCH  18  19
ENDBRANCH   1  18
TORSDOF 28
ENDMDL
MODEL 6
REMARK VINA RESULT:    -3.902      2.951      6.599
REMARK INTER + INTRA:         -15.525
REMARK INTER:                 -10.242
REMARK INTRA:                  -5.283
REMARK UNBOUND:                -5.235
REMARK SMILES CCCCCCCCCCCCCCCCCCCCCCCCCCCCCC(=O)[O-]
REMARK SMILES IDX 16 1 17 2 18 3 19 4 20 5 21 6 22 7 23 8 24 9 25 10 26 11
REMARK SMILES IDX 27 12 28 13 29 14 30 15 31 16 32 17 15 18 14 19 13 20 12 21
REMARK SMILES IDX 11 22 10 23 9 24 8 25 7 26 6 27 5 28 4 29 3 30 2 31 1 32
REMARK H PARENT
REMARK Flexibility Score: inf
ROOT
ATOM      1  C   UNL     1      -5.756  26.715 -13.000  1.00  0.00     0.000 C 
ENDROOT
BRANCH   1   2
ATOM      2  C   UNL     1      -6.957  26.580 -13.949  1.00  0.00     0.000 C 
BRANCH   2   3
ATOM      3  C   UNL     1      -8.270  26.509 -13.157  1.00  0.00     0.000 C 
BRANCH   3   4
ATOM      4  C   UNL     1      -8.197  27.248 -11.808  1.00  0.00     0.000 C 
BRANCH   4   5
ATOM      5  C   UNL     1      -8.729  26.454 -10.595  1.00  0.00     0.000 C 
BRANCH   5   6
ATOM      6  C   UNL     1      -7.877  26.560  -9.318  1.00  0.00     0.000 C 
BRANCH   6   7
ATOM      7  C   UNL     1      -6.655  27.476  -9.486  1.00  0.00     0.000 C 
BRANCH   7   8
ATOM      8  C   UNL     1      -6.749  28.688  -8.549  1.00  0.00     0.000 C 
BRANCH   8   9
ATOM      9  C   UNL     1      -7.617  29.818  -9.127  1.00  0.00     0.000 C 
BRANCH   9  10
ATOM     10  C   UNL     1      -8.965  29.958  -8.398  1.00  0.00     0.000 C 
BRANCH  10  11
ATOM     11  C   UNL     1     -10.131  30.227  -9.373  1.00  0.00     0.000 C 
BRANCH  11  12
ATOM     12  C   UNL     1     -11.084  29.030  -9.540  1.00  0.00     0.000 C 
BRANCH  12  13
ATOM     13  C   UNL     1     -12.209  29.012  -8.489  1.00  0.00     0.006 C 
BRANCH  13  14
ATOM     14  C   UNL     1     -12.345  27.644  -7.809  1.00  0.00     0.053 C 
BRANCH  14  15
ATOM     15  C   UNL     1     -12.181  27.741  -6.322  1.00  0.00     0.041 C 
ATOM     16  O   UNL     1     -11.466  28.648  -5.823  1.00  0.00    -0.550 OA
ATOM     17  O   UNL     1     -12.810  26.822  -5.490  1.00  0.00    -0.550 OA
ENDBRANCH  14  15
ENDBRANCH  13  14
ENDBRANCH  12  13
ENDBRANCH  11  12
ENDBRANCH  10  11
ENDBRANCH   9  10
ENDBRANCH   8   9
ENDBRANCH   7   8
ENDBRANCH   6   7
ENDBRANCH   5   6
ENDBRANCH   4   5
ENDBRANCH   3   4
ENDBRANCH   2   3
ENDBRANCH   1   2
BRANCH   1  18
ATOM     18  C   UNL     1      -4.611  25.755 -13.362  1.00  0.00     0.000 C 
BRANCH  18  19
ATOM     19  C   UNL     1      -4.225  24.843 -12.185  1.00  0.00     0.000 C 
BRANCH  19  20
ATOM     20  C   UNL     1      -5.414  24.538 -11.260  1.00  0.00     0.000 C 
BRANCH  20  21
ATOM     21  C   UNL     1      -5.997  23.133 -11.492  1.00  0.00     0.000 C 
BRANCH  21  22
ATOM     22  C   UNL     1      -7.316  23.168 -12.281  1.00  0.00     0.000 C 
BRANCH  22  23
ATOM     23  C   UNL     1      -8.432  22.353 -11.602  1.00  0.00     0.000 C 
BRANCH  23  24
ATOM     24  C   UNL     1      -9.776  23.113 -11.565  1.00  0.00    -0.000 C 
BRANCH  24  25
ATOM     25  C   UNL     1     -10.616  22.963 -12.848  1.00  0.00    -0.000 C 
BRANCH  25  26
ATOM     26  C   UNL     1     -11.014  24.287 -13.520  1.00  0.00    -0.000 C 
BRANCH  26  27
ATOM     27  C   UNL     1     -12.398  24.788 -13.078  1.00  0.00    -0.000 C 
BRANCH  27  28
ATOM     28  C   UNL     1     -12.281  26.117 -12.318  1.00  0.00    -0.000 C 
BRANCH  28  29
ATOM     29  C   UNL     1     -13.342  26.269 -11.213  1.00  0.00    -0.000 C 
BRANCH  29  30
ATOM     30  C   UNL     1     -14.140  27.589 -11.251  1.00  0.00    -0.000 C 
BRANCH  30  31
ATOM     31  C   UNL     1     -15.665  27.432 -11.119  1.00  0.00    -0.003 C 
ATOM     32  C   UNL     1     -16.235  26.352 -12.037  1.00  0.00     0.004 C 
ENDBRANCH  30  31
ENDBRANCH  29  30
ENDBRANCH  28  29
ENDBRANCH  27  28
ENDBRANCH  26  27
ENDBRANCH  25  26
ENDBRANCH  24  25
ENDBRANCH  23  24
ENDBRANCH  22  23
ENDBRANCH  21  22
ENDBRANCH  20  21
ENDBRANCH  19  20
ENDBRANCH  18  19
ENDBRANCH   1  18
TORSDOF 28
ENDMDL
MODEL 7
REMARK VINA RESULT:    -3.880      4.944      8.231
REMARK INTER + INTRA:         -15.467
REMARK INTER:                  -9.979
REMARK INTRA:                  -5.487
REMARK UNBOUND:                -5.235
REMARK SMILES CCCCCCCCCCCCCCCCCCCCCCCCCCCCCC(=O)[O-]
REMARK SMILES IDX 16 1 17 2 18 3 19 4 20 5 21 6 22 7 23 8 24 9 25 10 26 11
REMARK SMILES IDX 27 12 28 13 29 14 30 15 31 16 32 17 15 18 14 19 13 20 12 21
REMARK SMILES IDX 11 22 10 23 9 24 8 25 7 26 6 27 5 28 4 29 3 30 2 31 1 32
REMARK H PARENT
REMARK Flexibility Score: inf
ROOT
ATOM      1  C   UNL     1      -7.509  30.251  -9.335  1.00  0.00     0.000 C 
ENDROOT
BRANCH   1   2
ATOM      2  C   UNL     1      -8.693  29.449  -8.774  1.00  0.00     0.000 C 
BRANCH   2   3
ATOM      3  C   UNL     1      -9.977  29.755  -9.556  1.00  0.00     0.000 C 
BRANCH   3   4
ATOM      4  C   UNL     1     -10.539  31.158  -9.261  1.00  0.00     0.000 C 
BRANCH   4   5
ATOM      5  C   UNL     1     -11.991  31.186  -8.738  1.00  0.00     0.000 C 
BRANCH   5   6
ATOM      6  C   UNL     1     -12.234  32.104  -7.527  1.00  0.00     0.000 C 
BRANCH   6   7
ATOM      7  C   UNL     1     -10.967  32.845  -7.073  1.00  0.00     0.000 C 
BRANCH   7   8
ATOM      8  C   UNL     1     -10.586  32.445  -5.640  1.00  0.00     0.000 C 
BRANCH   8   9
ATOM      9  C   UNL     1      -9.701  31.189  -5.592  1.00  0.00     0.000 C 
BRANCH   9  10
ATOM     10  C   UNL     1     -10.401  29.999  -4.912  1.00  0.00     0.000 C 
BRANCH  10  11
ATOM     11  C   UNL     1     -10.550  28.791  -5.860  1.00  0.00     0.000 C 
BRANCH  11  12
ATOM     12  C   UNL     1     -12.001  28.525  -6.298  1.00  0.00     0.000 C 
BRANCH  12  13
ATOM     13  C   UNL     1     -12.140  27.269  -7.176  1.00  0.00     0.006 C 
BRANCH  13  14
ATOM     14  C   UNL     1     -12.777  27.580  -8.537  1.00  0.00     0.053 C 
BRANCH  14  15
ATOM     15  C   UNL     1     -12.245  26.691  -9.619  1.00  0.00     0.041 C 
ATOM     16  O   UNL     1     -11.062  26.264  -9.562  1.00  0.00    -0.550 OA
ATOM     17  O   UNL     1     -13.051  26.344 -10.696  1.00  0.00    -0.550 OA
ENDBRANCH  14  15
ENDBRANCH  13  14
ENDBRANCH  12  13
ENDBRANCH  11  12
ENDBRANCH  10  11
ENDBRANCH   9  10
ENDBRANCH   8   9
ENDBRANCH   7   8
ENDBRANCH   6   7
ENDBRANCH   5   6
ENDBRANCH   4   5
ENDBRANCH   3   4
ENDBRANCH   2   3
ENDBRANCH   1   2
BRANCH   1  18
ATOM     18  C   UNL     1      -6.152  29.617  -8.988  1.00  0.00     0.000 C 
BRANCH  18  19
ATOM     19  C   UNL     1      -5.031  30.665  -8.882  1.00  0.00     0.000 C 
BRANCH  19  20
ATOM     20  C   UNL     1      -4.607  30.930  -7.429  1.00  0.00     0.000 C 
BRANCH  20  21
ATOM     21  C   UNL     1      -5.606  31.826  -6.676  1.00  0.00     0.000 C 
BRANCH  21  22
ATOM     22  C   UNL     1      -4.909  32.953  -5.895  1.00  0.00     0.000 C 
BRANCH  22  23
ATOM     23  C   UNL     1      -5.209  32.898  -4.385  1.00  0.00     0.000 C 
BRANCH  23  24
ATOM     24  C   UNL     1      -4.383  31.812  -3.662  1.00  0.00    -0.000 C 
BRANCH  24  25
ATOM     25  C   UNL     1      -5.237  30.729  -2.976  1.00  0.00    -0.000 C 
BRANCH  25  26
ATOM     26  C   UNL     1      -5.306  29.388  -3.724  1.00  0.00    -0.000 C 
BRANCH  26  27
ATOM     27  C   UNL     1      -6.746  28.961  -4.050  1.00  0.00    -0.000 C 
BRANCH  27  28
ATOM     28  C   UNL     1      -6.884  28.593  -5.535  1.00  0.00    -0.000 C 
BRANCH  28  29
ATOM     29  C   UNL     1      -5.852  27.545  -5.990  1.00  0.00    -0.000 C 
BRANCH  29  30
ATOM     30  C   UNL     1      -6.429  26.144  -6.278  1.00  0.00    -0.000 C 
BRANCH  30  31
ATOM     31  C   UNL     1      -5.829  25.007  -5.431  1.00  0.00    -0.003 C 
ATOM     32  C   UNL     1      -5.612  25.401  -3.972  1.00  0.00     0.004 C 
ENDBRANCH  30  31
ENDBRANCH  29  30
ENDBRANCH  28  29
ENDBRANCH  27  28
ENDBRANCH  26  27
ENDBRANCH  25  26
ENDBRANCH  24  25
ENDBRANCH  23  24
ENDBRANCH  22  23
ENDBRANCH  21  22
ENDBRANCH  20  21
ENDBRANCH  19  20
ENDBRANCH  18  19
ENDBRANCH   1  18
TORSDOF 28
ENDMDL
MODEL 8
REMARK VINA RESULT:    -3.861      3.066      6.152
REMARK INTER + INTRA:         -15.417
REMARK INTER:                  -9.397
REMARK INTRA:                  -6.020
REMARK UNBOUND:                -5.235
REMARK SMILES CCCCCCCCCCCCCCCCCCCCCCCCCCCCCC(=O)[O-]
REMARK SMILES IDX 16 1 17 2 18 3 19 4 20 5 21 6 22 7 23 8 24 9 25 10 26 11
REMARK SMILES IDX 27 12 28 13 29 14 30 15 31 16 32 17 15 18 14 19 13 20 12 21
REMARK SMILES IDX 11 22 10 23 9 24 8 25 7 26 6 27 5 28 4 29 3 30 2 31 1 32
REMARK H PARENT
REMARK Flexibility Score: inf
ROOT
ATOM      1  C   UNL     1      -7.440  30.518  -9.137  1.00  0.00     0.000 C 
ENDROOT
BRANCH   1   2
ATOM      2  C   UNL     1      -6.110  29.762  -8.993  1.00  0.00     0.000 C 
BRANCH   2   3
ATOM      3  C   UNL     1      -5.050  30.650  -8.326  1.00  0.00     0.000 C 
BRANCH   3   4
ATOM      4  C   UNL     1      -5.392  30.998  -6.866  1.00  0.00     0.000 C 
BRANCH   4   5
ATOM      5  C   UNL     1      -5.299  29.821  -5.871  1.00  0.00     0.000 C 
BRANCH   5   6
ATOM      6  C   UNL     1      -6.639  29.370  -5.263  1.00  0.00     0.000 C 
BRANCH   6   7
ATOM      7  C   UNL     1      -7.130  28.027  -5.824  1.00  0.00     0.000 C 
BRANCH   7   8
ATOM      8  C   UNL     1      -5.945  27.149  -6.251  1.00  0.00     0.000 C 
BRANCH   8   9
ATOM      9  C   UNL     1      -6.377  25.944  -7.103  1.00  0.00     0.000 C 
BRANCH   9  10
ATOM     10  C   UNL     1      -7.242  26.353  -8.307  1.00  0.00     0.000 C 
BRANCH  10  11
ATOM     11  C   UNL     1      -6.562  26.026  -9.653  1.00  0.00     0.000 C 
BRANCH  11  12
ATOM     12  C   UNL     1      -7.186  26.757 -10.855  1.00  0.00     0.000 C 
BRANCH  12  13
ATOM     13  C   UNL     1      -8.724  26.690 -10.861  1.00  0.00     0.006 C 
BRANCH  13  14
ATOM     14  C   UNL     1      -9.262  25.810 -11.996  1.00  0.00     0.053 C 
BRANCH  14  15
ATOM     15  C   UNL     1      -9.447  24.388 -11.559  1.00  0.00     0.041 C 
ATOM     16  O   UNL     1     -10.555  24.009 -11.096  1.00  0.00    -0.550 OA
ATOM     17  O   UNL     1      -8.394  23.487 -11.651  1.00  0.00    -0.550 OA
ENDBRANCH  14  15
ENDBRANCH  13  14
ENDBRANCH  12  13
ENDBRANCH  11  12
ENDBRANCH  10  11
ENDBRANCH   9  10
ENDBRANCH   8   9
ENDBRANCH   7   8
ENDBRANCH   6   7
ENDBRANCH   5   6
ENDBRANCH   4   5
ENDBRANCH   3   4
ENDBRANCH   2   3
ENDBRANCH   1   2
BRANCH   1  18
ATOM     18  C   UNL     1      -8.659  29.615  -8.889  1.00  0.00     0.000 C 
BRANCH  18  19
ATOM     19  C   UNL     1      -9.476  30.066  -7.666  1.00  0.00     0.000 C 
BRANCH  19  20
ATOM     20  C   UNL     1      -9.026  31.433  -7.128  1.00  0.00     0.000 C 
BRANCH  20  21
ATOM     21  C   UNL     1      -9.673  31.777  -5.775  1.00  0.00     0.000 C 
BRANCH  21  22
ATOM     22  C   UNL     1     -11.172  31.435  -5.738  1.00  0.00     0.000 C 
BRANCH  22  23
ATOM     23  C   UNL     1     -11.573  30.673  -4.460  1.00  0.00     0.000 C 
BRANCH  23  24
ATOM     24  C   UNL     1     -10.478  29.688  -3.997  1.00  0.00    -0.000 C 
BRANCH  24  25
ATOM     25  C   UNL     1     -10.689  28.242  -4.486  1.00  0.00    -0.000 C 
BRANCH  25  26
ATOM     26  C   UNL     1     -12.088  27.664  -4.218  1.00  0.00    -0.000 C 
BRANCH  26  27
ATOM     27  C   UNL     1     -12.749  27.092  -5.482  1.00  0.00    -0.000 C 
BRANCH  27  28
ATOM     28  C   UNL     1     -12.092  27.663  -6.748  1.00  0.00    -0.000 C 
BRANCH  28  29
ATOM     29  C   UNL     1     -12.974  28.703  -7.462  1.00  0.00    -0.000 C 
BRANCH  29  30
ATOM     30  C   UNL     1     -12.628  28.942  -8.946  1.00  0.00    -0.000 C 
BRANCH  30  31
ATOM     31  C   UNL     1     -13.405  28.067  -9.945  1.00  0.00    -0.003 C 
ATOM     32  C   UNL     1     -12.735  26.718 -10.201  1.00  0.00     0.004 C 
ENDBRANCH  30  31
ENDBRANCH  29  30
ENDBRANCH  28  29
ENDBRANCH  27  28
ENDBRANCH  26  27
ENDBRANCH  25  26
ENDBRANCH  24  25
ENDBRANCH  23  24
ENDBRANCH  22  23
ENDBRANCH  21  22
ENDBRANCH  20  21
ENDBRANCH  19  20
ENDBRANCH  18  19
ENDBRANCH   1  18
TORSDOF 28
ENDMDL
MODEL 9
REMARK VINA RESULT:    -3.842      3.599      5.619
REMARK INTER + INTRA:         -15.365
REMARK INTER:                 -10.078
REMARK INTRA:                  -5.286
REMARK UNBOUND:                -5.235
REMARK SMILES CCCCCCCCCCCCCCCCCCCCCCCCCCCCCC(=O)[O-]
REMARK SMILES IDX 16 1 17 2 18 3 19 4 20 5 21 6 22 7 23 8 24 9 25 10 26 11
REMARK SMILES IDX 27 12 28 13 29 14 30 15 31 16 32 17 15 18 14 19 13 20 12 21
REMARK SMILES IDX 11 22 10 23 9 24 8 25 7 26 6 27 5 28 4 29 3 30 2 31 1 32
REMARK H PARENT
REMARK Flexibility Score: inf
ROOT
ATOM      1  C   UNL     1      -8.616  27.318  -9.807  1.00  0.00     0.000 C 
ENDROOT
BRANCH   1   2
ATOM      2  C   UNL     1      -7.707  26.494  -8.881  1.00  0.00     0.000 C 
BRANCH   2   3
ATOM      3  C   UNL     1      -7.187  25.243  -9.603  1.00  0.00     0.000 C 
BRANCH   3   4
ATOM      4  C   UNL     1      -5.724  25.379 -10.062  1.00  0.00     0.000 C 
BRANCH   4   5
ATOM      5  C   UNL     1      -5.504  25.303 -11.588  1.00  0.00     0.000 C 
BRANCH   5   6
ATOM      6  C   UNL     1      -5.638  26.642 -12.337  1.00  0.00     0.000 C 
BRANCH   6   7
ATOM      7  C   UNL     1      -6.529  26.544 -13.585  1.00  0.00     0.000 C 
BRANCH   7   8
ATOM      8  C   UNL     1      -7.997  26.814 -13.228  1.00  0.00     0.000 C 
BRANCH   8   9
ATOM      9  C   UNL     1      -8.973  26.261 -14.280  1.00  0.00     0.000 C 
BRANCH   9  10
ATOM     10  C   UNL     1     -10.015  25.304 -13.674  1.00  0.00     0.000 C 
BRANCH  10  11
ATOM     11  C   UNL     1      -9.549  24.712 -12.328  1.00  0.00     0.000 C 
BRANCH  11  12
ATOM     12  C   UNL     1     -10.646  24.693 -11.249  1.00  0.00     0.000 C 
BRANCH  12  13
ATOM     13  C   UNL     1     -11.796  25.671 -11.549  1.00  0.00     0.006 C 
BRANCH  13  14
ATOM     14  C   UNL     1     -12.226  26.460 -10.306  1.00  0.00     0.053 C 
BRANCH  14  15
ATOM     15  C   UNL     1     -13.394  27.355 -10.590  1.00  0.00     0.041 C 
ATOM     16  O   UNL     1     -13.312  28.591 -10.365  1.00  0.00    -0.550 OA
ATOM     17  O   UNL     1     -14.576  26.822 -11.090  1.00  0.00    -0.550 OA
ENDBRANCH  14  15
ENDBRANCH  13  14
ENDBRANCH  12  13
ENDBRANCH  11  12
ENDBRANCH  10  11
ENDBRANCH   9  10
ENDBRANCH   8   9
ENDBRANCH   7   8
ENDBRANCH   6   7
ENDBRANCH   5   6
ENDBRANCH   4   5
ENDBRANCH   3   4
ENDBRANCH   2   3
ENDBRANCH   1   2
BRANCH   1  18
ATOM     18  C   UNL     1      -8.085  28.743 -10.035  1.00  0.00     0.000 C 
BRANCH  18  19
ATOM     19  C   UNL     1      -6.710  28.962  -9.381  1.00  0.00     0.000 C 
BRANCH  19  20
ATOM     20  C   UNL     1      -6.455  30.435  -9.026  1.00  0.00     0.000 C 
BRANCH  20  21
ATOM     21  C   UNL     1      -5.022  30.681  -8.521  1.00  0.00     0.000 C 
BRANCH  21  22
ATOM     22  C   UNL     1      -4.989  31.161  -7.061  1.00  0.00     0.000 C 
BRANCH  22  23
ATOM     23  C   UNL     1      -4.592  30.042  -6.080  1.00  0.00     0.000 C 
BRANCH  23  24
ATOM     24  C   UNL     1      -5.764  29.618  -5.168  1.00  0.00    -0.000 C 
BRANCH  24  25
ATOM     25  C   UNL     1      -6.650  28.507  -5.762  1.00  0.00    -0.000 C 
BRANCH  25  26
ATOM     26  C   UNL     1      -8.119  28.537  -5.309  1.00  0.00    -0.000 C 
BRANCH  26  27
ATOM     27  C   UNL     1      -9.085  28.913  -6.443  1.00  0.00    -0.000 C 
BRANCH  27  28
ATOM     28  C   UNL     1      -9.248  30.437  -6.539  1.00  0.00    -0.000 C 
BRANCH  28  29
ATOM     29  C   UNL     1     -10.008  30.880  -7.803  1.00  0.00    -0.000 C 
BRANCH  29  30
ATOM     30  C   UNL     1     -11.110  31.932  -7.567  1.00  0.00    -0.000 C 
BRANCH  30  31
ATOM     31  C   UNL     1     -12.543  31.451  -7.858  1.00  0.00    -0.003 C 
ATOM     32  C   UNL     1     -12.855  30.095  -7.226  1.00  0.00     0.004 C 
ENDBRANCH  30  31
ENDBRANCH  29  30
ENDBRANCH  28  29
ENDBRANCH  27  28
ENDBRANCH  26  27
ENDBRANCH  25  26
ENDBRANCH  24  25
ENDBRANCH  23  24
ENDBRANCH  22  23
ENDBRANCH  21  22
ENDBRANCH  20  21
ENDBRANCH  19  20
ENDBRANCH  18  19
ENDBRANCH   1  18
TORSDOF 28
ENDMDL
