MODEL 1
REMARK VINA RESULT:    -3.582      0.000      0.000
REMARK INTER + INTRA:          -5.486
REMARK INTER:                  -5.153
REMARK INTRA:                  -0.333
REMARK UNBOUND:                -0.333
REMARK SMILES CCCCCCCCCO
REMARK SMILES IDX 6 1 5 2 4 3 3 4 2 5 1 6 7 7 8 8 9 9 10 10
REMARK H PARENT 10 11
REMARK Flexibility Score: inf
ROOT
ATOM      1  C   UNL     1     165.582 165.427 167.511  1.00  0.00     0.000 C 
ENDROOT
BRANCH   1   2
ATOM      2  C   UNL     1     165.155 164.526 166.347  1.00  0.00     0.000 C 
BRANCH   2   3
ATOM      3  C   UNL     1     163.641 164.269 166.375  1.00  0.00    -0.000 C 
BRANCH   3   4
ATOM      4  C   UNL     1     162.978 164.534 165.007  1.00  0.00    -0.000 C 
BRANCH   4   5
ATOM      5  C   UNL     1     161.441 164.545 165.060  1.00  0.00    -0.003 C 
ATOM      6  C   UNL     1     160.887 164.241 166.450  1.00  0.00     0.004 C 
ENDBRANCH   4   5
ENDBRANCH   3   4
ENDBRANCH   2   3
ENDBRANCH   1   2
BRANCH   1   7
ATOM      7  C   UNL     1     166.189 166.740 166.999  1.00  0.00     0.002 C 
BRANCH   7   8
ATOM      8  C   UNL     1     166.264 166.751 165.468  1.00  0.00     0.028 C 
BRANCH   8   9
ATOM      9  C   UNL     1     167.170 167.880 164.969  1.00  0.00     0.156 C 
BRANCH   9  10
ATOM     10  O   UNL     1     168.514 167.571 165.220  1.00  0.00    -0.396 OA
ATOM     11  H   UNL     1     168.517 166.759 165.791  1.00  0.00     0.210 HD
ENDBRANCH   9  10
ENDBRANCH   8   9
ENDBRANCH   7   8
ENDBRANCH   1   7
TORSDOF 8
ENDMDL
MODEL 2
REMARK VINA RESULT:    -3.524      0.921      1.448
REMARK INTER + INTRA:          -5.401
REMARK INTER:                  -5.069
REMARK INTRA:                  -0.332
REMARK UNBOUND:                -0.333
REMARK SMILES CCCCCCCCCO
REMARK SMILES IDX 6 1 5 2 4 3 3 4 2 5 1 6 7 7 8 8 9 9 10 10
REMARK H PARENT 10 11
REMARK Flexibility Score: inf
ROOT
ATOM      1  C   UNL     1     166.537 166.383 166.806  1.00  0.00     0.000 C 
ENDROOT
BRANCH   1   2
ATOM      2  C   UNL     1     165.263 165.583 167.101  1.00  0.00     0.000 C 
BRANCH   2   3
ATOM      3  C   UNL     1     165.109 164.410 166.122  1.00  0.00    -0.000 C 
BRANCH   3   4
ATOM      4  C   UNL     1     163.941 164.621 165.135  1.00  0.00    -0.000 C 
BRANCH   4   5
ATOM      5  C   UNL     1     162.576 164.186 165.694  1.00  0.00    -0.003 C 
ATOM      6  C   UNL     1     161.399 164.712 164.875  1.00  0.00     0.004 C 
ENDBRANCH   4   5
ENDBRANCH   3   4
ENDBRANCH   2   3
ENDBRANCH   1   2
BRANCH   1   7
ATOM      7  C   UNL     1     166.232 167.606 165.934  1.00  0.00     0.002 C 
BRANCH   7   8
ATOM      8  C   UNL     1     167.385 167.893 164.966  1.00  0.00     0.028 C 
BRANCH   8   9
ATOM      9  C   UNL     1     168.448 166.793 165.031  1.00  0.00     0.156 C 
BRANCH   9  10
ATOM     10  O   UNL     1     169.658 167.316 165.506  1.00  0.00    -0.396 OA
ATOM     11  H   UNL     1     169.639 168.291 165.322  1.00  0.00     0.210 HD
ENDBRANCH   9  10
ENDBRANCH   8   9
ENDBRANCH   7   8
ENDBRANCH   1   7
TORSDOF 8
ENDMDL
MODEL 3
REMARK VINA RESULT:    -3.448      2.930      5.703
REMARK INTER + INTRA:          -5.292
REMARK INTER:                  -5.028
REMARK INTRA:                  -0.264
REMARK UNBOUND:                -0.333
REMARK SMILES CCCCCCCCCO
REMARK SMILES IDX 6 1 5 2 4 3 3 4 2 5 1 6 7 7 8 8 9 9 10 10
REMARK H PARENT 10 11
REMARK Flexibility Score: inf
ROOT
ATOM      1  C   UNL     1     164.654 164.516 167.059  1.00  0.00     0.000 C 
ENDROOT
BRANCH   1   2
ATOM      2  C   UNL     1     165.680 165.589 167.437  1.00  0.00     0.000 C 
BRANCH   2   3
ATOM      3  C   UNL     1     166.237 166.286 166.187  1.00  0.00    -0.000 C 
BRANCH   3   4
ATOM      4  C   UNL     1     167.626 166.909 166.435  1.00  0.00    -0.000 C 
BRANCH   4   5
ATOM      5  C   UNL     1     168.501 166.987 165.173  1.00  0.00    -0.003 C 
ATOM      6  C   UNL     1     169.976 166.697 165.447  1.00  0.00     0.004 C 
ENDBRANCH   4   5
ENDBRANCH   3   4
ENDBRANCH   2   3
ENDBRANCH   1   2
BRANCH   1   7
ATOM      7  C   UNL     1     164.503 164.409 165.537  1.00  0.00     0.002 C 
BRANCH   7   8
ATOM      8  C   UNL     1     163.266 163.584 165.163  1.00  0.00     0.028 C 
BRANCH   8   9
ATOM      9  C   UNL     1     162.014 164.463 165.100  1.00  0.00     0.156 C 
BRANCH   9  10
ATOM     10  O   UNL     1     161.126 164.116 166.127  1.00  0.00    -0.396 OA
ATOM     11  H   UNL     1     161.649 164.126 166.971  1.00  0.00     0.210 HD
ENDBRANCH   9  10
ENDBRANCH   8   9
ENDBRANCH   7   8
ENDBRANCH   1   7
TORSDOF 8
ENDMDL
MODEL 4
REMARK VINA RESULT:    -3.428      2.317      3.325
REMARK INTER + INTRA:          -5.264
REMARK INTER:                  -5.032
REMARK INTRA:                  -0.232
REMARK UNBOUND:                -0.333
REMARK SMILES CCCCCCCCCO
REMARK SMILES IDX 6 1 5 2 4 3 3 4 2 5 1 6 7 7 8 8 9 9 10 10
REMARK H PARENT 10 11
REMARK Flexibility Score: inf
ROOT
ATOM      1  C   UNL     1     167.775 167.596 165.033  1.00  0.00     0.000 C 
ENDROOT
BRANCH   1   2
ATOM      2  C   UNL     1     166.269 167.329 165.131  1.00  0.00     0.000 C 
BRANCH   2   3
ATOM      3  C   UNL     1     165.980 166.120 166.033  1.00  0.00    -0.000 C 
BRANCH   3   4
ATOM      4  C   UNL     1     165.226 165.000 165.286  1.00  0.00    -0.000 C 
BRANCH   4   5
ATOM      5  C   UNL     1     164.176 164.282 166.149  1.00  0.00    -0.003 C 
ATOM      6  C   UNL     1     162.824 164.139 165.453  1.00  0.00     0.004 C 
ENDBRANCH   4   5
ENDBRANCH   3   4
ENDBRANCH   2   3
ENDBRANCH   1   2
BRANCH   1   7
ATOM      7  C   UNL     1     168.549 166.779 166.073  1.00  0.00     0.002 C 
BRANCH   7   8
ATOM      8  C   UNL     1     170.060 166.883 165.842  1.00  0.00     0.028 C 
BRANCH   8   9
ATOM      9  C   UNL     1     170.799 167.194 167.146  1.00  0.00     0.156 C 
BRANCH   9  10
ATOM     10  O   UNL     1     172.143 166.810 167.046  1.00  0.00    -0.396 OA
ATOM     11  H   UNL     1     172.375 166.836 166.081  1.00  0.00     0.210 HD
ENDBRANCH   9  10
ENDBRANCH   8   9
ENDBRANCH   7   8
ENDBRANCH   1   7
TORSDOF 8
ENDMDL
MODEL 5
REMARK VINA RESULT:    -3.355      1.459      2.066
REMARK INTER + INTRA:          -5.159
REMARK INTER:                  -4.612
REMARK INTRA:                  -0.547
REMARK UNBOUND:                -0.333
REMARK SMILES CCCCCCCCCO
REMARK SMILES IDX 6 1 5 2 4 3 3 4 2 5 1 6 7 7 8 8 9 9 10 10
REMARK H PARENT 10 11
REMARK Flexibility Score: inf
ROOT
ATOM      1  C   UNL     1     166.180 166.199 168.117  1.00  0.00     0.000 C 
ENDROOT
BRANCH   1   2
ATOM      2  C   UNL     1     165.689 164.769 167.865  1.00  0.00     0.000 C 
BRANCH   2   3
ATOM      3  C   UNL     1     164.167 164.735 167.662  1.00  0.00    -0.000 C 
BRANCH   3   4
ATOM      4  C   UNL     1     163.779 164.485 166.190  1.00  0.00    -0.000 C 
BRANCH   4   5
ATOM      5  C   UNL     1     164.928 163.921 165.337  1.00  0.00    -0.003 C 
ATOM      6  C   UNL     1     164.683 162.485 164.877  1.00  0.00     0.004 C 
ENDBRANCH   4   5
ENDBRANCH   3   4
ENDBRANCH   2   3
ENDBRANCH   1   2
BRANCH   1   7
ATOM      7  C   UNL     1     167.050 166.697 166.956  1.00  0.00     0.002 C 
BRANCH   7   8
ATOM      8  C   UNL     1     166.241 167.583 166.002  1.00  0.00     0.028 C 
BRANCH   8   9
ATOM      9  C   UNL     1     167.138 168.193 164.922  1.00  0.00     0.156 C 
BRANCH   9  10
ATOM     10  O   UNL     1     168.403 167.590 164.944  1.00  0.00    -0.396 OA
ATOM     11  H   UNL     1     168.273 166.647 164.665  1.00  0.00     0.210 HD
ENDBRANCH   9  10
ENDBRANCH   8   9
ENDBRANCH   7   8
ENDBRANCH   1   7
TORSDOF 8
ENDMDL
MODEL 6
REMARK VINA RESULT:    -3.355      2.915      5.273
REMARK INTER + INTRA:          -5.158
REMARK INTER:                  -4.665
REMARK INTRA:                  -0.494
REMARK UNBOUND:                -0.333
REMARK SMILES CCCCCCCCCO
REMARK SMILES IDX 6 1 5 2 4 3 3 4 2 5 1 6 7 7 8 8 9 9 10 10
REMARK H PARENT 10 11
REMARK Flexibility Score: inf
ROOT
ATOM      1  C   UNL     1     165.046 164.325 166.187  1.00  0.00     0.000 C 
ENDROOT
BRANCH   1   2
ATOM      2  C   UNL     1     165.568 165.467 165.307  1.00  0.00     0.000 C 
BRANCH   2   3
ATOM      3  C   UNL     1     166.651 166.276 166.037  1.00  0.00    -0.000 C 
BRANCH   3   4
ATOM      4  C   UNL     1     166.101 167.592 166.624  1.00  0.00    -0.000 C 
BRANCH   4   5
ATOM      5  C   UNL     1     165.843 167.531 168.139  1.00  0.00    -0.003 C 
ATOM      6  C   UNL     1     166.686 166.472 168.848  1.00  0.00     0.004 C 
ENDBRANCH   4   5
ENDBRANCH   3   4
ENDBRANCH   2   3
ENDBRANCH   1   2
BRANCH   1   7
ATOM      7  C   UNL     1     163.590 164.568 166.600  1.00  0.00     0.002 C 
BRANCH   7   8
ATOM      8  C   UNL     1     162.624 164.157 165.483  1.00  0.00     0.028 C 
BRANCH   8   9
ATOM      9  C   UNL     1     161.168 164.294 165.934  1.00  0.00     0.156 C 
BRANCH   9  10
ATOM     10  O   UNL     1     160.376 164.768 164.880  1.00  0.00    -0.396 OA
ATOM     11  H   UNL     1     159.560 165.158 165.289  1.00  0.00     0.210 HD
ENDBRANCH   9  10
ENDBRANCH   8   9
ENDBRANCH   7   8
ENDBRANCH   1   7
TORSDOF 8
ENDMDL
MODEL 7
REMARK VINA RESULT:    -3.281      3.425      5.296
REMARK INTER + INTRA:          -5.052
REMARK INTER:                  -4.611
REMARK INTRA:                  -0.441
REMARK UNBOUND:                -0.333
REMARK SMILES CCCCCCCCCO
REMARK SMILES IDX 6 1 5 2 4 3 3 4 2 5 1 6 7 7 8 8 9 9 10 10
REMARK H PARENT 10 11
REMARK Flexibility Score: inf
ROOT
ATOM      1  C   UNL     1     163.631 164.025 166.028  1.00  0.00     0.000 C 
ENDROOT
BRANCH   1   2
ATOM      2  C   UNL     1     164.841 164.962 165.946  1.00  0.00     0.000 C 
BRANCH   2   3
ATOM      3  C   UNL     1     165.516 165.113 167.318  1.00  0.00    -0.000 C 
BRANCH   3   4
ATOM      4  C   UNL     1     165.337 163.859 168.198  1.00  0.00    -0.000 C 
BRANCH   4   5
ATOM      5  C   UNL     1     164.953 164.178 169.653  1.00  0.00    -0.003 C 
ATOM      6  C   UNL     1     163.457 164.421 169.839  1.00  0.00     0.004 C 
ENDBRANCH   4   5
ENDBRANCH   3   4
ENDBRANCH   2   3
ENDBRANCH   1   2
BRANCH   1   7
ATOM      7  C   UNL     1     162.653 164.285 164.875  1.00  0.00     0.002 C 
BRANCH   7   8
ATOM      8  C   UNL     1     161.249 164.598 165.404  1.00  0.00     0.028 C 
BRANCH   8   9
ATOM      9  C   UNL     1     161.115 164.209 166.879  1.00  0.00     0.156 C 
BRANCH   9  10
ATOM     10  O   UNL     1     159.763 164.147 167.243  1.00  0.00    -0.396 OA
ATOM     11  H   UNL     1     159.371 163.379 166.751  1.00  0.00     0.210 HD
ENDBRANCH   9  10
ENDBRANCH   8   9
ENDBRANCH   7   8
ENDBRANCH   1   7
TORSDOF 8
ENDMDL
MODEL 8
REMARK VINA RESULT:    -3.140      2.512      3.569
REMARK INTER + INTRA:          -4.849
REMARK INTER:                  -4.629
REMARK INTRA:                  -0.220
REMARK UNBOUND:                -0.333
REMARK SMILES CCCCCCCCCO
REMARK SMILES IDX 6 1 5 2 4 3 3 4 2 5 1 6 7 7 8 8 9 9 10 10
REMARK H PARENT 10 11
REMARK Flexibility Score: inf
ROOT
ATOM      1  C   UNL     1     167.401 167.071 165.280  1.00  0.00     0.000 C 
ENDROOT
BRANCH   1   2
ATOM      2  C   UNL     1     166.104 166.281 165.486  1.00  0.00     0.000 C 
BRANCH   2   3
ATOM      3  C   UNL     1     165.809 166.084 166.981  1.00  0.00    -0.000 C 
BRANCH   3   4
ATOM      4  C   UNL     1     164.805 164.939 167.232  1.00  0.00    -0.000 C 
BRANCH   4   5
ATOM      5  C   UNL     1     164.948 164.288 168.618  1.00  0.00    -0.003 C 
ATOM      6  C   UNL     1     163.752 164.554 169.530  1.00  0.00     0.004 C 
ENDBRANCH   4   5
ENDBRANCH   3   4
ENDBRANCH   2   3
ENDBRANCH   1   2
BRANCH   1   7
ATOM      7  C   UNL     1     168.380 166.836 166.437  1.00  0.00     0.002 C 
BRANCH   7   8
ATOM      8  C   UNL     1     169.833 166.938 165.958  1.00  0.00     0.028 C 
BRANCH   8   9
ATOM      9  C   UNL     1     170.772 167.291 167.114  1.00  0.00     0.156 C 
BRANCH   9  10
ATOM     10  O   UNL     1     172.018 166.677 166.932  1.00  0.00    -0.396 OA
ATOM     11  H   UNL     1     171.838 165.720 166.737  1.00  0.00     0.210 HD
ENDBRANCH   9  10
ENDBRANCH   8   9
ENDBRANCH   7   8
ENDBRANCH   1   7
TORSDOF 8
ENDMDL
