MODEL 1
REMARK VINA RESULT:    -4.515      0.000      0.000
REMARK INTER + INTRA:          -5.533
REMARK INTER:                  -6.362
REMARK INTRA:                   0.829
REMARK UNBOUND:                 0.829
REMARK SMILES CC1=CCCC(C)=CCC(C)(C)C=CC1
REMARK SMILES IDX 2 1 3 2 1 3 4 4 5 5 6 6 7 7 8 8 15 10 14 11 13 12 10 13
REMARK SMILES IDX 11 14 12 15 9 16
REMARK H PARENT
REMARK Flexibility Score: 60.00
ROOT
ATOM      1  C   UNL     1     -39.976 -47.640  28.385  1.00  0.00    -0.074 C 
ATOM      2  C   UNL     1     -40.634 -47.008  27.381  1.00  0.00    -0.027 C 
ATOM      3  C   UNL     1     -38.913 -46.856  29.115  1.00  0.00     0.039 C 
ENDROOT
BRANCH   2   4
ATOM      4  C   UNL     1     -41.705 -47.601  26.493  1.00  0.00     0.032 C 
BRANCH   4   5
ATOM      5  C   UNL     1     -43.050 -47.819  27.216  1.00  0.00     0.034 C 
BRANCH   5   6
ATOM      6  C   UNL     1     -43.599 -49.235  27.124  1.00  0.00    -0.077 C 
ATOM      7  C   UNL     1     -43.912 -49.807  25.763  1.00  0.00     0.039 C 
ATOM      8  C   UNL     1     -43.806 -50.022  28.202  1.00  0.00    -0.027 CG0
ATOM      9  G   UNL     1     -43.559 -49.610  29.637  1.00  0.00     0.000 G0
ENDBRANCH   5   6
ENDBRANCH   4   5
ENDBRANCH   2   4
BRANCH   1  10
ATOM     10  C   UNL     1     -40.203 -49.092  28.787  1.00  0.00     0.057 C 
BRANCH  10  11
ATOM     11  C   UNL     1     -40.363 -49.223  30.283  1.00  0.00    -0.026 C 
ATOM     12  C   UNL     1     -41.357 -49.839  30.963  1.00  0.00    -0.024 C 
BRANCH  12  13
ATOM     13  C   UNL     1     -42.605 -50.550  30.418  1.00  0.00    -0.014 C 
ATOM     14  C   UNL     1     -43.375 -51.143  31.624  1.00  0.00     0.016 C 
ATOM     15  C   UNL     1     -42.182 -51.735  29.523  1.00  0.00     0.016 C 
BRANCH  13  16
ATOM     16  C   UNL     1     -43.573 -49.601  29.642  1.00  0.00     0.038 CG0
ATOM     17  G   UNL     1     -43.802 -50.036  28.211  1.00  0.00     0.000 G0
ENDBRANCH  13  16
ENDBRANCH  12  13
ENDBRANCH  10  11
ENDBRANCH   1  10
TORSDOF 0
ENDMDL
MODEL 2
REMARK VINA RESULT:    -4.403      9.531     12.870
REMARK INTER + INTRA:          -5.375
REMARK INTER:                  -6.140
REMARK INTRA:                   0.765
REMARK UNBOUND:                 0.829
REMARK SMILES CC1=CCCC(C)=CCC(C)(C)C=CC1
REMARK SMILES IDX 2 1 3 2 1 3 4 4 5 5 6 6 7 7 8 8 15 10 14 11 13 12 10 13
REMARK SMILES IDX 11 14 12 15 9 16
REMARK H PARENT
REMARK Flexibility Score: 60.00
ROOT
ATOM      1  C   UNL     1     -53.947 -47.636  22.317  1.00  0.00    -0.074 C 
ATOM      2  C   UNL     1     -53.208 -47.212  23.373  1.00  0.00    -0.027 C 
ATOM      3  C   UNL     1     -55.009 -46.697  21.797  1.00  0.00     0.039 C 
ENDROOT
BRANCH   2   4
ATOM      4  C   UNL     1     -52.121 -47.991  24.080  1.00  0.00     0.032 C 
BRANCH   4   5
ATOM      5  C   UNL     1     -50.775 -47.987  23.327  1.00  0.00     0.034 C 
BRANCH   5   6
ATOM      6  C   UNL     1     -50.195 -49.367  23.056  1.00  0.00    -0.077 C 
ATOM      7  C   UNL     1     -49.726 -50.201  24.223  1.00  0.00     0.039 C 
ATOM      8  C   UNL     1     -50.092 -49.899  21.818  1.00  0.00    -0.027 CG0
ATOM      9  G   UNL     1     -50.500 -49.202  20.539  1.00  0.00     0.000 G0
ENDBRANCH   5   6
ENDBRANCH   4   5
ENDBRANCH   2   4
BRANCH   1  10
ATOM     10  C   UNL     1     -53.811 -49.003  21.659  1.00  0.00     0.057 C 
BRANCH  10  11
ATOM     11  C   UNL     1     -53.750 -48.878  20.155  1.00  0.00    -0.026 C 
ATOM     12  C   UNL     1     -52.787 -49.331  19.320  1.00  0.00    -0.024 C 
BRANCH  12  13
ATOM     13  C   UNL     1     -51.482 -50.068  19.659  1.00  0.00    -0.014 C 
ATOM     14  C   UNL     1     -50.770 -50.405  18.325  1.00  0.00     0.016 C 
ATOM     15  C   UNL     1     -51.805 -51.410  20.352  1.00  0.00     0.016 C 
BRANCH  13  16
ATOM     16  C   UNL     1     -50.500 -49.226  20.535  1.00  0.00     0.038 CG0
ATOM     17  G   UNL     1     -50.108 -49.926  21.818  1.00  0.00     0.000 G0
ENDBRANCH  13  16
ENDBRANCH  12  13
ENDBRANCH  10  11
ENDBRANCH   1  10
TORSDOF 0
ENDMDL
MODEL 3
REMARK VINA RESULT:    -4.076      9.346     12.461
REMARK INTER + INTRA:          -4.914
REMARK INTER:                  -5.683
REMARK INTRA:                   0.769
REMARK UNBOUND:                 0.829
REMARK SMILES CC1=CCCC(C)=CCC(C)(C)C=CC1
REMARK SMILES IDX 2 1 3 2 1 3 4 4 5 5 6 6 7 7 8 8 15 10 14 11 13 12 10 13
REMARK SMILES IDX 11 14 12 15 9 16
REMARK H PARENT
REMARK Flexibility Score: 60.00
ROOT
ATOM      1  C   UNL     1     -54.110 -47.855  21.606  1.00  0.00    -0.074 C 
ATOM      2  C   UNL     1     -53.976 -46.887  22.547  1.00  0.00    -0.027 C 
ATOM      3  C   UNL     1     -55.111 -47.611  20.503  1.00  0.00     0.039 C 
ENDROOT
BRANCH   2   4
ATOM      4  C   UNL     1     -53.069 -46.927  23.756  1.00  0.00     0.032 C 
BRANCH   4   5
ATOM      5  C   UNL     1     -51.805 -46.055  23.603  1.00  0.00     0.034 C 
BRANCH   5   6
ATOM      6  C   UNL     1     -50.495 -46.788  23.850  1.00  0.00    -0.077 C 
ATOM      7  C   UNL     1     -49.898 -46.766  25.236  1.00  0.00     0.039 C 
ATOM      8  C   UNL     1     -49.839 -47.480  22.892  1.00  0.00    -0.027 CG0
ATOM      9  G   UNL     1     -50.285 -47.599  21.451  1.00  0.00     0.000 G0
ENDBRANCH   5   6
ENDBRANCH   4   5
ENDBRANCH   2   4
BRANCH   1  10
ATOM     10  C   UNL     1     -53.360 -49.181  21.617  1.00  0.00     0.057 C 
BRANCH  10  11
ATOM     11  C   UNL     1     -52.710 -49.448  20.280  1.00  0.00    -0.026 C 
ATOM     12  C   UNL     1     -51.395 -49.398  19.969  1.00  0.00    -0.024 C 
BRANCH  12  13
ATOM     13  C   UNL     1     -50.202 -49.035  20.867  1.00  0.00    -0.014 C 
ATOM     14  C   UNL     1     -48.916 -49.149  20.012  1.00  0.00     0.016 C 
ATOM     15  C   UNL     1     -50.078 -50.063  22.012  1.00  0.00     0.016 C 
BRANCH  13  16
ATOM     16  C   UNL     1     -50.276 -47.585  21.444  1.00  0.00     0.038 CG0
ATOM     17  G   UNL     1     -49.828 -47.502  22.887  1.00  0.00     0.000 G0
ENDBRANCH  13  16
ENDBRANCH  12  13
ENDBRANCH  10  11
ENDBRANCH   1  10
TORSDOF 0
ENDMDL
MODEL 4
REMARK VINA RESULT:    -4.035     10.193     12.727
REMARK INTER + INTRA:          -4.857
REMARK INTER:                  -5.771
REMARK INTRA:                   0.913
REMARK UNBOUND:                 0.829
REMARK SMILES CC1=CCCC(C)=CCC(C)(C)C=CC1
REMARK SMILES IDX 2 1 3 2 1 3 4 4 5 5 6 6 7 7 8 8 15 10 14 11 13 12 10 13
REMARK SMILES IDX 11 14 12 15 9 16
REMARK H PARENT
REMARK Flexibility Score: 60.00
ROOT
ATOM      1  C   UNL     1     -48.147 -47.847  19.827  1.00  0.00    -0.074 C 
ATOM      2  C   UNL     1     -47.163 -48.163  18.947  1.00  0.00    -0.027 C 
ATOM      3  C   UNL     1     -47.742 -47.625  21.264  1.00  0.00     0.039 C 
ENDROOT
BRANCH   2   4
ATOM      4  C   UNL     1     -47.335 -48.463  17.475  1.00  0.00     0.032 C 
BRANCH   4   5
ATOM      5  C   UNL     1     -47.440 -49.970  17.164  1.00  0.00     0.034 C 
BRANCH   5   6
ATOM      6  C   UNL     1     -48.767 -50.404  16.560  1.00  0.00    -0.077 C 
ATOM      7  C   UNL     1     -48.928 -50.376  15.060  1.00  0.00     0.039 C 
ATOM      8  C   UNL     1     -49.813 -50.834  17.299  1.00  0.00    -0.027 CG0
ATOM      9  G   UNL     1     -49.831 -50.917  18.810  1.00  0.00     0.000 G0
ENDBRANCH   5   6
ENDBRANCH   4   5
ENDBRANCH   2   4
BRANCH   1  10
ATOM     10  C   UNL     1     -49.625 -47.751  19.473  1.00  0.00     0.057 C 
BRANCH  10  11
ATOM     11  C   UNL     1     -50.485 -48.338  20.568  1.00  0.00    -0.026 C 
ATOM     12  C   UNL     1     -51.139 -49.521  20.568  1.00  0.00    -0.024 C 
BRANCH  12  13
ATOM     13  C   UNL     1     -51.217 -50.583  19.460  1.00  0.00    -0.014 C 
ATOM     14  C   UNL     1     -52.143 -50.035  18.345  1.00  0.00     0.016 C 
ATOM     15  C   UNL     1     -51.879 -51.865  20.009  1.00  0.00     0.016 C 
BRANCH  13  16
ATOM     16  C   UNL     1     -49.832 -50.918  18.820  1.00  0.00     0.038 CG0
ATOM     17  G   UNL     1     -49.840 -50.813  17.310  1.00  0.00     0.000 G0
ENDBRANCH  13  16
ENDBRANCH  12  13
ENDBRANCH  10  11
ENDBRANCH   1  10
TORSDOF 0
ENDMDL
MODEL 5
REMARK VINA RESULT:    -3.907      1.524      3.852
REMARK INTER + INTRA:          -4.676
REMARK INTER:                  -5.591
REMARK INTRA:                   0.915
REMARK UNBOUND:                 0.829
REMARK SMILES CC1=CCCC(C)=CCC(C)(C)C=CC1
REMARK SMILES IDX 2 1 3 2 1 3 4 4 5 5 6 6 7 7 8 8 15 10 14 11 13 12 10 13
REMARK SMILES IDX 11 14 12 15 9 16
REMARK H PARENT
REMARK Flexibility Score: 60.00
ROOT
ATOM      1  C   UNL     1     -43.103 -47.658  25.082  1.00  0.00    -0.074 C 
ATOM      2  C   UNL     1     -42.212 -46.670  25.351  1.00  0.00    -0.027 C 
ATOM      3  C   UNL     1     -44.308 -47.292  24.250  1.00  0.00     0.039 C 
ENDROOT
BRANCH   2   4
ATOM      4  C   UNL     1     -40.959 -46.793  26.189  1.00  0.00     0.032 C 
BRANCH   4   5
ATOM      5  C   UNL     1     -41.202 -46.554  27.694  1.00  0.00     0.034 C 
BRANCH   5   6
ATOM      6  C   UNL     1     -40.864 -47.737  28.587  1.00  0.00    -0.077 C 
ATOM      7  C   UNL     1     -39.419 -48.000  28.932  1.00  0.00     0.039 C 
ATOM      8  C   UNL     1     -41.798 -48.563  29.109  1.00  0.00    -0.027 CG0
ATOM      9  G   UNL     1     -43.287 -48.455  28.861  1.00  0.00     0.000 G0
ENDBRANCH   5   6
ENDBRANCH   4   5
ENDBRANCH   2   4
BRANCH   1  10
ATOM     10  C   UNL     1     -42.994 -49.085  25.602  1.00  0.00     0.057 C 
BRANCH  10  11
ATOM     11  C   UNL     1     -44.342 -49.609  26.038  1.00  0.00    -0.026 C 
ATOM     12  C   UNL     1     -44.748 -49.921  27.290  1.00  0.00    -0.024 C 
BRANCH  12  13
ATOM     13  C   UNL     1     -43.958 -49.859  28.607  1.00  0.00    -0.014 C 
ATOM     14  C   UNL     1     -42.835 -50.922  28.533  1.00  0.00     0.016 C 
ATOM     15  C   UNL     1     -44.876 -50.249  29.785  1.00  0.00     0.016 C 
BRANCH  13  16
ATOM     16  C   UNL     1     -43.296 -48.469  28.869  1.00  0.00     0.038 CG0
ATOM     17  G   UNL     1     -41.806 -48.565  29.118  1.00  0.00     0.000 G0
ENDBRANCH  13  16
ENDBRANCH  12  13
ENDBRANCH  10  11
ENDBRANCH   1  10
TORSDOF 0
ENDMDL
MODEL 6
REMARK VINA RESULT:    -3.801      2.335      5.304
REMARK INTER + INTRA:          -4.527
REMARK INTER:                  -5.566
REMARK INTRA:                   1.039
REMARK UNBOUND:                 0.829
REMARK SMILES CC1=CCCC(C)=CCC(C)(C)C=CC1
REMARK SMILES IDX 2 1 3 2 1 3 4 4 5 5 6 6 7 7 8 8 15 10 14 11 13 12 10 13
REMARK SMILES IDX 11 14 12 15 9 16
REMARK H PARENT
REMARK Flexibility Score: 60.00
ROOT
ATOM      1  C   UNL     1     -44.184 -51.481  32.423  1.00  0.00    -0.074 C 
ATOM      2  C   UNL     1     -45.502 -51.336  32.712  1.00  0.00    -0.027 C 
ATOM      3  C   UNL     1     -43.226 -51.549  33.588  1.00  0.00     0.039 C 
ENDROOT
BRANCH   2   4
ATOM      4  C   UNL     1     -46.633 -51.209  31.716  1.00  0.00     0.032 C 
BRANCH   4   5
ATOM      5  C   UNL     1     -47.208 -49.780  31.620  1.00  0.00     0.034 C 
BRANCH   5   6
ATOM      6  C   UNL     1     -46.182 -48.670  31.781  1.00  0.00    -0.077 C 
ATOM      7  C   UNL     1     -46.179 -47.860  33.054  1.00  0.00     0.039 C 
ATOM      8  C   UNL     1     -45.251 -48.378  30.846  1.00  0.00    -0.027 CG0
ATOM      9  G   UNL     1     -45.115 -49.078  29.511  1.00  0.00     0.000 G0
ENDBRANCH   5   6
ENDBRANCH   4   5
ENDBRANCH   2   4
BRANCH   1  10
ATOM     10  C   UNL     1     -43.608 -51.529  31.014  1.00  0.00     0.057 C 
BRANCH  10  11
ATOM     11  C   UNL     1     -42.555 -50.463  30.821  1.00  0.00    -0.026 C 
ATOM     12  C   UNL     1     -42.578 -49.416  29.965  1.00  0.00    -0.024 C 
BRANCH  12  13
ATOM     13  C   UNL     1     -43.655 -49.029  28.939  1.00  0.00    -0.014 C 
ATOM     14  C   UNL     1     -43.565 -50.031  27.760  1.00  0.00     0.016 C 
ATOM     15  C   UNL     1     -43.352 -47.628  28.367  1.00  0.00     0.016 C 
BRANCH  13  16
ATOM     16  C   UNL     1     -45.107 -49.082  29.511  1.00  0.00     0.038 CG0
ATOM     17  G   UNL     1     -45.241 -48.376  30.843  1.00  0.00     0.000 G0
ENDBRANCH  13  16
ENDBRANCH  12  13
ENDBRANCH  10  11
ENDBRANCH   1  10
TORSDOF 0
ENDMDL
MODEL 7
REMARK VINA RESULT:    -3.782      8.419     11.481
REMARK INTER + INTRA:          -4.500
REMARK INTER:                  -5.614
REMARK INTRA:                   1.113
REMARK UNBOUND:                 0.829
REMARK SMILES CC1=CCCC(C)=CCC(C)(C)C=CC1
REMARK SMILES IDX 2 1 3 2 1 3 4 4 5 5 6 6 7 7 8 8 15 10 14 11 13 12 10 13
REMARK SMILES IDX 11 14 12 15 9 16
REMARK H PARENT
REMARK Flexibility Score: 60.00
ROOT
ATOM      1  C   UNL     1     -53.268 -48.509  21.782  1.00  0.00    -0.074 C 
ATOM      2  C   UNL     1     -52.898 -49.226  20.691  1.00  0.00    -0.027 C 
ATOM      3  C   UNL     1     -54.203 -47.345  21.558  1.00  0.00     0.039 C 
ENDROOT
BRANCH   2   4
ATOM      4  C   UNL     1     -51.948 -50.403  20.667  1.00  0.00     0.032 C 
BRANCH   4   5
ATOM      5  C   UNL     1     -50.767 -50.218  19.693  1.00  0.00     0.034 C 
BRANCH   5   6
ATOM      6  C   UNL     1     -49.790 -49.118  20.080  1.00  0.00    -0.077 C 
ATOM      7  C   UNL     1     -49.340 -48.139  19.023  1.00  0.00     0.039 C 
ATOM      8  C   UNL     1     -49.315 -48.955  21.334  1.00  0.00    -0.027 CG0
ATOM      9  G   UNL     1     -49.651 -49.846  22.511  1.00  0.00     0.000 G0
ENDBRANCH   5   6
ENDBRANCH   4   5
ENDBRANCH   2   4
BRANCH   1  10
ATOM     10  C   UNL     1     -52.767 -48.769  23.197  1.00  0.00     0.057 C 
BRANCH  10  11
ATOM     11  C   UNL     1     -51.803 -47.692  23.638  1.00  0.00    -0.026 C 
ATOM     12  C   UNL     1     -50.485 -47.818  23.913  1.00  0.00    -0.024 C 
BRANCH  12  13
ATOM     13  C   UNL     1     -49.607 -49.079  23.883  1.00  0.00    -0.014 C 
ATOM     14  C   UNL     1     -50.119 -50.037  24.987  1.00  0.00     0.016 C 
ATOM     15  C   UNL     1     -48.151 -48.710  24.243  1.00  0.00     0.016 C 
BRANCH  13  16
ATOM     16  C   UNL     1     -49.655 -49.838  22.519  1.00  0.00     0.038 CG0
ATOM     17  G   UNL     1     -49.312 -48.953  21.340  1.00  0.00     0.000 G0
ENDBRANCH  13  16
ENDBRANCH  12  13
ENDBRANCH  10  11
ENDBRANCH   1  10
TORSDOF 0
ENDMDL
MODEL 8
REMARK VINA RESULT:    -3.772      1.407      3.884
REMARK INTER + INTRA:          -4.487
REMARK INTER:                  -5.549
REMARK INTRA:                   1.062
REMARK UNBOUND:                 0.829
REMARK SMILES CC1=CCCC(C)=CCC(C)(C)C=CC1
REMARK SMILES IDX 2 1 3 2 1 3 4 4 5 5 6 6 7 7 8 8 15 10 14 11 13 12 10 13
REMARK SMILES IDX 11 14 12 15 9 16
REMARK H PARENT
REMARK Flexibility Score: 60.00
ROOT
ATOM      1  C   UNL     1     -44.171 -49.114  25.871  1.00  0.00    -0.074 C 
ATOM      2  C   UNL     1     -43.280 -48.152  25.524  1.00  0.00    -0.027 C 
ATOM      3  C   UNL     1     -45.550 -49.030  25.262  1.00  0.00     0.039 C 
ENDROOT
BRANCH   2   4
ATOM      4  C   UNL     1     -41.862 -48.013  26.032  1.00  0.00     0.032 C 
BRANCH   4   5
ATOM      5  C   UNL     1     -41.759 -47.219  27.351  1.00  0.00     0.034 C 
BRANCH   5   6
ATOM      6  C   UNL     1     -40.550 -47.564  28.207  1.00  0.00    -0.077 C 
ATOM      7  C   UNL     1     -39.587 -46.465  28.583  1.00  0.00     0.039 C 
ATOM      8  C   UNL     1     -40.300 -48.809  28.670  1.00  0.00    -0.027 CG0
ATOM      9  G   UNL     1     -41.149 -50.027  28.383  1.00  0.00     0.000 G0
ENDBRANCH   5   6
ENDBRANCH   4   5
ENDBRANCH   2   4
BRANCH   1  10
ATOM     10  C   UNL     1     -43.891 -50.234  26.865  1.00  0.00     0.057 C 
BRANCH  10  11
ATOM     11  C   UNL     1     -44.280 -49.826  28.266  1.00  0.00    -0.026 C 
ATOM     12  C   UNL     1     -43.531 -49.890  29.390  1.00  0.00    -0.024 C 
BRANCH  12  13
ATOM     13  C   UNL     1     -42.096 -50.412  29.568  1.00  0.00    -0.014 C 
ATOM     14  C   UNL     1     -42.165 -51.957  29.663  1.00  0.00     0.016 C 
ATOM     15  C   UNL     1     -41.515 -49.902  30.904  1.00  0.00     0.016 C 
BRANCH  13  16
ATOM     16  C   UNL     1     -41.147 -50.040  28.384  1.00  0.00     0.038 CG0
ATOM     17  G   UNL     1     -40.301 -48.819  28.670  1.00  0.00     0.000 G0
ENDBRANCH  13  16
ENDBRANCH  12  13
ENDBRANCH  10  11
ENDBRANCH   1  10
TORSDOF 0
ENDMDL
MODEL 9
REMARK VINA RESULT:    -3.765      1.606      4.493
REMARK INTER + INTRA:          -4.476
REMARK INTER:                  -5.358
REMARK INTRA:                   0.882
REMARK UNBOUND:                 0.829
REMARK SMILES CC1=CCCC(C)=CCC(C)(C)C=CC1
REMARK SMILES IDX 2 1 3 2 1 3 4 4 5 5 6 6 7 7 8 8 15 10 14 11 13 12 10 13
REMARK SMILES IDX 11 14 12 15 9 16
REMARK H PARENT
REMARK Flexibility Score: 60.00
ROOT
ATOM      1  C   UNL     1     -44.247 -48.737  24.790  1.00  0.00    -0.074 C 
ATOM      2  C   UNL     1     -45.252 -49.223  25.561  1.00  0.00    -0.027 C 
ATOM      3  C   UNL     1     -44.637 -47.950  23.562  1.00  0.00     0.039 C 
ENDROOT
BRANCH   2   4
ATOM      4  C   UNL     1     -45.103 -50.064  26.808  1.00  0.00     0.032 C 
BRANCH   4   5
ATOM      5  C   UNL     1     -45.110 -49.237  28.110  1.00  0.00     0.034 C 
BRANCH   5   6
ATOM      6  C   UNL     1     -44.019 -49.606  29.103  1.00  0.00    -0.077 C 
ATOM      7  C   UNL     1     -44.194 -50.841  29.952  1.00  0.00     0.039 C 
ATOM      8  C   UNL     1     -42.881 -48.892  29.255  1.00  0.00    -0.027 CG0
ATOM      9  G   UNL     1     -42.545 -47.626  28.498  1.00  0.00     0.000 G0
ENDBRANCH   5   6
ENDBRANCH   4   5
ENDBRANCH   2   4
BRANCH   1  10
ATOM     10  C   UNL     1     -42.765 -48.973  25.052  1.00  0.00     0.057 C 
BRANCH  10  11
ATOM     11  C   UNL     1     -42.016 -47.666  25.156  1.00  0.00    -0.026 C 
ATOM     12  C   UNL     1     -41.371 -47.159  26.231  1.00  0.00    -0.024 C 
BRANCH  12  13
ATOM     13  C   UNL     1     -41.238 -47.748  27.645  1.00  0.00    -0.014 C 
ATOM     14  C   UNL     1     -40.115 -46.971  28.376  1.00  0.00     0.016 C 
ATOM     15  C   UNL     1     -40.785 -49.222  27.556  1.00  0.00     0.016 C 
BRANCH  13  16
ATOM     16  C   UNL     1     -42.544 -47.631  28.494  1.00  0.00     0.038 CG0
ATOM     17  G   UNL     1     -42.866 -48.898  29.256  1.00  0.00     0.000 G0
ENDBRANCH  13  16
ENDBRANCH  12  13
ENDBRANCH  10  11
ENDBRANCH   1  10
TORSDOF 0
ENDMDL
