MODEL 1
REMARK VINA RESULT:    -3.827      0.000      0.000
REMARK INTER + INTRA:          -7.071
REMARK INTER:                  -5.840
REMARK INTRA:                  -1.230
REMARK UNBOUND:                -1.230
REMARK SMILES CCCCCCCCCCC(=O)[O-]
REMARK SMILES IDX 7 1 8 2 9 3 10 4 11 5 12 6 13 7 6 8 5 9 4 10 3 11 2 12 1 13
REMARK H PARENT
REMARK Flexibility Score: inf
ROOT
ATOM      1  C   UNL     1      52.395  25.062  33.467  1.00  0.00     0.000 C 
ENDROOT
BRANCH   1   2
ATOM      2  C   UNL     1      52.832  26.516  33.696  1.00  0.00     0.000 C 
BRANCH   2   3
ATOM      3  C   UNL     1      52.831  26.913  35.184  1.00  0.00     0.006 C 
BRANCH   3   4
ATOM      4  C   UNL     1      51.991  28.160  35.506  1.00  0.00     0.053 C 
BRANCH   4   5
ATOM      5  C   UNL     1      52.843  29.378  35.687  1.00  0.00     0.041 C 
ATOM      6  O   UNL     1      52.638  30.406  34.989  1.00  0.00    -0.550 OA
ATOM      7  O   UNL     1      53.844  29.388  36.651  1.00  0.00    -0.550 OA
ENDBRANCH   4   5
ENDBRANCH   3   4
ENDBRANCH   2   3
ENDBRANCH   1   2
BRANCH   1   8
ATOM      8  C   UNL     1      51.181  24.995  32.532  1.00  0.00     0.000 C 
BRANCH   8   9
ATOM      9  C   UNL     1      50.152  26.079  32.887  1.00  0.00    -0.000 C 
BRANCH   9  10
ATOM     10  C   UNL     1      48.992  25.546  33.747  1.00  0.00    -0.000 C 
BRANCH  10  11
ATOM     11  C   UNL     1      49.113  25.834  35.255  1.00  0.00    -0.000 C 
BRANCH  11  12
ATOM     12  C   UNL     1      49.810  24.704  36.026  1.00  0.00    -0.003 C 
ATOM     13  C   UNL     1      49.523  23.347  35.389  1.00  0.00     0.004 C 
ENDBRANCH  11  12
ENDBRANCH  10  11
ENDBRANCH   9  10
ENDBRANCH   8   9
ENDBRANCH   1   8
TORSDOF 9
ENDMDL
MODEL 2
REMARK VINA RESULT:    -3.784      1.207      2.126
REMARK INTER + INTRA:          -7.006
REMARK INTER:                  -5.816
REMARK INTRA:                  -1.189
REMARK UNBOUND:                -1.230
REMARK SMILES CCCCCCCCCCC(=O)[O-]
REMARK SMILES IDX 7 1 8 2 9 3 10 4 11 5 12 6 13 7 6 8 5 9 4 10 3 11 2 12 1 13
REMARK H PARENT
REMARK Flexibility Score: inf
ROOT
ATOM      1  C   UNL     1      49.816  26.559  33.412  1.00  0.00     0.000 C 
ENDROOT
BRANCH   1   2
ATOM      2  C   UNL     1      51.209  26.041  33.026  1.00  0.00     0.000 C 
BRANCH   2   3
ATOM      3  C   UNL     1      52.324  26.597  33.931  1.00  0.00     0.006 C 
BRANCH   3   4
ATOM      4  C   UNL     1      51.825  27.527  35.050  1.00  0.00     0.053 C 
BRANCH   4   5
ATOM      5  C   UNL     1      52.708  28.724  35.218  1.00  0.00     0.041 C 
ATOM      6  O   UNL     1      53.621  28.962  34.384  1.00  0.00    -0.550 OA
ATOM      7  O   UNL     1      52.501  29.597  36.279  1.00  0.00    -0.550 OA
ENDBRANCH   4   5
ENDBRANCH   3   4
ENDBRANCH   2   3
ENDBRANCH   1   2
BRANCH   1   8
ATOM      8  C   UNL     1      48.742  25.499  33.136  1.00  0.00     0.000 C 
BRANCH   8   9
ATOM      9  C   UNL     1      48.470  24.652  34.389  1.00  0.00    -0.000 C 
BRANCH   9  10
ATOM     10  C   UNL     1      49.095  23.247  34.312  1.00  0.00    -0.000 C 
BRANCH  10  11
ATOM     11  C   UNL     1      50.220  22.978  35.328  1.00  0.00    -0.000 C 
BRANCH  11  12
ATOM     12  C   UNL     1      50.530  24.195  36.212  1.00  0.00    -0.003 C 
ATOM     13  C   UNL     1      51.972  24.159  36.711  1.00  0.00     0.004 C 
ENDBRANCH  11  12
ENDBRANCH  10  11
ENDBRANCH   9  10
ENDBRANCH   8   9
ENDBRANCH   1   8
TORSDOF 9
ENDMDL
MODEL 3
REMARK VINA RESULT:    -3.718      1.515      2.433
REMARK INTER + INTRA:          -6.904
REMARK INTER:                  -5.967
REMARK INTRA:                  -0.938
REMARK UNBOUND:                -1.230
REMARK SMILES CCCCCCCCCCC(=O)[O-]
REMARK SMILES IDX 7 1 8 2 9 3 10 4 11 5 12 6 13 7 6 8 5 9 4 10 3 11 2 12 1 13
REMARK H PARENT
REMARK Flexibility Score: inf
ROOT
ATOM      1  C   UNL     1      53.105  26.433  34.038  1.00  0.00     0.000 C 
ENDROOT
BRANCH   1   2
ATOM      2  C   UNL     1      53.410  27.919  34.284  1.00  0.00     0.000 C 
BRANCH   2   3
ATOM      3  C   UNL     1      52.531  28.534  35.389  1.00  0.00     0.006 C 
BRANCH   3   4
ATOM      4  C   UNL     1      52.855  30.003  35.710  1.00  0.00     0.053 C 
BRANCH   4   5
ATOM      5  C   UNL     1      53.648  30.137  36.973  1.00  0.00     0.041 C 
ATOM      6  O   UNL     1      53.072  30.420  38.057  1.00  0.00    -0.550 OA
ATOM      7  O   UNL     1      55.020  29.918  36.959  1.00  0.00    -0.550 OA
ENDBRANCH   4   5
ENDBRANCH   3   4
ENDBRANCH   2   3
ENDBRANCH   1   2
BRANCH   1   8
ATOM      8  C   UNL     1      52.902  25.689  35.364  1.00  0.00     0.000 C 
BRANCH   8   9
ATOM      9  C   UNL     1      51.774  24.653  35.247  1.00  0.00    -0.000 C 
BRANCH   9  10
ATOM     10  C   UNL     1      50.584  24.953  36.177  1.00  0.00    -0.000 C 
BRANCH  10  11
ATOM     11  C   UNL     1      49.735  26.172  35.773  1.00  0.00    -0.000 C 
BRANCH  11  12
ATOM     12  C   UNL     1      48.855  25.907  34.544  1.00  0.00    -0.003 C 
ATOM     13  C   UNL     1      49.453  26.543  33.292  1.00  0.00     0.004 C 
ENDBRANCH  11  12
ENDBRANCH  10  11
ENDBRANCH   9  10
ENDBRANCH   8   9
ENDBRANCH   1   8
TORSDOF 9
ENDMDL
MODEL 4
REMARK VINA RESULT:    -3.707      1.151      2.124
REMARK INTER + INTRA:          -6.888
REMARK INTER:                  -5.551
REMARK INTRA:                  -1.337
REMARK UNBOUND:                -1.230
REMARK SMILES CCCCCCCCCCC(=O)[O-]
REMARK SMILES IDX 7 1 8 2 9 3 10 4 11 5 12 6 13 7 6 8 5 9 4 10 3 11 2 12 1 13
REMARK H PARENT
REMARK Flexibility Score: inf
ROOT
ATOM      1  C   UNL     1      53.439  25.086  35.314  1.00  0.00     0.000 C 
ENDROOT
BRANCH   1   2
ATOM      2  C   UNL     1      53.408  25.881  34.000  1.00  0.00     0.000 C 
BRANCH   2   3
ATOM      3  C   UNL     1      52.958  27.341  34.197  1.00  0.00     0.006 C 
BRANCH   3   4
ATOM      4  C   UNL     1      52.912  27.797  35.665  1.00  0.00     0.053 C 
BRANCH   4   5
ATOM      5  C   UNL     1      52.856  29.288  35.787  1.00  0.00     0.041 C 
ATOM      6  O   UNL     1      52.526  29.993  34.797  1.00  0.00    -0.550 OA
ATOM      7  O   UNL     1      53.137  29.897  37.004  1.00  0.00    -0.550 OA
ENDBRANCH   4   5
ENDBRANCH   3   4
ENDBRANCH   2   3
ENDBRANCH   1   2
BRANCH   1   8
ATOM      8  C   UNL     1      52.321  24.036  35.346  1.00  0.00     0.000 C 
BRANCH   8   9
ATOM      9  C   UNL     1      51.250  24.404  36.384  1.00  0.00    -0.000 C 
BRANCH   9  10
ATOM     10  C   UNL     1      49.891  24.750  35.747  1.00  0.00    -0.000 C 
BRANCH  10  11
ATOM     11  C   UNL     1      49.593  26.255  35.627  1.00  0.00    -0.000 C 
BRANCH  11  12
ATOM     12  C   UNL     1      49.286  26.691  34.187  1.00  0.00    -0.003 C 
ATOM     13  C   UNL     1      49.710  25.619  33.186  1.00  0.00     0.004 C 
ENDBRANCH  11  12
ENDBRANCH  10  11
ENDBRANCH   9  10
ENDBRANCH   8   9
ENDBRANCH   1   8
TORSDOF 9
ENDMDL
MODEL 5
REMARK VINA RESULT:    -3.629      2.349      4.764
REMARK INTER + INTRA:          -6.769
REMARK INTER:                  -5.938
REMARK INTRA:                  -0.830
REMARK UNBOUND:                -1.230
REMARK SMILES CCCCCCCCCCC(=O)[O-]
REMARK SMILES IDX 7 1 8 2 9 3 10 4 11 5 12 6 13 7 6 8 5 9 4 10 3 11 2 12 1 13
REMARK H PARENT
REMARK Flexibility Score: inf
ROOT
ATOM      1  C   UNL     1      51.322  24.813  32.721  1.00  0.00     0.000 C 
ENDROOT
BRANCH   1   2
ATOM      2  C   UNL     1      50.596  26.131  33.027  1.00  0.00     0.000 C 
BRANCH   2   3
ATOM      3  C   UNL     1      49.097  25.933  33.319  1.00  0.00     0.006 C 
BRANCH   3   4
ATOM      4  C   UNL     1      48.801  25.025  34.524  1.00  0.00     0.053 C 
BRANCH   4   5
ATOM      5  C   UNL     1      49.538  25.465  35.751  1.00  0.00     0.041 C 
ATOM      6  O   UNL     1      50.292  24.661  36.360  1.00  0.00    -0.550 OA
ATOM      7  O   UNL     1      49.417  26.773  36.202  1.00  0.00    -0.550 OA
ENDBRANCH   4   5
ENDBRANCH   3   4
ENDBRANCH   2   3
ENDBRANCH   1   2
BRANCH   1   8
ATOM      8  C   UNL     1      52.741  24.821  33.302  1.00  0.00     0.000 C 
BRANCH   8   9
ATOM      9  C   UNL     1      52.919  25.972  34.304  1.00  0.00    -0.000 C 
BRANCH   9  10
ATOM     10  C   UNL     1      54.224  26.760  34.087  1.00  0.00    -0.000 C 
BRANCH  10  11
ATOM     11  C   UNL     1      54.044  28.277  33.895  1.00  0.00    -0.000 C 
BRANCH  11  12
ATOM     12  C   UNL     1      53.013  28.883  34.856  1.00  0.00    -0.003 C 
ATOM     13  C   UNL     1      53.648  29.220  36.203  1.00  0.00     0.004 C 
ENDBRANCH  11  12
ENDBRANCH  10  11
ENDBRANCH   9  10
ENDBRANCH   8   9
ENDBRANCH   1   8
TORSDOF 9
ENDMDL
MODEL 6
REMARK VINA RESULT:    -3.608      3.086      5.228
REMARK INTER + INTRA:          -6.737
REMARK INTER:                  -5.705
REMARK INTRA:                  -1.033
REMARK UNBOUND:                -1.230
REMARK SMILES CCCCCCCCCCC(=O)[O-]
REMARK SMILES IDX 7 1 8 2 9 3 10 4 11 5 12 6 13 7 6 8 5 9 4 10 3 11 2 12 1 13
REMARK H PARENT
REMARK Flexibility Score: inf
ROOT
ATOM      1  C   UNL     1      51.565  24.376  36.542  1.00  0.00     0.000 C 
ENDROOT
BRANCH   1   2
ATOM      2  C   UNL     1      50.104  24.738  36.235  1.00  0.00     0.000 C 
BRANCH   2   3
ATOM      3  C   UNL     1      49.945  26.172  35.696  1.00  0.00     0.006 C 
BRANCH   3   4
ATOM      4  C   UNL     1      49.006  26.292  34.484  1.00  0.00     0.053 C 
BRANCH   4   5
ATOM      5  C   UNL     1      49.257  25.217  33.472  1.00  0.00     0.041 C 
ATOM      6  O   UNL     1      50.307  25.232  32.778  1.00  0.00    -0.550 OA
ATOM      7  O   UNL     1      48.346  24.179  33.320  1.00  0.00    -0.550 OA
ENDBRANCH   4   5
ENDBRANCH   3   4
ENDBRANCH   2   3
ENDBRANCH   1   2
BRANCH   1   8
ATOM      8  C   UNL     1      52.522  25.427  35.965  1.00  0.00     0.000 C 
BRANCH   8   9
ATOM      9  C   UNL     1      53.355  24.840  34.815  1.00  0.00    -0.000 C 
BRANCH   9  10
ATOM     10  C   UNL     1      53.710  25.881  33.739  1.00  0.00    -0.000 C 
BRANCH  10  11
ATOM     11  C   UNL     1      53.032  27.252  33.911  1.00  0.00    -0.000 C 
BRANCH  11  12
ATOM     12  C   UNL     1      54.032  28.384  34.183  1.00  0.00    -0.003 C 
ATOM     13  C   UNL     1      55.456  27.955  33.839  1.00  0.00     0.004 C 
ENDBRANCH  11  12
ENDBRANCH  10  11
ENDBRANCH   9  10
ENDBRANCH   8   9
ENDBRANCH   1   8
TORSDOF 9
ENDMDL
MODEL 7
REMARK VINA RESULT:    -3.575      1.699      2.287
REMARK INTER + INTRA:          -6.686
REMARK INTER:                  -5.686
REMARK INTRA:                  -1.000
REMARK UNBOUND:                -1.230
REMARK SMILES CCCCCCCCCCC(=O)[O-]
REMARK SMILES IDX 7 1 8 2 9 3 10 4 11 5 12 6 13 7 6 8 5 9 4 10 3 11 2 12 1 13
REMARK H PARENT
REMARK Flexibility Score: inf
ROOT
ATOM      1  C   UNL     1      51.168  26.048  33.052  1.00  0.00     0.000 C 
ENDROOT
BRANCH   1   2
ATOM      2  C   UNL     1      52.474  26.290  33.823  1.00  0.00     0.000 C 
BRANCH   2   3
ATOM      3  C   UNL     1      52.416  27.543  34.717  1.00  0.00     0.006 C 
BRANCH   3   4
ATOM      4  C   UNL     1      53.456  28.620  34.365  1.00  0.00     0.053 C 
BRANCH   4   5
ATOM      5  C   UNL     1      54.857  28.137  34.578  1.00  0.00     0.041 C 
ATOM      6  O   UNL     1      55.240  27.789  35.726  1.00  0.00    -0.550 OA
ATOM      7  O   UNL     1      55.730  28.041  33.502  1.00  0.00    -0.550 OA
ENDBRANCH   4   5
ENDBRANCH   3   4
ENDBRANCH   2   3
ENDBRANCH   1   2
BRANCH   1   8
ATOM      8  C   UNL     1      50.015  26.856  33.661  1.00  0.00     0.000 C 
BRANCH   8   9
ATOM      9  C   UNL     1      49.046  25.941  34.426  1.00  0.00    -0.000 C 
BRANCH   9  10
ATOM     10  C   UNL     1      49.423  25.774  35.909  1.00  0.00    -0.000 C 
BRANCH  10  11
ATOM     11  C   UNL     1      50.192  24.483  36.244  1.00  0.00    -0.000 C 
BRANCH  11  12
ATOM     12  C   UNL     1      49.922  23.350  35.244  1.00  0.00    -0.003 C 
ATOM     13  C   UNL     1      51.036  22.307  35.280  1.00  0.00     0.004 C 
ENDBRANCH  11  12
ENDBRANCH  10  11
ENDBRANCH   9  10
ENDBRANCH   8   9
ENDBRANCH   1   8
TORSDOF 9
ENDMDL
MODEL 8
REMARK VINA RESULT:    -3.573      4.313      5.795
REMARK INTER + INTRA:          -6.684
REMARK INTER:                  -5.478
REMARK INTRA:                  -1.206
REMARK UNBOUND:                -1.230
REMARK SMILES CCCCCCCCCCC(=O)[O-]
REMARK SMILES IDX 7 1 8 2 9 3 10 4 11 5 12 6 13 7 6 8 5 9 4 10 3 11 2 12 1 13
REMARK H PARENT
REMARK Flexibility Score: inf
ROOT
ATOM      1  C   UNL     1      51.132  23.178  33.883  1.00  0.00     0.000 C 
ENDROOT
BRANCH   1   2
ATOM      2  C   UNL     1      50.363  22.777  35.150  1.00  0.00     0.000 C 
BRANCH   2   3
ATOM      3  C   UNL     1      48.880  22.465  34.875  1.00  0.00     0.006 C 
BRANCH   3   4
ATOM      4  C   UNL     1      48.168  23.504  33.992  1.00  0.00     0.053 C 
BRANCH   4   5
ATOM      5  C   UNL     1      46.903  22.963  33.401  1.00  0.00     0.041 C 
ATOM      6  O   UNL     1      46.948  22.173  32.422  1.00  0.00    -0.550 OA
ATOM      7  O   UNL     1      45.675  23.307  33.953  1.00  0.00    -0.550 OA
ENDBRANCH   4   5
ENDBRANCH   3   4
ENDBRANCH   2   3
ENDBRANCH   1   2
BRANCH   1   8
ATOM      8  C   UNL     1      52.378  24.000  34.235  1.00  0.00     0.000 C 
BRANCH   8   9
ATOM      9  C   UNL     1      52.286  25.417  33.647  1.00  0.00    -0.000 C 
BRANCH   9  10
ATOM     10  C   UNL     1      50.963  25.674  32.903  1.00  0.00    -0.000 C 
BRANCH  10  11
ATOM     11  C   UNL     1      50.002  26.653  33.602  1.00  0.00    -0.000 C 
BRANCH  11  12
ATOM     12  C   UNL     1      50.438  26.999  35.033  1.00  0.00    -0.003 C 
ATOM     13  C   UNL     1      49.551  26.301  36.061  1.00  0.00     0.004 C 
ENDBRANCH  11  12
ENDBRANCH  10  11
ENDBRANCH   9  10
ENDBRANCH   8   9
ENDBRANCH   1   8
TORSDOF 9
ENDMDL
MODEL 9
REMARK VINA RESULT:    -3.561      3.281      5.435
REMARK INTER + INTRA:          -6.664
REMARK INTER:                  -5.778
REMARK INTRA:                  -0.887
REMARK UNBOUND:                -1.230
REMARK SMILES CCCCCCCCCCC(=O)[O-]
REMARK SMILES IDX 7 1 8 2 9 3 10 4 11 5 12 6 13 7 6 8 5 9 4 10 3 11 2 12 1 13
REMARK H PARENT
REMARK Flexibility Score: inf
ROOT
ATOM      1  C   UNL     1      52.210  26.462  33.642  1.00  0.00     0.000 C 
ENDROOT
BRANCH   1   2
ATOM      2  C   UNL     1      50.847  25.952  33.150  1.00  0.00     0.000 C 
BRANCH   2   3
ATOM      3  C   UNL     1      49.664  26.633  33.861  1.00  0.00     0.006 C 
BRANCH   3   4
ATOM      4  C   UNL     1      48.666  25.657  34.507  1.00  0.00     0.053 C 
BRANCH   4   5
ATOM      5  C   UNL     1      49.360  24.549  35.236  1.00  0.00     0.041 C 
ATOM      6  O   UNL     1      49.943  24.776  36.329  1.00  0.00    -0.550 OA
ATOM      7  O   UNL     1      49.334  23.257  34.725  1.00  0.00    -0.550 OA
ENDBRANCH   4   5
ENDBRANCH   3   4
ENDBRANCH   2   3
ENDBRANCH   1   2
BRANCH   1   8
ATOM      8  C   UNL     1      52.069  27.202  34.977  1.00  0.00     0.000 C 
BRANCH   8   9
ATOM      9  C   UNL     1      53.094  28.342  35.086  1.00  0.00    -0.000 C 
BRANCH   9  10
ATOM     10  C   UNL     1      54.077  28.380  33.902  1.00  0.00    -0.000 C 
BRANCH  10  11
ATOM     11  C   UNL     1      55.545  28.092  34.266  1.00  0.00    -0.000 C 
BRANCH  11  12
ATOM     12  C   UNL     1      56.146  26.935  33.456  1.00  0.00    -0.003 C 
ATOM     13  C   UNL     1      55.781  25.586  34.069  1.00  0.00     0.004 C 
ENDBRANCH  11  12
ENDBRANCH  10  11
ENDBRANCH   9  10
ENDBRANCH   8   9
ENDBRANCH   1   8
TORSDOF 9
ENDMDL
