MODEL 1
REMARK VINA RESULT:    -5.214      0.000      0.000
REMARK INTER + INTRA:          -8.004
REMARK INTER:                  -6.433
REMARK INTRA:                  -1.571
REMARK UNBOUND:                -1.571
REMARK SMILES CC(C)=CCC[C@H](C)c1ccc(C)cc1
REMARK SMILES IDX 6 1 7 2 8 3 9 4 13 5 12 6 11 7 14 8 10 9 15 10 5 11 4 12
REMARK SMILES IDX 2 13 1 14 3 15
REMARK H PARENT
REMARK Flexibility Score: inf
ROOT
ATOM      1  C   UNL     1      15.996 -18.266  15.503  1.00  0.00     0.012 C 
ENDROOT
BRANCH   1   2
ATOM      2  C   UNL     1      15.140 -17.235  16.273  1.00  0.00     0.016 C 
ATOM      3  C   UNL     1      15.796 -15.846  16.329  1.00  0.00     0.013 C 
BRANCH   2   4
ATOM      4  C   UNL     1      14.707 -17.768  17.632  1.00  0.00    -0.045 A 
ATOM      5  C   UNL     1      13.597 -19.501  21.434  1.00  0.00     0.044 C 
ATOM      6  C   UNL     1      13.956 -18.884  20.115  1.00  0.00    -0.051 A 
ATOM      7  C   UNL     1      14.699 -17.696  20.069  1.00  0.00     0.004 A 
ATOM      8  C   UNL     1      13.617 -19.529  18.918  1.00  0.00     0.004 A 
ATOM      9  C   UNL     1      15.070 -17.141  18.841  1.00  0.00     0.004 A 
ATOM     10  C   UNL     1      13.987 -18.976  17.690  1.00  0.00     0.004 A 
ENDBRANCH   2   4
ENDBRANCH   1   2
BRANCH   1  11
ATOM     11  C   UNL     1      17.303 -18.660  16.215  1.00  0.00     0.028 C 
BRANCH  11  12
ATOM     12  C   UNL     1      17.243 -20.091  16.685  1.00  0.00    -0.028 C 
ATOM     13  C   UNL     1      17.443 -20.479  17.964  1.00  0.00    -0.080 C 
ATOM     14  C   UNL     1      17.319 -21.942  18.301  1.00  0.00     0.039 C 
ATOM     15  C   UNL     1      17.802 -19.491  19.053  1.00  0.00     0.039 C 
ENDBRANCH  11  12
ENDBRANCH   1  11
TORSDOF 4
ENDMDL
MODEL 2
REMARK VINA RESULT:    -5.096      1.434      4.886
REMARK INTER + INTRA:          -7.859
REMARK INTER:                  -6.345
REMARK INTRA:                  -1.514
REMARK UNBOUND:                -1.571
REMARK SMILES CC(C)=CCC[C@H](C)c1ccc(C)cc1
REMARK SMILES IDX 6 1 7 2 8 3 9 4 13 5 12 6 11 7 14 8 10 9 15 10 5 11 4 12
REMARK SMILES IDX 2 13 1 14 3 15
REMARK H PARENT
REMARK Flexibility Score: inf
ROOT
ATOM      1  C   UNL     1      13.528 -19.599  18.335  1.00  0.00     0.012 C 
ENDROOT
BRANCH   1   2
ATOM      2  C   UNL     1      14.268 -20.662  17.491  1.00  0.00     0.016 C 
ATOM      3  C   UNL     1      14.430 -21.999  18.233  1.00  0.00     0.013 C 
BRANCH   2   4
ATOM      4  C   UNL     1      15.567 -20.115  16.914  1.00  0.00    -0.045 A 
ATOM      5  C   UNL     1      19.187 -18.333  15.364  1.00  0.00     0.044 C 
ATOM      6  C   UNL     1      17.931 -18.971  15.878  1.00  0.00    -0.051 A 
ATOM      7  C   UNL     1      18.000 -20.026  16.798  1.00  0.00     0.004 A 
ATOM      8  C   UNL     1      16.678 -18.469  15.502  1.00  0.00     0.004 A 
ATOM      9  C   UNL     1      16.832 -20.595  17.310  1.00  0.00     0.004 A 
ATOM     10  C   UNL     1      15.508 -19.036  16.014  1.00  0.00     0.004 A 
ENDBRANCH   2   4
ENDBRANCH   1   2
BRANCH   1  11
ATOM     11  C   UNL     1      14.372 -18.993  19.470  1.00  0.00     0.028 C 
BRANCH  11  12
ATOM     12  C   UNL     1      14.643 -17.533  19.211  1.00  0.00    -0.028 C 
ATOM     13  C   UNL     1      15.867 -16.964  19.281  1.00  0.00    -0.080 C 
ATOM     14  C   UNL     1      15.998 -15.498  18.963  1.00  0.00     0.039 C 
ATOM     15  C   UNL     1      17.094 -17.752  19.684  1.00  0.00     0.039 C 
ENDBRANCH  11  12
ENDBRANCH   1  11
TORSDOF 4
ENDMDL
MODEL 3
REMARK VINA RESULT:    -5.078      1.726      4.190
REMARK INTER + INTRA:          -7.836
REMARK INTER:                  -6.253
REMARK INTRA:                  -1.583
REMARK UNBOUND:                -1.571
REMARK SMILES CC(C)=CCC[C@H](C)c1ccc(C)cc1
REMARK SMILES IDX 6 1 7 2 8 3 9 4 13 5 12 6 11 7 14 8 10 9 15 10 5 11 4 12
REMARK SMILES IDX 2 13 1 14 3 15
REMARK H PARENT
REMARK Flexibility Score: inf
ROOT
ATOM      1  C   UNL     1      15.468 -22.665  19.262  1.00  0.00     0.012 C 
ENDROOT
BRANCH   1   2
ATOM      2  C   UNL     1      14.388 -22.407  18.187  1.00  0.00     0.016 C 
ATOM      3  C   UNL     1      14.454 -23.416  17.029  1.00  0.00     0.013 C 
BRANCH   2   4
ATOM      4  C   UNL     1      14.381 -20.952  17.738  1.00  0.00    -0.045 A 
ATOM      5  C   UNL     1      14.557 -16.780  16.620  1.00  0.00     0.044 C 
ATOM      6  C   UNL     1      14.465 -18.226  17.004  1.00  0.00    -0.051 A 
ATOM      7  C   UNL     1      14.596 -19.226  16.030  1.00  0.00     0.004 A 
ATOM      8  C   UNL     1      14.324 -18.593  18.349  1.00  0.00     0.004 A 
ATOM      9  C   UNL     1      14.553 -20.575  16.391  1.00  0.00     0.004 A 
ATOM     10  C   UNL     1      14.281 -19.942  18.712  1.00  0.00     0.004 A 
ENDBRANCH   2   4
ENDBRANCH   1   2
BRANCH   1  11
ATOM     11  C   UNL     1      16.914 -22.542  18.749  1.00  0.00     0.028 C 
BRANCH  11  12
ATOM     12  C   UNL     1      17.567 -21.296  19.292  1.00  0.00    -0.028 C 
ATOM     13  C   UNL     1      18.050 -20.296  18.522  1.00  0.00    -0.080 C 
ATOM     14  C   UNL     1      18.648 -19.091  19.199  1.00  0.00     0.039 C 
ATOM     15  C   UNL     1      18.021 -20.364  17.011  1.00  0.00     0.039 C 
ENDBRANCH  11  12
ENDBRANCH   1  11
TORSDOF 4
ENDMDL
MODEL 4
REMARK VINA RESULT:    -5.069      1.655      2.707
REMARK INTER + INTRA:          -7.825
REMARK INTER:                  -6.344
REMARK INTRA:                  -1.481
REMARK UNBOUND:                -1.571
REMARK SMILES CC(C)=CCC[C@H](C)c1ccc(C)cc1
REMARK SMILES IDX 6 1 7 2 8 3 9 4 13 5 12 6 11 7 14 8 10 9 15 10 5 11 4 12
REMARK SMILES IDX 2 13 1 14 3 15
REMARK H PARENT
REMARK Flexibility Score: inf
ROOT
ATOM      1  C   UNL     1      15.764 -16.762  16.273  1.00  0.00     0.012 C 
ENDROOT
BRANCH   1   2
ATOM      2  C   UNL     1      14.877 -17.115  17.489  1.00  0.00     0.016 C 
ATOM      3  C   UNL     1      15.374 -16.466  18.791  1.00  0.00     0.013 C 
BRANCH   2   4
ATOM      4  C   UNL     1      14.647 -18.617  17.597  1.00  0.00    -0.045 A 
ATOM      5  C   UNL     1      14.223 -22.914  17.801  1.00  0.00     0.044 C 
ATOM      6  C   UNL     1      14.340 -21.422  17.726  1.00  0.00    -0.051 A 
ATOM      7  C   UNL     1      14.245 -20.645  18.889  1.00  0.00     0.004 A 
ATOM      8  C   UNL     1      14.620 -20.796  16.504  1.00  0.00     0.004 A 
ATOM      9  C   UNL     1      14.394 -19.257  18.827  1.00  0.00     0.004 A 
ATOM     10  C   UNL     1      14.770 -19.408  16.440  1.00  0.00     0.004 A 
ENDBRANCH   2   4
ENDBRANCH   1   2
BRANCH   1  11
ATOM     11  C   UNL     1      17.263 -16.635  16.598  1.00  0.00     0.028 C 
BRANCH  11  12
ATOM     12  C   UNL     1      18.057 -17.691  15.872  1.00  0.00    -0.028 C 
ATOM     13  C   UNL     1      18.466 -18.851  16.432  1.00  0.00    -0.080 C 
ATOM     14  C   UNL     1      19.224 -19.833  15.578  1.00  0.00     0.039 C 
ATOM     15  C   UNL     1      18.200 -19.176  17.885  1.00  0.00     0.039 C 
ENDBRANCH  11  12
ENDBRANCH   1  11
TORSDOF 4
ENDMDL
MODEL 5
REMARK VINA RESULT:    -5.062      1.370      3.972
REMARK INTER + INTRA:          -7.817
REMARK INTER:                  -6.225
REMARK INTRA:                  -1.592
REMARK UNBOUND:                -1.571
REMARK SMILES CC(C)=CCC[C@H](C)c1ccc(C)cc1
REMARK SMILES IDX 6 1 7 2 8 3 9 4 13 5 12 6 11 7 14 8 10 9 15 10 5 11 4 12
REMARK SMILES IDX 2 13 1 14 3 15
REMARK H PARENT
REMARK Flexibility Score: inf
ROOT
ATOM      1  C   UNL     1      15.724 -17.630  16.311  1.00  0.00     0.012 C 
ENDROOT
BRANCH   1   2
ATOM      2  C   UNL     1      15.071 -18.946  15.832  1.00  0.00     0.016 C 
ATOM      3  C   UNL     1      13.536 -18.862  15.787  1.00  0.00     0.013 C 
BRANCH   2   4
ATOM      4  C   UNL     1      15.601 -20.148  16.603  1.00  0.00    -0.045 A 
ATOM      5  C   UNL     1      17.172 -23.400  18.978  1.00  0.00     0.044 C 
ATOM      6  C   UNL     1      16.636 -22.287  18.129  1.00  0.00    -0.051 A 
ATOM      7  C   UNL     1      15.296 -22.294  17.718  1.00  0.00     0.004 A 
ATOM      8  C   UNL     1      17.448 -21.192  17.802  1.00  0.00     0.004 A 
ATOM      9  C   UNL     1      14.782 -21.238  16.961  1.00  0.00     0.004 A 
ATOM     10  C   UNL     1      16.936 -20.135  17.046  1.00  0.00     0.004 A 
ENDBRANCH   2   4
ENDBRANCH   1   2
BRANCH   1  11
ATOM     11  C   UNL     1      14.980 -16.938  17.468  1.00  0.00     0.028 C 
BRANCH  11  12
ATOM     12  C   UNL     1      15.659 -17.223  18.783  1.00  0.00    -0.028 C 
ATOM     13  C   UNL     1      15.187 -18.087  19.709  1.00  0.00    -0.080 C 
ATOM     14  C   UNL     1      15.987 -18.301  20.967  1.00  0.00     0.039 C 
ATOM     15  C   UNL     1      13.879 -18.823  19.523  1.00  0.00     0.039 C 
ENDBRANCH  11  12
ENDBRANCH   1  11
TORSDOF 4
ENDMDL
MODEL 6
REMARK VINA RESULT:    -5.060      1.799      4.164
REMARK INTER + INTRA:          -7.814
REMARK INTER:                  -6.589
REMARK INTRA:                  -1.225
REMARK UNBOUND:                -1.571
REMARK SMILES CC(C)=CCC[C@H](C)c1ccc(C)cc1
REMARK SMILES IDX 6 1 7 2 8 3 9 4 13 5 12 6 11 7 14 8 10 9 15 10 5 11 4 12
REMARK SMILES IDX 2 13 1 14 3 15
REMARK H PARENT
REMARK Flexibility Score: inf
ROOT
ATOM      1  C   UNL     1      14.093 -19.380  16.288  1.00  0.00     0.012 C 
ENDROOT
BRANCH   1   2
ATOM      2  C   UNL     1      14.018 -19.996  17.704  1.00  0.00     0.016 C 
ATOM      3  C   UNL     1      14.260 -18.960  18.813  1.00  0.00     0.013 C 
BRANCH   2   4
ATOM      4  C   UNL     1      14.890 -21.240  17.820  1.00  0.00    -0.045 A 
ATOM      5  C   UNL     1      17.310 -24.821  17.907  1.00  0.00     0.044 C 
ATOM      6  C   UNL     1      16.463 -23.583  17.906  1.00  0.00    -0.051 A 
ATOM      7  C   UNL     1      17.030 -22.339  18.212  1.00  0.00     0.004 A 
ATOM      8  C   UNL     1      15.116 -23.649  17.527  1.00  0.00     0.004 A 
ATOM      9  C   UNL     1      16.253 -21.178  18.172  1.00  0.00     0.004 A 
ATOM     10  C   UNL     1      14.337 -22.490  17.486  1.00  0.00     0.004 A 
ENDBRANCH   2   4
ENDBRANCH   1   2
BRANCH   1  11
ATOM     11  C   UNL     1      15.065 -18.191  16.166  1.00  0.00     0.028 C 
BRANCH  11  12
ATOM     12  C   UNL     1      16.328 -18.607  15.457  1.00  0.00    -0.028 C 
ATOM     13  C   UNL     1      17.565 -18.513  15.993  1.00  0.00    -0.080 C 
ATOM     14  C   UNL     1      18.739 -18.998  15.183  1.00  0.00     0.039 C 
ATOM     15  C   UNL     1      17.799 -17.921  17.365  1.00  0.00     0.039 C 
ENDBRANCH  11  12
ENDBRANCH   1  11
TORSDOF 4
ENDMDL
MODEL 7
REMARK VINA RESULT:    -5.053      1.480      3.304
REMARK INTER + INTRA:          -7.806
REMARK INTER:                  -6.289
REMARK INTRA:                  -1.517
REMARK UNBOUND:                -1.571
REMARK SMILES CC(C)=CCC[C@H](C)c1ccc(C)cc1
REMARK SMILES IDX 6 1 7 2 8 3 9 4 13 5 12 6 11 7 14 8 10 9 15 10 5 11 4 12
REMARK SMILES IDX 2 13 1 14 3 15
REMARK H PARENT
REMARK Flexibility Score: inf
ROOT
ATOM      1  C   UNL     1      14.461 -20.311  17.823  1.00  0.00     0.012 C 
ENDROOT
BRANCH   1   2
ATOM      2  C   UNL     1      13.892 -19.080  17.081  1.00  0.00     0.016 C 
ATOM      3  C   UNL     1      13.833 -19.282  15.558  1.00  0.00     0.013 C 
BRANCH   2   4
ATOM      4  C   UNL     1      14.594 -17.796  17.507  1.00  0.00    -0.045 A 
ATOM      5  C   UNL     1      16.377 -14.026  18.641  1.00  0.00     0.044 C 
ATOM      6  C   UNL     1      15.787 -15.344  18.240  1.00  0.00    -0.051 A 
ATOM      7  C   UNL     1      15.632 -16.366  19.186  1.00  0.00     0.004 A 
ATOM      8  C   UNL     1      15.314 -15.539  16.935  1.00  0.00     0.004 A 
ATOM      9  C   UNL     1      15.044 -17.582  18.825  1.00  0.00     0.004 A 
ATOM     10  C   UNL     1      14.726 -16.753  16.572  1.00  0.00     0.004 A 
ENDBRANCH   2   4
ENDBRANCH   1   2
BRANCH   1  11
ATOM     11  C   UNL     1      15.644 -20.990  17.109  1.00  0.00     0.028 C 
BRANCH  11  12
ATOM     12  C   UNL     1      16.950 -20.592  17.748  1.00  0.00    -0.028 C 
ATOM     13  C   UNL     1      17.819 -19.707  17.211  1.00  0.00    -0.080 C 
ATOM     14  C   UNL     1      19.074 -19.377  17.976  1.00  0.00     0.039 C 
ATOM     15  C   UNL     1      17.574 -19.061  15.866  1.00  0.00     0.039 C 
ENDBRANCH  11  12
ENDBRANCH   1  11
TORSDOF 4
ENDMDL
MODEL 8
REMARK VINA RESULT:    -5.031      1.639      3.861
REMARK INTER + INTRA:          -7.779
REMARK INTER:                  -6.505
REMARK INTRA:                  -1.273
REMARK UNBOUND:                -1.571
REMARK SMILES CC(C)=CCC[C@H](C)c1ccc(C)cc1
REMARK SMILES IDX 6 1 7 2 8 3 9 4 13 5 12 6 11 7 14 8 10 9 15 10 5 11 4 12
REMARK SMILES IDX 2 13 1 14 3 15
REMARK H PARENT
REMARK Flexibility Score: inf
ROOT
ATOM      1  C   UNL     1      14.425 -18.953  15.864  1.00  0.00     0.012 C 
ENDROOT
BRANCH   1   2
ATOM      2  C   UNL     1      15.797 -18.241  15.887  1.00  0.00     0.016 C 
ATOM      3  C   UNL     1      16.953 -19.197  16.221  1.00  0.00     0.013 C 
BRANCH   2   4
ATOM      4  C   UNL     1      15.763 -16.987  16.752  1.00  0.00    -0.045 A 
ATOM      5  C   UNL     1      15.919 -13.448  19.229  1.00  0.00     0.044 C 
ATOM      6  C   UNL     1      15.837 -14.682  18.382  1.00  0.00    -0.051 A 
ATOM      7  C   UNL     1      15.296 -14.619  17.090  1.00  0.00     0.004 A 
ATOM      8  C   UNL     1      16.369 -15.893  18.844  1.00  0.00     0.004 A 
ATOM      9  C   UNL     1      15.257 -15.758  16.282  1.00  0.00     0.004 A 
ATOM     10  C   UNL     1      16.331 -17.034  18.038  1.00  0.00     0.004 A 
ENDBRANCH   2   4
ENDBRANCH   1   2
BRANCH   1  11
ATOM     11  C   UNL     1      14.275 -20.072  16.910  1.00  0.00     0.028 C 
BRANCH  11  12
ATOM     12  C   UNL     1      13.627 -19.545  18.165  1.00  0.00    -0.028 C 
ATOM     13  C   UNL     1      14.191 -19.601  19.392  1.00  0.00    -0.080 C 
ATOM     14  C   UNL     1      13.445 -19.003  20.555  1.00  0.00     0.039 C 
ATOM     15  C   UNL     1      15.534 -20.258  19.625  1.00  0.00     0.039 C 
ENDBRANCH  11  12
ENDBRANCH   1  11
TORSDOF 4
ENDMDL
MODEL 9
REMARK VINA RESULT:    -4.922      2.212      3.844
REMARK INTER + INTRA:          -7.644
REMARK INTER:                  -7.062
REMARK INTRA:                  -0.582
REMARK UNBOUND:                -1.571
REMARK SMILES CC(C)=CCC[C@H](C)c1ccc(C)cc1
REMARK SMILES IDX 6 1 7 2 8 3 9 4 13 5 12 6 11 7 14 8 10 9 15 10 5 11 4 12
REMARK SMILES IDX 2 13 1 14 3 15
REMARK H PARENT
REMARK Flexibility Score: inf
ROOT
ATOM      1  C   UNL     1      14.053 -18.714  16.345  1.00  0.00     0.012 C 
ENDROOT
BRANCH   1   2
ATOM      2  C   UNL     1      15.215 -17.821  15.853  1.00  0.00     0.016 C 
ATOM      3  C   UNL     1      16.492 -18.624  15.555  1.00  0.00     0.013 C 
BRANCH   2   4
ATOM      4  C   UNL     1      15.435 -16.629  16.775  1.00  0.00    -0.045 A 
ATOM      5  C   UNL     1      15.841 -13.151  19.309  1.00  0.00     0.044 C 
ATOM      6  C   UNL     1      15.731 -14.358  18.427  1.00  0.00    -0.051 A 
ATOM      7  C   UNL     1      15.723 -15.644  18.986  1.00  0.00     0.004 A 
ATOM      8  C   UNL     1      15.559 -14.210  17.044  1.00  0.00     0.004 A 
ATOM      9  C   UNL     1      15.579 -16.769  18.170  1.00  0.00     0.004 A 
ATOM     10  C   UNL     1      15.414 -15.334  16.227  1.00  0.00     0.004 A 
ENDBRANCH   2   4
ENDBRANCH   1   2
BRANCH   1  11
ATOM     11  C   UNL     1      14.362 -20.222  16.327  1.00  0.00     0.028 C 
BRANCH  11  12
ATOM     12  C   UNL     1      14.443 -20.767  17.731  1.00  0.00    -0.028 C 
ATOM     13  C   UNL     1      14.553 -22.080  18.030  1.00  0.00    -0.080 C 
ATOM     14  C   UNL     1      14.659 -22.481  19.478  1.00  0.00     0.039 C 
ATOM     15  C   UNL     1      14.556 -23.147  16.959  1.00  0.00     0.039 C 
ENDBRANCH  11  12
ENDBRANCH   1  11
TORSDOF 4
ENDMDL
