MODEL 1
REMARK VINA RESULT:    -6.299      0.000      0.000
REMARK INTER + INTRA:         -11.577
REMARK INTER:                  -9.614
REMARK INTRA:                  -1.963
REMARK UNBOUND:                -1.963
REMARK SMILES OC[C@@H]1O[C@H](O[C@@]2(CO)O[C@@H](CO)[C@H](O)[C@@H]2O)[C@H](O)[C@H](O)[C@@H]1O
REMARK SMILES IDX 6 1 5 2 3 3 22 4 4 5 20 6 18 7 2 8 1 9 23 11 21 13 19 15
REMARK SMILES IDX 7 17 16 18 10 19 14 20 11 21 8 22 9 23 17 25 15 27 12 29
REMARK SMILES IDX 13 30
REMARK H PARENT 1 10 23 12 21 14 19 16 9 24 17 26 15 28 13 31
REMARK Flexibility Score: inf
ROOT
ATOM      1  O   UNL     1     -26.767  13.557  53.962  1.00  0.00    -0.313 OA
ENDROOT
BRANCH   1   2
ATOM      2  C   UNL     1     -25.807  13.099  53.023  1.00  0.00     0.285 C 
ATOM      3  C   UNL     1     -24.632  11.330  54.166  1.00  0.00     0.178 C 
ATOM      4  C   UNL     1     -26.062  10.702  54.388  1.00  0.00     0.177 C 
ATOM      5  O   UNL     1     -24.652  12.706  53.766  1.00  0.00    -0.341 OA
ATOM      6  C   UNL     1     -26.941  10.839  53.109  1.00  0.00     0.179 C 
ATOM      7  C   UNL     1     -26.359  11.923  52.171  1.00  0.00     0.202 C 
BRANCH   3   8
ATOM      8  C   UNL     1     -23.743  11.155  55.421  1.00  0.00     0.191 C 
BRANCH   8   9
ATOM      9  O   UNL     1     -24.106  10.066  56.234  1.00  0.00    -0.394 OA
ATOM     10  H   UNL     1     -23.497   9.302  56.061  1.00  0.00     0.210 HD
ENDBRANCH   8   9
ENDBRANCH   3   8
BRANCH   4  11
ATOM     11  O   UNL     1     -26.749  11.238  55.507  1.00  0.00    -0.387 OA
ATOM     12  H   UNL     1     -26.364  10.880  56.347  1.00  0.00     0.211 HD
ENDBRANCH   4  11
BRANCH   6  13
ATOM     13  O   UNL     1     -28.262  11.160  53.463  1.00  0.00    -0.387 OA
ATOM     14  H   UNL     1     -28.642  11.700  52.723  1.00  0.00     0.211 HD
ENDBRANCH   6  13
BRANCH   7  15
ATOM     15  O   UNL     1     -27.263  12.326  51.162  1.00  0.00    -0.385 OA
ATOM     16  H   UNL     1     -27.166  11.707  50.398  1.00  0.00     0.211 HD
ENDBRANCH   7  15
ENDBRANCH   1   2
BRANCH   1  17
ATOM     17  C   UNL     1     -27.414  14.827  53.855  1.00  0.00     0.224 C 
ATOM     18  C   UNL     1     -27.128  15.711  52.609  1.00  0.00     0.208 C 
ATOM     19  O   UNL     1     -26.997  15.627  54.944  1.00  0.00    -0.337 OA
ATOM     20  C   UNL     1     -27.448  17.125  53.100  1.00  0.00     0.180 C 
ATOM     21  C   UNL     1     -27.340  16.972  54.631  1.00  0.00     0.179 C 
BRANCH  17  22
ATOM     22  C   UNL     1     -28.924  14.516  54.052  1.00  0.00     0.225 C 
BRANCH  22  23
ATOM     23  O   UNL     1     -29.357  13.679  53.006  1.00  0.00    -0.391 OA
ATOM     24  H   UNL     1     -29.011  12.769  53.173  1.00  0.00     0.210 HD
ENDBRANCH  22  23
ENDBRANCH  17  22
BRANCH  18  25
ATOM     25  O   UNL     1     -27.856  15.324  51.468  1.00  0.00    -0.385 OA
ATOM     26  H   UNL     1     -28.139  14.385  51.605  1.00  0.00     0.211 HD
ENDBRANCH  18  25
BRANCH  20  27
ATOM     27  O   UNL     1     -28.712  17.634  52.732  1.00  0.00    -0.387 OA
ATOM     28  H   UNL     1     -29.222  17.923  53.527  1.00  0.00     0.211 HD
ENDBRANCH  20  27
BRANCH  21  29
ATOM     29  C   UNL     1     -26.321  17.934  55.254  1.00  0.00     0.191 C 
BRANCH  29  30
ATOM     30  O   UNL     1     -26.131  19.079  54.461  1.00  0.00    -0.394 OA
ATOM     31  H   UNL     1     -26.904  19.685  54.633  1.00  0.00     0.210 HD
ENDBRANCH  29  30
ENDBRANCH  21  29
ENDBRANCH   1  17
TORSDOF 13
ENDMDL
MODEL 2
REMARK VINA RESULT:    -5.893      1.179      1.249
REMARK INTER + INTRA:         -10.957
REMARK INTER:                  -9.239
REMARK INTRA:                  -1.718
REMARK UNBOUND:                -1.963
REMARK SMILES OC[C@@H]1O[C@H](O[C@@]2(CO)O[C@@H](CO)[C@H](O)[C@@H]2O)[C@H](O)[C@H](O)[C@@H]1O
REMARK SMILES IDX 6 1 5 2 3 3 22 4 4 5 20 6 18 7 2 8 1 9 23 11 21 13 19 15
REMARK SMILES IDX 7 17 16 18 10 19 14 20 11 21 8 22 9 23 17 25 15 27 12 29
REMARK SMILES IDX 13 30
REMARK H PARENT 1 10 23 12 21 14 19 16 9 24 17 26 15 28 13 31
REMARK Flexibility Score: inf
ROOT
ATOM      1  O   UNL     1     -27.196  13.381  54.936  1.00  0.00    -0.313 OA
ENDROOT
BRANCH   1   2
ATOM      2  C   UNL     1     -26.225  12.597  54.261  1.00  0.00     0.285 C 
ATOM      3  C   UNL     1     -25.484  10.994  55.903  1.00  0.00     0.178 C 
ATOM      4  C   UNL     1     -27.013  10.630  56.046  1.00  0.00     0.177 C 
ATOM      5  O   UNL     1     -25.237  12.233  55.226  1.00  0.00    -0.341 OA
ATOM      6  C   UNL     1     -27.713  10.588  54.654  1.00  0.00     0.179 C 
ATOM      7  C   UNL     1     -26.864  11.342  53.603  1.00  0.00     0.202 C 
BRANCH   3   8
ATOM      8  C   UNL     1     -24.778  10.994  57.281  1.00  0.00     0.191 C 
BRANCH   8   9
ATOM      9  O   UNL     1     -23.959   9.872  57.505  1.00  0.00    -0.394 OA
ATOM     10  H   UNL     1     -23.408   9.694  56.698  1.00  0.00     0.210 HD
ENDBRANCH   8   9
ENDBRANCH   3   8
BRANCH   4  11
ATOM     11  O   UNL     1     -27.722  11.494  56.918  1.00  0.00    -0.387 OA
ATOM     12  H   UNL     1     -27.837  12.384  56.497  1.00  0.00     0.211 HD
ENDBRANCH   4  11
BRANCH   6  13
ATOM     13  O   UNL     1     -28.995  11.155  54.742  1.00  0.00    -0.387 OA
ATOM     14  H   UNL     1     -29.280  11.095  55.690  1.00  0.00     0.211 HD
ENDBRANCH   6  13
BRANCH   7  15
ATOM     15  O   UNL     1     -27.575  11.621  52.415  1.00  0.00    -0.385 OA
ATOM     16  H   UNL     1     -27.687  12.601  52.346  1.00  0.00     0.211 HD
ENDBRANCH   7  15
ENDBRANCH   1   2
BRANCH   1  17
ATOM     17  C   UNL     1     -27.621  14.663  54.469  1.00  0.00     0.224 C 
ATOM     18  C   UNL     1     -27.051  15.198  53.127  1.00  0.00     0.208 C 
ATOM     19  O   UNL     1     -27.225  15.632  55.420  1.00  0.00    -0.337 OA
ATOM     20  C   UNL     1     -27.207  16.715  53.258  1.00  0.00     0.180 C 
ATOM     21  C   UNL     1     -27.314  16.903  54.785  1.00  0.00     0.179 C 
BRANCH  17  22
ATOM     22  C   UNL     1     -29.174  14.593  54.491  1.00  0.00     0.225 C 
BRANCH  22  23
ATOM     23  O   UNL     1     -29.598  13.603  53.585  1.00  0.00    -0.391 OA
ATOM     24  H   UNL     1     -30.420  13.187  53.940  1.00  0.00     0.210 HD
ENDBRANCH  22  23
ENDBRANCH  17  22
BRANCH  18  25
ATOM     25  O   UNL     1     -27.682  14.655  51.993  1.00  0.00    -0.385 OA
ATOM     26  H   UNL     1     -27.075  13.970  51.618  1.00  0.00     0.211 HD
ENDBRANCH  18  25
BRANCH  20  27
ATOM     27  O   UNL     1     -28.323  17.280  52.602  1.00  0.00    -0.387 OA
ATOM     28  H   UNL     1     -28.337  17.027  51.648  1.00  0.00     0.211 HD
ENDBRANCH  20  27
BRANCH  21  29
ATOM     29  C   UNL     1     -26.245  17.847  55.346  1.00  0.00     0.191 C 
BRANCH  29  30
ATOM     30  O   UNL     1     -26.132  19.021  54.580  1.00  0.00    -0.394 OA
ATOM     31  H   UNL     1     -26.984  19.120  54.071  1.00  0.00     0.210 HD
ENDBRANCH  29  30
ENDBRANCH  21  29
ENDBRANCH   1  17
TORSDOF 13
ENDMDL
MODEL 3
REMARK VINA RESULT:    -5.876      1.724      6.013
REMARK INTER + INTRA:         -10.932
REMARK INTER:                  -9.244
REMARK INTRA:                  -1.687
REMARK UNBOUND:                -1.963
REMARK SMILES OC[C@@H]1O[C@H](O[C@@]2(CO)O[C@@H](CO)[C@H](O)[C@@H]2O)[C@H](O)[C@H](O)[C@@H]1O
REMARK SMILES IDX 6 1 5 2 3 3 22 4 4 5 20 6 18 7 2 8 1 9 23 11 21 13 19 15
REMARK SMILES IDX 7 17 16 18 10 19 14 20 11 21 8 22 9 23 17 25 15 27 12 29
REMARK SMILES IDX 13 30
REMARK H PARENT 1 10 23 12 21 14 19 16 9 24 17 26 15 28 13 31
REMARK Flexibility Score: inf
ROOT
ATOM      1  O   UNL     1     -27.032  12.835  54.706  1.00  0.00    -0.313 OA
ENDROOT
BRANCH   1   2
ATOM      2  C   UNL     1     -27.407  13.948  55.503  1.00  0.00     0.285 C 
ATOM      3  C   UNL     1     -28.096  15.630  53.919  1.00  0.00     0.178 C 
ATOM      4  C   UNL     1     -29.082  14.525  53.373  1.00  0.00     0.177 C 
ATOM      5  O   UNL     1     -27.060  15.123  54.769  1.00  0.00    -0.341 OA
ATOM      6  C   UNL     1     -29.738  13.730  54.542  1.00  0.00     0.179 C 
ATOM      7  C   UNL     1     -28.923  13.920  55.844  1.00  0.00     0.202 C 
BRANCH   3   8
ATOM      8  C   UNL     1     -27.477  16.450  52.760  1.00  0.00     0.191 C 
BRANCH   8   9
ATOM      9  O   UNL     1     -27.874  17.799  52.738  1.00  0.00    -0.394 OA
ATOM     10  H   UNL     1     -27.146  18.368  53.101  1.00  0.00     0.210 HD
ENDBRANCH   8   9
ENDBRANCH   3   8
BRANCH   4  11
ATOM     11  O   UNL     1     -28.476  13.628  52.458  1.00  0.00    -0.387 OA
ATOM     12  H   UNL     1     -27.489  13.681  52.531  1.00  0.00     0.211 HD
ENDBRANCH   4  11
BRANCH   6  13
ATOM     13  O   UNL     1     -29.819  12.367  54.213  1.00  0.00    -0.387 OA
ATOM     14  H   UNL     1     -29.074  11.907  54.679  1.00  0.00     0.211 HD
ENDBRANCH   6  13
BRANCH   7  15
ATOM     15  O   UNL     1     -29.264  12.988  56.850  1.00  0.00    -0.385 OA
ATOM     16  H   UNL     1     -30.219  12.758  56.745  1.00  0.00     0.211 HD
ENDBRANCH   7  15
ENDBRANCH   1   2
BRANCH   1  17
ATOM     17  C   UNL     1     -26.252  11.748  55.208  1.00  0.00     0.224 C 
ATOM     18  C   UNL     1     -25.799  11.773  56.693  1.00  0.00     0.208 C 
ATOM     19  O   UNL     1     -25.040  11.704  54.481  1.00  0.00    -0.337 OA
ATOM     20  C   UNL     1     -24.564  10.869  56.700  1.00  0.00     0.180 C 
ATOM     21  C   UNL     1     -24.140  10.883  55.217  1.00  0.00     0.179 C 
BRANCH  17  22
ATOM     22  C   UNL     1     -27.068  10.477  54.836  1.00  0.00     0.225 C 
BRANCH  22  23
ATOM     23  O   UNL     1     -28.300  10.512  55.517  1.00  0.00    -0.391 OA
ATOM     24  H   UNL     1     -28.668  11.426  55.446  1.00  0.00     0.210 HD
ENDBRANCH  22  23
ENDBRANCH  17  22
BRANCH  18  25
ATOM     25  O   UNL     1     -26.804  11.373  57.593  1.00  0.00    -0.385 OA
ATOM     26  H   UNL     1     -26.651  11.861  58.441  1.00  0.00     0.211 HD
ENDBRANCH  18  25
BRANCH  20  27
ATOM     27  O   UNL     1     -24.770   9.548  57.153  1.00  0.00    -0.387 OA
ATOM     28  H   UNL     1     -25.071   9.538  58.093  1.00  0.00     0.211 HD
ENDBRANCH  20  27
BRANCH  21  29
ATOM     29  C   UNL     1     -22.700  11.368  55.015  1.00  0.00     0.191 C 
BRANCH  29  30
ATOM     30  O   UNL     1     -21.773  10.535  55.666  1.00  0.00    -0.394 OA
ATOM     31  H   UNL     1     -21.136  11.130  56.151  1.00  0.00     0.210 HD
ENDBRANCH  29  30
ENDBRANCH  21  29
ENDBRANCH   1  17
TORSDOF 13
ENDMDL
MODEL 4
REMARK VINA RESULT:    -5.698      3.596      6.371
REMARK INTER + INTRA:         -10.659
REMARK INTER:                  -9.030
REMARK INTRA:                  -1.628
REMARK UNBOUND:                -1.963
REMARK SMILES OC[C@@H]1O[C@H](O[C@@]2(CO)O[C@@H](CO)[C@H](O)[C@@H]2O)[C@H](O)[C@H](O)[C@@H]1O
REMARK SMILES IDX 6 1 5 2 3 3 22 4 4 5 20 6 18 7 2 8 1 9 23 11 21 13 19 15
REMARK SMILES IDX 7 17 16 18 10 19 14 20 11 21 8 22 9 23 17 25 15 27 12 29
REMARK SMILES IDX 13 30
REMARK H PARENT 1 10 23 12 21 14 19 16 9 24 17 26 15 28 13 31
REMARK Flexibility Score: inf
ROOT
ATOM      1  O   UNL     1     -29.636  11.924  54.213  1.00  0.00    -0.313 OA
ENDROOT
BRANCH   1   2
ATOM      2  C   UNL     1     -28.471  11.493  54.900  1.00  0.00     0.285 C 
ATOM      3  C   UNL     1     -26.666  11.892  53.351  1.00  0.00     0.178 C 
ATOM      4  C   UNL     1     -27.204  13.375  53.308  1.00  0.00     0.177 C 
ATOM      5  O   UNL     1     -27.585  10.951  53.920  1.00  0.00    -0.341 OA
ATOM      6  C   UNL     1     -27.609  13.867  54.730  1.00  0.00     0.179 C 
ATOM      7  C   UNL     1     -27.806  12.661  55.680  1.00  0.00     0.202 C 
BRANCH   3   8
ATOM      8  C   UNL     1     -26.222  11.417  51.946  1.00  0.00     0.191 C 
BRANCH   8   9
ATOM      9  O   UNL     1     -27.167  11.664  50.933  1.00  0.00    -0.394 OA
ATOM     10  H   UNL     1     -26.700  11.821  50.071  1.00  0.00     0.210 HD
ENDBRANCH   8   9
ENDBRANCH   3   8
BRANCH   4  11
ATOM     11  O   UNL     1     -28.283  13.560  52.407  1.00  0.00    -0.387 OA
ATOM     12  H   UNL     1     -28.504  14.524  52.334  1.00  0.00     0.211 HD
ENDBRANCH   4  11
BRANCH   6  13
ATOM     13  O   UNL     1     -28.787  14.628  54.660  1.00  0.00    -0.387 OA
ATOM     14  H   UNL     1     -29.387  14.310  55.384  1.00  0.00     0.211 HD
ENDBRANCH   6  13
BRANCH   7  15
ATOM     15  O   UNL     1     -28.476  13.002  56.876  1.00  0.00    -0.385 OA
ATOM     16  H   UNL     1     -29.235  12.380  56.991  1.00  0.00     0.211 HD
ENDBRANCH   7  15
ENDBRANCH   1   2
BRANCH   1  17
ATOM     17  C   UNL     1     -30.958  11.590  54.640  1.00  0.00     0.224 C 
ATOM     18  C   UNL     1     -31.205  11.286  56.143  1.00  0.00     0.208 C 
ATOM     19  O   UNL     1     -31.346  10.401  53.982  1.00  0.00    -0.337 OA
ATOM     20  C   UNL     1     -32.467  10.421  56.125  1.00  0.00     0.180 C 
ATOM     21  C   UNL     1     -32.477   9.888  54.677  1.00  0.00     0.179 C 
BRANCH  17  22
ATOM     22  C   UNL     1     -31.848  12.741  54.093  1.00  0.00     0.225 C 
BRANCH  22  23
ATOM     23  O   UNL     1     -31.094  13.509  53.186  1.00  0.00    -0.391 OA
ATOM     24  H   UNL     1     -31.265  13.169  52.274  1.00  0.00     0.210 HD
ENDBRANCH  22  23
ENDBRANCH  17  22
BRANCH  18  25
ATOM     25  O   UNL     1     -31.316  12.441  56.939  1.00  0.00    -0.385 OA
ATOM     26  H   UNL     1     -32.170  12.375  57.436  1.00  0.00     0.211 HD
ENDBRANCH  18  25
BRANCH  20  27
ATOM     27  O   UNL     1     -33.676  11.086  56.424  1.00  0.00    -0.387 OA
ATOM     28  H   UNL     1     -33.702  11.363  57.372  1.00  0.00     0.211 HD
ENDBRANCH  20  27
BRANCH  21  29
ATOM     29  C   UNL     1     -32.487   8.356  54.607  1.00  0.00     0.191 C 
BRANCH  29  30
ATOM     30  O   UNL     1     -33.484   7.881  53.738  1.00  0.00    -0.394 OA
ATOM     31  H   UNL     1     -34.220   7.519  54.306  1.00  0.00     0.210 HD
ENDBRANCH  29  30
ENDBRANCH  21  29
ENDBRANCH   1  17
TORSDOF 13
ENDMDL
MODEL 5
REMARK VINA RESULT:    -5.608      1.343      2.786
REMARK INTER + INTRA:         -10.522
REMARK INTER:                  -8.834
REMARK INTRA:                  -1.688
REMARK UNBOUND:                -1.963
REMARK SMILES OC[C@@H]1O[C@H](O[C@@]2(CO)O[C@@H](CO)[C@H](O)[C@@H]2O)[C@H](O)[C@H](O)[C@@H]1O
REMARK SMILES IDX 6 1 5 2 3 3 22 4 4 5 20 6 18 7 2 8 1 9 23 11 21 13 19 15
REMARK SMILES IDX 7 17 16 18 10 19 14 20 11 21 8 22 9 23 17 25 15 27 12 29
REMARK SMILES IDX 13 30
REMARK H PARENT 1 10 23 12 21 14 19 16 9 24 17 26 15 28 13 31
REMARK Flexibility Score: inf
ROOT
ATOM      1  O   UNL     1     -27.116  13.467  54.058  1.00  0.00    -0.313 OA
ENDROOT
BRANCH   1   2
ATOM      2  C   UNL     1     -26.961  12.870  55.336  1.00  0.00     0.285 C 
ATOM      3  C   UNL     1     -28.272  10.849  55.228  1.00  0.00     0.178 C 
ATOM      4  C   UNL     1     -27.408  10.511  53.952  1.00  0.00     0.177 C 
ATOM      5  O   UNL     1     -28.194  12.218  55.644  1.00  0.00    -0.341 OA
ATOM      6  C   UNL     1     -25.910  10.882  54.173  1.00  0.00     0.179 C 
ATOM      7  C   UNL     1     -25.772  11.870  55.356  1.00  0.00     0.202 C 
BRANCH   3   8
ATOM      8  C   UNL     1     -29.752  10.440  55.025  1.00  0.00     0.191 C 
BRANCH   8   9
ATOM      9  O   UNL     1     -30.374  11.067  53.931  1.00  0.00    -0.394 OA
ATOM     10  H   UNL     1     -29.706  11.231  53.215  1.00  0.00     0.210 HD
ENDBRANCH   8   9
ENDBRANCH   3   8
BRANCH   4  11
ATOM     11  O   UNL     1     -27.887  11.122  52.765  1.00  0.00    -0.387 OA
ATOM     12  H   UNL     1     -28.844  11.360  52.867  1.00  0.00     0.211 HD
ENDBRANCH   4  11
BRANCH   6  13
ATOM     13  O   UNL     1     -25.375  11.446  53.004  1.00  0.00    -0.387 OA
ATOM     14  H   UNL     1     -25.019  12.340  53.244  1.00  0.00     0.211 HD
ENDBRANCH   6  13
BRANCH   7  15
ATOM     15  O   UNL     1     -24.505  12.494  55.411  1.00  0.00    -0.385 OA
ATOM     16  H   UNL     1     -23.859  11.920  54.929  1.00  0.00     0.211 HD
ENDBRANCH   7  15
ENDBRANCH   1   2
BRANCH   1  17
ATOM     17  C   UNL     1     -27.628  14.789  53.876  1.00  0.00     0.224 C 
ATOM     18  C   UNL     1     -27.165  15.609  52.640  1.00  0.00     0.208 C 
ATOM     19  O   UNL     1     -27.222  15.575  54.980  1.00  0.00    -0.337 OA
ATOM     20  C   UNL     1     -27.385  17.059  53.077  1.00  0.00     0.180 C 
ATOM     21  C   UNL     1     -27.409  16.937  54.615  1.00  0.00     0.179 C 
BRANCH  17  22
ATOM     22  C   UNL     1     -29.172  14.626  53.959  1.00  0.00     0.225 C 
BRANCH  22  23
ATOM     23  O   UNL     1     -29.565  13.573  53.112  1.00  0.00    -0.391 OA
ATOM     24  H   UNL     1     -28.954  13.553  52.336  1.00  0.00     0.210 HD
ENDBRANCH  22  23
ENDBRANCH  17  22
BRANCH  18  25
ATOM     25  O   UNL     1     -27.836  15.262  51.453  1.00  0.00    -0.385 OA
ATOM     26  H   UNL     1     -27.377  14.471  51.076  1.00  0.00     0.211 HD
ENDBRANCH  18  25
BRANCH  20  27
ATOM     27  O   UNL     1     -28.562  17.675  52.602  1.00  0.00    -0.387 OA
ATOM     28  H   UNL     1     -28.472  17.926  51.651  1.00  0.00     0.211 HD
ENDBRANCH  20  27
BRANCH  21  29
ATOM     29  C   UNL     1     -26.354  17.815  55.299  1.00  0.00     0.191 C 
BRANCH  29  30
ATOM     30  O   UNL     1     -26.264  19.084  54.701  1.00  0.00    -0.394 OA
ATOM     31  H   UNL     1     -27.050  19.611  55.014  1.00  0.00     0.210 HD
ENDBRANCH  29  30
ENDBRANCH  21  29
ENDBRANCH   1  17
TORSDOF 13
ENDMDL
MODEL 6
REMARK VINA RESULT:    -5.590      3.996      6.568
REMARK INTER + INTRA:         -10.494
REMARK INTER:                  -8.753
REMARK INTRA:                  -1.741
REMARK UNBOUND:                -1.963
REMARK SMILES OC[C@@H]1O[C@H](O[C@@]2(CO)O[C@@H](CO)[C@H](O)[C@@H]2O)[C@H](O)[C@H](O)[C@@H]1O
REMARK SMILES IDX 6 1 5 2 3 3 22 4 4 5 20 6 18 7 2 8 1 9 23 11 21 13 19 15
REMARK SMILES IDX 7 17 16 18 10 19 14 20 11 21 8 22 9 23 17 25 15 27 12 29
REMARK SMILES IDX 13 30
REMARK H PARENT 1 10 23 12 21 14 19 16 9 24 17 26 15 28 13 31
REMARK Flexibility Score: inf
ROOT
ATOM      1  O   UNL     1     -29.618  11.619  55.833  1.00  0.00    -0.313 OA
ENDROOT
BRANCH   1   2
ATOM      2  C   UNL     1     -29.394  12.632  54.865  1.00  0.00     0.285 C 
ATOM      3  C   UNL     1     -28.155  14.336  56.039  1.00  0.00     0.178 C 
ATOM      4  C   UNL     1     -27.148  13.174  56.394  1.00  0.00     0.177 C 
ATOM      5  O   UNL     1     -29.426  13.882  55.555  1.00  0.00    -0.341 OA
ATOM      6  C   UNL     1     -26.912  12.240  55.169  1.00  0.00     0.179 C 
ATOM      7  C   UNL     1     -28.042  12.426  54.128  1.00  0.00     0.202 C 
BRANCH   3   8
ATOM      8  C   UNL     1     -28.357  15.289  57.243  1.00  0.00     0.191 C 
BRANCH   8   9
ATOM      9  O   UNL     1     -27.263  15.335  58.126  1.00  0.00    -0.394 OA
ATOM     10  H   UNL     1     -26.879  14.426  58.230  1.00  0.00     0.210 HD
ENDBRANCH   8   9
ENDBRANCH   3   8
BRANCH   4  11
ATOM     11  O   UNL     1     -27.543  12.406  57.519  1.00  0.00    -0.387 OA
ATOM     12  H   UNL     1     -28.463  12.650  57.793  1.00  0.00     0.211 HD
ENDBRANCH   4  11
BRANCH   6  13
ATOM     13  O   UNL     1     -26.851  10.901  55.587  1.00  0.00    -0.387 OA
ATOM     14  H   UNL     1     -26.061  10.492  55.151  1.00  0.00     0.211 HD
ENDBRANCH   6  13
BRANCH   7  15
ATOM     15  O   UNL     1     -28.073  11.400  53.157  1.00  0.00    -0.385 OA
ATOM     16  H   UNL     1     -27.427  11.631  52.445  1.00  0.00     0.211 HD
ENDBRANCH   7  15
ENDBRANCH   1   2
BRANCH   1  17
ATOM     17  C   UNL     1     -30.564  10.564  55.649  1.00  0.00     0.224 C 
ATOM     18  C   UNL     1     -31.120  10.296  54.223  1.00  0.00     0.208 C 
ATOM     19  O   UNL     1     -31.715  10.867  56.414  1.00  0.00    -0.337 OA
ATOM     20  C   UNL     1     -32.457   9.600  54.492  1.00  0.00     0.180 C 
ATOM     21  C   UNL     1     -32.764  10.028  55.941  1.00  0.00     0.179 C 
BRANCH  17  22
ATOM     22  C   UNL     1     -29.891   9.317  56.288  1.00  0.00     0.225 C 
BRANCH  22  23
ATOM     23  O   UNL     1     -28.902   9.748  57.193  1.00  0.00    -0.391 OA
ATOM     24  H   UNL     1     -28.517   8.953  57.634  1.00  0.00     0.210 HD
ENDBRANCH  22  23
ENDBRANCH  17  22
BRANCH  18  25
ATOM     25  O   UNL     1     -30.244   9.555  53.409  1.00  0.00    -0.385 OA
ATOM     26  H   UNL     1     -30.698   9.416  52.540  1.00  0.00     0.211 HD
ENDBRANCH  18  25
BRANCH  20  27
ATOM     27  O   UNL     1     -32.455   8.194  54.371  1.00  0.00    -0.387 OA
ATOM     28  H   UNL     1     -31.544   7.855  54.197  1.00  0.00     0.211 HD
ENDBRANCH  20  27
BRANCH  21  29
ATOM     29  C   UNL     1     -34.112  10.746  56.077  1.00  0.00     0.191 C 
BRANCH  29  30
ATOM     30  O   UNL     1     -34.971  10.077  56.967  1.00  0.00    -0.394 OA
ATOM     31  H   UNL     1     -34.931  10.566  57.835  1.00  0.00     0.210 HD
ENDBRANCH  29  30
ENDBRANCH  21  29
ENDBRANCH   1  17
TORSDOF 13
ENDMDL
MODEL 7
REMARK VINA RESULT:    -5.463      1.944      5.869
REMARK INTER + INTRA:         -10.300
REMARK INTER:                  -8.837
REMARK INTRA:                  -1.463
REMARK UNBOUND:                -1.963
REMARK SMILES OC[C@@H]1O[C@H](O[C@@]2(CO)O[C@@H](CO)[C@H](O)[C@@H]2O)[C@H](O)[C@H](O)[C@@H]1O
REMARK SMILES IDX 6 1 5 2 3 3 22 4 4 5 20 6 18 7 2 8 1 9 23 11 21 13 19 15
REMARK SMILES IDX 7 17 16 18 10 19 14 20 11 21 8 22 9 23 17 25 15 27 12 29
REMARK SMILES IDX 13 30
REMARK H PARENT 1 10 23 12 21 14 19 16 9 24 17 26 15 28 13 31
REMARK Flexibility Score: inf
ROOT
ATOM      1  O   UNL     1     -26.632  13.432  54.792  1.00  0.00    -0.313 OA
ENDROOT
BRANCH   1   2
ATOM      2  C   UNL     1     -27.231  14.511  55.493  1.00  0.00     0.285 C 
ATOM      3  C   UNL     1     -28.384  15.777  53.794  1.00  0.00     0.178 C 
ATOM      4  C   UNL     1     -29.092  14.411  53.442  1.00  0.00     0.177 C 
ATOM      5  O   UNL     1     -27.217  15.638  54.615  1.00  0.00    -0.341 OA
ATOM      6  C   UNL     1     -29.479  13.630  54.734  1.00  0.00     0.179 C 
ATOM      7  C   UNL     1     -28.676  14.163  55.945  1.00  0.00     0.202 C 
BRANCH   3   8
ATOM      8  C   UNL     1     -28.038  16.574  52.513  1.00  0.00     0.191 C 
BRANCH   8   9
ATOM      9  O   UNL     1     -27.940  17.963  52.712  1.00  0.00    -0.394 OA
ATOM     10  H   UNL     1     -28.058  18.172  53.676  1.00  0.00     0.210 HD
ENDBRANCH   8   9
ENDBRANCH   3   8
BRANCH   4  11
ATOM     11  O   UNL     1     -28.327  13.580  52.585  1.00  0.00    -0.387 OA
ATOM     12  H   UNL     1     -27.599  14.104  52.164  1.00  0.00     0.211 HD
ENDBRANCH   4  11
BRANCH   6  13
ATOM     13  O   UNL     1     -29.238  12.257  54.558  1.00  0.00    -0.387 OA
ATOM     14  H   UNL     1     -28.929  11.898  55.429  1.00  0.00     0.211 HD
ENDBRANCH   6  13
BRANCH   7  15
ATOM     15  O   UNL     1     -28.732  13.305  57.066  1.00  0.00    -0.385 OA
ATOM     16  H   UNL     1     -27.814  12.997  57.263  1.00  0.00     0.211 HD
ENDBRANCH   7  15
ENDBRANCH   1   2
BRANCH   1  17
ATOM     17  C   UNL     1     -25.755  12.492  55.417  1.00  0.00     0.224 C 
ATOM     18  C   UNL     1     -26.056  10.975  55.272  1.00  0.00     0.208 C 
ATOM     19  O   UNL     1     -25.791  12.716  56.813  1.00  0.00    -0.337 OA
ATOM     20  C   UNL     1     -25.357  10.359  56.486  1.00  0.00     0.180 C 
ATOM     21  C   UNL     1     -25.226  11.568  57.436  1.00  0.00     0.179 C 
BRANCH  17  22
ATOM     22  C   UNL     1     -24.337  12.886  54.915  1.00  0.00     0.225 C 
BRANCH  22  23
ATOM     23  O   UNL     1     -24.355  12.956  53.509  1.00  0.00    -0.391 OA
ATOM     24  H   UNL     1     -25.209  12.577  53.190  1.00  0.00     0.210 HD
ENDBRANCH  22  23
ENDBRANCH  17  22
BRANCH  18  25
ATOM     25  O   UNL     1     -25.640  10.436  54.040  1.00  0.00    -0.385 OA
ATOM     26  H   UNL     1     -26.096  10.948  53.326  1.00  0.00     0.211 HD
ENDBRANCH  18  25
BRANCH  20  27
ATOM     27  O   UNL     1     -24.097   9.772  56.241  1.00  0.00    -0.387 OA
ATOM     28  H   UNL     1     -24.029   8.887  56.672  1.00  0.00     0.211 HD
ENDBRANCH  20  27
BRANCH  21  29
ATOM     29  C   UNL     1     -25.888  11.329  58.798  1.00  0.00     0.191 C 
BRANCH  29  30
ATOM     30  O   UNL     1     -26.737  12.390  59.158  1.00  0.00    -0.394 OA
ATOM     31  H   UNL     1     -26.176  13.214  59.195  1.00  0.00     0.210 HD
ENDBRANCH  29  30
ENDBRANCH  21  29
ENDBRANCH   1  17
TORSDOF 13
ENDMDL
MODEL 8
REMARK VINA RESULT:    -5.435      1.971      4.977
REMARK INTER + INTRA:         -10.257
REMARK INTER:                  -8.426
REMARK INTRA:                  -1.831
REMARK UNBOUND:                -1.963
REMARK SMILES OC[C@@H]1O[C@H](O[C@@]2(CO)O[C@@H](CO)[C@H](O)[C@@H]2O)[C@H](O)[C@H](O)[C@@H]1O
REMARK SMILES IDX 6 1 5 2 3 3 22 4 4 5 20 6 18 7 2 8 1 9 23 11 21 13 19 15
REMARK SMILES IDX 7 17 16 18 10 19 14 20 11 21 8 22 9 23 17 25 15 27 12 29
REMARK SMILES IDX 13 30
REMARK H PARENT 1 10 23 12 21 14 19 16 9 24 17 26 15 28 13 31
REMARK Flexibility Score: inf
ROOT
ATOM      1  O   UNL     1     -27.953  14.996  54.571  1.00  0.00    -0.313 OA
ENDROOT
BRANCH   1   2
ATOM      2  C   UNL     1     -26.853  15.419  53.781  1.00  0.00     0.285 C 
ATOM      3  C   UNL     1     -26.910  13.990  51.839  1.00  0.00     0.178 C 
ATOM      4  C   UNL     1     -28.397  14.492  51.676  1.00  0.00     0.177 C 
ATOM      5  O   UNL     1     -26.339  14.258  53.126  1.00  0.00    -0.341 OA
ATOM      6  C   UNL     1     -28.510  16.019  51.965  1.00  0.00     0.179 C 
ATOM      7  C   UNL     1     -27.273  16.508  52.756  1.00  0.00     0.202 C 
BRANCH   3   8
ATOM      8  C   UNL     1     -26.790  12.481  51.510  1.00  0.00     0.191 C 
BRANCH   8   9
ATOM      9  O   UNL     1     -27.482  11.643  52.403  1.00  0.00    -0.394 OA
ATOM     10  H   UNL     1     -27.814  10.842  51.921  1.00  0.00     0.210 HD
ENDBRANCH   8   9
ENDBRANCH   3   8
BRANCH   4  11
ATOM     11  O   UNL     1     -29.327  13.779  52.474  1.00  0.00    -0.387 OA
ATOM     12  H   UNL     1     -30.123  14.342  52.654  1.00  0.00     0.211 HD
ENDBRANCH   4  11
BRANCH   6  13
ATOM     13  O   UNL     1     -29.685  16.289  52.685  1.00  0.00    -0.387 OA
ATOM     14  H   UNL     1     -30.403  16.463  52.023  1.00  0.00     0.211 HD
ENDBRANCH   6  13
BRANCH   7  15
ATOM     15  O   UNL     1     -27.452  17.788  53.326  1.00  0.00    -0.385 OA
ATOM     16  H   UNL     1     -28.045  18.309  52.732  1.00  0.00     0.211 HD
ENDBRANCH   7  15
ENDBRANCH   1   2
BRANCH   1  17
ATOM     17  C   UNL     1     -27.825  14.059  55.643  1.00  0.00     0.224 C 
ATOM     18  C   UNL     1     -26.682  14.254  56.676  1.00  0.00     0.208 C 
ATOM     19  O   UNL     1     -27.570  12.785  55.086  1.00  0.00    -0.337 OA
ATOM     20  C   UNL     1     -26.474  12.847  57.241  1.00  0.00     0.180 C 
ATOM     21  C   UNL     1     -27.084  11.958  56.138  1.00  0.00     0.179 C 
BRANCH  17  22
ATOM     22  C   UNL     1     -29.237  14.013  56.292  1.00  0.00     0.225 C 
BRANCH  22  23
ATOM     23  O   UNL     1     -30.188  13.726  55.295  1.00  0.00    -0.391 OA
ATOM     24  H   UNL     1     -30.295  12.745  55.240  1.00  0.00     0.210 HD
ENDBRANCH  22  23
ENDBRANCH  17  22
BRANCH  18  25
ATOM     25  O   UNL     1     -26.968  15.225  57.654  1.00  0.00    -0.385 OA
ATOM     26  H   UNL     1     -26.140  15.368  58.177  1.00  0.00     0.211 HD
ENDBRANCH  18  25
BRANCH  20  27
ATOM     27  O   UNL     1     -27.080  12.587  58.489  1.00  0.00    -0.387 OA
ATOM     28  H   UNL     1     -28.030  12.855  58.484  1.00  0.00     0.211 HD
ENDBRANCH  20  27
BRANCH  21  29
ATOM     29  C   UNL     1     -26.090  10.930  55.583  1.00  0.00     0.191 C 
BRANCH  29  30
ATOM     30  O   UNL     1     -25.364  11.443  54.495  1.00  0.00    -0.394 OA
ATOM     31  H   UNL     1     -25.421  12.437  54.547  1.00  0.00     0.210 HD
ENDBRANCH  29  30
ENDBRANCH  21  29
ENDBRANCH   1  17
TORSDOF 13
ENDMDL
MODEL 9
REMARK VINA RESULT:    -5.376      1.727      3.037
REMARK INTER + INTRA:         -10.168
REMARK INTER:                  -8.730
REMARK INTRA:                  -1.438
REMARK UNBOUND:                -1.963
REMARK SMILES OC[C@@H]1O[C@H](O[C@@]2(CO)O[C@@H](CO)[C@H](O)[C@@H]2O)[C@H](O)[C@H](O)[C@@H]1O
REMARK SMILES IDX 6 1 5 2 3 3 22 4 4 5 20 6 18 7 2 8 1 9 23 11 21 13 19 15
REMARK SMILES IDX 7 17 16 18 10 19 14 20 11 21 8 22 9 23 17 25 15 27 12 29
REMARK SMILES IDX 13 30
REMARK H PARENT 1 10 23 12 21 14 19 16 9 24 17 26 15 28 13 31
REMARK Flexibility Score: inf
ROOT
ATOM      1  O   UNL     1     -26.476  13.401  55.263  1.00  0.00    -0.313 OA
ENDROOT
BRANCH   1   2
ATOM      2  C   UNL     1     -26.000  12.250  54.584  1.00  0.00     0.285 C 
ATOM      3  C   UNL     1     -25.498  10.671  56.337  1.00  0.00     0.178 C 
ATOM      4  C   UNL     1     -26.988  10.908  56.798  1.00  0.00     0.177 C 
ATOM      5  O   UNL     1     -25.004  11.655  55.418  1.00  0.00    -0.341 OA
ATOM      6  C   UNL     1     -27.951  10.977  55.574  1.00  0.00     0.179 C 
ATOM      7  C   UNL     1     -27.152  11.253  54.278  1.00  0.00     0.202 C 
BRANCH   3   8
ATOM      8  C   UNL     1     -24.546  10.559  57.554  1.00  0.00     0.191 C 
BRANCH   8   9
ATOM      9  O   UNL     1     -23.917   9.307  57.674  1.00  0.00    -0.394 OA
ATOM     10  H   UNL     1     -24.492   8.692  58.200  1.00  0.00     0.210 HD
ENDBRANCH   8   9
ENDBRANCH   3   8
BRANCH   4  11
ATOM     11  O   UNL     1     -27.154  12.059  57.610  1.00  0.00    -0.387 OA
ATOM     12  H   UNL     1     -26.929  11.847  58.551  1.00  0.00     0.211 HD
ENDBRANCH   4  11
BRANCH   6  13
ATOM     13  O   UNL     1     -28.914  11.979  55.774  1.00  0.00    -0.387 OA
ATOM     14  H   UNL     1     -29.726  11.711  55.272  1.00  0.00     0.211 HD
ENDBRANCH   6  13
BRANCH   7  15
ATOM     15  O   UNL     1     -27.972  11.645  53.196  1.00  0.00    -0.385 OA
ATOM     16  H   UNL     1     -28.822  11.989  53.564  1.00  0.00     0.211 HD
ENDBRANCH   7  15
ENDBRANCH   1   2
BRANCH   1  17
ATOM     17  C   UNL     1     -26.697  14.653  54.609  1.00  0.00     0.224 C 
ATOM     18  C   UNL     1     -28.096  15.318  54.717  1.00  0.00     0.208 C 
ATOM     19  O   UNL     1     -26.515  14.461  53.220  1.00  0.00    -0.337 OA
ATOM     20  C   UNL     1     -28.153  16.221  53.482  1.00  0.00     0.180 C 
ATOM     21  C   UNL     1     -27.089  15.586  52.564  1.00  0.00     0.179 C 
BRANCH  17  22
ATOM     22  C   UNL     1     -25.543  15.566  55.111  1.00  0.00     0.225 C 
BRANCH  22  23
ATOM     23  O   UNL     1     -25.668  15.734  56.503  1.00  0.00    -0.391 OA
ATOM     24  H   UNL     1     -26.628  15.703  56.735  1.00  0.00     0.210 HD
ENDBRANCH  22  23
ENDBRANCH  17  22
BRANCH  18  25
ATOM     25  O   UNL     1     -28.302  15.998  55.932  1.00  0.00    -0.385 OA
ATOM     26  H   UNL     1     -29.136  15.643  56.330  1.00  0.00     0.211 HD
ENDBRANCH  18  25
BRANCH  20  27
ATOM     27  O   UNL     1     -27.877  17.587  53.704  1.00  0.00    -0.387 OA
ATOM     28  H   UNL     1     -28.181  18.138  52.944  1.00  0.00     0.211 HD
ENDBRANCH  20  27
BRANCH  21  29
ATOM     29  C   UNL     1     -27.652  15.169  51.200  1.00  0.00     0.191 C 
BRANCH  29  30
ATOM     30  O   UNL     1     -27.809  13.776  51.105  1.00  0.00    -0.394 OA
ATOM     31  H   UNL     1     -26.929  13.366  51.334  1.00  0.00     0.210 HD
ENDBRANCH  29  30
ENDBRANCH  21  29
ENDBRANCH   1  17
TORSDOF 13
ENDMDL
