MODEL 1
REMARK VINA RESULT:    -6.424      0.000      0.000
REMARK INTER + INTRA:          -7.539
REMARK INTER:                  -7.363
REMARK INTRA:                  -0.176
REMARK UNBOUND:                -0.176
REMARK SMILES O=C([O-])C=Cc1ccc(O)cc1
REMARK SMILES IDX 6 1 7 2 12 3 8 4 11 5 9 6 5 7 4 8 2 9 1 10 3 11 10 12
REMARK H PARENT 10 13
REMARK Flexibility Score: inf
ROOT
ATOM      1  C   UNL     1      11.557 -12.802  29.148  1.00  0.00    -0.025 A 
ATOM      2  C   UNL     1      12.758 -12.974  29.859  1.00  0.00     0.012 A 
ATOM      3  C   UNL     1      11.458 -13.296  27.838  1.00  0.00     0.012 A 
ATOM      4  C   UNL     1      13.857 -13.583  29.247  1.00  0.00     0.047 A 
ATOM      5  C   UNL     1      12.560 -13.906  27.229  1.00  0.00     0.047 A 
ATOM      6  C   UNL     1      13.764 -14.047  27.932  1.00  0.00     0.115 A 
ENDROOT
BRANCH   1   7
ATOM      7  C   UNL     1      10.365 -12.209  29.788  1.00  0.00     0.010 C 
ATOM      8  C   UNL     1      10.227 -10.920  30.133  1.00  0.00     0.025 C 
BRANCH   8   9
ATOM      9  C   UNL     1      11.155  -9.828  29.776  1.00  0.00     0.064 C 
ATOM     10  O   UNL     1      11.799  -9.198  30.655  1.00  0.00    -0.545 OA
ATOM     11  O   UNL     1      11.372  -9.536  28.436  1.00  0.00    -0.545 OA
ENDBRANCH   8   9
ENDBRANCH   1   7
BRANCH   6  12
ATOM     12  O   UNL     1      14.868 -14.652  27.335  1.00  0.00    -0.508 OA
ATOM     13  H   UNL     1      15.372 -14.205  26.578  1.00  0.00     0.293 HD
ENDBRANCH   6  12
TORSDOF 3
ENDMDL
MODEL 2
REMARK VINA RESULT:    -6.373      0.091      1.402
REMARK INTER + INTRA:          -7.480
REMARK INTER:                  -7.331
REMARK INTRA:                  -0.149
REMARK UNBOUND:                -0.176
REMARK SMILES O=C([O-])C=Cc1ccc(O)cc1
REMARK SMILES IDX 6 1 7 2 12 3 8 4 11 5 9 6 5 7 4 8 2 9 1 10 3 11 10 12
REMARK H PARENT 10 13
REMARK Flexibility Score: inf
ROOT
ATOM      1  C   UNL     1      11.474 -12.859  29.214  1.00  0.00    -0.025 A 
ATOM      2  C   UNL     1      11.404 -13.269  27.871  1.00  0.00     0.012 A 
ATOM      3  C   UNL     1      12.692 -12.968  29.902  1.00  0.00     0.012 A 
ATOM      4  C   UNL     1      12.522 -13.828  27.246  1.00  0.00     0.047 A 
ATOM      5  C   UNL     1      13.810 -13.527  29.274  1.00  0.00     0.047 A 
ATOM      6  C   UNL     1      13.726 -13.962  27.944  1.00  0.00     0.115 A 
ENDROOT
BRANCH   1   7
ATOM      7  C   UNL     1      10.322 -12.217  29.881  1.00  0.00     0.010 C 
ATOM      8  C   UNL     1      10.238 -10.919  30.208  1.00  0.00     0.025 C 
BRANCH   8   9
ATOM      9  C   UNL     1      11.189  -9.864  29.807  1.00  0.00     0.064 C 
ATOM     10  O   UNL     1      11.882  -9.245  30.656  1.00  0.00    -0.545 OA
ATOM     11  O   UNL     1      11.373  -9.598  28.457  1.00  0.00    -0.545 OA
ENDBRANCH   8   9
ENDBRANCH   1   7
BRANCH   6  12
ATOM     12  O   UNL     1      14.832 -14.521  27.309  1.00  0.00    -0.508 OA
ATOM     13  H   UNL     1      15.730 -14.051  27.297  1.00  0.00     0.293 HD
ENDBRANCH   6  12
TORSDOF 3
ENDMDL
MODEL 3
REMARK VINA RESULT:    -6.334      1.946      5.008
REMARK INTER + INTRA:          -7.435
REMARK INTER:                  -7.530
REMARK INTRA:                   0.095
REMARK UNBOUND:                -0.176
REMARK SMILES O=C([O-])C=Cc1ccc(O)cc1
REMARK SMILES IDX 6 1 7 2 12 3 8 4 11 5 9 6 5 7 4 8 2 9 1 10 3 11 10 12
REMARK H PARENT 10 13
REMARK Flexibility Score: inf
ROOT
ATOM      1  C   UNL     1      12.573 -12.984  28.325  1.00  0.00    -0.025 A 
ATOM      2  C   UNL     1      12.780 -12.294  29.533  1.00  0.00     0.012 A 
ATOM      3  C   UNL     1      11.261 -13.184  27.866  1.00  0.00     0.012 A 
ATOM      4  C   UNL     1      11.691 -11.861  30.293  1.00  0.00     0.047 A 
ATOM      5  C   UNL     1      10.173 -12.748  28.629  1.00  0.00     0.047 A 
ATOM      6  C   UNL     1      10.385 -12.088  29.847  1.00  0.00     0.115 A 
ENDROOT
BRANCH   1   7
ATOM      7  C   UNL     1      13.707 -13.405  27.478  1.00  0.00     0.010 C 
ATOM      8  C   UNL     1      14.392 -14.552  27.610  1.00  0.00     0.025 C 
BRANCH   8   9
ATOM      9  C   UNL     1      14.031 -15.675  28.497  1.00  0.00     0.064 C 
ATOM     10  O   UNL     1      14.103 -16.870  28.108  1.00  0.00    -0.545 OA
ATOM     11  O   UNL     1      13.671 -15.410  29.811  1.00  0.00    -0.545 OA
ENDBRANCH   8   9
ENDBRANCH   1   7
BRANCH   6  12
ATOM     12  O   UNL     1       9.309 -11.651  30.615  1.00  0.00    -0.508 OA
ATOM     13  H   UNL     1       8.792 -10.814  30.373  1.00  0.00     0.293 HD
ENDBRANCH   6  12
TORSDOF 3
ENDMDL
MODEL 4
REMARK VINA RESULT:    -6.324      1.488      4.743
REMARK INTER + INTRA:          -7.424
REMARK INTER:                  -7.247
REMARK INTRA:                  -0.177
REMARK UNBOUND:                -0.176
REMARK SMILES O=C([O-])C=Cc1ccc(O)cc1
REMARK SMILES IDX 6 1 7 2 12 3 8 4 11 5 9 6 5 7 4 8 2 9 1 10 3 11 10 12
REMARK H PARENT 10 13
REMARK Flexibility Score: inf
ROOT
ATOM      1  C   UNL     1      11.393 -12.007  29.056  1.00  0.00    -0.025 A 
ATOM      2  C   UNL     1      11.203 -10.662  28.693  1.00  0.00     0.012 A 
ATOM      3  C   UNL     1      11.724 -12.320  30.383  1.00  0.00     0.012 A 
ATOM      4  C   UNL     1      11.394  -9.645  29.633  1.00  0.00     0.047 A 
ATOM      5  C   UNL     1      11.915 -11.300  31.322  1.00  0.00     0.047 A 
ATOM      6  C   UNL     1      11.753  -9.959  30.947  1.00  0.00     0.115 A 
ENDROOT
BRANCH   1   7
ATOM      7  C   UNL     1      11.145 -13.102  28.096  1.00  0.00     0.010 C 
ATOM      8  C   UNL     1      12.091 -13.861  27.521  1.00  0.00     0.025 C 
BRANCH   8   9
ATOM      9  C   UNL     1      13.525 -13.867  27.873  1.00  0.00     0.064 C 
ATOM     10  O   UNL     1      14.354 -13.141  27.265  1.00  0.00    -0.545 OA
ATOM     11  O   UNL     1      13.955 -14.638  28.944  1.00  0.00    -0.545 OA
ENDBRANCH   8   9
ENDBRANCH   1   7
BRANCH   6  12
ATOM     12  O   UNL     1      11.941  -8.935  31.873  1.00  0.00    -0.508 OA
ATOM     13  H   UNL     1      11.305  -8.802  32.651  1.00  0.00     0.293 HD
ENDBRANCH   6  12
TORSDOF 3
ENDMDL
MODEL 5
REMARK VINA RESULT:    -5.972      1.973      4.895
REMARK INTER + INTRA:          -7.020
REMARK INTER:                  -6.857
REMARK INTRA:                  -0.163
REMARK UNBOUND:                -0.176
REMARK SMILES O=C([O-])C=Cc1ccc(O)cc1
REMARK SMILES IDX 6 1 7 2 12 3 8 4 11 5 9 6 5 7 4 8 2 9 1 10 3 11 10 12
REMARK H PARENT 10 13
REMARK Flexibility Score: inf
ROOT
ATOM      1  C   UNL     1      12.193 -11.635  29.682  1.00  0.00    -0.025 A 
ATOM      2  C   UNL     1      11.310 -12.260  30.580  1.00  0.00     0.012 A 
ATOM      3  C   UNL     1      11.734 -10.559  28.906  1.00  0.00     0.012 A 
ATOM      4  C   UNL     1       9.977 -11.849  30.660  1.00  0.00     0.047 A 
ATOM      5  C   UNL     1      10.399 -10.148  28.988  1.00  0.00     0.047 A 
ATOM      6  C   UNL     1       9.516 -10.795  29.863  1.00  0.00     0.115 A 
ENDROOT
BRANCH   1   7
ATOM      7  C   UNL     1      13.619 -12.016  29.617  1.00  0.00     0.010 C 
ATOM      8  C   UNL     1      14.097 -13.149  29.079  1.00  0.00     0.025 C 
BRANCH   8   9
ATOM      9  C   UNL     1      13.317 -14.130  28.298  1.00  0.00     0.064 C 
ATOM     10  O   UNL     1      12.736 -13.808  27.229  1.00  0.00    -0.545 OA
ATOM     11  O   UNL     1      13.281 -15.452  28.718  1.00  0.00    -0.545 OA
ENDBRANCH   8   9
ENDBRANCH   1   7
BRANCH   6  12
ATOM     12  O   UNL     1       8.185 -10.396  29.953  1.00  0.00    -0.508 OA
ATOM     13  H   UNL     1       7.443 -11.062  30.133  1.00  0.00     0.293 HD
ENDBRANCH   6  12
TORSDOF 3
ENDMDL
MODEL 6
REMARK VINA RESULT:    -5.883     10.990     12.604
REMARK INTER + INTRA:          -6.918
REMARK INTER:                  -6.863
REMARK INTRA:                  -0.055
REMARK UNBOUND:                -0.176
REMARK SMILES O=C([O-])C=Cc1ccc(O)cc1
REMARK SMILES IDX 6 1 7 2 12 3 8 4 11 5 9 6 5 7 4 8 2 9 1 10 3 11 10 12
REMARK H PARENT 10 13
REMARK Flexibility Score: inf
ROOT
ATOM      1  C   UNL     1      15.375  -0.964  25.952  1.00  0.00    -0.025 A 
ATOM      2  C   UNL     1      15.185  -1.979  26.907  1.00  0.00     0.012 A 
ATOM      3  C   UNL     1      16.664  -0.724  25.452  1.00  0.00     0.012 A 
ATOM      4  C   UNL     1      16.278  -2.703  27.392  1.00  0.00     0.047 A 
ATOM      5  C   UNL     1      17.756  -1.451  25.939  1.00  0.00     0.047 A 
ATOM      6  C   UNL     1      17.566  -2.440  26.913  1.00  0.00     0.115 A 
ENDROOT
BRANCH   1   7
ATOM      7  C   UNL     1      14.230  -0.222  25.385  1.00  0.00     0.010 C 
ATOM      8  C   UNL     1      13.771   0.958  25.831  1.00  0.00     0.025 C 
BRANCH   8   9
ATOM      9  C   UNL     1      14.425   1.812  26.842  1.00  0.00     0.064 C 
ATOM     10  O   UNL     1      14.616   3.040  26.642  1.00  0.00    -0.545 OA
ATOM     11  O   UNL     1      14.777   1.261  28.067  1.00  0.00    -0.545 OA
ENDBRANCH   8   9
ENDBRANCH   1   7
BRANCH   6  12
ATOM     12  O   UNL     1      18.645  -3.169  27.405  1.00  0.00    -0.508 OA
ATOM     13  H   UNL     1      19.457  -2.711  27.802  1.00  0.00     0.293 HD
ENDBRANCH   6  12
TORSDOF 3
ENDMDL
MODEL 7
REMARK VINA RESULT:    -5.771      1.669      2.323
REMARK INTER + INTRA:          -6.790
REMARK INTER:                  -6.856
REMARK INTRA:                   0.066
REMARK UNBOUND:                -0.176
REMARK SMILES O=C([O-])C=Cc1ccc(O)cc1
REMARK SMILES IDX 6 1 7 2 12 3 8 4 11 5 9 6 5 7 4 8 2 9 1 10 3 11 10 12
REMARK H PARENT 10 13
REMARK Flexibility Score: inf
ROOT
ATOM      1  C   UNL     1      12.335 -11.897  28.809  1.00  0.00    -0.025 A 
ATOM      2  C   UNL     1      11.755 -12.715  27.824  1.00  0.00     0.012 A 
ATOM      3  C   UNL     1      13.345 -12.422  29.631  1.00  0.00     0.012 A 
ATOM      4  C   UNL     1      12.144 -14.052  27.700  1.00  0.00     0.047 A 
ATOM      5  C   UNL     1      13.732 -13.760  29.504  1.00  0.00     0.047 A 
ATOM      6  C   UNL     1      13.129 -14.580  28.540  1.00  0.00     0.115 A 
ENDROOT
BRANCH   1   7
ATOM      7  C   UNL     1      11.980 -10.468  28.926  1.00  0.00     0.010 C 
ATOM      8  C   UNL     1      10.785  -9.992  29.309  1.00  0.00     0.025 C 
BRANCH   8   9
ATOM      9  C   UNL     1       9.672 -10.793  29.855  1.00  0.00     0.064 C 
ATOM     10  O   UNL     1       9.877 -11.755  30.641  1.00  0.00    -0.545 OA
ATOM     11  O   UNL     1       8.367 -10.435  29.548  1.00  0.00    -0.545 OA
ENDBRANCH   8   9
ENDBRANCH   1   7
BRANCH   6  12
ATOM     12  O   UNL     1      13.506 -15.914  28.405  1.00  0.00    -0.508 OA
ATOM     13  H   UNL     1      12.889 -16.669  28.681  1.00  0.00     0.293 HD
ENDBRANCH   6  12
TORSDOF 3
ENDMDL
MODEL 8
REMARK VINA RESULT:    -5.720      1.869      4.752
REMARK INTER + INTRA:          -6.732
REMARK INTER:                  -6.880
REMARK INTRA:                   0.148
REMARK UNBOUND:                -0.176
REMARK SMILES O=C([O-])C=Cc1ccc(O)cc1
REMARK SMILES IDX 6 1 7 2 12 3 8 4 11 5 9 6 5 7 4 8 2 9 1 10 3 11 10 12
REMARK H PARENT 10 13
REMARK Flexibility Score: inf
ROOT
ATOM      1  C   UNL     1      10.792 -12.750  28.202  1.00  0.00    -0.025 A 
ATOM      2  C   UNL     1       9.806 -11.973  27.569  1.00  0.00     0.012 A 
ATOM      3  C   UNL     1      10.971 -12.634  29.590  1.00  0.00     0.012 A 
ATOM      4  C   UNL     1       9.049 -11.058  28.306  1.00  0.00     0.047 A 
ATOM      5  C   UNL     1      10.213 -11.717  30.325  1.00  0.00     0.047 A 
ATOM      6  C   UNL     1       9.251 -10.924  29.684  1.00  0.00     0.115 A 
ENDROOT
BRANCH   1   7
ATOM      7  C   UNL     1      11.568 -13.761  27.455  1.00  0.00     0.010 C 
ATOM      8  C   UNL     1      12.899 -13.920  27.514  1.00  0.00     0.025 C 
BRANCH   8   9
ATOM      9  C   UNL     1      13.807 -13.244  28.461  1.00  0.00     0.064 C 
ATOM     10  O   UNL     1      14.191 -13.805  29.520  1.00  0.00    -0.545 OA
ATOM     11  O   UNL     1      14.303 -11.987  28.142  1.00  0.00    -0.545 OA
ENDBRANCH   8   9
ENDBRANCH   1   7
BRANCH   6  12
ATOM     12  O   UNL     1       8.490 -10.008  30.405  1.00  0.00    -0.508 OA
ATOM     13  H   UNL     1       8.553  -9.012  30.228  1.00  0.00     0.293 HD
ENDBRANCH   6  12
TORSDOF 3
ENDMDL
MODEL 9
REMARK VINA RESULT:    -5.245     10.903     13.273
REMARK INTER + INTRA:          -6.187
REMARK INTER:                  -6.369
REMARK INTRA:                   0.182
REMARK UNBOUND:                -0.176
REMARK SMILES O=C([O-])C=Cc1ccc(O)cc1
REMARK SMILES IDX 6 1 7 2 12 3 8 4 11 5 9 6 5 7 4 8 2 9 1 10 3 11 10 12
REMARK H PARENT 10 13
REMARK Flexibility Score: inf
ROOT
ATOM      1  C   UNL     1      14.741  -0.796  26.907  1.00  0.00    -0.025 A 
ATOM      2  C   UNL     1      14.244  -0.564  25.613  1.00  0.00     0.012 A 
ATOM      3  C   UNL     1      14.965   0.295  27.762  1.00  0.00     0.012 A 
ATOM      4  C   UNL     1      14.026   0.742  25.165  1.00  0.00     0.047 A 
ATOM      5  C   UNL     1      14.745   1.601  27.311  1.00  0.00     0.047 A 
ATOM      6  C   UNL     1      14.278   1.827  26.009  1.00  0.00     0.115 A 
ENDROOT
BRANCH   1   7
ATOM      7  C   UNL     1      14.930  -2.168  27.422  1.00  0.00     0.010 C 
ATOM      8  C   UNL     1      16.059  -2.886  27.325  1.00  0.00     0.025 C 
BRANCH   8   9
ATOM      9  C   UNL     1      17.364  -2.382  26.854  1.00  0.00     0.064 C 
ATOM     10  O   UNL     1      18.447  -2.821  27.322  1.00  0.00    -0.545 OA
ATOM     11  O   UNL     1      17.398  -1.453  25.823  1.00  0.00    -0.545 OA
ENDBRANCH   8   9
ENDBRANCH   1   7
BRANCH   6  12
ATOM     12  O   UNL     1      14.056   3.123  25.550  1.00  0.00    -0.508 OA
ATOM     13  H   UNL     1      14.392   3.428  24.644  1.00  0.00     0.293 HD
ENDBRANCH   6  12
TORSDOF 3
ENDMDL
