MODEL 1
REMARK VINA RESULT:    -2.829      0.000      0.000
REMARK INTER + INTRA:          -6.925
REMARK INTER:                  -4.979
REMARK INTRA:                  -1.946
REMARK UNBOUND:                -1.946
REMARK SMILES CCCCCCCCCCCCCCC(=O)[O-]
REMARK SMILES IDX 9 1 10 2 11 3 12 4 13 5 14 6 15 7 16 8 17 9 8 10 7 11 6 12
REMARK SMILES IDX 5 13 4 14 3 15 2 16 1 17
REMARK H PARENT
REMARK Flexibility Score: inf
ROOT
ATOM      1  C   UNL     1      12.545 -19.220  21.751  1.00  0.00     0.000 C 
ENDROOT
BRANCH   1   2
ATOM      2  C   UNL     1      11.328 -19.045  20.829  1.00  0.00     0.000 C 
BRANCH   2   3
ATOM      3  C   UNL     1      11.718 -18.915  19.346  1.00  0.00     0.000 C 
BRANCH   3   4
ATOM      4  C   UNL     1      10.581 -19.326  18.393  1.00  0.00     0.000 C 
BRANCH   4   5
ATOM      5  C   UNL     1       9.226 -19.594  19.074  1.00  0.00     0.006 C 
BRANCH   5   6
ATOM      6  C   UNL     1       8.027 -19.301  18.163  1.00  0.00     0.053 C 
BRANCH   6   7
ATOM      7  C   UNL     1       6.835 -18.907  18.977  1.00  0.00     0.041 C 
ATOM      8  O   UNL     1       5.982 -18.109  18.506  1.00  0.00    -0.550 OA
ATOM      9  O   UNL     1       6.693 -19.378  20.275  1.00  0.00    -0.550 OA
ENDBRANCH   6   7
ENDBRANCH   5   6
ENDBRANCH   4   5
ENDBRANCH   3   4
ENDBRANCH   2   3
ENDBRANCH   1   2
BRANCH   1  10
ATOM     10  C   UNL     1      12.995 -17.891  22.383  1.00  0.00     0.000 C 
BRANCH  10  11
ATOM     11  C   UNL     1      14.295 -17.336  21.775  1.00  0.00    -0.000 C 
BRANCH  11  12
ATOM     12  C   UNL     1      14.118 -16.165  20.784  1.00  0.00    -0.000 C 
BRANCH  12  13
ATOM     13  C   UNL     1      12.938 -15.221  21.080  1.00  0.00    -0.000 C 
BRANCH  13  14
ATOM     14  C   UNL     1      11.883 -15.210  19.960  1.00  0.00    -0.000 C 
BRANCH  14  15
ATOM     15  C   UNL     1      10.462 -15.505  20.488  1.00  0.00    -0.000 C 
BRANCH  15  16
ATOM     16  C   UNL     1       9.465 -15.927  19.394  1.00  0.00    -0.003 C 
ATOM     17  C   UNL     1       8.047 -15.412  19.638  1.00  0.00     0.004 C 
ENDBRANCH  15  16
ENDBRANCH  14  15
ENDBRANCH  13  14
ENDBRANCH  12  13
ENDBRANCH  11  12
ENDBRANCH  10  11
ENDBRANCH   1  10
TORSDOF 13
ENDMDL
MODEL 2
REMARK VINA RESULT:    -2.819      2.970      6.008
REMARK INTER + INTRA:          -6.908
REMARK INTER:                  -4.643
REMARK INTRA:                  -2.265
REMARK UNBOUND:                -1.946
REMARK SMILES CCCCCCCCCCCCCCC(=O)[O-]
REMARK SMILES IDX 9 1 10 2 11 3 12 4 13 5 14 6 15 7 16 8 17 9 8 10 7 11 6 12
REMARK SMILES IDX 5 13 4 14 3 15 2 16 1 17
REMARK H PARENT
REMARK Flexibility Score: inf
ROOT
ATOM      1  C   UNL     1       7.998 -16.239  18.383  1.00  0.00     0.000 C 
ENDROOT
BRANCH   1   2
ATOM      2  C   UNL     1       8.526 -15.650  19.702  1.00  0.00     0.000 C 
BRANCH   2   3
ATOM      3  C   UNL     1      10.059 -15.713  19.811  1.00  0.00     0.000 C 
BRANCH   3   4
ATOM      4  C   UNL     1      10.607 -17.146  19.680  1.00  0.00     0.000 C 
BRANCH   4   5
ATOM      5  C   UNL     1      11.919 -17.412  20.443  1.00  0.00     0.006 C 
BRANCH   5   6
ATOM      6  C   UNL     1      12.247 -18.904  20.570  1.00  0.00     0.053 C 
BRANCH   6   7
ATOM      7  C   UNL     1      13.056 -19.159  21.803  1.00  0.00     0.041 C 
ATOM      8  O   UNL     1      13.997 -18.382  22.116  1.00  0.00    -0.550 OA
ATOM      9  O   UNL     1      12.806 -20.282  22.580  1.00  0.00    -0.550 OA
ENDBRANCH   6   7
ENDBRANCH   5   6
ENDBRANCH   4   5
ENDBRANCH   3   4
ENDBRANCH   2   3
ENDBRANCH   1   2
BRANCH   1  10
ATOM     10  C   UNL     1       6.598 -16.858  18.540  1.00  0.00     0.000 C 
BRANCH  10  11
ATOM     11  C   UNL     1       6.614 -18.395  18.600  1.00  0.00    -0.000 C 
BRANCH  11  12
ATOM     12  C   UNL     1       7.903 -19.067  18.080  1.00  0.00    -0.000 C 
BRANCH  12  13
ATOM     13  C   UNL     1       8.473 -20.184  18.974  1.00  0.00    -0.000 C 
BRANCH  13  14
ATOM     14  C   UNL     1       7.790 -20.258  20.351  1.00  0.00    -0.000 C 
BRANCH  14  15
ATOM     15  C   UNL     1       8.725 -19.815  21.496  1.00  0.00    -0.000 C 
BRANCH  15  16
ATOM     16  C   UNL     1       8.331 -18.475  22.142  1.00  0.00    -0.003 C 
ATOM     17  C   UNL     1       6.821 -18.284  22.264  1.00  0.00     0.004 C 
ENDBRANCH  15  16
ENDBRANCH  14  15
ENDBRANCH  13  14
ENDBRANCH  12  13
ENDBRANCH  11  12
ENDBRANCH  10  11
ENDBRANCH   1  10
TORSDOF 13
ENDMDL
MODEL 3
REMARK VINA RESULT:    -2.741      1.662      2.666
REMARK INTER + INTRA:          -6.771
REMARK INTER:                  -5.081
REMARK INTRA:                  -1.689
REMARK UNBOUND:                -1.946
REMARK SMILES CCCCCCCCCCCCCCC(=O)[O-]
REMARK SMILES IDX 9 1 10 2 11 3 12 4 13 5 14 6 15 7 16 8 17 9 8 10 7 11 6 12
REMARK SMILES IDX 5 13 4 14 3 15 2 16 1 17
REMARK H PARENT
REMARK Flexibility Score: inf
ROOT
ATOM      1  C   UNL     1      10.876 -18.346  20.703  1.00  0.00     0.000 C 
ENDROOT
BRANCH   1   2
ATOM      2  C   UNL     1      11.590 -18.895  19.457  1.00  0.00     0.000 C 
BRANCH   2   3
ATOM      3  C   UNL     1      10.614 -19.294  18.338  1.00  0.00     0.000 C 
BRANCH   3   4
ATOM      4  C   UNL     1       9.310 -18.475  18.364  1.00  0.00     0.000 C 
BRANCH   4   5
ATOM      5  C   UNL     1       8.022 -19.295  18.162  1.00  0.00     0.006 C 
BRANCH   5   6
ATOM      6  C   UNL     1       7.020 -19.135  19.312  1.00  0.00     0.053 C 
BRANCH   6   7
ATOM      7  C   UNL     1       7.543 -19.783  20.555  1.00  0.00     0.041 C 
ATOM      8  O   UNL     1       7.982 -20.963  20.518  1.00  0.00    -0.550 OA
ATOM      9  O   UNL     1       7.497 -19.104  21.766  1.00  0.00    -0.550 OA
ENDBRANCH   6   7
ENDBRANCH   5   6
ENDBRANCH   4   5
ENDBRANCH   3   4
ENDBRANCH   2   3
ENDBRANCH   1   2
BRANCH   1  10
ATOM     10  C   UNL     1      11.171 -19.181  21.961  1.00  0.00     0.000 C 
BRANCH  10  11
ATOM     11  C   UNL     1      12.634 -19.649  22.053  1.00  0.00    -0.000 C 
BRANCH  11  12
ATOM     12  C   UNL     1      13.610 -18.652  22.714  1.00  0.00    -0.000 C 
BRANCH  12  13
ATOM     13  C   UNL     1      14.380 -17.738  21.743  1.00  0.00    -0.000 C 
BRANCH  13  14
ATOM     14  C   UNL     1      13.874 -16.284  21.760  1.00  0.00    -0.000 C 
BRANCH  14  15
ATOM     15  C   UNL     1      13.613 -15.736  20.340  1.00  0.00    -0.000 C 
BRANCH  15  16
ATOM     16  C   UNL     1      12.263 -15.015  20.188  1.00  0.00    -0.003 C 
ATOM     17  C   UNL     1      12.376 -13.661  19.489  1.00  0.00     0.004 C 
ENDBRANCH  15  16
ENDBRANCH  14  15
ENDBRANCH  13  14
ENDBRANCH  12  13
ENDBRANCH  11  12
ENDBRANCH  10  11
ENDBRANCH   1  10
TORSDOF 13
ENDMDL
MODEL 4
REMARK VINA RESULT:    -2.676      2.567      4.940
REMARK INTER + INTRA:          -6.657
REMARK INTER:                  -4.455
REMARK INTRA:                  -2.202
REMARK UNBOUND:                -1.946
REMARK SMILES CCCCCCCCCCCCCCC(=O)[O-]
REMARK SMILES IDX 9 1 10 2 11 3 12 4 13 5 14 6 15 7 16 8 17 9 8 10 7 11 6 12
REMARK SMILES IDX 5 13 4 14 3 15 2 16 1 17
REMARK H PARENT
REMARK Flexibility Score: inf
ROOT
ATOM      1  C   UNL     1      10.109 -16.664  19.502  1.00  0.00     0.000 C 
ENDROOT
BRANCH   1   2
ATOM      2  C   UNL     1       8.892 -16.461  20.419  1.00  0.00     0.000 C 
BRANCH   2   3
ATOM      3  C   UNL     1       7.636 -16.014  19.651  1.00  0.00     0.000 C 
BRANCH   3   4
ATOM      4  C   UNL     1       6.360 -16.732  20.126  1.00  0.00     0.000 C 
BRANCH   4   5
ATOM      5  C   UNL     1       5.319 -17.006  19.024  1.00  0.00     0.006 C 
BRANCH   5   6
ATOM      6  C   UNL     1       4.797 -18.448  19.036  1.00  0.00     0.053 C 
BRANCH   6   7
ATOM      7  C   UNL     1       3.302 -18.462  19.115  1.00  0.00     0.041 C 
ATOM      8  O   UNL     1       2.676 -17.425  19.461  1.00  0.00    -0.550 OA
ATOM      9  O   UNL     1       2.603 -19.634  18.856  1.00  0.00    -0.550 OA
ENDBRANCH   6   7
ENDBRANCH   5   6
ENDBRANCH   4   5
ENDBRANCH   3   4
ENDBRANCH   2   3
ENDBRANCH   1   2
BRANCH   1  10
ATOM     10  C   UNL     1      10.855 -17.976  19.804  1.00  0.00     0.000 C 
BRANCH  10  11
ATOM     11  C   UNL     1      10.576 -19.086  18.776  1.00  0.00    -0.000 C 
BRANCH  11  12
ATOM     12  C   UNL     1       9.324 -18.879  17.898  1.00  0.00    -0.000 C 
BRANCH  12  13
ATOM     13  C   UNL     1       8.044 -19.577  18.395  1.00  0.00    -0.000 C 
BRANCH  13  14
ATOM     14  C   UNL     1       8.295 -20.498  19.602  1.00  0.00    -0.000 C 
BRANCH  14  15
ATOM     15  C   UNL     1       7.256 -20.293  20.725  1.00  0.00    -0.000 C 
BRANCH  15  16
ATOM     16  C   UNL     1       7.838 -19.675  22.009  1.00  0.00    -0.003 C 
ATOM     17  C   UNL     1       9.279 -20.100  22.285  1.00  0.00     0.004 C 
ENDBRANCH  15  16
ENDBRANCH  14  15
ENDBRANCH  13  14
ENDBRANCH  12  13
ENDBRANCH  11  12
ENDBRANCH  10  11
ENDBRANCH   1  10
TORSDOF 13
ENDMDL
MODEL 5
REMARK VINA RESULT:    -2.672      1.072      3.494
REMARK INTER + INTRA:          -6.648
REMARK INTER:                  -4.863
REMARK INTRA:                  -1.785
REMARK UNBOUND:                -1.946
REMARK SMILES CCCCCCCCCCCCCCC(=O)[O-]
REMARK SMILES IDX 9 1 10 2 11 3 12 4 13 5 14 6 15 7 16 8 17 9 8 10 7 11 6 12
REMARK SMILES IDX 5 13 4 14 3 15 2 16 1 17
REMARK H PARENT
REMARK Flexibility Score: inf
ROOT
ATOM      1  C   UNL     1      10.508 -14.990  20.729  1.00  0.00     0.000 C 
ENDROOT
BRANCH   1   2
ATOM      2  C   UNL     1       9.794 -15.824  19.653  1.00  0.00     0.000 C 
BRANCH   2   3
ATOM      3  C   UNL     1       8.386 -15.297  19.328  1.00  0.00     0.000 C 
BRANCH   3   4
ATOM      4  C   UNL     1       7.466 -16.379  18.734  1.00  0.00     0.000 C 
BRANCH   4   5
ATOM      5  C   UNL     1       8.198 -17.569  18.085  1.00  0.00     0.006 C 
BRANCH   5   6
ATOM      6  C   UNL     1       7.404 -18.879  18.168  1.00  0.00     0.053 C 
BRANCH   6   7
ATOM      7  C   UNL     1       7.935 -19.744  19.267  1.00  0.00     0.041 C 
ATOM      8  O   UNL     1       8.408 -20.882  19.007  1.00  0.00    -0.550 OA
ATOM      9  O   UNL     1       7.862 -19.315  20.586  1.00  0.00    -0.550 OA
ENDBRANCH   6   7
ENDBRANCH   5   6
ENDBRANCH   4   5
ENDBRANCH   3   4
ENDBRANCH   2   3
ENDBRANCH   1   2
BRANCH   1  10
ATOM     10  C   UNL     1      11.820 -14.373  20.214  1.00  0.00     0.000 C 
BRANCH  10  11
ATOM     11  C   UNL     1      12.898 -15.420  19.884  1.00  0.00    -0.000 C 
BRANCH  11  12
ATOM     12  C   UNL     1      14.002 -15.596  20.950  1.00  0.00    -0.000 C 
BRANCH  12  13
ATOM     13  C   UNL     1      14.286 -17.049  21.373  1.00  0.00    -0.000 C 
BRANCH  13  14
ATOM     14  C   UNL     1      13.091 -17.712  22.081  1.00  0.00    -0.000 C 
BRANCH  14  15
ATOM     15  C   UNL     1      12.665 -19.031  21.403  1.00  0.00    -0.000 C 
BRANCH  15  16
ATOM     16  C   UNL     1      11.373 -18.918  20.574  1.00  0.00    -0.003 C 
ATOM     17  C   UNL     1      11.609 -19.025  19.069  1.00  0.00     0.004 C 
ENDBRANCH  15  16
ENDBRANCH  14  15
ENDBRANCH  13  14
ENDBRANCH  12  13
ENDBRANCH  11  12
ENDBRANCH  10  11
ENDBRANCH   1  10
TORSDOF 13
ENDMDL
MODEL 6
REMARK VINA RESULT:    -2.628      2.703      5.581
REMARK INTER + INTRA:          -6.571
REMARK INTER:                  -4.488
REMARK INTRA:                  -2.083
REMARK UNBOUND:                -1.946
REMARK SMILES CCCCCCCCCCCCCCC(=O)[O-]
REMARK SMILES IDX 9 1 10 2 11 3 12 4 13 5 14 6 15 7 16 8 17 9 8 10 7 11 6 12
REMARK SMILES IDX 5 13 4 14 3 15 2 16 1 17
REMARK H PARENT
REMARK Flexibility Score: inf
ROOT
ATOM      1  C   UNL     1       9.329 -16.566  21.544  1.00  0.00     0.000 C 
ENDROOT
BRANCH   1   2
ATOM      2  C   UNL     1      10.513 -15.615  21.303  1.00  0.00     0.000 C 
BRANCH   2   3
ATOM      3  C   UNL     1      11.845 -16.360  21.114  1.00  0.00     0.000 C 
BRANCH   3   4
ATOM      4  C   UNL     1      11.775 -17.438  20.017  1.00  0.00     0.000 C 
BRANCH   4   5
ATOM      5  C   UNL     1      12.205 -18.848  20.463  1.00  0.00     0.006 C 
BRANCH   5   6
ATOM      6  C   UNL     1      13.257 -18.831  21.578  1.00  0.00     0.053 C 
BRANCH   6   7
ATOM      7  C   UNL     1      12.999 -19.933  22.557  1.00  0.00     0.041 C 
ATOM      8  O   UNL     1      13.950 -20.431  23.216  1.00  0.00    -0.550 OA
ATOM      9  O   UNL     1      11.717 -20.446  22.705  1.00  0.00    -0.550 OA
ENDBRANCH   6   7
ENDBRANCH   5   6
ENDBRANCH   4   5
ENDBRANCH   3   4
ENDBRANCH   2   3
ENDBRANCH   1   2
BRANCH   1  10
ATOM     10  C   UNL     1       8.091 -16.178  20.715  1.00  0.00     0.000 C 
BRANCH  10  11
ATOM     11  C   UNL     1       8.424 -15.806  19.260  1.00  0.00    -0.000 C 
BRANCH  11  12
ATOM     12  C   UNL     1       8.718 -16.996  18.321  1.00  0.00    -0.000 C 
BRANCH  12  13
ATOM     13  C   UNL     1       7.488 -17.810  17.880  1.00  0.00    -0.000 C 
BRANCH  13  14
ATOM     14  C   UNL     1       7.473 -19.236  18.459  1.00  0.00    -0.000 C 
BRANCH  14  15
ATOM     15  C   UNL     1       8.761 -19.564  19.245  1.00  0.00    -0.000 C 
BRANCH  15  16
ATOM     16  C   UNL     1       8.509 -20.015  20.695  1.00  0.00    -0.003 C 
ATOM     17  C   UNL     1       7.060 -19.831  21.143  1.00  0.00     0.004 C 
ENDBRANCH  15  16
ENDBRANCH  14  15
ENDBRANCH  13  14
ENDBRANCH  12  13
ENDBRANCH  11  12
ENDBRANCH  10  11
ENDBRANCH   1  10
TORSDOF 13
ENDMDL
MODEL 7
REMARK VINA RESULT:    -2.623      3.185      6.203
REMARK INTER + INTRA:          -6.562
REMARK INTER:                  -4.802
REMARK INTRA:                  -1.760
REMARK UNBOUND:                -1.946
REMARK SMILES CCCCCCCCCCCCCCC(=O)[O-]
REMARK SMILES IDX 9 1 10 2 11 3 12 4 13 5 14 6 15 7 16 8 17 9 8 10 7 11 6 12
REMARK SMILES IDX 5 13 4 14 3 15 2 16 1 17
REMARK H PARENT
REMARK Flexibility Score: inf
ROOT
ATOM      1  C   UNL     1       8.343 -17.406  17.989  1.00  0.00     0.000 C 
ENDROOT
BRANCH   1   2
ATOM      2  C   UNL     1       7.686 -16.607  19.127  1.00  0.00     0.000 C 
BRANCH   2   3
ATOM      3  C   UNL     1       8.403 -15.276  19.411  1.00  0.00     0.000 C 
BRANCH   3   4
ATOM      4  C   UNL     1       9.544 -15.419  20.435  1.00  0.00     0.000 C 
BRANCH   4   5
ATOM      5  C   UNL     1      10.761 -14.509  20.184  1.00  0.00     0.006 C 
BRANCH   5   6
ATOM      6  C   UNL     1      12.011 -15.284  19.751  1.00  0.00     0.053 C 
BRANCH   6   7
ATOM      7  C   UNL     1      13.169 -14.945  20.635  1.00  0.00     0.041 C 
ATOM      8  O   UNL     1      14.188 -15.685  20.658  1.00  0.00    -0.550 OA
ATOM      9  O   UNL     1      13.103 -13.840  21.474  1.00  0.00    -0.550 OA
ENDBRANCH   6   7
ENDBRANCH   5   6
ENDBRANCH   4   5
ENDBRANCH   3   4
ENDBRANCH   2   3
ENDBRANCH   1   2
BRANCH   1  10
ATOM     10  C   UNL     1       7.777 -18.832  17.875  1.00  0.00     0.000 C 
BRANCH  10  11
ATOM     11  C   UNL     1       8.408 -19.820  18.871  1.00  0.00    -0.000 C 
BRANCH  11  12
ATOM     12  C   UNL     1       7.639 -20.010  20.196  1.00  0.00    -0.000 C 
BRANCH  12  13
ATOM     13  C   UNL     1       8.506 -20.009  21.469  1.00  0.00    -0.000 C 
BRANCH  13  14
ATOM     14  C   UNL     1       9.537 -18.867  21.491  1.00  0.00    -0.000 C 
BRANCH  14  15
ATOM     15  C   UNL     1      10.970 -19.373  21.758  1.00  0.00    -0.000 C 
BRANCH  15  16
ATOM     16  C   UNL     1      12.035 -18.745  20.841  1.00  0.00    -0.003 C 
ATOM     17  C   UNL     1      11.749 -18.949  19.354  1.00  0.00     0.004 C 
ENDBRANCH  15  16
ENDBRANCH  14  15
ENDBRANCH  13  14
ENDBRANCH  12  13
ENDBRANCH  11  12
ENDBRANCH  10  11
ENDBRANCH   1  10
TORSDOF 13
ENDMDL
MODEL 8
REMARK VINA RESULT:    -2.621      2.867      5.317
REMARK INTER + INTRA:          -6.560
REMARK INTER:                  -4.395
REMARK INTRA:                  -2.164
REMARK UNBOUND:                -1.946
REMARK SMILES CCCCCCCCCCCCCCC(=O)[O-]
REMARK SMILES IDX 9 1 10 2 11 3 12 4 13 5 14 6 15 7 16 8 17 9 8 10 7 11 6 12
REMARK SMILES IDX 5 13 4 14 3 15 2 16 1 17
REMARK H PARENT
REMARK Flexibility Score: inf
ROOT
ATOM      1  C   UNL     1       8.025 -19.396  22.410  1.00  0.00     0.000 C 
ENDROOT
BRANCH   1   2
ATOM      2  C   UNL     1       9.497 -19.014  22.187  1.00  0.00     0.000 C 
BRANCH   2   3
ATOM      3  C   UNL     1      10.471 -19.934  22.942  1.00  0.00     0.000 C 
BRANCH   3   4
ATOM      4  C   UNL     1      11.888 -19.924  22.340  1.00  0.00     0.000 C 
BRANCH   4   5
ATOM      5  C   UNL     1      12.035 -19.118  21.036  1.00  0.00     0.006 C 
BRANCH   5   6
ATOM      6  C   UNL     1      13.214 -18.138  21.064  1.00  0.00     0.053 C 
BRANCH   6   7
ATOM      7  C   UNL     1      12.720 -16.727  21.109  1.00  0.00     0.041 C 
ATOM      8  O   UNL     1      11.970 -16.347  22.047  1.00  0.00    -0.550 OA
ATOM      9  O   UNL     1      13.045 -15.843  20.088  1.00  0.00    -0.550 OA
ENDBRANCH   6   7
ENDBRANCH   5   6
ENDBRANCH   4   5
ENDBRANCH   3   4
ENDBRANCH   2   3
ENDBRANCH   1   2
BRANCH   1  10
ATOM     10  C   UNL     1       7.274 -19.624  21.086  1.00  0.00     0.000 C 
BRANCH  10  11
ATOM     11  C   UNL     1       7.989 -20.605  20.140  1.00  0.00    -0.000 C 
BRANCH  11  12
ATOM     12  C   UNL     1       8.372 -20.034  18.758  1.00  0.00    -0.000 C 
BRANCH  12  13
ATOM     13  C   UNL     1       7.496 -18.871  18.257  1.00  0.00    -0.000 C 
BRANCH  13  14
ATOM     14  C   UNL     1       8.311 -17.610  17.917  1.00  0.00    -0.000 C 
BRANCH  14  15
ATOM     15  C   UNL     1       9.494 -17.397  18.886  1.00  0.00    -0.000 C 
BRANCH  15  16
ATOM     16  C   UNL     1       9.413 -16.087  19.690  1.00  0.00    -0.003 C 
ATOM     17  C   UNL     1       8.117 -15.946  20.487  1.00  0.00     0.004 C 
ENDBRANCH  15  16
ENDBRANCH  14  15
ENDBRANCH  13  14
ENDBRANCH  12  13
ENDBRANCH  11  12
ENDBRANCH  10  11
ENDBRANCH   1  10
TORSDOF 13
ENDMDL
MODEL 9
REMARK VINA RESULT:    -2.616      2.945      5.823
REMARK INTER + INTRA:          -6.551
REMARK INTER:                  -4.547
REMARK INTRA:                  -2.004
REMARK UNBOUND:                -1.946
REMARK SMILES CCCCCCCCCCCCCCC(=O)[O-]
REMARK SMILES IDX 9 1 10 2 11 3 12 4 13 5 14 6 15 7 16 8 17 9 8 10 7 11 6 12
REMARK SMILES IDX 5 13 4 14 3 15 2 16 1 17
REMARK H PARENT
REMARK Flexibility Score: inf
ROOT
ATOM      1  C   UNL     1       8.054 -19.431  20.352  1.00  0.00     0.000 C 
ENDROOT
BRANCH   1   2
ATOM      2  C   UNL     1       8.322 -19.920  18.920  1.00  0.00     0.000 C 
BRANCH   2   3
ATOM      3  C   UNL     1       9.535 -19.232  18.272  1.00  0.00     0.000 C 
BRANCH   3   4
ATOM      4  C   UNL     1      10.363 -18.412  19.279  1.00  0.00     0.000 C 
BRANCH   4   5
ATOM      5  C   UNL     1      11.788 -18.939  19.530  1.00  0.00     0.006 C 
BRANCH   5   6
ATOM      6  C   UNL     1      12.148 -19.011  21.019  1.00  0.00     0.053 C 
BRANCH   6   7
ATOM      7  C   UNL     1      13.204 -18.005  21.351  1.00  0.00     0.041 C 
ATOM      8  O   UNL     1      13.073 -16.805  20.990  1.00  0.00    -0.550 OA
ATOM      9  O   UNL     1      14.358 -18.401  22.015  1.00  0.00    -0.550 OA
ENDBRANCH   6   7
ENDBRANCH   5   6
ENDBRANCH   4   5
ENDBRANCH   3   4
ENDBRANCH   2   3
ENDBRANCH   1   2
BRANCH   1  10
ATOM     10  C   UNL     1       6.592 -19.651  20.781  1.00  0.00     0.000 C 
BRANCH  10  11
ATOM     11  C   UNL     1       5.727 -18.384  20.672  1.00  0.00    -0.000 C 
BRANCH  11  12
ATOM     12  C   UNL     1       4.903 -18.251  19.373  1.00  0.00    -0.000 C 
BRANCH  12  13
ATOM     13  C   UNL     1       5.616 -17.541  18.207  1.00  0.00    -0.000 C 
BRANCH  13  14
ATOM     14  C   UNL     1       6.129 -16.140  18.583  1.00  0.00    -0.000 C 
BRANCH  14  15
ATOM     15  C   UNL     1       7.662 -16.019  18.447  1.00  0.00    -0.000 C 
BRANCH  15  16
ATOM     16  C   UNL     1       8.316 -15.136  19.524  1.00  0.00    -0.003 C 
ATOM     17  C   UNL     1       8.359 -15.795  20.902  1.00  0.00     0.004 C 
ENDBRANCH  15  16
ENDBRANCH  14  15
ENDBRANCH  13  14
ENDBRANCH  12  13
ENDBRANCH  11  12
ENDBRANCH  10  11
ENDBRANCH   1  10
TORSDOF 13
ENDMDL
