MODEL 1
REMARK VINA RESULT:    -3.448      0.000      0.000
REMARK INTER + INTRA:          -4.305
REMARK INTER:                  -4.153
REMARK INTRA:                  -0.152
REMARK UNBOUND:                -0.152
REMARK SMILES CC[C@H](C)[C@H]([NH3+])C(=O)[O-]
REMARK SMILES IDX 3 1 4 2 5 3 6 4 7 8 8 9 9 10 2 11 1 12
REMARK H PARENT 6 5 6 6 6 7
REMARK Flexibility Score: inf
ROOT
ATOM      1  C   UNL     1       5.134  11.930  12.761  1.00  0.00     0.050 C 
ATOM      2  C   UNL     1       4.311  11.142  13.801  1.00  0.00     0.014 C 
ENDROOT
BRANCH   1   3
ATOM      3  C   UNL     1       5.987  13.038  13.460  1.00  0.00     0.230 C 
BRANCH   3   4
ATOM      4  N   UNL     1       5.419  14.380  13.263  1.00  0.00    -0.350 N 
ATOM      5  H   UNL     1       6.179  15.092  13.170  1.00  0.00     0.345 HD
ATOM      6  H   UNL     1       4.814  14.634  14.077  1.00  0.00     0.345 HD
ATOM      7  H   UNL     1       4.810  14.396  12.413  1.00  0.00     0.345 HD
ENDBRANCH   3   4
BRANCH   3   8
ATOM      8  C   UNL     1       7.408  13.028  12.954  1.00  0.00     0.099 C 
ATOM      9  O   UNL     1       7.731  12.287  11.987  1.00  0.00    -0.544 OA
ATOM     10  O   UNL     1       8.370  13.833  13.551  1.00  0.00    -0.544 OA
ENDBRANCH   3   8
ENDBRANCH   1   3
BRANCH   1  11
ATOM     11  C   UNL     1       4.175  12.511  11.681  1.00  0.00     0.006 C 
ATOM     12  C   UNL     1       4.484  11.990  10.276  1.00  0.00     0.004 C 
ENDBRANCH   1  11
TORSDOF 4
ENDMDL
MODEL 2
REMARK VINA RESULT:    -3.400      2.023      2.278
REMARK INTER + INTRA:          -4.247
REMARK INTER:                  -4.154
REMARK INTRA:                  -0.093
REMARK UNBOUND:                -0.152
REMARK SMILES CC[C@H](C)[C@H]([NH3+])C(=O)[O-]
REMARK SMILES IDX 3 1 4 2 5 3 6 4 7 8 8 9 9 10 2 11 1 12
REMARK H PARENT 6 5 6 6 6 7
REMARK Flexibility Score: inf
ROOT
ATOM      1  C   UNL     1       6.131  12.649  13.232  1.00  0.00     0.050 C 
ATOM      2  C   UNL     1       5.335  13.752  13.958  1.00  0.00     0.014 C 
ENDROOT
BRANCH   1   3
ATOM      3  C   UNL     1       7.568  13.151  12.875  1.00  0.00     0.230 C 
BRANCH   3   4
ATOM      4  N   UNL     1       8.344  12.135  12.149  1.00  0.00    -0.350 N 
ATOM      5  H   UNL     1       9.110  11.756  12.751  1.00  0.00     0.345 HD
ATOM      6  H   UNL     1       8.766  12.556  11.289  1.00  0.00     0.345 HD
ATOM      7  H   UNL     1       7.721  11.357  11.834  1.00  0.00     0.345 HD
ENDBRANCH   3   4
BRANCH   3   8
ATOM      8  C   UNL     1       8.326  13.552  14.116  1.00  0.00     0.099 C 
ATOM      9  O   UNL     1       8.614  12.691  14.989  1.00  0.00    -0.544 OA
ATOM     10  O   UNL     1       8.709  14.874  14.307  1.00  0.00    -0.544 OA
ENDBRANCH   3   8
ENDBRANCH   1   3
BRANCH   1  11
ATOM     11  C   UNL     1       5.336  12.183  11.977  1.00  0.00     0.006 C 
ATOM     12  C   UNL     1       3.913  12.745  11.939  1.00  0.00     0.004 C 
ENDBRANCH   1  11
TORSDOF 4
ENDMDL
MODEL 3
REMARK VINA RESULT:    -3.400      1.566      1.915
REMARK INTER + INTRA:          -4.247
REMARK INTER:                  -4.110
REMARK INTRA:                  -0.136
REMARK UNBOUND:                -0.152
REMARK SMILES CC[C@H](C)[C@H]([NH3+])C(=O)[O-]
REMARK SMILES IDX 3 1 4 2 5 3 6 4 7 8 8 9 9 10 2 11 1 12
REMARK H PARENT 6 5 6 6 6 7
REMARK Flexibility Score: inf
ROOT
ATOM      1  C   UNL     1       5.475  12.634  14.109  1.00  0.00     0.050 C 
ATOM      2  C   UNL     1       5.007  13.034  15.523  1.00  0.00     0.014 C 
ENDROOT
BRANCH   1   3
ATOM      3  C   UNL     1       7.032  12.733  13.996  1.00  0.00     0.230 C 
BRANCH   3   4
ATOM      4  N   UNL     1       7.479  14.107  13.726  1.00  0.00    -0.350 N 
ATOM      5  H   UNL     1       8.298  14.107  13.075  1.00  0.00     0.345 HD
ATOM      6  H   UNL     1       7.757  14.574  14.620  1.00  0.00     0.345 HD
ATOM      7  H   UNL     1       6.700  14.670  13.317  1.00  0.00     0.345 HD
ENDBRANCH   3   4
BRANCH   3   8
ATOM      8  C   UNL     1       7.555  11.824  12.912  1.00  0.00     0.099 C 
ATOM      9  O   UNL     1       7.355  10.582  12.975  1.00  0.00    -0.544 OA
ATOM     10  O   UNL     1       8.264  12.350  11.839  1.00  0.00    -0.544 OA
ENDBRANCH   3   8
ENDBRANCH   1   3
BRANCH   1  11
ATOM     11  C   UNL     1       4.745  13.518  13.057  1.00  0.00     0.006 C 
ATOM     12  C   UNL     1       4.015  12.692  11.997  1.00  0.00     0.004 C 
ENDBRANCH   1  11
TORSDOF 4
ENDMDL
MODEL 4
REMARK VINA RESULT:    -3.344      3.054      4.058
REMARK INTER + INTRA:          -4.180
REMARK INTER:                  -4.103
REMARK INTRA:                  -0.077
REMARK UNBOUND:                -0.152
REMARK SMILES CC[C@H](C)[C@H]([NH3+])C(=O)[O-]
REMARK SMILES IDX 3 1 4 2 5 3 6 4 7 8 8 9 9 10 2 11 1 12
REMARK H PARENT 6 5 6 6 6 7
REMARK Flexibility Score: inf
ROOT
ATOM      1  C   UNL     1       5.503  11.762  11.974  1.00  0.00     0.050 C 
ATOM      2  C   UNL     1       6.982  12.123  12.221  1.00  0.00     0.014 C 
ENDROOT
BRANCH   1   3
ATOM      3  C   UNL     1       5.259  11.445  10.462  1.00  0.00     0.230 C 
BRANCH   3   4
ATOM      4  N   UNL     1       4.183  12.268   9.892  1.00  0.00    -0.350 N 
ATOM      5  H   UNL     1       3.442  12.454  10.606  1.00  0.00     0.345 HD
ATOM      6  H   UNL     1       3.751  11.775   9.077  1.00  0.00     0.345 HD
ATOM      7  H   UNL     1       4.567  13.172   9.534  1.00  0.00     0.345 HD
ENDBRANCH   3   4
BRANCH   3   8
ATOM      8  C   UNL     1       4.921   9.988  10.262  1.00  0.00     0.099 C 
ATOM      9  O   UNL     1       5.837   9.124  10.226  1.00  0.00    -0.544 OA
ATOM     10  O   UNL     1       3.598   9.590  10.114  1.00  0.00    -0.544 OA
ENDBRANCH   3   8
ENDBRANCH   1   3
BRANCH   1  11
ATOM     11  C   UNL     1       4.598  12.917  12.493  1.00  0.00     0.006 C 
ATOM     12  C   UNL     1       5.312  13.817  13.503  1.00  0.00     0.004 C 
ENDBRANCH   1  11
TORSDOF 4
ENDMDL
MODEL 5
REMARK VINA RESULT:    -3.297      2.469      3.538
REMARK INTER + INTRA:          -4.123
REMARK INTER:                  -4.162
REMARK INTRA:                   0.039
REMARK UNBOUND:                -0.152
REMARK SMILES CC[C@H](C)[C@H]([NH3+])C(=O)[O-]
REMARK SMILES IDX 3 1 4 2 5 3 6 4 7 8 8 9 9 10 2 11 1 12
REMARK H PARENT 6 5 6 6 6 7
REMARK Flexibility Score: inf
ROOT
ATOM      1  C   UNL     1       4.209  12.876  12.273  1.00  0.00     0.050 C 
ATOM      2  C   UNL     1       3.249  11.921  13.011  1.00  0.00     0.014 C 
ENDROOT
BRANCH   1   3
ATOM      3  C   UNL     1       5.026  12.104  11.185  1.00  0.00     0.230 C 
BRANCH   3   4
ATOM      4  N   UNL     1       4.360  12.128   9.875  1.00  0.00    -0.350 N 
ATOM      5  H   UNL     1       4.236  13.112   9.542  1.00  0.00     0.345 HD
ATOM      6  H   UNL     1       3.421  11.673   9.944  1.00  0.00     0.345 HD
ATOM      7  H   UNL     1       4.913  11.583   9.175  1.00  0.00     0.345 HD
ENDBRANCH   3   4
BRANCH   3   8
ATOM      8  C   UNL     1       5.253  10.670  11.595  1.00  0.00     0.099 C 
ATOM      9  O   UNL     1       6.126  10.387  12.457  1.00  0.00    -0.544 OA
ATOM     10  O   UNL     1       4.500   9.651  11.023  1.00  0.00    -0.544 OA
ENDBRANCH   3   8
ENDBRANCH   1   3
BRANCH   1  11
ATOM     11  C   UNL     1       5.126  13.587  13.311  1.00  0.00     0.006 C 
ATOM     12  C   UNL     1       4.779  13.218  14.755  1.00  0.00     0.004 C 
ENDBRANCH   1  11
TORSDOF 4
ENDMDL
MODEL 6
REMARK VINA RESULT:    -3.287      2.414      3.743
REMARK INTER + INTRA:          -4.112
REMARK INTER:                  -4.032
REMARK INTRA:                  -0.080
REMARK UNBOUND:                -0.152
REMARK SMILES CC[C@H](C)[C@H]([NH3+])C(=O)[O-]
REMARK SMILES IDX 3 1 4 2 5 3 6 4 7 8 8 9 9 10 2 11 1 12
REMARK H PARENT 6 5 6 6 6 7
REMARK Flexibility Score: inf
ROOT
ATOM      1  C   UNL     1       5.227  13.585  13.944  1.00  0.00     0.050 C 
ATOM      2  C   UNL     1       4.559  13.019  15.214  1.00  0.00     0.014 C 
ENDROOT
BRANCH   1   3
ATOM      3  C   UNL     1       5.629  12.429  12.972  1.00  0.00     0.230 C 
BRANCH   3   4
ATOM      4  N   UNL     1       7.019  12.554  12.510  1.00  0.00    -0.350 N 
ATOM      5  H   UNL     1       7.079  13.204  11.692  1.00  0.00     0.345 HD
ATOM      6  H   UNL     1       7.386  11.617  12.225  1.00  0.00     0.345 HD
ATOM      7  H   UNL     1       7.631  12.899  13.284  1.00  0.00     0.345 HD
ENDBRANCH   3   4
BRANCH   3   8
ATOM      8  C   UNL     1       4.715  12.387  11.772  1.00  0.00     0.099 C 
ATOM      9  O   UNL     1       3.568  12.903  11.831  1.00  0.00    -0.544 OA
ATOM     10  O   UNL     1       5.132  11.778  10.595  1.00  0.00    -0.544 OA
ENDBRANCH   3   8
ENDBRANCH   1   3
BRANCH   1  11
ATOM     11  C   UNL     1       6.442  14.468  14.353  1.00  0.00     0.006 C 
ATOM     12  C   UNL     1       6.409  14.870  15.829  1.00  0.00     0.004 C 
ENDBRANCH   1  11
TORSDOF 4
ENDMDL
MODEL 7
REMARK VINA RESULT:    -3.280      2.233      2.665
REMARK INTER + INTRA:          -4.103
REMARK INTER:                  -4.014
REMARK INTRA:                  -0.089
REMARK UNBOUND:                -0.152
REMARK SMILES CC[C@H](C)[C@H]([NH3+])C(=O)[O-]
REMARK SMILES IDX 3 1 4 2 5 3 6 4 7 8 8 9 9 10 2 11 1 12
REMARK H PARENT 6 5 6 6 6 7
REMARK Flexibility Score: inf
ROOT
ATOM      1  C   UNL     1       5.112  12.454  12.802  1.00  0.00     0.050 C 
ATOM      2  C   UNL     1       3.788  12.859  12.124  1.00  0.00     0.014 C 
ENDROOT
BRANCH   1   3
ATOM      3  C   UNL     1       5.762  13.682  13.520  1.00  0.00     0.230 C 
BRANCH   3   4
ATOM      4  N   UNL     1       7.205  13.774  13.258  1.00  0.00    -0.350 N 
ATOM      5  H   UNL     1       7.516  13.001  12.625  1.00  0.00     0.345 HD
ATOM      6  H   UNL     1       7.736  13.708  14.158  1.00  0.00     0.345 HD
ATOM      7  H   UNL     1       7.440  14.699  12.832  1.00  0.00     0.345 HD
ENDBRANCH   3   4
BRANCH   3   8
ATOM      8  C   UNL     1       5.536  13.620  15.010  1.00  0.00     0.099 C 
ATOM      9  O   UNL     1       5.912  14.569  15.748  1.00  0.00    -0.544 OA
ATOM     10  O   UNL     1       4.913  12.516  15.579  1.00  0.00    -0.544 OA
ENDBRANCH   3   8
ENDBRANCH   1   3
BRANCH   1  11
ATOM     11  C   UNL     1       6.057  11.816  11.742  1.00  0.00     0.006 C 
ATOM     12  C   UNL     1       5.343  11.508  10.425  1.00  0.00     0.004 C 
ENDBRANCH   1  11
TORSDOF 4
ENDMDL
MODEL 8
REMARK VINA RESULT:    -3.274      1.870      2.747
REMARK INTER + INTRA:          -4.096
REMARK INTER:                  -3.944
REMARK INTRA:                  -0.152
REMARK UNBOUND:                -0.152
REMARK SMILES CC[C@H](C)[C@H]([NH3+])C(=O)[O-]
REMARK SMILES IDX 3 1 4 2 5 3 6 4 7 8 8 9 9 10 2 11 1 12
REMARK H PARENT 6 5 6 6 6 7
REMARK Flexibility Score: inf
ROOT
ATOM      1  C   UNL     1       5.000  12.868  13.118  1.00  0.00     0.050 C 
ATOM      2  C   UNL     1       3.944  12.801  11.996  1.00  0.00     0.014 C 
ENDROOT
BRANCH   1   3
ATOM      3  C   UNL     1       6.188  11.898  12.816  1.00  0.00     0.230 C 
BRANCH   3   4
ATOM      4  N   UNL     1       6.012  10.590  13.465  1.00  0.00    -0.350 N 
ATOM      5  H   UNL     1       5.574  10.703  14.408  1.00  0.00     0.345 HD
ATOM      6  H   UNL     1       6.940  10.121  13.577  1.00  0.00     0.345 HD
ATOM      7  H   UNL     1       5.422   9.965  12.871  1.00  0.00     0.345 HD
ENDBRANCH   3   4
BRANCH   3   8
ATOM      8  C   UNL     1       7.501  12.493  13.260  1.00  0.00     0.099 C 
ATOM      9  O   UNL     1       8.113  13.305  12.516  1.00  0.00    -0.544 OA
ATOM     10  O   UNL     1       8.045  12.151  14.492  1.00  0.00    -0.544 OA
ENDBRANCH   3   8
ENDBRANCH   1   3
BRANCH   1  11
ATOM     11  C   UNL     1       4.317  12.565  14.484  1.00  0.00     0.006 C 
ATOM     12  C   UNL     1       4.792  13.497  15.601  1.00  0.00     0.004 C 
ENDBRANCH   1  11
TORSDOF 4
ENDMDL
MODEL 9
REMARK VINA RESULT:    -3.246      3.024      3.839
REMARK INTER + INTRA:          -4.062
REMARK INTER:                  -3.973
REMARK INTRA:                  -0.089
REMARK UNBOUND:                -0.152
REMARK SMILES CC[C@H](C)[C@H]([NH3+])C(=O)[O-]
REMARK SMILES IDX 3 1 4 2 5 3 6 4 7 8 8 9 9 10 2 11 1 12
REMARK H PARENT 6 5 6 6 6 7
REMARK Flexibility Score: inf
ROOT
ATOM      1  C   UNL     1       6.145  13.920  15.015  1.00  0.00     0.050 C 
ATOM      2  C   UNL     1       5.035  13.886  16.085  1.00  0.00     0.014 C 
ENDROOT
BRANCH   1   3
ATOM      3  C   UNL     1       7.128  15.107  15.280  1.00  0.00     0.230 C 
BRANCH   3   4
ATOM      4  N   UNL     1       8.200  15.171  14.276  1.00  0.00    -0.350 N 
ATOM      5  H   UNL     1       8.998  14.553  14.549  1.00  0.00     0.345 HD
ATOM      6  H   UNL     1       8.547  16.154  14.188  1.00  0.00     0.345 HD
ATOM      7  H   UNL     1       7.837  14.890  13.337  1.00  0.00     0.345 HD
ENDBRANCH   3   4
BRANCH   3   8
ATOM      8  C   UNL     1       7.746  15.003  16.652  1.00  0.00     0.099 C 
ATOM      9  O   UNL     1       7.640  15.955  17.470  1.00  0.00    -0.544 OA
ATOM     10  O   UNL     1       8.438  13.857  17.023  1.00  0.00    -0.544 OA
ENDBRANCH   3   8
ENDBRANCH   1   3
BRANCH   1  11
ATOM     11  C   UNL     1       5.495  13.990  13.603  1.00  0.00     0.006 C 
ATOM     12  C   UNL     1       4.522  12.838  13.343  1.00  0.00     0.004 C 
ENDBRANCH   1  11
TORSDOF 4
ENDMDL
