MODEL 1
REMARK VINA RESULT:    -1.945      0.000      0.000
REMARK INTER + INTRA:          -4.489
REMARK INTER:                  -3.196
REMARK INTRA:                  -1.292
REMARK UNBOUND:                -1.292
REMARK SMILES C[C@H]1O[C@@H](OC[C@@H]2O[C@@H](Oc3c(-c4ccc(O)c(O)c4)oc4cc(O)cc(O)c4c3=O)[C@@H](O)[C@@H](O)[C@H]2O)[C@H](O)[C@H](O)[C@@H]1O
REMARK SMILES IDX 7 1 36 2 34 3 32 4 9 5 8 6 6 7 5 8 4 9 1 10 2 11 42 12 3 13
REMARK SMILES IDX 40 14 38 15 43 16 41 18 39 20 37 22 35 24 10 26 11 27 12 28
REMARK SMILES IDX 30 29 21 30 29 31 31 32 22 33 27 34 23 35 26 36 24 37 13 38
REMARK SMILES IDX 20 39 14 40 18 41 15 42 16 43 19 44 17 46 28 48 25 50 33 52
REMARK H PARENT 43 17 41 19 39 21 37 23 35 25 19 45 17 47 28 49 25 51 33 53
REMARK Flexibility Score: inf
ROOT
ATOM      1  C   UNL     1      -8.480   1.058   9.749  1.00  0.00     0.180 C 
ATOM      2  C   UNL     1      -9.105   0.186  10.991  1.00  0.00     0.177 C 
ATOM      3  C   UNL     1      -8.189  -1.034  11.029  1.00  0.00     0.180 C 
ATOM      4  C   UNL     1      -8.389  -1.798   9.725  1.00  0.00     0.214 C 
ATOM      5  C   UNL     1      -8.196  -0.991   8.394  1.00  0.00     0.339 C 
ATOM      6  O   UNL     1      -7.799   0.423   8.605  1.00  0.00    -0.332 OA
ENDROOT
BRANCH   1   7
ATOM      7  C   UNL     1      -9.121   2.548   9.550  1.00  0.00     0.198 C 
BRANCH   7   8
ATOM      8  O   UNL     1      -8.302   3.569  10.062  1.00  0.00    -0.347 OA
BRANCH   8   9
ATOM      9  C   UNL     1      -7.426   4.234   9.120  1.00  0.00     0.281 C 
ATOM     10  C   UNL     1      -6.275   4.344  12.124  1.00  0.00     0.041 C 
ATOM     11  C   UNL     1      -6.676   5.458  11.055  1.00  0.00     0.150 C 
ATOM     12  C   UNL     1      -8.221   5.801  11.152  1.00  0.00     0.174 C 
ATOM     13  O   UNL     1      -6.304   4.845   9.815  1.00  0.00    -0.344 OA
ATOM     14  C   UNL     1      -8.927   6.056   9.768  1.00  0.00     0.179 C 
ATOM     15  C   UNL     1      -8.286   5.287   8.525  1.00  0.00     0.202 C 
BRANCH  12  16
ATOM     16  O   UNL     1      -8.565   6.772  12.124  1.00  0.00    -0.388 OA
ATOM     17  H   UNL     1      -8.676   6.329  13.050  1.00  0.00     0.211 HD
ENDBRANCH  12  16
BRANCH  14  18
ATOM     18  O   UNL     1      -9.122   7.431   9.454  1.00  0.00    -0.387 OA
ATOM     19  H   UNL     1      -9.713   7.814  10.134  1.00  0.00     0.211 HD
ENDBRANCH  14  18
BRANCH  15  20
ATOM     20  O   UNL     1      -7.520   6.034   7.616  1.00  0.00    -0.385 OA
ATOM     21  H   UNL     1      -8.082   6.219   6.774  1.00  0.00     0.211 HD
ENDBRANCH  15  20
ENDBRANCH   8   9
ENDBRANCH   7   8
ENDBRANCH   1   7
BRANCH   2  22
ATOM     22  O   UNL     1      -8.841   0.916  12.123  1.00  0.00    -0.387 OA
ATOM     23  H   UNL     1      -7.924   0.592  12.430  1.00  0.00     0.211 HD
ENDBRANCH   2  22
BRANCH   3  24
ATOM     24  O   UNL     1      -6.863  -0.508  11.256  1.00  0.00    -0.387 OA
ATOM     25  H   UNL     1      -6.684   0.266  10.586  1.00  0.00     0.211 HD
ENDBRANCH   3  24
BRANCH   5  26
ATOM     26  O   UNL     1      -7.259  -1.767   7.579  1.00  0.00    -0.454 OA
BRANCH  26  27
ATOM     27  C   UNL     1      -6.856  -2.965   6.873  1.00  0.00     0.214 A 
ATOM     28  C   UNL     1      -5.468  -3.341   6.972  1.00  0.00     0.180 A 
ATOM     29  C   UNL     1      -7.703  -3.747   6.014  1.00  0.00     0.239 A 
ATOM     30  O   UNL     1      -5.021  -4.406   6.393  1.00  0.00    -0.452 OA
ATOM     31  C   UNL     1      -7.031  -4.632   5.134  1.00  0.00     0.111 A 
ATOM     32  O   UNL     1      -8.906  -3.457   5.853  1.00  0.00    -0.285 OA
ATOM     33  C   UNL     1      -5.643  -4.930   5.328  1.00  0.00     0.146 A 
ATOM     34  C   UNL     1      -7.627  -5.125   3.950  1.00  0.00     0.134 A 
ATOM     35  C   UNL     1      -4.891  -5.562   4.355  1.00  0.00     0.094 A 
ATOM     36  C   UNL     1      -6.838  -5.623   2.857  1.00  0.00     0.093 A 
ATOM     37  C   UNL     1      -5.426  -5.603   3.078  1.00  0.00     0.123 A 
BRANCH  28  38
ATOM     38  C   UNL     1      -4.432  -2.350   7.214  1.00  0.00     0.025 A 
ATOM     39  C   UNL     1      -3.286  -2.465   6.524  1.00  0.00     0.062 A 
ATOM     40  C   UNL     1      -4.332  -1.765   8.519  1.00  0.00     0.016 A 
ATOM     41  C   UNL     1      -2.130  -1.763   6.876  1.00  0.00     0.158 A 
ATOM     42  C   UNL     1      -3.198  -1.273   8.985  1.00  0.00     0.051 A 
ATOM     43  C   UNL     1      -2.070  -1.136   8.133  1.00  0.00     0.157 A 
BRANCH  41  44
ATOM     44  O   UNL     1      -1.286  -1.422   5.806  1.00  0.00    -0.504 OA
ATOM     45  H   UNL     1      -1.109  -0.492   5.543  1.00  0.00     0.293 HD
ENDBRANCH  41  44
BRANCH  43  46
ATOM     46  O   UNL     1      -0.907  -0.518   8.609  1.00  0.00    -0.504 OA
ATOM     47  H   UNL     1      -0.270  -0.010   7.982  1.00  0.00     0.293 HD
ENDBRANCH  43  46
ENDBRANCH  28  38
BRANCH  34  48
ATOM     48  O   UNL     1      -9.035  -5.238   3.763  1.00  0.00    -0.507 OA
ATOM     49  H   UNL     1      -9.484  -5.316   2.848  1.00  0.00     0.293 HD
ENDBRANCH  34  48
BRANCH  37  50
ATOM     50  O   UNL     1      -4.596  -5.657   1.903  1.00  0.00    -0.508 OA
ATOM     51  H   UNL     1      -3.828  -4.972   1.890  1.00  0.00     0.293 HD
ENDBRANCH  37  50
ENDBRANCH  26  27
ENDBRANCH   5  26
BRANCH   4  52
ATOM     52  O   UNL     1      -7.601  -2.947   9.812  1.00  0.00    -0.384 OA
ATOM     53  H   UNL     1      -6.979  -2.834  10.597  1.00  0.00     0.211 HD
ENDBRANCH   4  52
TORSDOF 16
ENDMDL
MODEL 2
REMARK VINA RESULT:    -1.925     14.282     18.214
REMARK INTER + INTRA:          -4.455
REMARK INTER:                  -5.099
REMARK INTRA:                   0.644
REMARK UNBOUND:                -1.292
REMARK SMILES C[C@H]1O[C@@H](OC[C@@H]2O[C@@H](Oc3c(-c4ccc(O)c(O)c4)oc4cc(O)cc(O)c4c3=O)[C@@H](O)[C@@H](O)[C@H]2O)[C@H](O)[C@H](O)[C@@H]1O
REMARK SMILES IDX 7 1 36 2 34 3 32 4 9 5 8 6 6 7 5 8 4 9 1 10 2 11 42 12 3 13
REMARK SMILES IDX 40 14 38 15 43 16 41 18 39 20 37 22 35 24 10 26 11 27 12 28
REMARK SMILES IDX 30 29 21 30 29 31 31 32 22 33 27 34 23 35 26 36 24 37 13 38
REMARK SMILES IDX 20 39 14 40 18 41 15 42 16 43 19 44 17 46 28 48 25 50 33 52
REMARK H PARENT 43 17 41 19 39 21 37 23 35 25 19 45 17 47 28 49 25 51 33 53
REMARK Flexibility Score: inf
ROOT
ATOM      1  C   UNL     1       9.029  -2.594   5.640  1.00  0.00     0.180 C 
ATOM      2  C   UNL     1       7.397  -2.764   5.602  1.00  0.00     0.177 C 
ATOM      3  C   UNL     1       6.945  -1.447   4.977  1.00  0.00     0.180 C 
ATOM      4  C   UNL     1       7.314  -0.329   5.945  1.00  0.00     0.214 C 
ATOM      5  C   UNL     1       8.813  -0.250   6.399  1.00  0.00     0.339 C 
ATOM      6  O   UNL     1       9.681  -1.278   5.773  1.00  0.00    -0.332 OA
ENDROOT
BRANCH   1   7
ATOM      7  C   UNL     1       9.858  -3.929   6.089  1.00  0.00     0.198 C 
BRANCH   7   8
ATOM      8  O   UNL     1       9.082  -5.099   6.034  1.00  0.00    -0.347 OA
BRANCH   8   9
ATOM      9  C   UNL     1       9.714  -6.322   6.481  1.00  0.00     0.281 C 
ATOM     10  C   UNL     1       7.708  -6.834   4.017  1.00  0.00     0.041 C 
ATOM     11  C   UNL     1       7.785  -7.389   5.510  1.00  0.00     0.150 C 
ATOM     12  C   UNL     1       7.030  -6.419   6.511  1.00  0.00     0.174 C 
ATOM     13  O   UNL     1       9.196  -7.462   5.741  1.00  0.00    -0.344 OA
ATOM     14  C   UNL     1       7.729  -6.243   7.911  1.00  0.00     0.179 C 
ATOM     15  C   UNL     1       9.315  -6.422   7.908  1.00  0.00     0.202 C 
BRANCH  12  16
ATOM     16  O   UNL     1       5.634  -6.632   6.624  1.00  0.00    -0.388 OA
ATOM     17  H   UNL     1       5.193  -5.854   7.139  1.00  0.00     0.211 HD
ENDBRANCH  12  16
BRANCH  14  18
ATOM     18  O   UNL     1       7.145  -7.011   8.958  1.00  0.00    -0.387 OA
ATOM     19  H   UNL     1       7.502  -7.921   8.898  1.00  0.00     0.211 HD
ENDBRANCH  14  18
BRANCH  15  20
ATOM     20  O   UNL     1       9.842  -7.608   8.441  1.00  0.00    -0.385 OA
ATOM     21  H   UNL     1      10.763  -7.411   8.856  1.00  0.00     0.211 HD
ENDBRANCH  15  20
ENDBRANCH   8   9
ENDBRANCH   7   8
ENDBRANCH   1   7
BRANCH   2  22
ATOM     22  O   UNL     1       7.150  -3.747   4.677  1.00  0.00    -0.387 OA
ATOM     23  H   UNL     1       7.856  -4.459   4.864  1.00  0.00     0.211 HD
ENDBRANCH   2  22
BRANCH   3  24
ATOM     24  O   UNL     1       7.586  -1.399   3.683  1.00  0.00    -0.387 OA
ATOM     25  H   UNL     1       6.872  -1.192   2.957  1.00  0.00     0.211 HD
ENDBRANCH   3  24
BRANCH   5  26
ATOM     26  O   UNL     1       9.240   1.129   6.160  1.00  0.00    -0.454 OA
BRANCH  26  27
ATOM     27  C   UNL     1       9.604   2.457   6.605  1.00  0.00     0.214 A 
ATOM     28  C   UNL     1      10.712   2.554   7.523  1.00  0.00     0.180 A 
ATOM     29  C   UNL     1       8.896   3.666   6.280  1.00  0.00     0.239 A 
ATOM     30  O   UNL     1      11.122   3.699   7.959  1.00  0.00    -0.452 OA
ATOM     31  C   UNL     1       9.176   4.781   7.110  1.00  0.00     0.111 A 
ATOM     32  O   UNL     1       7.906   3.651   5.521  1.00  0.00    -0.285 OA
ATOM     33  C   UNL     1      10.306   4.762   7.991  1.00  0.00     0.146 A 
ATOM     34  C   UNL     1       8.288   5.874   7.240  1.00  0.00     0.134 A 
ATOM     35  C   UNL     1      10.461   5.697   8.997  1.00  0.00     0.094 A 
ATOM     36  C   UNL     1       8.329   6.750   8.378  1.00  0.00     0.093 A 
ATOM     37  C   UNL     1       9.345   6.442   9.336  1.00  0.00     0.123 A 
BRANCH  28  38
ATOM     38  C   UNL     1      11.055   1.454   8.411  1.00  0.00     0.025 A 
ATOM     39  C   UNL     1      10.762   0.209   8.003  1.00  0.00     0.062 A 
ATOM     40  C   UNL     1      11.032   1.680   9.826  1.00  0.00     0.016 A 
ATOM     41  C   UNL     1      10.774  -0.883   8.874  1.00  0.00     0.158 A 
ATOM     42  C   UNL     1      10.833   0.703  10.693  1.00  0.00     0.051 A 
ATOM     43  C   UNL     1      10.819  -0.649  10.260  1.00  0.00     0.157 A 
BRANCH  41  44
ATOM     44  O   UNL     1      11.125  -2.113   8.291  1.00  0.00    -0.504 OA
ATOM     45  H   UNL     1      11.192  -2.241   7.320  1.00  0.00     0.293 HD
ENDBRANCH  41  44
BRANCH  43  46
ATOM     46  O   UNL     1      10.713  -1.682  11.200  1.00  0.00    -0.504 OA
ATOM     47  H   UNL     1      10.155  -2.525  11.015  1.00  0.00     0.293 HD
ENDBRANCH  43  46
ENDBRANCH  28  38
BRANCH  34  48
ATOM     48  O   UNL     1       7.339   6.243   6.243  1.00  0.00    -0.507 OA
ATOM     49  H   UNL     1       7.583   6.721   5.373  1.00  0.00     0.293 HD
ENDBRANCH  34  48
BRANCH  37  50
ATOM     50  O   UNL     1       9.155   6.976  10.660  1.00  0.00    -0.508 OA
ATOM     51  H   UNL     1       8.189   7.264  10.870  1.00  0.00     0.293 HD
ENDBRANCH  37  50
ENDBRANCH  26  27
ENDBRANCH   5  26
BRANCH   4  52
ATOM     52  O   UNL     1       6.826   0.855   5.391  1.00  0.00    -0.384 OA
ATOM     53  H   UNL     1       5.876   0.689   5.096  1.00  0.00     0.211 HD
ENDBRANCH   4  52
TORSDOF 16
ENDMDL
MODEL 3
REMARK VINA RESULT:    -1.418     14.189     16.904
REMARK INTER + INTRA:          -3.622
REMARK INTER:                  -2.257
REMARK INTRA:                  -1.365
REMARK UNBOUND:                -1.292
REMARK SMILES C[C@H]1O[C@@H](OC[C@@H]2O[C@@H](Oc3c(-c4ccc(O)c(O)c4)oc4cc(O)cc(O)c4c3=O)[C@@H](O)[C@@H](O)[C@H]2O)[C@H](O)[C@H](O)[C@@H]1O
REMARK SMILES IDX 7 1 36 2 34 3 32 4 9 5 8 6 6 7 5 8 4 9 1 10 2 11 42 12 3 13
REMARK SMILES IDX 40 14 38 15 43 16 41 18 39 20 37 22 35 24 10 26 11 27 12 28
REMARK SMILES IDX 30 29 21 30 29 31 31 32 22 33 27 34 23 35 26 36 24 37 13 38
REMARK SMILES IDX 20 39 14 40 18 41 15 42 16 43 19 44 17 46 28 48 25 50 33 52
REMARK H PARENT 43 17 41 19 39 21 37 23 35 25 19 45 17 47 28 49 25 51 33 53
REMARK Flexibility Score: inf
ROOT
ATOM      1  C   UNL     1       8.909   0.575   6.546  1.00  0.00     0.180 C 
ATOM      2  C   UNL     1       7.867   0.752   5.290  1.00  0.00     0.177 C 
ATOM      3  C   UNL     1       7.211  -0.624   5.212  1.00  0.00     0.180 C 
ATOM      4  C   UNL     1       8.294  -1.627   4.832  1.00  0.00     0.214 C 
ATOM      5  C   UNL     1       9.574  -1.666   5.737  1.00  0.00     0.339 C 
ATOM      6  O   UNL     1       9.524  -0.723   6.882  1.00  0.00    -0.332 OA
ENDROOT
BRANCH   1   7
ATOM      7  C   UNL     1       9.655   1.945   7.031  1.00  0.00     0.198 C 
BRANCH   7   8
ATOM      8  O   UNL     1       8.898   3.101   6.773  1.00  0.00    -0.347 OA
BRANCH   8   9
ATOM      9  C   UNL     1       9.283   4.303   7.482  1.00  0.00     0.281 C 
ATOM     10  C   UNL     1       6.393   4.594   6.096  1.00  0.00     0.041 C 
ATOM     11  C   UNL     1       7.767   5.394   5.961  1.00  0.00     0.150 C 
ATOM     12  C   UNL     1       8.713   4.711   4.888  1.00  0.00     0.174 C 
ATOM     13  O   UNL     1       8.286   5.345   7.295  1.00  0.00    -0.344 OA
ATOM     14  C   UNL     1      10.242   4.709   5.266  1.00  0.00     0.179 C 
ATOM     15  C   UNL     1      10.557   4.701   6.831  1.00  0.00     0.202 C 
BRANCH  12  16
ATOM     16  O   UNL     1       8.487   5.099   3.545  1.00  0.00    -0.388 OA
ATOM     17  H   UNL     1       9.348   5.492   3.135  1.00  0.00     0.211 HD
ENDBRANCH  12  16
BRANCH  14  18
ATOM     18  O   UNL     1      11.009   5.713   4.611  1.00  0.00    -0.387 OA
ATOM     19  H   UNL     1      11.626   5.266   3.995  1.00  0.00     0.211 HD
ENDBRANCH  14  18
BRANCH  15  20
ATOM     20  O   UNL     1      11.008   5.894   7.415  1.00  0.00    -0.385 OA
ATOM     21  H   UNL     1      11.960   5.753   7.780  1.00  0.00     0.211 HD
ENDBRANCH  15  20
ENDBRANCH   8   9
ENDBRANCH   7   8
ENDBRANCH   1   7
BRANCH   2  22
ATOM     22  O   UNL     1       6.905   1.626   5.730  1.00  0.00    -0.387 OA
ATOM     23  H   UNL     1       7.286   2.016   6.592  1.00  0.00     0.211 HD
ENDBRANCH   2  22
BRANCH   3  24
ATOM     24  O   UNL     1       6.589  -0.823   6.500  1.00  0.00    -0.387 OA
ATOM     25  H   UNL     1       5.614  -1.155   6.359  1.00  0.00     0.211 HD
ENDBRANCH   3  24
BRANCH   5  26
ATOM     26  O   UNL     1       9.763  -3.067   6.116  1.00  0.00    -0.454 OA
BRANCH  26  27
ATOM     27  C   UNL     1      10.348  -4.110   6.932  1.00  0.00     0.214 A 
ATOM     28  C   UNL     1      10.588  -5.379   6.291  1.00  0.00     0.180 A 
ATOM     29  C   UNL     1      10.617  -4.009   8.341  1.00  0.00     0.239 A 
ATOM     30  O   UNL     1      11.125  -6.362   6.935  1.00  0.00    -0.452 OA
ATOM     31  C   UNL     1      10.821  -5.241   9.014  1.00  0.00     0.111 A 
ATOM     32  O   UNL     1      10.398  -2.953   8.968  1.00  0.00    -0.285 OA
ATOM     33  C   UNL     1      11.046  -6.444   8.270  1.00  0.00     0.146 A 
ATOM     34  C   UNL     1      10.648  -5.380  10.412  1.00  0.00     0.134 A 
ATOM     35  C   UNL     1      10.980  -7.690   8.864  1.00  0.00     0.094 A 
ATOM     36  C   UNL     1      10.403  -6.660  11.018  1.00  0.00     0.093 A 
ATOM     37  C   UNL     1      10.375  -7.760  10.107  1.00  0.00     0.123 A 
BRANCH  28  38
ATOM     38  C   UNL     1       9.793  -5.813   5.153  1.00  0.00     0.025 A 
ATOM     39  C   UNL     1      10.069  -5.271   3.957  1.00  0.00     0.062 A 
ATOM     40  C   UNL     1       8.431  -6.201   5.376  1.00  0.00     0.016 A 
ATOM     41  C   UNL     1       9.201  -5.385   2.869  1.00  0.00     0.158 A 
ATOM     42  C   UNL     1       7.514  -6.127   4.428  1.00  0.00     0.051 A 
ATOM     43  C   UNL     1       7.886  -5.832   3.089  1.00  0.00     0.157 A 
BRANCH  41  44
ATOM     44  O   UNL     1       9.820  -5.412   1.607  1.00  0.00    -0.504 OA
ATOM     45  H   UNL     1       9.976  -6.243   1.109  1.00  0.00     0.293 HD
ENDBRANCH  41  44
BRANCH  43  46
ATOM     46  O   UNL     1       6.921  -5.859   2.075  1.00  0.00    -0.504 OA
ATOM     47  H   UNL     1       7.041  -6.433   1.231  1.00  0.00     0.293 HD
ENDBRANCH  43  46
ENDBRANCH  28  38
BRANCH  34  48
ATOM     48  O   UNL     1      10.772  -4.302  11.334  1.00  0.00    -0.507 OA
ATOM     49  H   UNL     1      11.631  -4.084  11.845  1.00  0.00     0.293 HD
ENDBRANCH  34  48
BRANCH  37  50
ATOM     50  O   UNL     1       9.710  -8.952  10.567  1.00  0.00    -0.508 OA
ATOM     51  H   UNL     1       8.688  -8.863  10.655  1.00  0.00     0.293 HD
ENDBRANCH  37  50
ENDBRANCH  26  27
ENDBRANCH   5  26
BRANCH   4  52
ATOM     52  O   UNL     1       7.660  -2.863   4.692  1.00  0.00    -0.384 OA
ATOM     53  H   UNL     1       7.660  -3.100   3.712  1.00  0.00     0.211 HD
ENDBRANCH   4  52
TORSDOF 16
ENDMDL
MODEL 4
REMARK VINA RESULT:    -1.137     14.681     16.888
REMARK INTER + INTRA:          -3.160
REMARK INTER:                  -1.492
REMARK INTRA:                  -1.668
REMARK UNBOUND:                -1.292
REMARK SMILES C[C@H]1O[C@@H](OC[C@@H]2O[C@@H](Oc3c(-c4ccc(O)c(O)c4)oc4cc(O)cc(O)c4c3=O)[C@@H](O)[C@@H](O)[C@H]2O)[C@H](O)[C@H](O)[C@@H]1O
REMARK SMILES IDX 7 1 36 2 34 3 32 4 9 5 8 6 6 7 5 8 4 9 1 10 2 11 42 12 3 13
REMARK SMILES IDX 40 14 38 15 43 16 41 18 39 20 37 22 35 24 10 26 11 27 12 28
REMARK SMILES IDX 30 29 21 30 29 31 31 32 22 33 27 34 23 35 26 36 24 37 13 38
REMARK SMILES IDX 20 39 14 40 18 41 15 42 16 43 19 44 17 46 28 48 25 50 33 52
REMARK H PARENT 43 17 41 19 39 21 37 23 35 25 19 45 17 47 28 49 25 51 33 53
REMARK Flexibility Score: inf
ROOT
ATOM      1  C   UNL     1       9.112   0.554   6.708  1.00  0.00     0.180 C 
ATOM      2  C   UNL     1       8.157   0.855   5.407  1.00  0.00     0.177 C 
ATOM      3  C   UNL     1       7.385  -0.453   5.259  1.00  0.00     0.180 C 
ATOM      4  C   UNL     1       8.391  -1.543   4.906  1.00  0.00     0.214 C 
ATOM      5  C   UNL     1       9.614  -1.719   5.872  1.00  0.00     0.339 C 
ATOM      6  O   UNL     1       9.590  -0.801   7.038  1.00  0.00    -0.332 OA
ENDROOT
BRANCH   1   7
ATOM      7  C   UNL     1       9.953   1.839   7.267  1.00  0.00     0.198 C 
BRANCH   7   8
ATOM      8  O   UNL     1       9.420   3.068   6.841  1.00  0.00    -0.347 OA
BRANCH   8   9
ATOM      9  C   UNL     1      10.181   3.799   5.850  1.00  0.00     0.281 C 
ATOM     10  C   UNL     1      11.125   4.495   8.847  1.00  0.00     0.041 C 
ATOM     11  C   UNL     1      10.550   5.367   7.641  1.00  0.00     0.150 C 
ATOM     12  C   UNL     1       8.965   5.373   7.656  1.00  0.00     0.174 C 
ATOM     13  O   UNL     1      11.108   4.716   6.494  1.00  0.00    -0.344 OA
ATOM     14  C   UNL     1       8.292   5.309   6.233  1.00  0.00     0.179 C 
ATOM     15  C   UNL     1       9.147   4.564   5.109  1.00  0.00     0.202 C 
BRANCH  12  16
ATOM     16  O   UNL     1       8.370   6.347   8.494  1.00  0.00    -0.388 OA
ATOM     17  H   UNL     1       7.852   7.038   7.930  1.00  0.00     0.211 HD
ENDBRANCH  12  16
BRANCH  14  18
ATOM     18  O   UNL     1       7.823   6.564   5.750  1.00  0.00    -0.387 OA
ATOM     19  H   UNL     1       6.845   6.528   5.721  1.00  0.00     0.211 HD
ENDBRANCH  14  18
BRANCH  15  20
ATOM     20  O   UNL     1       9.780   5.354   4.137  1.00  0.00    -0.385 OA
ATOM     21  H   UNL     1      10.039   6.259   4.554  1.00  0.00     0.211 HD
ENDBRANCH  15  20
ENDBRANCH   8   9
ENDBRANCH   7   8
ENDBRANCH   1   7
BRANCH   2  22
ATOM     22  O   UNL     1       7.256   1.803   5.823  1.00  0.00    -0.387 OA
ATOM     23  H   UNL     1       6.601   1.893   5.047  1.00  0.00     0.211 HD
ENDBRANCH   2  22
BRANCH   3  24
ATOM     24  O   UNL     1       6.681  -0.624   6.509  1.00  0.00    -0.387 OA
ATOM     25  H   UNL     1       6.564  -1.640   6.697  1.00  0.00     0.211 HD
ENDBRANCH   3  24
BRANCH   5  26
ATOM     26  O   UNL     1       9.656  -3.139   6.221  1.00  0.00    -0.454 OA
BRANCH  26  27
ATOM     27  C   UNL     1      10.169  -4.262   6.977  1.00  0.00     0.214 A 
ATOM     28  C   UNL     1      10.243  -5.528   6.291  1.00  0.00     0.180 A 
ATOM     29  C   UNL     1      10.519  -4.235   8.372  1.00  0.00     0.239 A 
ATOM     30  O   UNL     1      10.706  -6.581   6.879  1.00  0.00    -0.452 OA
ATOM     31  C   UNL     1      10.627  -5.501   9.000  1.00  0.00     0.111 A 
ATOM     32  O   UNL     1      10.444  -3.181   9.037  1.00  0.00    -0.285 OA
ATOM     33  C   UNL     1      10.687  -6.697   8.213  1.00  0.00     0.146 A 
ATOM     34  C   UNL     1      10.513  -5.666  10.401  1.00  0.00     0.134 A 
ATOM     35  C   UNL     1      10.522  -7.948   8.777  1.00  0.00     0.094 A 
ATOM     36  C   UNL     1      10.166  -6.932  10.986  1.00  0.00     0.093 A 
ATOM     37  C   UNL     1       9.977  -7.995  10.049  1.00  0.00     0.123 A 
BRANCH  28  38
ATOM     38  C   UNL     1       9.349  -5.842   5.187  1.00  0.00     0.025 A 
ATOM     39  C   UNL     1       8.613  -6.960   5.279  1.00  0.00     0.062 A 
ATOM     40  C   UNL     1       9.724  -5.436   3.864  1.00  0.00     0.016 A 
ATOM     41  C   UNL     1       7.952  -7.510   4.179  1.00  0.00     0.158 A 
ATOM     42  C   UNL     1       9.290  -6.062   2.785  1.00  0.00     0.051 A 
ATOM     43  C   UNL     1       8.280  -7.056   2.889  1.00  0.00     0.157 A 
BRANCH  41  44
ATOM     44  O   UNL     1       6.757  -8.188   4.473  1.00  0.00    -0.504 OA
ATOM     45  H   UNL     1       5.899  -7.725   4.598  1.00  0.00     0.293 HD
ENDBRANCH  41  44
BRANCH  43  46
ATOM     46  O   UNL     1       7.754  -7.639   1.729  1.00  0.00    -0.504 OA
ATOM     47  H   UNL     1       7.921  -7.235   0.799  1.00  0.00     0.293 HD
ENDBRANCH  43  46
ENDBRANCH  28  38
BRANCH  34  48
ATOM     48  O   UNL     1      10.796  -4.636  11.343  1.00  0.00    -0.507 OA
ATOM     49  H   UNL     1      10.441  -4.628  12.302  1.00  0.00     0.293 HD
ENDBRANCH  34  48
BRANCH  37  50
ATOM     50  O   UNL     1       9.215  -9.125  10.513  1.00  0.00    -0.508 OA
ATOM     51  H   UNL     1       9.698 -10.030  10.428  1.00  0.00     0.293 HD
ENDBRANCH  37  50
ENDBRANCH  26  27
ENDBRANCH   5  26
BRANCH   4  52
ATOM     52  O   UNL     1       7.656  -2.711   4.701  1.00  0.00    -0.384 OA
ATOM     53  H   UNL     1       7.334  -2.709   3.746  1.00  0.00     0.211 HD
ENDBRANCH   4  52
TORSDOF 16
ENDMDL
MODEL 5
REMARK VINA RESULT:    -0.186     14.135     17.061
REMARK INTER + INTRA:          -1.598
REMARK INTER:                  -0.457
REMARK INTRA:                  -1.141
REMARK UNBOUND:                -1.292
REMARK SMILES C[C@H]1O[C@@H](OC[C@@H]2O[C@@H](Oc3c(-c4ccc(O)c(O)c4)oc4cc(O)cc(O)c4c3=O)[C@@H](O)[C@@H](O)[C@H]2O)[C@H](O)[C@H](O)[C@@H]1O
REMARK SMILES IDX 7 1 36 2 34 3 32 4 9 5 8 6 6 7 5 8 4 9 1 10 2 11 42 12 3 13
REMARK SMILES IDX 40 14 38 15 43 16 41 18 39 20 37 22 35 24 10 26 11 27 12 28
REMARK SMILES IDX 30 29 21 30 29 31 31 32 22 33 27 34 23 35 26 36 24 37 13 38
REMARK SMILES IDX 20 39 14 40 18 41 15 42 16 43 19 44 17 46 28 48 25 50 33 52
REMARK H PARENT 43 17 41 19 39 21 37 23 35 25 19 45 17 47 28 49 25 51 33 53
REMARK Flexibility Score: inf
ROOT
ATOM      1  C   UNL     1       8.534   5.229   7.215  1.00  0.00     0.180 C 
ATOM      2  C   UNL     1       9.618   5.900   6.180  1.00  0.00     0.177 C 
ATOM      3  C   UNL     1      10.002   4.718   5.296  1.00  0.00     0.180 C 
ATOM      4  C   UNL     1      10.712   3.697   6.177  1.00  0.00     0.214 C 
ATOM      5  C   UNL     1       9.948   3.214   7.459  1.00  0.00     0.339 C 
ATOM      6  O   UNL     1       8.596   3.809   7.607  1.00  0.00    -0.332 OA
ENDROOT
BRANCH   1   7
ATOM      7  C   UNL     1       7.767   6.282   8.200  1.00  0.00     0.198 C 
BRANCH   7   8
ATOM      8  O   UNL     1       8.623   7.267   8.721  1.00  0.00    -0.347 OA
BRANCH   8   9
ATOM      9  C   UNL     1       9.238   6.985  10.001  1.00  0.00     0.281 C 
ATOM     10  C   UNL     1       6.242   8.117  10.325  1.00  0.00     0.041 C 
ATOM     11  C   UNL     1       7.670   8.610  10.839  1.00  0.00     0.150 C 
ATOM     12  C   UNL     1       8.378   9.518   9.749  1.00  0.00     0.174 C 
ATOM     13  O   UNL     1       8.353   7.377  11.087  1.00  0.00    -0.344 OA
ATOM     14  C   UNL     1       9.933   9.302   9.622  1.00  0.00     0.179 C 
ATOM     15  C   UNL     1      10.451   7.841  10.004  1.00  0.00     0.202 C 
BRANCH  12  16
ATOM     16  O   UNL     1       8.020  10.888   9.776  1.00  0.00    -0.388 OA
ATOM     17  H   UNL     1       6.997  10.990   9.868  1.00  0.00     0.211 HD
ENDBRANCH  12  16
BRANCH  14  18
ATOM     18  O   UNL     1      10.717  10.294  10.275  1.00  0.00    -0.387 OA
ATOM     19  H   UNL     1      11.419   9.836  10.782  1.00  0.00     0.211 HD
ENDBRANCH  14  18
BRANCH  15  20
ATOM     20  O   UNL     1      11.112   7.681  11.231  1.00  0.00    -0.385 OA
ATOM     21  H   UNL     1      11.133   6.682  11.476  1.00  0.00     0.211 HD
ENDBRANCH  15  20
ENDBRANCH   8   9
ENDBRANCH   7   8
ENDBRANCH   1   7
BRANCH   2  22
ATOM     22  O   UNL     1       8.894   6.764   5.397  1.00  0.00    -0.387 OA
ATOM     23  H   UNL     1       8.021   6.270   5.210  1.00  0.00     0.211 HD
ENDBRANCH   2  22
BRANCH   3  24
ATOM     24  O   UNL     1       8.768   4.279   4.688  1.00  0.00    -0.387 OA
ATOM     25  H   UNL     1       8.581   4.854   3.843  1.00  0.00     0.211 HD
ENDBRANCH   3  24
BRANCH   5  26
ATOM     26  O   UNL     1       9.963   1.751   7.416  1.00  0.00    -0.454 OA
BRANCH  26  27
ATOM     27  C   UNL     1      10.409   0.456   7.885  1.00  0.00     0.214 A 
ATOM     28  C   UNL     1      10.366  -0.628   6.935  1.00  0.00     0.180 A 
ATOM     29  C   UNL     1      10.798   0.150   9.235  1.00  0.00     0.239 A 
ATOM     30  O   UNL     1      10.764  -1.815   7.257  1.00  0.00    -0.452 OA
ATOM     31  C   UNL     1      10.826  -1.229   9.565  1.00  0.00     0.111 A 
ATOM     32  O   UNL     1      10.822   1.032  10.117  1.00  0.00    -0.285 OA
ATOM     33  C   UNL     1      10.773  -2.221   8.534  1.00  0.00     0.146 A 
ATOM     34  C   UNL     1      10.738  -1.692  10.899  1.00  0.00     0.134 A 
ATOM     35  C   UNL     1      10.528  -3.553   8.817  1.00  0.00     0.094 A 
ATOM     36  C   UNL     1      10.312  -3.029  11.208  1.00  0.00     0.093 A 
ATOM     37  C   UNL     1      10.016  -3.842  10.070  1.00  0.00     0.123 A 
BRANCH  28  38
ATOM     38  C   UNL     1       9.422  -0.628   5.829  1.00  0.00     0.025 A 
ATOM     39  C   UNL     1       8.198  -0.126   6.055  1.00  0.00     0.062 A 
ATOM     40  C   UNL     1       9.510  -1.671   4.850  1.00  0.00     0.016 A 
ATOM     41  C   UNL     1       7.132  -0.335   5.176  1.00  0.00     0.158 A 
ATOM     42  C   UNL     1       8.469  -2.055   4.134  1.00  0.00     0.051 A 
ATOM     43  C   UNL     1       7.256  -1.317   4.176  1.00  0.00     0.157 A 
BRANCH  41  44
ATOM     44  O   UNL     1       6.187   0.702   5.121  1.00  0.00    -0.504 OA
ATOM     45  H   UNL     1       5.869   1.088   4.275  1.00  0.00     0.293 HD
ENDBRANCH  41  44
BRANCH  43  46
ATOM     46  O   UNL     1       6.194  -1.671   3.335  1.00  0.00    -0.504 OA
ATOM     47  H   UNL     1       5.236  -1.774   3.690  1.00  0.00     0.293 HD
ENDBRANCH  43  46
ENDBRANCH  28  38
BRANCH  34  48
ATOM     48  O   UNL     1      11.124  -0.918  12.031  1.00  0.00    -0.507 OA
ATOM     49  H   UNL     1      10.463  -0.457  12.659  1.00  0.00     0.293 HD
ENDBRANCH  34  48
BRANCH  37  50
ATOM     50  O   UNL     1       9.183  -4.992  10.308  1.00  0.00    -0.508 OA
ATOM     51  H   UNL     1       8.231  -4.918   9.923  1.00  0.00     0.293 HD
ENDBRANCH  37  50
ENDBRANCH  26  27
ENDBRANCH   5  26
BRANCH   4  52
ATOM     52  O   UNL     1      11.121   2.661   5.336  1.00  0.00    -0.384 OA
ATOM     53  H   UNL     1      10.309   2.329   4.839  1.00  0.00     0.211 HD
ENDBRANCH   4  52
TORSDOF 16
ENDMDL
MODEL 6
REMARK VINA RESULT:     0.222     14.225     18.525
REMARK INTER + INTRA:          -0.927
REMARK INTER:                  -0.839
REMARK INTRA:                  -0.088
REMARK UNBOUND:                -1.292
REMARK SMILES C[C@H]1O[C@@H](OC[C@@H]2O[C@@H](Oc3c(-c4ccc(O)c(O)c4)oc4cc(O)cc(O)c4c3=O)[C@@H](O)[C@@H](O)[C@H]2O)[C@H](O)[C@H](O)[C@@H]1O
REMARK SMILES IDX 7 1 36 2 34 3 32 4 9 5 8 6 6 7 5 8 4 9 1 10 2 11 42 12 3 13
REMARK SMILES IDX 40 14 38 15 43 16 41 18 39 20 37 22 35 24 10 26 11 27 12 28
REMARK SMILES IDX 30 29 21 30 29 31 31 32 22 33 27 34 23 35 26 36 24 37 13 38
REMARK SMILES IDX 20 39 14 40 18 41 15 42 16 43 19 44 17 46 28 48 25 50 33 52
REMARK H PARENT 43 17 41 19 39 21 37 23 35 25 19 45 17 47 28 49 25 51 33 53
REMARK Flexibility Score: inf
ROOT
ATOM      1  C   UNL     1       8.302  -2.385   5.261  1.00  0.00     0.180 C 
ATOM      2  C   UNL     1       6.665  -2.266   5.263  1.00  0.00     0.177 C 
ATOM      3  C   UNL     1       6.437  -0.865   4.705  1.00  0.00     0.180 C 
ATOM      4  C   UNL     1       7.016   0.128   5.707  1.00  0.00     0.214 C 
ATOM      5  C   UNL     1       8.515  -0.076   6.121  1.00  0.00     0.339 C 
ATOM      6  O   UNL     1       9.177  -1.210   5.429  1.00  0.00    -0.332 OA
ENDROOT
BRANCH   1   7
ATOM      7  C   UNL     1       8.894  -3.863   5.632  1.00  0.00     0.198 C 
BRANCH   7   8
ATOM      8  O   UNL     1       9.047  -4.689   4.505  1.00  0.00    -0.347 OA
BRANCH   8   9
ATOM      9  C   UNL     1       9.843  -5.886   4.678  1.00  0.00     0.281 C 
ATOM     10  C   UNL     1      10.109  -4.681   1.706  1.00  0.00     0.041 C 
ATOM     11  C   UNL     1       9.624  -6.085   2.288  1.00  0.00     0.150 C 
ATOM     12  C   UNL     1       8.082  -6.040   2.655  1.00  0.00     0.174 C 
ATOM     13  O   UNL     1      10.477  -6.260   3.424  1.00  0.00    -0.344 OA
ATOM     14  C   UNL     1       7.695  -6.821   3.967  1.00  0.00     0.179 C 
ATOM     15  C   UNL     1       8.847  -6.915   5.068  1.00  0.00     0.202 C 
BRANCH  12  16
ATOM     16  O   UNL     1       7.196  -6.307   1.583  1.00  0.00    -0.388 OA
ATOM     17  H   UNL     1       7.054  -7.324   1.480  1.00  0.00     0.211 HD
ENDBRANCH  12  16
BRANCH  14  18
ATOM     18  O   UNL     1       7.121  -8.103   3.738  1.00  0.00    -0.387 OA
ATOM     19  H   UNL     1       6.986  -8.532   4.608  1.00  0.00     0.211 HD
ENDBRANCH  14  18
BRANCH  15  20
ATOM     20  O   UNL     1       9.506  -8.144   5.223  1.00  0.00    -0.385 OA
ATOM     21  H   UNL     1      10.086  -8.111   6.073  1.00  0.00     0.211 HD
ENDBRANCH  15  20
ENDBRANCH   8   9
ENDBRANCH   7   8
ENDBRANCH   1   7
BRANCH   2  22
ATOM     22  O   UNL     1       6.230  -3.150   4.306  1.00  0.00    -0.387 OA
ATOM     23  H   UNL     1       6.836  -3.963   4.414  1.00  0.00     0.211 HD
ENDBRANCH   2  22
BRANCH   3  24
ATOM     24  O   UNL     1       7.050  -0.870   3.396  1.00  0.00    -0.387 OA
ATOM     25  H   UNL     1       7.434  -1.817   3.204  1.00  0.00     0.211 HD
ENDBRANCH   3  24
BRANCH   5  26
ATOM     26  O   UNL     1       9.172   1.217   5.926  1.00  0.00    -0.454 OA
BRANCH  26  27
ATOM     27  C   UNL     1       9.658   2.496   6.398  1.00  0.00     0.214 A 
ATOM     28  C   UNL     1      10.449   2.486   7.603  1.00  0.00     0.180 A 
ATOM     29  C   UNL     1       9.337   3.773   5.818  1.00  0.00     0.239 A 
ATOM     30  O   UNL     1      10.943   3.576   8.089  1.00  0.00    -0.452 OA
ATOM     31  C   UNL     1       9.589   4.899   6.642  1.00  0.00     0.111 A 
ATOM     32  O   UNL     1       8.626   3.858   4.797  1.00  0.00    -0.285 OA
ATOM     33  C   UNL     1      10.389   4.767   7.823  1.00  0.00     0.146 A 
ATOM     34  C   UNL     1       8.945   6.143   6.445  1.00  0.00     0.134 A 
ATOM     35  C   UNL     1      10.436   5.760   8.784  1.00  0.00     0.094 A 
ATOM     36  C   UNL     1       8.837   7.113   7.500  1.00  0.00     0.093 A 
ATOM     37  C   UNL     1       9.448   6.728   8.734  1.00  0.00     0.123 A 
BRANCH  28  38
ATOM     38  C   UNL     1      10.289   1.442   8.603  1.00  0.00     0.025 A 
ATOM     39  C   UNL     1      10.821   1.654   9.817  1.00  0.00     0.062 A 
ATOM     40  C   UNL     1      10.227   0.077   8.167  1.00  0.00     0.016 A 
ATOM     41  C   UNL     1      10.985   0.627  10.749  1.00  0.00     0.158 A 
ATOM     42  C   UNL     1      10.577  -0.929   8.949  1.00  0.00     0.051 A 
ATOM     43  C   UNL     1      10.855  -0.707  10.324  1.00  0.00     0.157 A 
BRANCH  41  44
ATOM     44  O   UNL     1      10.887   1.016  12.096  1.00  0.00    -0.504 OA
ATOM     45  H   UNL     1      10.742   0.376  12.826  1.00  0.00     0.293 HD
ENDBRANCH  41  44
BRANCH  43  46
ATOM     46  O   UNL     1      11.123  -1.794  11.165  1.00  0.00    -0.504 OA
ATOM     47  H   UNL     1      12.067  -1.973  11.532  1.00  0.00     0.293 HD
ENDBRANCH  43  46
ENDBRANCH  28  38
BRANCH  34  48
ATOM     48  O   UNL     1       8.420   6.571   5.192  1.00  0.00    -0.507 OA
ATOM     49  H   UNL     1       8.845   6.347   4.289  1.00  0.00     0.293 HD
ENDBRANCH  34  48
BRANCH  37  50
ATOM     50  O   UNL     1       8.999   7.424   9.911  1.00  0.00    -0.508 OA
ATOM     51  H   UNL     1       8.510   6.833  10.597  1.00  0.00     0.293 HD
ENDBRANCH  37  50
ENDBRANCH  26  27
ENDBRANCH   5  26
BRANCH   4  52
ATOM     52  O   UNL     1       6.731   1.402   5.215  1.00  0.00    -0.384 OA
ATOM     53  H   UNL     1       5.732   1.476   5.110  1.00  0.00     0.211 HD
ENDBRANCH   4  52
TORSDOF 16
ENDMDL
