MODEL 1
REMARK VINA RESULT:    -4.277      0.000      0.000
REMARK INTER + INTRA:          -4.527
REMARK INTER:                  -4.527
REMARK INTRA:                   0.000
REMARK UNBOUND:                 0.000
REMARK SMILES Cc1cc(O)c(C)c(C)c1O
REMARK SMILES IDX 1 1 2 2 3 3 4 4 6 5 8 6 10 7 9 8 7 9 11 10 5 12
REMARK H PARENT 11 11 5 13
REMARK Flexibility Score: inf
ROOT
ATOM      1  C   UNL     1      35.338 -12.150  53.612  1.00  0.00     0.048 C 
ATOM      2  C   UNL     1      35.809 -10.763  53.958  1.00  0.00    -0.005 A 
ATOM      3  C   UNL     1      36.189 -10.479  55.276  1.00  0.00     0.053 A 
ATOM      4  C   UNL     1      36.616  -9.200  55.639  1.00  0.00     0.119 A 
ATOM      5  C   UNL     1      36.667  -8.170  54.681  1.00  0.00    -0.003 A 
ATOM      6  C   UNL     1      36.334  -8.457  53.331  1.00  0.00    -0.002 A 
ATOM      7  C   UNL     1      35.877  -9.746  52.980  1.00  0.00     0.121 A 
ATOM      8  C   UNL     1      36.410  -7.377  52.274  1.00  0.00     0.049 C 
ATOM      9  C   UNL     1      37.125  -6.789  55.090  1.00  0.00     0.049 C 
ENDROOT
BRANCH   7  10
ATOM     10  O   UNL     1      35.494  -9.996  51.658  1.00  0.00    -0.507 OA
ATOM     11  H   UNL     1      36.117 -10.384  50.961  1.00  0.00     0.293 HD
ENDBRANCH   7  10
BRANCH   4  12
ATOM     12  O   UNL     1      36.992  -8.953  56.961  1.00  0.00    -0.508 OA
ATOM     13  H   UNL     1      37.187  -8.015  57.294  1.00  0.00     0.293 HD
ENDBRANCH   4  12
TORSDOF 2
ENDMDL
MODEL 2
REMARK VINA RESULT:    -4.024      7.147      8.203
REMARK INTER + INTRA:          -4.259
REMARK INTER:                  -4.259
REMARK INTRA:                   0.000
REMARK UNBOUND:                 0.000
REMARK SMILES Cc1cc(O)c(C)c(C)c1O
REMARK SMILES IDX 1 1 2 2 3 3 4 4 6 5 8 6 10 7 9 8 7 9 11 10 5 12
REMARK H PARENT 11 11 5 13
REMARK Flexibility Score: inf
ROOT
ATOM      1  C   UNL     1      36.358  -5.172  60.044  1.00  0.00     0.048 C 
ATOM      2  C   UNL     1      35.584  -4.053  59.399  1.00  0.00    -0.005 A 
ATOM      3  C   UNL     1      34.440  -3.558  60.036  1.00  0.00     0.053 A 
ATOM      4  C   UNL     1      33.686  -2.531  59.461  1.00  0.00     0.119 A 
ATOM      5  C   UNL     1      34.067  -1.981  58.222  1.00  0.00    -0.003 A 
ATOM      6  C   UNL     1      35.253  -2.438  57.591  1.00  0.00    -0.002 A 
ATOM      7  C   UNL     1      35.992  -3.495  58.168  1.00  0.00     0.121 A 
ATOM      8  C   UNL     1      35.703  -1.841  56.276  1.00  0.00     0.049 C 
ATOM      9  C   UNL     1      33.239  -0.876  57.609  1.00  0.00     0.049 C 
ENDROOT
BRANCH   7  10
ATOM     10  O   UNL     1      37.125  -3.976  57.502  1.00  0.00    -0.507 OA
ATOM     11  H   UNL     1      37.080  -4.574  56.687  1.00  0.00     0.293 HD
ENDBRANCH   7  10
BRANCH   4  12
ATOM     12  O   UNL     1      32.553  -2.058  60.125  1.00  0.00    -0.508 OA
ATOM     13  H   UNL     1      31.703  -2.606  60.187  1.00  0.00     0.293 HD
ENDBRANCH   4  12
TORSDOF 2
ENDMDL
MODEL 3
REMARK VINA RESULT:    -3.824      1.144      4.310
REMARK INTER + INTRA:          -4.048
REMARK INTER:                  -4.048
REMARK INTRA:                   0.000
REMARK UNBOUND:                 0.000
REMARK SMILES Cc1cc(O)c(C)c(C)c1O
REMARK SMILES IDX 1 1 2 2 3 3 4 4 6 5 8 6 10 7 9 8 7 9 11 10 5 12
REMARK H PARENT 11 11 5 13
REMARK Flexibility Score: inf
ROOT
ATOM      1  C   UNL     1      36.961  -5.766  53.314  1.00  0.00     0.048 C 
ATOM      2  C   UNL     1      36.665  -7.215  53.594  1.00  0.00    -0.005 A 
ATOM      3  C   UNL     1      36.300  -8.055  52.536  1.00  0.00     0.053 A 
ATOM      4  C   UNL     1      36.003  -9.402  52.759  1.00  0.00     0.119 A 
ATOM      5  C   UNL     1      36.063  -9.935  54.061  1.00  0.00    -0.003 A 
ATOM      6  C   UNL     1      36.483  -9.108  55.135  1.00  0.00    -0.002 A 
ATOM      7  C   UNL     1      36.754  -7.741  54.902  1.00  0.00     0.121 A 
ATOM      8  C   UNL     1      36.587  -9.663  56.538  1.00  0.00     0.049 C 
ATOM      9  C   UNL     1      35.732 -11.392  54.288  1.00  0.00     0.049 C 
ENDROOT
BRANCH   7  10
ATOM     10  O   UNL     1      37.107  -6.924  55.982  1.00  0.00    -0.507 OA
ATOM     11  H   UNL     1      38.005  -6.465  56.064  1.00  0.00     0.293 HD
ENDBRANCH   7  10
BRANCH   4  12
ATOM     12  O   UNL     1      35.645 -10.213  51.681  1.00  0.00    -0.508 OA
ATOM     13  H   UNL     1      36.290 -10.409  50.923  1.00  0.00     0.293 HD
ENDBRANCH   4  12
TORSDOF 2
ENDMDL
MODEL 4
REMARK VINA RESULT:    -3.734      6.927      8.589
REMARK INTER + INTRA:          -3.953
REMARK INTER:                  -3.953
REMARK INTRA:                   0.000
REMARK UNBOUND:                 0.000
REMARK SMILES Cc1cc(O)c(C)c(C)c1O
REMARK SMILES IDX 1 1 2 2 3 3 4 4 6 5 8 6 10 7 9 8 7 9 11 10 5 12
REMARK H PARENT 11 11 5 13
REMARK Flexibility Score: inf
ROOT
ATOM      1  C   UNL     1      33.011  -0.963  60.124  1.00  0.00     0.048 C 
ATOM      2  C   UNL     1      34.050  -1.731  59.351  1.00  0.00    -0.005 A 
ATOM      3  C   UNL     1      34.978  -2.515  60.047  1.00  0.00     0.053 A 
ATOM      4  C   UNL     1      35.966  -3.230  59.366  1.00  0.00     0.119 A 
ATOM      5  C   UNL     1      36.046  -3.168  57.961  1.00  0.00    -0.003 A 
ATOM      6  C   UNL     1      35.080  -2.419  57.241  1.00  0.00    -0.002 A 
ATOM      7  C   UNL     1      34.102  -1.678  57.941  1.00  0.00     0.121 A 
ATOM      8  C   UNL     1      35.123  -2.361  55.730  1.00  0.00     0.049 C 
ATOM      9  C   UNL     1      37.125  -3.941  57.239  1.00  0.00     0.049 C 
ENDROOT
BRANCH   7  10
ATOM     10  O   UNL     1      33.195  -0.895  57.218  1.00  0.00    -0.507 OA
ATOM     11  H   UNL     1      33.426  -0.434  56.348  1.00  0.00     0.293 HD
ENDBRANCH   7  10
BRANCH   4  12
ATOM     12  O   UNL     1      36.873  -4.005  60.090  1.00  0.00    -0.508 OA
ATOM     13  H   UNL     1      37.655  -3.591  60.584  1.00  0.00     0.293 HD
ENDBRANCH   4  12
TORSDOF 2
ENDMDL
MODEL 5
REMARK VINA RESULT:    -3.659      9.144     10.687
REMARK INTER + INTRA:          -3.872
REMARK INTER:                  -3.872
REMARK INTRA:                   0.000
REMARK UNBOUND:                 0.000
REMARK SMILES Cc1cc(O)c(C)c(C)c1O
REMARK SMILES IDX 1 1 2 2 3 3 4 4 6 5 8 6 10 7 9 8 7 9 11 10 5 12
REMARK H PARENT 11 11 5 13
REMARK Flexibility Score: inf
ROOT
ATOM      1  C   UNL     1      35.586  -5.474  43.400  1.00  0.00     0.048 C 
ATOM      2  C   UNL     1      35.344  -4.460  44.486  1.00  0.00    -0.005 A 
ATOM      3  C   UNL     1      35.646  -4.793  45.812  1.00  0.00     0.053 A 
ATOM      4  C   UNL     1      35.420  -3.884  46.848  1.00  0.00     0.119 A 
ATOM      5  C   UNL     1      34.878  -2.614  46.573  1.00  0.00    -0.003 A 
ATOM      6  C   UNL     1      34.617  -2.245  45.228  1.00  0.00    -0.002 A 
ATOM      7  C   UNL     1      34.823  -3.181  44.191  1.00  0.00     0.121 A 
ATOM      8  C   UNL     1      34.064  -0.875  44.900  1.00  0.00     0.049 C 
ATOM      9  C   UNL     1      34.633  -1.644  47.705  1.00  0.00     0.049 C 
ENDROOT
BRANCH   7  10
ATOM     10  O   UNL     1      34.502  -2.823  42.876  1.00  0.00    -0.507 OA
ATOM     11  H   UNL     1      33.809  -2.123  42.643  1.00  0.00     0.293 HD
ENDBRANCH   7  10
BRANCH   4  12
ATOM     12  O   UNL     1      35.736  -4.247  48.159  1.00  0.00    -0.508 OA
ATOM     13  H   UNL     1      36.058  -3.568  48.838  1.00  0.00     0.293 HD
ENDBRANCH   4  12
TORSDOF 2
ENDMDL
MODEL 6
REMARK VINA RESULT:    -3.625      6.260      8.167
REMARK INTER + INTRA:          -3.837
REMARK INTER:                  -3.837
REMARK INTRA:                   0.000
REMARK UNBOUND:                 0.000
REMARK SMILES Cc1cc(O)c(C)c(C)c1O
REMARK SMILES IDX 1 1 2 2 3 3 4 4 6 5 8 6 10 7 9 8 7 9 11 10 5 12
REMARK H PARENT 11 11 5 13
REMARK Flexibility Score: inf
ROOT
ATOM      1  C   UNL     1      35.470  -0.875  55.008  1.00  0.00     0.048 C 
ATOM      2  C   UNL     1      35.564  -1.627  56.309  1.00  0.00    -0.005 A 
ATOM      3  C   UNL     1      34.914  -1.118  57.441  1.00  0.00     0.053 A 
ATOM      4  C   UNL     1      34.991  -1.779  58.669  1.00  0.00     0.119 A 
ATOM      5  C   UNL     1      35.731  -2.971  58.788  1.00  0.00    -0.003 A 
ATOM      6  C   UNL     1      36.350  -3.525  57.638  1.00  0.00    -0.002 A 
ATOM      7  C   UNL     1      36.289  -2.834  56.407  1.00  0.00     0.121 A 
ATOM      8  C   UNL     1      37.124  -4.822  57.730  1.00  0.00     0.049 C 
ATOM      9  C   UNL     1      35.810  -3.672  60.125  1.00  0.00     0.049 C 
ENDROOT
BRANCH   7  10
ATOM     10  O   UNL     1      36.957  -3.362  55.296  1.00  0.00    -0.507 OA
ATOM     11  H   UNL     1      36.678  -4.217  54.832  1.00  0.00     0.293 HD
ENDBRANCH   7  10
BRANCH   4  12
ATOM     12  O   UNL     1      34.328  -1.247  59.776  1.00  0.00    -0.508 OA
ATOM     13  H   UNL     1      34.016  -1.831  60.543  1.00  0.00     0.293 HD
ENDBRANCH   4  12
TORSDOF 2
ENDMDL
MODEL 7
REMARK VINA RESULT:    -3.612     18.206     19.886
REMARK INTER + INTRA:          -3.824
REMARK INTER:                  -3.824
REMARK INTRA:                   0.000
REMARK UNBOUND:                 0.000
REMARK SMILES Cc1cc(O)c(C)c(C)c1O
REMARK SMILES IDX 1 1 2 2 3 3 4 4 6 5 8 6 10 7 9 8 7 9 11 10 5 12
REMARK H PARENT 11 11 5 13
REMARK Flexibility Score: inf
ROOT
ATOM      1  C   UNL     1      24.309  -3.771  43.914  1.00  0.00     0.048 C 
ATOM      2  C   UNL     1      23.240  -3.568  42.874  1.00  0.00    -0.005 A 
ATOM      3  C   UNL     1      22.499  -2.381  42.879  1.00  0.00     0.053 A 
ATOM      4  C   UNL     1      21.488  -2.163  41.939  1.00  0.00     0.119 A 
ATOM      5  C   UNL     1      21.195  -3.144  40.972  1.00  0.00    -0.003 A 
ATOM      6  C   UNL     1      21.974  -4.329  40.924  1.00  0.00    -0.002 A 
ATOM      7  C   UNL     1      22.975  -4.551  41.895  1.00  0.00     0.121 A 
ATOM      8  C   UNL     1      21.702  -5.385  39.875  1.00  0.00     0.049 C 
ATOM      9  C   UNL     1      20.094  -2.897  39.967  1.00  0.00     0.049 C 
ENDROOT
BRANCH   7  10
ATOM     10  O   UNL     1      23.692  -5.753  41.872  1.00  0.00    -0.507 OA
ATOM     11  H   UNL     1      24.300  -6.024  41.110  1.00  0.00     0.293 HD
ENDBRANCH   7  10
BRANCH   4  12
ATOM     12  O   UNL     1      20.771  -0.966  41.969  1.00  0.00    -0.508 OA
ATOM     13  H   UNL     1      21.072  -0.177  42.530  1.00  0.00     0.293 HD
ENDBRANCH   4  12
TORSDOF 2
ENDMDL
MODEL 8
REMARK VINA RESULT:    -3.574     18.202     19.790
REMARK INTER + INTRA:          -3.783
REMARK INTER:                  -3.783
REMARK INTRA:                   0.000
REMARK UNBOUND:                 0.000
REMARK SMILES Cc1cc(O)c(C)c(C)c1O
REMARK SMILES IDX 1 1 2 2 3 3 4 4 6 5 8 6 10 7 9 8 7 9 11 10 5 12
REMARK H PARENT 11 11 5 13
REMARK Flexibility Score: inf
ROOT
ATOM      1  C   UNL     1      19.700  -3.909  39.935  1.00  0.00     0.048 C 
ATOM      2  C   UNL     1      20.857  -3.850  40.896  1.00  0.00    -0.005 A 
ATOM      3  C   UNL     1      21.724  -4.946  40.990  1.00  0.00     0.053 A 
ATOM      4  C   UNL     1      22.800  -4.934  41.881  1.00  0.00     0.119 A 
ATOM      5  C   UNL     1      23.026  -3.816  42.706  1.00  0.00    -0.003 A 
ATOM      6  C   UNL     1      22.186  -2.679  42.584  1.00  0.00    -0.002 A 
ATOM      7  C   UNL     1      21.085  -2.712  41.700  1.00  0.00     0.121 A 
ATOM      8  C   UNL     1      22.425  -1.451  43.436  1.00  0.00     0.049 C 
ATOM      9  C   UNL     1      24.189  -3.821  43.671  1.00  0.00     0.049 C 
ENDROOT
BRANCH   7  10
ATOM     10  O   UNL     1      20.230  -1.606  41.636  1.00  0.00    -0.507 OA
ATOM     11  H   UNL     1      20.520  -0.695  41.305  1.00  0.00     0.293 HD
ENDBRANCH   7  10
BRANCH   4  12
ATOM     12  O   UNL     1      23.647  -6.042  41.946  1.00  0.00    -0.508 OA
ATOM     13  H   UNL     1      23.383  -6.888  42.438  1.00  0.00     0.293 HD
ENDBRANCH   4  12
TORSDOF 2
ENDMDL
MODEL 9
REMARK VINA RESULT:    -3.553     17.934     19.541
REMARK INTER + INTRA:          -3.761
REMARK INTER:                  -3.761
REMARK INTRA:                   0.000
REMARK UNBOUND:                 0.000
REMARK SMILES Cc1cc(O)c(C)c(C)c1O
REMARK SMILES IDX 1 1 2 2 3 3 4 4 6 5 8 6 10 7 9 8 7 9 11 10 5 12
REMARK H PARENT 11 11 5 13
REMARK Flexibility Score: inf
ROOT
ATOM      1  C   UNL     1      21.512  -5.426  39.875  1.00  0.00     0.048 C 
ATOM      2  C   UNL     1      21.844  -4.384  40.909  1.00  0.00    -0.005 A 
ATOM      3  C   UNL     1      21.114  -3.189  40.934  1.00  0.00     0.053 A 
ATOM      4  C   UNL     1      21.403  -2.192  41.868  1.00  0.00     0.119 A 
ATOM      5  C   UNL     1      22.443  -2.372  42.800  1.00  0.00    -0.003 A 
ATOM      6  C   UNL     1      23.157  -3.599  42.819  1.00  0.00    -0.002 A 
ATOM      7  C   UNL     1      22.874  -4.590  41.852  1.00  0.00     0.121 A 
ATOM      8  C   UNL     1      24.258  -3.833  43.830  1.00  0.00     0.049 C 
ATOM      9  C   UNL     1      22.750  -1.282  43.800  1.00  0.00     0.049 C 
ENDROOT
BRANCH   7  10
ATOM     10  O   UNL     1      23.629  -5.769  41.845  1.00  0.00    -0.507 OA
ATOM     11  H   UNL     1      23.221  -6.691  41.758  1.00  0.00     0.293 HD
ENDBRANCH   7  10
BRANCH   4  12
ATOM     12  O   UNL     1      20.653  -1.015  41.869  1.00  0.00    -0.508 OA
ATOM     13  H   UNL     1      19.780  -0.938  41.359  1.00  0.00     0.293 HD
ENDBRANCH   4  12
TORSDOF 2
ENDMDL
