MODEL 1
REMARK VINA RESULT:    -4.795      0.000      0.000
REMARK INTER + INTRA:          -6.724
REMARK INTER:                  -6.476
REMARK INTRA:                  -0.248
REMARK UNBOUND:                -0.248
REMARK SMILES CCCCCCCC(=O)[O-]
REMARK SMILES IDX 5 1 6 2 7 3 8 4 9 5 10 6 4 7 3 8 2 9 1 10
REMARK H PARENT
REMARK Flexibility Score: inf
ROOT
ATOM      1  C   UNL     1    -143.204 103.075  32.785  1.00  0.00     0.000 C 
ENDROOT
BRANCH   1   2
ATOM      2  C   UNL     1    -143.631 101.621  33.035  1.00  0.00     0.006 C 
BRANCH   2   3
ATOM      3  C   UNL     1    -143.609 101.256  34.526  1.00  0.00     0.053 C 
BRANCH   3   4
ATOM      4  C   UNL     1    -142.943  99.936  34.766  1.00  0.00     0.041 C 
ATOM      5  O   UNL     1    -143.514  99.057  35.464  1.00  0.00    -0.550 OA
ATOM      6  O   UNL     1    -141.709  99.663  34.191  1.00  0.00    -0.550 OA
ENDBRANCH   3   4
ENDBRANCH   2   3
ENDBRANCH   1   2
BRANCH   1   7
ATOM      7  C   UNL     1    -142.524 103.668  34.027  1.00  0.00     0.000 C 
BRANCH   7   8
ATOM      8  C   UNL     1    -142.485 105.208  34.012  1.00  0.00    -0.000 C 
BRANCH   8   9
ATOM      9  C   UNL     1    -141.773 105.848  35.216  1.00  0.00    -0.003 C 
ATOM     10  C   UNL     1    -142.493 105.594  36.541  1.00  0.00     0.004 C 
ENDBRANCH   8   9
ENDBRANCH   7   8
ENDBRANCH   1   7
TORSDOF 6
ENDMDL
MODEL 2
REMARK VINA RESULT:    -4.442     18.945     20.779
REMARK INTER + INTRA:          -6.248
REMARK INTER:                  -5.883
REMARK INTRA:                  -0.365
REMARK UNBOUND:                -0.248
REMARK SMILES CCCCCCCC(=O)[O-]
REMARK SMILES IDX 5 1 6 2 7 3 8 4 9 5 10 6 4 7 3 8 2 9 1 10
REMARK H PARENT
REMARK Flexibility Score: inf
ROOT
ATOM      1  C   UNL     1    -129.499 117.114  43.200  1.00  0.00     0.000 C 
ENDROOT
BRANCH   1   2
ATOM      2  C   UNL     1    -129.743 115.748  42.543  1.00  0.00     0.006 C 
BRANCH   2   3
ATOM      3  C   UNL     1    -129.772 114.606  43.568  1.00  0.00     0.053 C 
BRANCH   3   4
ATOM      4  C   UNL     1    -129.740 113.263  42.905  1.00  0.00     0.041 C 
ATOM      5  O   UNL     1    -130.114 113.138  41.710  1.00  0.00    -0.550 OA
ATOM      6  O   UNL     1    -129.266 112.157  43.598  1.00  0.00    -0.550 OA
ENDBRANCH   3   4
ENDBRANCH   2   3
ENDBRANCH   1   2
BRANCH   1   7
ATOM      7  C   UNL     1    -129.390 116.978  44.726  1.00  0.00     0.000 C 
BRANCH   7   8
ATOM      8  C   UNL     1    -130.131 118.095  45.483  1.00  0.00    -0.000 C 
BRANCH   8   9
ATOM      9  C   UNL     1    -130.927 117.624  46.713  1.00  0.00    -0.003 C 
ATOM     10  C   UNL     1    -130.887 116.109  46.907  1.00  0.00     0.004 C 
ENDBRANCH   8   9
ENDBRANCH   7   8
ENDBRANCH   1   7
TORSDOF 6
ENDMDL
MODEL 3
REMARK VINA RESULT:    -4.402     18.968     21.027
REMARK INTER + INTRA:          -6.193
REMARK INTER:                  -5.819
REMARK INTRA:                  -0.375
REMARK UNBOUND:                -0.248
REMARK SMILES CCCCCCCC(=O)[O-]
REMARK SMILES IDX 5 1 6 2 7 3 8 4 9 5 10 6 4 7 3 8 2 9 1 10
REMARK H PARENT
REMARK Flexibility Score: inf
ROOT
ATOM      1  C   UNL     1    -129.899 115.899  45.701  1.00  0.00     0.000 C 
ENDROOT
BRANCH   1   2
ATOM      2  C   UNL     1    -129.520 114.573  45.025  1.00  0.00     0.006 C 
BRANCH   2   3
ATOM      3  C   UNL     1    -129.624 114.650  43.496  1.00  0.00     0.053 C 
BRANCH   3   4
ATOM      4  C   UNL     1    -129.706 113.288  42.875  1.00  0.00     0.041 C 
ATOM      5  O   UNL     1    -130.091 113.158  41.684  1.00  0.00    -0.550 OA
ATOM      6  O   UNL     1    -129.324 112.168  43.601  1.00  0.00    -0.550 OA
ENDBRANCH   3   4
ENDBRANCH   2   3
ENDBRANCH   1   2
BRANCH   1   7
ATOM      7  C   UNL     1    -130.114 117.005  44.658  1.00  0.00     0.000 C 
BRANCH   7   8
ATOM      8  C   UNL     1    -129.345 118.298  44.987  1.00  0.00    -0.000 C 
BRANCH   8   9
ATOM      9  C   UNL     1    -128.706 118.996  43.774  1.00  0.00    -0.003 C 
ATOM     10  C   UNL     1    -128.584 118.083  42.554  1.00  0.00     0.004 C 
ENDBRANCH   8   9
ENDBRANCH   7   8
ENDBRANCH   1   7
TORSDOF 6
ENDMDL
MODEL 4
REMARK VINA RESULT:    -4.383      1.545      2.308
REMARK INTER + INTRA:          -6.169
REMARK INTER:                  -5.993
REMARK INTRA:                  -0.175
REMARK UNBOUND:                -0.248
REMARK SMILES CCCCCCCC(=O)[O-]
REMARK SMILES IDX 5 1 6 2 7 3 8 4 9 5 10 6 4 7 3 8 2 9 1 10
REMARK H PARENT
REMARK Flexibility Score: inf
ROOT
ATOM      1  C   UNL     1    -143.931 101.539  34.587  1.00  0.00     0.000 C 
ENDROOT
BRANCH   1   2
ATOM      2  C   UNL     1    -143.003 100.342  34.838  1.00  0.00     0.006 C 
BRANCH   2   3
ATOM      3  C   UNL     1    -143.262  99.190  33.857  1.00  0.00     0.053 C 
BRANCH   3   4
ATOM      4  C   UNL     1    -142.485  99.355  32.587  1.00  0.00     0.041 C 
ATOM      5  O   UNL     1    -141.326  98.875  32.486  1.00  0.00    -0.550 OA
ATOM      6  O   UNL     1    -143.055 100.011  31.503  1.00  0.00    -0.550 OA
ENDBRANCH   3   4
ENDBRANCH   2   3
ENDBRANCH   1   2
BRANCH   1   7
ATOM      7  C   UNL     1    -143.199 102.650  33.820  1.00  0.00     0.000 C 
BRANCH   7   8
ATOM      8  C   UNL     1    -142.480 103.646  34.749  1.00  0.00    -0.000 C 
BRANCH   8   9
ATOM      9  C   UNL     1    -142.429 105.093  34.230  1.00  0.00    -0.003 C 
ATOM     10  C   UNL     1    -141.812 106.068  35.232  1.00  0.00     0.004 C 
ENDBRANCH   8   9
ENDBRANCH   7   8
ENDBRANCH   1   7
TORSDOF 6
ENDMDL
MODEL 5
REMARK VINA RESULT:    -4.355      2.992      5.247
REMARK INTER + INTRA:          -6.130
REMARK INTER:                  -5.813
REMARK INTRA:                  -0.317
REMARK UNBOUND:                -0.248
REMARK SMILES CCCCCCCC(=O)[O-]
REMARK SMILES IDX 5 1 6 2 7 3 8 4 9 5 10 6 4 7 3 8 2 9 1 10
REMARK H PARENT
REMARK Flexibility Score: inf
ROOT
ATOM      1  C   UNL     1    -143.822 101.633  34.918  1.00  0.00     0.000 C 
ENDROOT
BRANCH   1   2
ATOM      2  C   UNL     1    -142.838 102.619  34.271  1.00  0.00     0.006 C 
BRANCH   2   3
ATOM      3  C   UNL     1    -142.635 103.881  35.121  1.00  0.00     0.053 C 
BRANCH   3   4
ATOM      4  C   UNL     1    -142.439 105.099  34.272  1.00  0.00     0.041 C 
ATOM      5  O   UNL     1    -141.948 106.146  34.770  1.00  0.00    -0.550 OA
ATOM      6  O   UNL     1    -142.767 105.067  32.923  1.00  0.00    -0.550 OA
ENDBRANCH   3   4
ENDBRANCH   2   3
ENDBRANCH   1   2
BRANCH   1   7
ATOM      7  C   UNL     1    -143.248 100.209  34.923  1.00  0.00     0.000 C 
BRANCH   7   8
ATOM      8  C   UNL     1    -142.097 100.023  33.918  1.00  0.00    -0.000 C 
BRANCH   8   9
ATOM      9  C   UNL     1    -142.481  99.286  32.623  1.00  0.00    -0.003 C 
ATOM     10  C   UNL     1    -143.042 100.218  31.549  1.00  0.00     0.004 C 
ENDBRANCH   8   9
ENDBRANCH   7   8
ENDBRANCH   1   7
TORSDOF 6
ENDMDL
MODEL 6
REMARK VINA RESULT:    -4.347      3.110      5.334
REMARK INTER + INTRA:          -6.119
REMARK INTER:                  -5.835
REMARK INTRA:                  -0.284
REMARK UNBOUND:                -0.248
REMARK SMILES CCCCCCCC(=O)[O-]
REMARK SMILES IDX 5 1 6 2 7 3 8 4 9 5 10 6 4 7 3 8 2 9 1 10
REMARK H PARENT
REMARK Flexibility Score: inf
ROOT
ATOM      1  C   UNL     1    -143.269 102.335  33.822  1.00  0.00     0.000 C 
ENDROOT
BRANCH   1   2
ATOM      2  C   UNL     1    -142.155 103.302  34.249  1.00  0.00     0.006 C 
BRANCH   2   3
ATOM      3  C   UNL     1    -142.553 104.771  34.051  1.00  0.00     0.053 C 
BRANCH   3   4
ATOM      4  C   UNL     1    -142.142 105.620  35.215  1.00  0.00     0.041 C 
ATOM      5  O   UNL     1    -141.507 106.691  35.024  1.00  0.00    -0.550 OA
ATOM      6  O   UNL     1    -142.490 105.247  36.506  1.00  0.00    -0.550 OA
ENDBRANCH   3   4
ENDBRANCH   2   3
ENDBRANCH   1   2
BRANCH   1   7
ATOM      7  C   UNL     1    -143.636 101.380  34.968  1.00  0.00     0.000 C 
BRANCH   7   8
ATOM      8  C   UNL     1    -143.388  99.901  34.618  1.00  0.00    -0.000 C 
BRANCH   8   9
ATOM      9  C   UNL     1    -142.425  99.667  33.441  1.00  0.00    -0.003 C 
ATOM     10  C   UNL     1    -141.081  99.083  33.875  1.00  0.00     0.004 C 
ENDBRANCH   8   9
ENDBRANCH   7   8
ENDBRANCH   1   7
TORSDOF 6
ENDMDL
MODEL 7
REMARK VINA RESULT:    -4.330     19.894     21.810
REMARK INTER + INTRA:          -6.096
REMARK INTER:                  -5.728
REMARK INTRA:                  -0.368
REMARK UNBOUND:                -0.248
REMARK SMILES CCCCCCCC(=O)[O-]
REMARK SMILES IDX 5 1 6 2 7 3 8 4 9 5 10 6 4 7 3 8 2 9 1 10
REMARK H PARENT
REMARK Flexibility Score: inf
ROOT
ATOM      1  C   UNL     1    -129.105 117.522  43.258  1.00  0.00     0.000 C 
ENDROOT
BRANCH   1   2
ATOM      2  C   UNL     1    -129.332 117.858  44.739  1.00  0.00     0.006 C 
BRANCH   2   3
ATOM      3  C   UNL     1    -129.995 116.703  45.503  1.00  0.00     0.053 C 
BRANCH   3   4
ATOM      4  C   UNL     1    -130.810 117.196  46.659  1.00  0.00     0.041 C 
ATOM      5  O   UNL     1    -130.809 118.419  46.959  1.00  0.00    -0.550 OA
ATOM      6  O   UNL     1    -131.596 116.310  47.384  1.00  0.00    -0.550 OA
ENDBRANCH   3   4
ENDBRANCH   2   3
ENDBRANCH   1   2
BRANCH   1   7
ATOM      7  C   UNL     1    -130.091 116.445  42.782  1.00  0.00     0.000 C 
BRANCH   7   8
ATOM      8  C   UNL     1    -129.390 115.196  42.219  1.00  0.00    -0.000 C 
BRANCH   8   9
ATOM      9  C   UNL     1    -129.970 113.855  42.703  1.00  0.00    -0.003 C 
ATOM     10  C   UNL     1    -129.131 113.202  43.800  1.00  0.00     0.004 C 
ENDBRANCH   8   9
ENDBRANCH   7   8
ENDBRANCH   1   7
TORSDOF 6
ENDMDL
MODEL 8
REMARK VINA RESULT:    -4.153     13.357     15.004
REMARK INTER + INTRA:          -5.857
REMARK INTER:                  -5.442
REMARK INTRA:                  -0.416
REMARK UNBOUND:                -0.248
REMARK SMILES CCCCCCCC(=O)[O-]
REMARK SMILES IDX 5 1 6 2 7 3 8 4 9 5 10 6 4 7 3 8 2 9 1 10
REMARK H PARENT
REMARK Flexibility Score: inf
ROOT
ATOM      1  C   UNL     1    -129.544 107.589  41.616  1.00  0.00     0.000 C 
ENDROOT
BRANCH   1   2
ATOM      2  C   UNL     1    -128.718 106.448  41.004  1.00  0.00     0.006 C 
BRANCH   2   3
ATOM      3  C   UNL     1    -129.600 105.300  40.495  1.00  0.00     0.053 C 
BRANCH   3   4
ATOM      4  C   UNL     1    -129.376 105.029  39.039  1.00  0.00     0.041 C 
ATOM      5  O   UNL     1    -129.453 103.854  38.594  1.00  0.00    -0.550 OA
ATOM      6  O   UNL     1    -129.114 106.079  38.168  1.00  0.00    -0.550 OA
ENDBRANCH   3   4
ENDBRANCH   2   3
ENDBRANCH   1   2
BRANCH   1   7
ATOM      7  C   UNL     1    -129.137 108.943  41.017  1.00  0.00     0.000 C 
BRANCH   7   8
ATOM      8  C   UNL     1    -129.714 109.174  39.608  1.00  0.00    -0.000 C 
BRANCH   8   9
ATOM      9  C   UNL     1    -131.198 109.580  39.576  1.00  0.00    -0.003 C 
ATOM     10  C   UNL     1    -132.033 108.718  38.630  1.00  0.00     0.004 C 
ENDBRANCH   8   9
ENDBRANCH   7   8
ENDBRANCH   1   7
TORSDOF 6
ENDMDL
MODEL 9
REMARK VINA RESULT:    -4.145     13.930     15.181
REMARK INTER + INTRA:          -5.847
REMARK INTER:                  -5.509
REMARK INTRA:                  -0.337
REMARK UNBOUND:                -0.248
REMARK SMILES CCCCCCCC(=O)[O-]
REMARK SMILES IDX 5 1 6 2 7 3 8 4 9 5 10 6 4 7 3 8 2 9 1 10
REMARK H PARENT
REMARK Flexibility Score: inf
ROOT
ATOM      1  C   UNL     1    -131.216 108.157  38.883  1.00  0.00     0.000 C 
ENDROOT
BRANCH   1   2
ATOM      2  C   UNL     1    -129.828 107.505  38.961  1.00  0.00     0.006 C 
BRANCH   2   3
ATOM      3  C   UNL     1    -129.901 105.973  38.906  1.00  0.00     0.053 C 
BRANCH   3   4
ATOM      4  C   UNL     1    -129.305 105.344  40.127  1.00  0.00     0.041 C 
ATOM      5  O   UNL     1    -129.317 104.092  40.265  1.00  0.00    -0.550 OA
ATOM      6  O   UNL     1    -128.707 106.137  41.098  1.00  0.00    -0.550 OA
ENDBRANCH   3   4
ENDBRANCH   2   3
ENDBRANCH   1   2
BRANCH   1   7
ATOM      7  C   UNL     1    -131.199 109.561  39.506  1.00  0.00     0.000 C 
BRANCH   7   8
ATOM      8  C   UNL     1    -129.790 110.011  39.932  1.00  0.00    -0.000 C 
BRANCH   8   9
ATOM      9  C   UNL     1    -129.204 111.169  39.106  1.00  0.00    -0.003 C 
ATOM     10  C   UNL     1    -127.939 110.779  38.341  1.00  0.00     0.004 C 
ENDBRANCH   8   9
ENDBRANCH   7   8
ENDBRANCH   1   7
TORSDOF 6
ENDMDL
