MODEL 1
REMARK VINA RESULT:    -5.796      0.000      0.000
REMARK INTER + INTRA:          -5.796
REMARK INTER:                  -5.796
REMARK INTRA:                   0.000
REMARK UNBOUND:                 0.000
REMARK SMILES C[C@@H]1C(=O)CC[C@@H]2[C@]3(C)CC[C@]4(C)[C@H]5CC(C)(C)CC[C@@]5(C)CC[C@]4(C)[C@H]3CC[C@]21C
REMARK SMILES IDX 1 1 2 2 3 3 4 4 5 5 6 6 7 7 30 8 29 9 28 10 27 11 8 12 10 13
REMARK SMILES IDX 11 14 12 15 25 16 24 17 23 18 21 19 14 20 15 21 16 22 19 23
REMARK SMILES IDX 20 24 17 25 18 26 22 27 26 28 13 29 9 30 31 31
REMARK H PARENT
REMARK Flexibility Score: inf
ROOT
ATOM      1  C   UNL     1     103.530 104.499 103.279  1.00  0.00     0.016 C 
ATOM      2  C   UNL     1     103.804 105.847 103.984  1.00  0.00     0.059 C 
ATOM      3  C   UNL     1     104.492 106.833 103.056  1.00  0.00     0.136 C 
ATOM      4  O   UNL     1     104.674 106.573 101.875  1.00  0.00    -0.299 OA
ATOM      5  C   UNL     1     104.884 108.180 103.585  1.00  0.00     0.076 C 
ATOM      6  C   UNL     1     105.624 108.050 104.920  1.00  0.00     0.012 C 
ATOM      7  C   UNL     1     104.848 107.152 105.922  1.00  0.00     0.002 C 
ATOM      8  C   UNL     1     104.602 105.702 105.340  1.00  0.00    -0.020 C 
ATOM      9  C   UNL     1     103.719 104.867 106.351  1.00  0.00     0.008 C 
ATOM     10  C   UNL     1     103.777 105.308 107.831  1.00  0.00     0.005 C 
ATOM     11  C   UNL     1     105.166 105.890 108.172  1.00  0.00     0.002 C 
ATOM     12  C   UNL     1     105.357 107.265 107.443  1.00  0.00    -0.026 C 
ATOM     13  C   UNL     1     106.864 107.613 107.561  1.00  0.00     0.008 C 
ATOM     14  C   UNL     1     107.352 107.627 109.018  1.00  0.00     0.008 C 
ATOM     15  C   UNL     1     107.212 106.280 109.819  1.00  0.00    -0.024 C 
ATOM     16  C   UNL     1     105.690 105.716 109.670  1.00  0.00    -0.024 C 
ATOM     17  C   UNL     1     105.609 104.162 109.979  1.00  0.00     0.008 C 
ATOM     18  C   UNL     1     106.779 103.574 110.750  1.00  0.00     0.007 C 
ATOM     19  C   UNL     1     108.138 103.753 110.015  1.00  0.00    -0.029 C 
ATOM     20  C   UNL     1     108.248 105.168 109.311  1.00  0.00     0.002 C 
ATOM     21  C   UNL     1     109.739 105.573 108.999  1.00  0.00     0.011 C 
ATOM     22  C   UNL     1     110.867 105.193 110.012  1.00  0.00    -0.035 C 
ATOM     23  C   UNL     1     110.668 103.762 110.550  1.00  0.00     0.007 C 
ATOM     24  C   UNL     1     109.253 103.521 111.076  1.00  0.00     0.007 C 
ATOM     25  C   UNL     1     112.221 105.237 109.260  1.00  0.00     0.011 C 
ATOM     26  C   UNL     1     110.974 106.203 111.179  1.00  0.00     0.011 C 
ATOM     27  C   UNL     1     108.257 102.636 108.935  1.00  0.00     0.011 C 
ATOM     28  C   UNL     1     104.708 106.405 110.660  1.00  0.00     0.012 C 
ATOM     29  C   UNL     1     107.569 106.696 111.282  1.00  0.00     0.012 C 
ATOM     30  C   UNL     1     104.517 108.429 108.072  1.00  0.00     0.012 C 
ATOM     31  C   UNL     1     105.953 104.972 105.032  1.00  0.00     0.012 C 
ENDROOT
TORSDOF 0
ENDMDL
MODEL 2
REMARK VINA RESULT:    -5.795      2.064      4.085
REMARK INTER + INTRA:          -5.795
REMARK INTER:                  -5.795
REMARK INTRA:                   0.000
REMARK UNBOUND:                 0.000
REMARK SMILES C[C@@H]1C(=O)CC[C@@H]2[C@]3(C)CC[C@]4(C)[C@H]5CC(C)(C)CC[C@@]5(C)CC[C@]4(C)[C@H]3CC[C@]21C
REMARK SMILES IDX 1 1 2 2 3 3 4 4 5 5 6 6 7 7 30 8 29 9 28 10 27 11 8 12 10 13
REMARK SMILES IDX 11 14 12 15 25 16 24 17 23 18 21 19 14 20 15 21 16 22 19 23
REMARK SMILES IDX 20 24 17 25 18 26 22 27 26 28 13 29 9 30 31 31
REMARK H PARENT
REMARK Flexibility Score: inf
ROOT
ATOM      1  C   UNL     1     104.501 108.468 103.224  1.00  0.00     0.016 C 
ATOM      2  C   UNL     1     105.842 108.215 103.949  1.00  0.00     0.059 C 
ATOM      3  C   UNL     1     106.833 107.495 103.052  1.00  0.00     0.136 C 
ATOM      4  O   UNL     1     106.582 107.276 101.875  1.00  0.00    -0.299 OA
ATOM      5  C   UNL     1     108.175 107.116 103.604  1.00  0.00     0.076 C 
ATOM      6  C   UNL     1     108.032 106.420 104.961  1.00  0.00     0.012 C 
ATOM      7  C   UNL     1     107.128 107.229 105.930  1.00  0.00     0.002 C 
ATOM      8  C   UNL     1     105.684 107.460 105.328  1.00  0.00    -0.020 C 
ATOM      9  C   UNL     1     104.842 108.377 106.304  1.00  0.00     0.008 C 
ATOM     10  C   UNL     1     105.271 108.364 107.789  1.00  0.00     0.005 C 
ATOM     11  C   UNL     1     105.847 106.985 108.178  1.00  0.00     0.002 C 
ATOM     12  C   UNL     1     107.227 106.768 107.468  1.00  0.00    -0.026 C 
ATOM     13  C   UNL     1     107.571 105.265 107.636  1.00  0.00     0.008 C 
ATOM     14  C   UNL     1     107.571 104.824 109.108  1.00  0.00     0.008 C 
ATOM     15  C   UNL     1     106.218 104.992 109.893  1.00  0.00    -0.024 C 
ATOM     16  C   UNL     1     105.659 106.510 109.691  1.00  0.00    -0.024 C 
ATOM     17  C   UNL     1     104.103 106.603 109.984  1.00  0.00     0.008 C 
ATOM     18  C   UNL     1     103.505 105.461 110.787  1.00  0.00     0.007 C 
ATOM     19  C   UNL     1     103.687 104.078 110.097  1.00  0.00    -0.029 C 
ATOM     20  C   UNL     1     105.107 103.943 109.408  1.00  0.00     0.002 C 
ATOM     21  C   UNL     1     105.511 102.441 109.148  1.00  0.00     0.011 C 
ATOM     22  C   UNL     1     105.120 101.347 110.192  1.00  0.00    -0.035 C 
ATOM     23  C   UNL     1     103.685 101.566 110.712  1.00  0.00     0.007 C 
ATOM     24  C   UNL     1     103.444 102.998 111.191  1.00  0.00     0.007 C 
ATOM     25  C   UNL     1     105.166  99.970 109.484  1.00  0.00     0.011 C 
ATOM     26  C   UNL     1     106.119 101.275 111.371  1.00  0.00     0.011 C 
ATOM     27  C   UNL     1     102.578 103.928 109.012  1.00  0.00     0.011 C 
ATOM     28  C   UNL     1     106.343 107.520 110.655  1.00  0.00     0.012 C 
ATOM     29  C   UNL     1     106.620 104.680 111.369  1.00  0.00     0.012 C 
ATOM     30  C   UNL     1     108.388 107.625 108.080  1.00  0.00     0.012 C 
ATOM     31  C   UNL     1     104.952 106.102 105.057  1.00  0.00     0.012 C 
ENDROOT
TORSDOF 0
ENDMDL
MODEL 3
REMARK VINA RESULT:    -5.757      2.777      7.176
REMARK INTER + INTRA:          -5.757
REMARK INTER:                  -5.757
REMARK INTRA:                   0.000
REMARK UNBOUND:                 0.000
REMARK SMILES C[C@@H]1C(=O)CC[C@@H]2[C@]3(C)CC[C@]4(C)[C@H]5CC(C)(C)CC[C@@]5(C)CC[C@]4(C)[C@H]3CC[C@]21C
REMARK SMILES IDX 1 1 2 2 3 3 4 4 5 5 6 6 7 7 30 8 29 9 28 10 27 11 8 12 10 13
REMARK SMILES IDX 11 14 12 15 25 16 24 17 23 18 21 19 14 20 15 21 16 22 19 23
REMARK SMILES IDX 20 24 17 25 18 26 22 27 26 28 13 29 9 30 31 31
REMARK H PARENT
REMARK Flexibility Score: inf
ROOT
ATOM      1  C   UNL     1     110.676 106.562 111.575  1.00  0.00     0.016 C 
ATOM      2  C   UNL     1     109.408 105.680 111.513  1.00  0.00     0.059 C 
ATOM      3  C   UNL     1     109.721 104.230 111.841  1.00  0.00     0.136 C 
ATOM      4  O   UNL     1     110.834 103.889 112.215  1.00  0.00    -0.299 OA
ATOM      5  C   UNL     1     108.619 103.215 111.780  1.00  0.00     0.076 C 
ATOM      6  C   UNL     1     107.831 103.341 110.472  1.00  0.00     0.012 C 
ATOM      7  C   UNL     1     107.389 104.806 110.206  1.00  0.00     0.002 C 
ATOM      8  C   UNL     1     108.627 105.789 110.144  1.00  0.00    -0.020 C 
ATOM      9  C   UNL     1     108.116 107.276 109.980  1.00  0.00     0.008 C 
ATOM     10  C   UNL     1     106.721 107.450 109.336  1.00  0.00     0.005 C 
ATOM     11  C   UNL     1     106.448 106.323 108.317  1.00  0.00     0.002 C 
ATOM     12  C   UNL     1     106.260 104.962 109.071  1.00  0.00    -0.026 C 
ATOM     13  C   UNL     1     106.324 103.852 107.988  1.00  0.00     0.008 C 
ATOM     14  C   UNL     1     105.297 104.069 106.865  1.00  0.00     0.008 C 
ATOM     15  C   UNL     1     105.424 105.406 106.045  1.00  0.00    -0.024 C 
ATOM     16  C   UNL     1     105.507 106.668 107.073  1.00  0.00    -0.024 C 
ATOM     17  C   UNL     1     106.151 107.943 106.384  1.00  0.00     0.008 C 
ATOM     18  C   UNL     1     106.170 107.942 104.865  1.00  0.00     0.007 C 
ATOM     19  C   UNL     1     106.960 106.740 104.272  1.00  0.00    -0.029 C 
ATOM     20  C   UNL     1     106.712 105.406 105.091  1.00  0.00     0.002 C 
ATOM     21  C   UNL     1     107.073 104.114 104.264  1.00  0.00     0.011 C 
ATOM     22  C   UNL     1     106.773 104.073 102.731  1.00  0.00    -0.035 C 
ATOM     23  C   UNL     1     107.139 105.412 102.060  1.00  0.00     0.007 C 
ATOM     24  C   UNL     1     106.534 106.618 102.781  1.00  0.00     0.007 C 
ATOM     25  C   UNL     1     107.654 102.966 102.099  1.00  0.00     0.011 C 
ATOM     26  C   UNL     1     105.303 103.698 102.428  1.00  0.00     0.011 C 
ATOM     27  C   UNL     1     108.479 107.089 104.316  1.00  0.00     0.011 C 
ATOM     28  C   UNL     1     104.103 107.109 107.576  1.00  0.00     0.012 C 
ATOM     29  C   UNL     1     104.129 105.413 105.172  1.00  0.00     0.012 C 
ATOM     30  C   UNL     1     104.894 104.849 109.832  1.00  0.00     0.012 C 
ATOM     31  C   UNL     1     109.612 105.398 108.991  1.00  0.00     0.012 C 
ENDROOT
TORSDOF 0
ENDMDL
MODEL 4
REMARK VINA RESULT:    -5.739      2.264      5.749
REMARK INTER + INTRA:          -5.739
REMARK INTER:                  -5.739
REMARK INTRA:                   0.000
REMARK UNBOUND:                 0.000
REMARK SMILES C[C@@H]1C(=O)CC[C@@H]2[C@]3(C)CC[C@]4(C)[C@H]5CC(C)(C)CC[C@@]5(C)CC[C@]4(C)[C@H]3CC[C@]21C
REMARK SMILES IDX 1 1 2 2 3 3 4 4 5 5 6 6 7 7 30 8 29 9 28 10 27 11 8 12 10 13
REMARK SMILES IDX 11 14 12 15 25 16 24 17 23 18 21 19 14 20 15 21 16 22 19 23
REMARK SMILES IDX 20 24 17 25 18 26 22 27 26 28 13 29 9 30 31 31
REMARK H PARENT
REMARK Flexibility Score: inf
ROOT
ATOM      1  C   UNL     1     108.454 107.496 103.198  1.00  0.00     0.016 C 
ATOM      2  C   UNL     1     108.205 106.166 103.943  1.00  0.00     0.059 C 
ATOM      3  C   UNL     1     107.498 105.154 103.057  1.00  0.00     0.136 C 
ATOM      4  O   UNL     1     107.286 105.384 101.875  1.00  0.00    -0.299 OA
ATOM      5  C   UNL     1     107.126 103.819 103.629  1.00  0.00     0.076 C 
ATOM      6  C   UNL     1     106.419 103.979 104.979  1.00  0.00     0.012 C 
ATOM      7  C   UNL     1     107.215 104.905 105.938  1.00  0.00     0.002 C 
ATOM      8  C   UNL     1     107.439 106.341 105.314  1.00  0.00    -0.020 C 
ATOM      9  C   UNL     1     108.343 107.206 106.282  1.00  0.00     0.008 C 
ATOM     10  C   UNL     1     108.323 106.801 107.774  1.00  0.00     0.005 C 
ATOM     11  C   UNL     1     106.946 106.222 108.163  1.00  0.00     0.002 C 
ATOM     12  C   UNL     1     106.744 104.829 107.474  1.00  0.00    -0.026 C 
ATOM     13  C   UNL     1     105.242 104.477 107.638  1.00  0.00     0.008 C 
ATOM     14  C   UNL     1     104.791 104.497 109.107  1.00  0.00     0.008 C 
ATOM     15  C   UNL     1     104.944 105.865 109.870  1.00  0.00    -0.024 C 
ATOM     16  C   UNL     1     106.458 106.432 109.669  1.00  0.00    -0.024 C 
ATOM     17  C   UNL     1     106.539 107.993 109.937  1.00  0.00     0.008 C 
ATOM     18  C   UNL     1     105.386 108.595 110.722  1.00  0.00     0.007 C 
ATOM     19  C   UNL     1     104.010 108.392 110.026  1.00  0.00    -0.029 C 
ATOM     20  C   UNL     1     103.890 106.959 109.360  1.00  0.00     0.002 C 
ATOM     21  C   UNL     1     102.393 106.540 109.096  1.00  0.00     0.011 C 
ATOM     22  C   UNL     1     101.289 106.940 110.126  1.00  0.00    -0.035 C 
ATOM     23  C   UNL     1     101.494 108.385 110.623  1.00  0.00     0.007 C 
ATOM     24  C   UNL     1     102.920 108.645 111.107  1.00  0.00     0.007 C 
ATOM     25  C   UNL     1      99.917 106.872 109.409  1.00  0.00     0.011 C 
ATOM     26  C   UNL     1     101.215 105.960 111.321  1.00  0.00     0.011 C 
ATOM     27  C   UNL     1     103.859 109.481 108.921  1.00  0.00     0.011 C 
ATOM     28  C   UNL     1     107.468 105.771 110.651  1.00  0.00     0.012 C 
ATOM     29  C   UNL     1     104.624 105.485 111.351  1.00  0.00     0.012 C 
ATOM     30  C   UNL     1     107.605 103.684 108.111  1.00  0.00     0.012 C 
ATOM     31  C   UNL     1     106.078 107.058 105.022  1.00  0.00     0.012 C 
ENDROOT
TORSDOF 0
ENDMDL
MODEL 5
REMARK VINA RESULT:    -5.681      2.944      6.872
REMARK INTER + INTRA:          -5.681
REMARK INTER:                  -5.681
REMARK INTRA:                   0.000
REMARK UNBOUND:                 0.000
REMARK SMILES C[C@@H]1C(=O)CC[C@@H]2[C@]3(C)CC[C@]4(C)[C@H]5CC(C)(C)CC[C@@]5(C)CC[C@]4(C)[C@H]3CC[C@]21C
REMARK SMILES IDX 1 1 2 2 3 3 4 4 5 5 6 6 7 7 30 8 29 9 28 10 27 11 8 12 10 13
REMARK SMILES IDX 11 14 12 15 25 16 24 17 23 18 21 19 14 20 15 21 16 22 19 23
REMARK SMILES IDX 20 24 17 25 18 26 22 27 26 28 13 29 9 30 31 31
REMARK H PARENT
REMARK Flexibility Score: inf
ROOT
ATOM      1  C   UNL     1     106.213 110.401 111.817  1.00  0.00     0.016 C 
ATOM      2  C   UNL     1     106.964 109.059 111.672  1.00  0.00     0.059 C 
ATOM      3  C   UNL     1     108.454 109.223 111.918  1.00  0.00     0.136 C 
ATOM      4  O   UNL     1     108.922 110.288 112.295  1.00  0.00    -0.299 OA
ATOM      5  C   UNL     1     109.353 108.032 111.769  1.00  0.00     0.076 C 
ATOM      6  C   UNL     1     109.075 107.297 110.454  1.00  0.00     0.012 C 
ATOM      7  C   UNL     1     107.562 107.004 110.268  1.00  0.00     0.002 C 
ATOM      8  C   UNL     1     106.700 108.330 110.295  1.00  0.00    -0.020 C 
ATOM      9  C   UNL     1     105.164 107.967 110.211  1.00  0.00     0.008 C 
ATOM     10  C   UNL     1     104.819 106.614 109.547  1.00  0.00     0.005 C 
ATOM     11  C   UNL     1     105.853 106.264 108.455  1.00  0.00     0.002 C 
ATOM     12  C   UNL     1     107.232 105.928 109.120  1.00  0.00    -0.026 C 
ATOM     13  C   UNL     1     108.276 105.917 107.972  1.00  0.00     0.008 C 
ATOM     14  C   UNL     1     107.897 104.948 106.841  1.00  0.00     0.008 C 
ATOM     15  C   UNL     1     106.532 105.224 106.108  1.00  0.00    -0.024 C 
ATOM     16  C   UNL     1     105.347 105.396 107.213  1.00  0.00    -0.024 C 
ATOM     17  C   UNL     1     104.101 106.177 106.619  1.00  0.00     0.008 C 
ATOM     18  C   UNL     1     104.015 106.240 105.103  1.00  0.00     0.007 C 
ATOM     19  C   UNL     1     105.250 106.929 104.456  1.00  0.00    -0.029 C 
ATOM     20  C   UNL     1     106.599 106.533 105.186  1.00  0.00     0.002 C 
ATOM     21  C   UNL     1     107.870 106.793 104.289  1.00  0.00     0.011 C 
ATOM     22  C   UNL     1     107.791 106.536 102.750  1.00  0.00    -0.035 C 
ATOM     23  C   UNL     1     106.456 107.045 102.171  1.00  0.00     0.007 C 
ATOM     24  C   UNL     1     105.243 106.537 102.950  1.00  0.00     0.007 C 
ATOM     25  C   UNL     1     108.938 107.326 102.072  1.00  0.00     0.011 C 
ATOM     26  C   UNL     1     108.005 105.046 102.391  1.00  0.00     0.011 C 
ATOM     27  C   UNL     1     105.052 108.472 104.555  1.00  0.00     0.011 C 
ATOM     28  C   UNL     1     104.803 104.027 107.710  1.00  0.00     0.012 C 
ATOM     29  C   UNL     1     106.349 103.961 105.208  1.00  0.00     0.012 C 
ATOM     30  C   UNL     1     107.257 104.536 109.841  1.00  0.00     0.012 C 
ATOM     31  C   UNL     1     107.115 109.306 109.143  1.00  0.00     0.012 C 
ENDROOT
TORSDOF 0
ENDMDL
MODEL 6
REMARK VINA RESULT:    -5.667      2.903      6.650
REMARK INTER + INTRA:          -5.667
REMARK INTER:                  -5.667
REMARK INTRA:                   0.000
REMARK UNBOUND:                 0.000
REMARK SMILES C[C@@H]1C(=O)CC[C@@H]2[C@]3(C)CC[C@]4(C)[C@H]5CC(C)(C)CC[C@@]5(C)CC[C@]4(C)[C@H]3CC[C@]21C
REMARK SMILES IDX 1 1 2 2 3 3 4 4 5 5 6 6 7 7 30 8 29 9 28 10 27 11 8 12 10 13
REMARK SMILES IDX 11 14 12 15 25 16 24 17 23 18 21 19 14 20 15 21 16 22 19 23
REMARK SMILES IDX 20 24 17 25 18 26 22 27 26 28 13 29 9 30 31 31
REMARK H PARENT
REMARK Flexibility Score: inf
ROOT
ATOM      1  C   UNL     1     101.562 105.949 111.769  1.00  0.00     0.016 C 
ATOM      2  C   UNL     1     102.893 106.723 111.647  1.00  0.00     0.059 C 
ATOM      3  C   UNL     1     102.707 108.202 111.938  1.00  0.00     0.136 C 
ATOM      4  O   UNL     1     101.636 108.642 112.330  1.00  0.00    -0.299 OA
ATOM      5  C   UNL     1     103.884 109.123 111.817  1.00  0.00     0.076 C 
ATOM      6  C   UNL     1     104.622 108.896 110.493  1.00  0.00     0.012 C 
ATOM      7  C   UNL     1     104.938 107.394 110.260  1.00  0.00     0.002 C 
ATOM      8  C   UNL     1     103.624 106.513 110.262  1.00  0.00    -0.020 C 
ATOM      9  C   UNL     1     104.009 104.985 110.129  1.00  0.00     0.008 C 
ATOM     10  C   UNL     1     105.367 104.681 109.455  1.00  0.00     0.005 C 
ATOM     11  C   UNL     1     105.700 105.753 108.395  1.00  0.00     0.002 C 
ATOM     12  C   UNL     1     106.017 107.115 109.102  1.00  0.00    -0.026 C 
ATOM     13  C   UNL     1     106.012 108.195 107.987  1.00  0.00     0.008 C 
ATOM     14  C   UNL     1     106.985 107.864 106.845  1.00  0.00     0.008 C 
ATOM     15  C   UNL     1     106.729 106.519 106.070  1.00  0.00    -0.024 C 
ATOM     16  C   UNL     1     106.575 105.298 107.138  1.00  0.00    -0.024 C 
ATOM     17  C   UNL     1     105.811 104.060 106.506  1.00  0.00     0.008 C 
ATOM     18  C   UNL     1     105.749 104.020 104.988  1.00  0.00     0.007 C 
ATOM     19  C   UNL     1     105.041 105.264 104.380  1.00  0.00    -0.029 C 
ATOM     20  C   UNL     1     105.418 106.596 105.151  1.00  0.00     0.002 C 
ATOM     21  C   UNL     1     105.138 107.890 104.294  1.00  0.00     0.011 C 
ATOM     22  C   UNL     1     105.396 107.862 102.753  1.00  0.00    -0.035 C 
ATOM     23  C   UNL     1     104.905 106.538 102.133  1.00  0.00     0.007 C 
ATOM     24  C   UNL     1     105.432 105.309 102.874  1.00  0.00     0.007 C 
ATOM     25  C   UNL     1     104.588 109.018 102.111  1.00  0.00     0.011 C 
ATOM     26  C   UNL     1     106.882 108.109 102.400  1.00  0.00     0.011 C 
ATOM     27  C   UNL     1     103.501 105.040 104.473  1.00  0.00     0.011 C 
ATOM     28  C   UNL     1     107.952 104.759 107.617  1.00  0.00     0.012 C 
ATOM     29  C   UNL     1     107.993 106.383 105.164  1.00  0.00     0.012 C 
ATOM     30  C   UNL     1     107.409 107.139 109.823  1.00  0.00     0.012 C 
ATOM     31  C   UNL     1     102.641 106.949 109.123  1.00  0.00     0.012 C 
ENDROOT
TORSDOF 0
ENDMDL
MODEL 7
REMARK VINA RESULT:    -5.640      1.845      4.842
REMARK INTER + INTRA:          -5.640
REMARK INTER:                  -5.640
REMARK INTRA:                   0.000
REMARK UNBOUND:                 0.000
REMARK SMILES C[C@@H]1C(=O)CC[C@@H]2[C@]3(C)CC[C@]4(C)[C@H]5CC(C)(C)CC[C@@]5(C)CC[C@]4(C)[C@H]3CC[C@]21C
REMARK SMILES IDX 1 1 2 2 3 3 4 4 5 5 6 6 7 7 30 8 29 9 28 10 27 11 8 12 10 13
REMARK SMILES IDX 11 14 12 15 25 16 24 17 23 18 21 19 14 20 15 21 16 22 19 23
REMARK SMILES IDX 20 24 17 25 18 26 22 27 26 28 13 29 9 30 31 31
REMARK H PARENT
REMARK Flexibility Score: inf
ROOT
ATOM      1  C   UNL     1     105.776 107.866 102.037  1.00  0.00     0.016 C 
ATOM      2  C   UNL     1     105.665 106.583 102.891  1.00  0.00     0.059 C 
ATOM      3  C   UNL     1     104.320 105.903 102.704  1.00  0.00     0.136 C 
ATOM      4  O   UNL     1     103.514 106.305 101.877  1.00  0.00    -0.299 OA
ATOM      5  C   UNL     1     104.011 104.667 103.496  1.00  0.00     0.076 C 
ATOM      6  C   UNL     1     104.340 104.871 104.978  1.00  0.00     0.012 C 
ATOM      7  C   UNL     1     105.772 105.438 105.178  1.00  0.00     0.002 C 
ATOM      8  C   UNL     1     105.967 106.815 104.425  1.00  0.00    -0.020 C 
ATOM      9  C   UNL     1     107.468 107.292 104.570  1.00  0.00     0.008 C 
ATOM     10  C   UNL     1     108.237 106.752 105.798  1.00  0.00     0.005 C 
ATOM     11  C   UNL     1     107.279 106.535 106.989  1.00  0.00     0.002 C 
ATOM     12  C   UNL     1     106.323 105.331 106.684  1.00  0.00    -0.026 C 
ATOM     13  C   UNL     1     105.199 105.388 107.753  1.00  0.00     0.008 C 
ATOM     14  C   UNL     1     105.751 105.376 109.187  1.00  0.00     0.008 C 
ATOM     15  C   UNL     1     106.709 106.560 109.582  1.00  0.00    -0.024 C 
ATOM     16  C   UNL     1     107.880 106.709 108.458  1.00  0.00    -0.024 C 
ATOM     17  C   UNL     1     108.539 108.151 108.487  1.00  0.00     0.008 C 
ATOM     18  C   UNL     1     108.318 108.960 109.755  1.00  0.00     0.007 C 
ATOM     19  C   UNL     1     106.813 109.215 110.054  1.00  0.00    -0.029 C 
ATOM     20  C   UNL     1     105.920 107.949 109.722  1.00  0.00     0.002 C 
ATOM     21  C   UNL     1     104.525 107.985 110.454  1.00  0.00     0.011 C 
ATOM     22  C   UNL     1     104.431 108.562 111.903  1.00  0.00    -0.035 C 
ATOM     23  C   UNL     1     105.289 109.834 112.049  1.00  0.00     0.007 C 
ATOM     24  C   UNL     1     106.720 109.641 111.547  1.00  0.00     0.007 C 
ATOM     25  C   UNL     1     102.955 108.947 112.172  1.00  0.00     0.011 C 
ATOM     26  C   UNL     1     104.820 107.518 112.977  1.00  0.00     0.011 C 
ATOM     27  C   UNL     1     106.341 110.415 109.177  1.00  0.00     0.011 C 
ATOM     28  C   UNL     1     109.040 105.698 108.681  1.00  0.00     0.012 C 
ATOM     29  C   UNL     1     107.254 106.128 110.980  1.00  0.00     0.012 C 
ATOM     30  C   UNL     1     107.028 103.933 106.766  1.00  0.00     0.012 C 
ATOM     31  C   UNL     1     104.974 107.903 104.955  1.00  0.00     0.012 C 
ENDROOT
TORSDOF 0
ENDMDL
MODEL 8
REMARK VINA RESULT:    -5.552      2.418      4.764
REMARK INTER + INTRA:          -5.552
REMARK INTER:                  -5.552
REMARK INTRA:                   0.000
REMARK UNBOUND:                 0.000
REMARK SMILES C[C@@H]1C(=O)CC[C@@H]2[C@]3(C)CC[C@]4(C)[C@H]5CC(C)(C)CC[C@@]5(C)CC[C@]4(C)[C@H]3CC[C@]21C
REMARK SMILES IDX 1 1 2 2 3 3 4 4 5 5 6 6 7 7 30 8 29 9 28 10 27 11 8 12 10 13
REMARK SMILES IDX 11 14 12 15 25 16 24 17 23 18 21 19 14 20 15 21 16 22 19 23
REMARK SMILES IDX 20 24 17 25 18 26 22 27 26 28 13 29 9 30 31 31
REMARK H PARENT
REMARK Flexibility Score: inf
ROOT
ATOM      1  C   UNL     1     104.143 106.042 102.154  1.00  0.00     0.016 C 
ATOM      2  C   UNL     1     105.423 105.851 102.998  1.00  0.00     0.059 C 
ATOM      3  C   UNL     1     106.064 104.499 102.741  1.00  0.00     0.136 C 
ATOM      4  O   UNL     1     105.638 103.748 101.875  1.00  0.00    -0.299 OA
ATOM      5  C   UNL     1     107.292 104.115 103.512  1.00  0.00     0.076 C 
ATOM      6  C   UNL     1     107.100 104.374 105.010  1.00  0.00     0.012 C 
ATOM      7  C   UNL     1     106.575 105.809 105.284  1.00  0.00     0.002 C 
ATOM      8  C   UNL     1     105.203 106.081 104.546  1.00  0.00    -0.020 C 
ATOM      9  C   UNL     1     104.769 107.586 104.769  1.00  0.00     0.008 C 
ATOM     10  C   UNL     1     105.332 108.276 106.032  1.00  0.00     0.005 C 
ATOM     11  C   UNL     1     105.524 107.252 107.172  1.00  0.00     0.002 C 
ATOM     12  C   UNL     1     106.700 106.279 106.816  1.00  0.00    -0.026 C 
ATOM     13  C   UNL     1     106.613 105.105 107.826  1.00  0.00     0.008 C 
ATOM     14  C   UNL     1     106.643 105.583 109.287  1.00  0.00     0.008 C 
ATOM     15  C   UNL     1     105.487 106.552 109.733  1.00  0.00    -0.024 C 
ATOM     16  C   UNL     1     105.370 107.783 108.671  1.00  0.00    -0.024 C 
ATOM     17  C   UNL     1     103.947 108.480 108.738  1.00  0.00     0.008 C 
ATOM     18  C   UNL     1     103.135 108.218 109.995  1.00  0.00     0.007 C 
ATOM     19  C   UNL     1     102.837 106.708 110.218  1.00  0.00    -0.029 C 
ATOM     20  C   UNL     1     104.077 105.798 109.837  1.00  0.00     0.002 C 
ATOM     21  C   UNL     1     104.002 104.368 110.498  1.00  0.00     0.011 C 
ATOM     22  C   UNL     1     103.425 104.218 111.942  1.00  0.00    -0.035 C 
ATOM     23  C   UNL     1     102.178 105.103 112.136  1.00  0.00     0.007 C 
ATOM     24  C   UNL     1     102.411 106.552 111.706  1.00  0.00     0.007 C 
ATOM     25  C   UNL     1     102.998 102.741 112.137  1.00  0.00     0.011 C 
ATOM     26  C   UNL     1     104.481 104.522 113.032  1.00  0.00     0.011 C 
ATOM     27  C   UNL     1     101.623 106.315 109.323  1.00  0.00     0.011 C 
ATOM     28  C   UNL     1     106.414 108.900 108.949  1.00  0.00     0.012 C 
ATOM     29  C   UNL     1     105.937 107.013 111.156  1.00  0.00     0.012 C 
ATOM     30  C   UNL     1     108.117 106.940 106.929  1.00  0.00     0.012 C 
ATOM     31  C   UNL     1     104.087 105.094 105.029  1.00  0.00     0.012 C 
ENDROOT
TORSDOF 0
ENDMDL
