MODEL 1
REMARK VINA RESULT:    -6.058      0.000      0.000
REMARK INTER + INTRA:          -6.933
REMARK INTER:                  -6.766
REMARK INTRA:                  -0.166
REMARK UNBOUND:                -0.166
REMARK SMILES COc1cc2ccc(=O)oc2cc1OC
REMARK SMILES IDX 3 1 13 2 12 3 11 4 5 5 4 6 6 7 7 8 8 9 9 10 10 11 2 12 1 13
REMARK SMILES IDX 14 14 15 15
REMARK H PARENT
REMARK Flexibility Score: inf
ROOT
ATOM      1  C   UNL     1     -13.366  -1.588 -10.359  1.00  0.00     0.161 A 
ATOM      2  C   UNL     1     -11.977  -1.516 -10.159  1.00  0.00     0.164 A 
ATOM      3  C   UNL     1     -11.387  -0.296  -9.775  1.00  0.00     0.098 A 
ATOM      4  C   UNL     1     -12.173   0.843  -9.592  1.00  0.00     0.142 A 
ATOM      5  C   UNL     1     -13.567   0.773  -9.793  1.00  0.00     0.022 A 
ATOM      6  C   UNL     1     -14.159  -0.437 -10.174  1.00  0.00     0.062 A 
ATOM      7  C   UNL     1     -14.327   1.933  -9.602  1.00  0.00     0.019 A 
ATOM      8  C   UNL     1     -13.691   3.114  -9.223  1.00  0.00     0.094 A 
ATOM      9  C   UNL     1     -12.304   3.109  -9.043  1.00  0.00     0.336 A 
ATOM     10  O   UNL     1     -11.710   4.164  -8.700  1.00  0.00    -0.246 OA
ATOM     11  O   UNL     1     -11.605   1.991  -9.231  1.00  0.00    -0.423 OA
ENDROOT
BRANCH   1  12
ATOM     12  O   UNL     1     -13.922  -2.819 -10.740  1.00  0.00    -0.493 OA
ATOM     13  C   UNL     1     -14.590  -3.713  -9.856  1.00  0.00     0.278 C 
ENDBRANCH   1  12
BRANCH   2  14
ATOM     14  O   UNL     1     -11.218  -2.682 -10.351  1.00  0.00    -0.493 OA
ATOM     15  C   UNL     1     -10.716  -3.501  -9.300  1.00  0.00     0.278 C 
ENDBRANCH   2  14
TORSDOF 2
ENDMDL
MODEL 2
REMARK VINA RESULT:    -5.672      1.397      1.971
REMARK INTER + INTRA:          -6.501
REMARK INTER:                  -6.369
REMARK INTRA:                  -0.132
REMARK UNBOUND:                -0.166
REMARK SMILES COc1cc2ccc(=O)oc2cc1OC
REMARK SMILES IDX 3 1 13 2 12 3 11 4 5 5 4 6 6 7 7 8 8 9 9 10 10 11 2 12 1 13
REMARK SMILES IDX 14 14 15 15
REMARK H PARENT
REMARK Flexibility Score: inf
ROOT
ATOM      1  C   UNL     1     -11.580  -2.774  -9.930  1.00  0.00     0.161 A 
ATOM      2  C   UNL     1     -10.427  -2.048  -9.586  1.00  0.00     0.164 A 
ATOM      3  C   UNL     1     -10.503  -0.651  -9.422  1.00  0.00     0.098 A 
ATOM      4  C   UNL     1     -11.716   0.017  -9.600  1.00  0.00     0.142 A 
ATOM      5  C   UNL     1     -12.873  -0.710  -9.945  1.00  0.00     0.022 A 
ATOM      6  C   UNL     1     -12.804  -2.099 -10.109  1.00  0.00     0.062 A 
ATOM      7  C   UNL     1     -14.073  -0.011 -10.116  1.00  0.00     0.019 A 
ATOM      8  C   UNL     1     -14.092   1.372  -9.942  1.00  0.00     0.094 A 
ATOM      9  C   UNL     1     -12.904   2.027  -9.600  1.00  0.00     0.336 A 
ATOM     10  O   UNL     1     -12.899   3.275  -9.438  1.00  0.00    -0.246 OA
ATOM     11  O   UNL     1     -11.777   1.337  -9.443  1.00  0.00    -0.423 OA
ENDROOT
BRANCH   1  12
ATOM     12  O   UNL     1     -11.469  -4.165 -10.084  1.00  0.00    -0.493 OA
ATOM     13  C   UNL     1     -11.851  -5.121  -9.100  1.00  0.00     0.278 C 
ENDBRANCH   1  12
BRANCH   2  14
ATOM     14  O   UNL     1      -9.224  -2.753  -9.415  1.00  0.00    -0.493 OA
ATOM     15  C   UNL     1      -8.764  -3.275  -8.173  1.00  0.00     0.278 C 
ENDBRANCH   2  14
TORSDOF 2
ENDMDL
MODEL 3
REMARK VINA RESULT:    -5.312      3.822      6.136
REMARK INTER + INTRA:          -6.100
REMARK INTER:                  -5.986
REMARK INTRA:                  -0.114
REMARK UNBOUND:                -0.166
REMARK SMILES COc1cc2ccc(=O)oc2cc1OC
REMARK SMILES IDX 3 1 13 2 12 3 11 4 5 5 4 6 6 7 7 8 8 9 9 10 10 11 2 12 1 13
REMARK SMILES IDX 14 14 15 15
REMARK H PARENT
REMARK Flexibility Score: inf
ROOT
ATOM      1  C   UNL     1     -10.417  -6.683  -7.576  1.00  0.00     0.161 A 
ATOM      2  C   UNL     1     -11.158  -6.716  -8.770  1.00  0.00     0.164 A 
ATOM      3  C   UNL     1     -11.365  -5.527  -9.498  1.00  0.00     0.098 A 
ATOM      4  C   UNL     1     -10.841  -4.317  -9.040  1.00  0.00     0.142 A 
ATOM      5  C   UNL     1     -10.099  -4.282  -7.842  1.00  0.00     0.022 A 
ATOM      6  C   UNL     1      -9.889  -5.460  -7.115  1.00  0.00     0.062 A 
ATOM      7  C   UNL     1      -9.587  -3.054  -7.410  1.00  0.00     0.019 A 
ATOM      8  C   UNL     1      -9.823  -1.908  -8.169  1.00  0.00     0.094 A 
ATOM      9  C   UNL     1     -10.570  -2.018  -9.347  1.00  0.00     0.336 A 
ATOM     10  O   UNL     1     -10.794  -0.997 -10.046  1.00  0.00    -0.246 OA
ATOM     11  O   UNL     1     -11.044  -3.200  -9.734  1.00  0.00    -0.423 OA
ENDROOT
BRANCH   1  12
ATOM     12  O   UNL     1     -10.228  -7.885  -6.877  1.00  0.00    -0.493 OA
ATOM     13  C   UNL     1     -10.647  -8.116  -5.536  1.00  0.00     0.278 C 
ENDBRANCH   1  12
BRANCH   2  14
ATOM     14  O   UNL     1     -11.670  -7.951  -9.201  1.00  0.00    -0.493 OA
ATOM     15  C   UNL     1     -12.504  -8.125 -10.341  1.00  0.00     0.278 C 
ENDBRANCH   2  14
TORSDOF 2
ENDMDL
MODEL 4
REMARK VINA RESULT:    -5.142      5.443      6.491
REMARK INTER + INTRA:          -5.909
REMARK INTER:                  -5.795
REMARK INTRA:                  -0.114
REMARK UNBOUND:                -0.166
REMARK SMILES COc1cc2ccc(=O)oc2cc1OC
REMARK SMILES IDX 3 1 13 2 12 3 11 4 5 5 4 6 6 7 7 8 8 9 9 10 10 11 2 12 1 13
REMARK SMILES IDX 14 14 15 15
REMARK H PARENT
REMARK Flexibility Score: inf
ROOT
ATOM      1  C   UNL     1     -12.753  -6.041  -7.482  1.00  0.00     0.161 A 
ATOM      2  C   UNL     1     -11.917  -6.218  -6.366  1.00  0.00     0.164 A 
ATOM      3  C   UNL     1     -10.638  -5.628  -6.348  1.00  0.00     0.098 A 
ATOM      4  C   UNL     1     -10.195  -4.868  -7.432  1.00  0.00     0.142 A 
ATOM      5  C   UNL     1     -11.032  -4.689  -8.552  1.00  0.00     0.022 A 
ATOM      6  C   UNL     1     -12.304  -5.273  -8.575  1.00  0.00     0.062 A 
ATOM      7  C   UNL     1     -10.558  -3.922  -9.623  1.00  0.00     0.019 A 
ATOM      8  C   UNL     1      -9.284  -3.361  -9.553  1.00  0.00     0.094 A 
ATOM      9  C   UNL     1      -8.509  -3.583  -8.410  1.00  0.00     0.336 A 
ATOM     10  O   UNL     1      -7.356  -3.085  -8.326  1.00  0.00    -0.246 OA
ATOM     11  O   UNL     1      -8.984  -4.316  -7.406  1.00  0.00    -0.423 OA
ENDROOT
BRANCH   1  12
ATOM     12  O   UNL     1     -14.021  -6.641  -7.466  1.00  0.00    -0.493 OA
ATOM     13  C   UNL     1     -14.733  -7.059  -8.625  1.00  0.00     0.278 C 
ENDBRANCH   1  12
BRANCH   2  14
ATOM     14  O   UNL     1     -12.396  -6.989  -5.293  1.00  0.00    -0.493 OA
ATOM     15  C   UNL     1     -11.713  -8.106  -4.734  1.00  0.00     0.278 C 
ENDBRANCH   2  14
TORSDOF 2
ENDMDL
MODEL 5
REMARK VINA RESULT:    -5.002     16.596     18.219
REMARK INTER + INTRA:          -5.753
REMARK INTER:                  -5.624
REMARK INTRA:                  -0.129
REMARK UNBOUND:                -0.166
REMARK SMILES COc1cc2ccc(=O)oc2cc1OC
REMARK SMILES IDX 3 1 13 2 12 3 11 4 5 5 4 6 6 7 7 8 8 9 9 10 10 11 2 12 1 13
REMARK SMILES IDX 14 14 15 15
REMARK H PARENT
REMARK Flexibility Score: inf
ROOT
ATOM      1  C   UNL     1     -11.282   6.668   6.434  1.00  0.00     0.161 A 
ATOM      2  C   UNL     1     -10.144   5.958   6.852  1.00  0.00     0.164 A 
ATOM      3  C   UNL     1      -8.889   6.598   6.874  1.00  0.00     0.098 A 
ATOM      4  C   UNL     1      -8.768   7.932   6.483  1.00  0.00     0.142 A 
ATOM      5  C   UNL     1      -9.910   8.646   6.064  1.00  0.00     0.022 A 
ATOM      6  C   UNL     1     -11.160   8.016   6.040  1.00  0.00     0.062 A 
ATOM      7  C   UNL     1      -9.756   9.983   5.679  1.00  0.00     0.019 A 
ATOM      8  C   UNL     1      -8.490  10.566   5.720  1.00  0.00     0.094 A 
ATOM      9  C   UNL     1      -7.403   9.796   6.146  1.00  0.00     0.336 A 
ATOM     10  O   UNL     1      -6.252  10.303   6.191  1.00  0.00    -0.246 OA
ATOM     11  O   UNL     1      -7.578   8.527   6.507  1.00  0.00    -0.423 OA
ENDROOT
BRANCH   1  12
ATOM     12  O   UNL     1     -12.517   6.001   6.425  1.00  0.00    -0.493 OA
ATOM     13  C   UNL     1     -13.237   5.646   5.249  1.00  0.00     0.278 C 
ENDBRANCH   1  12
BRANCH   2  14
ATOM     14  O   UNL     1     -10.302   4.616   7.237  1.00  0.00    -0.493 OA
ATOM     15  C   UNL     1     -10.443   4.175   8.583  1.00  0.00     0.278 C 
ENDBRANCH   2  14
TORSDOF 2
ENDMDL
MODEL 6
REMARK VINA RESULT:    -4.979     17.859     18.876
REMARK INTER + INTRA:          -5.727
REMARK INTER:                  -5.610
REMARK INTRA:                  -0.117
REMARK UNBOUND:                -0.166
REMARK SMILES COc1cc2ccc(=O)oc2cc1OC
REMARK SMILES IDX 3 1 13 2 12 3 11 4 5 5 4 6 6 7 7 8 8 9 9 10 10 11 2 12 1 13
REMARK SMILES IDX 14 14 15 15
REMARK H PARENT
REMARK Flexibility Score: inf
ROOT
ATOM      1  C   UNL     1      -9.120   9.744   5.654  1.00  0.00     0.161 A 
ATOM      2  C   UNL     1     -10.489  10.040   5.762  1.00  0.00     0.164 A 
ATOM      3  C   UNL     1     -11.394   9.033   6.152  1.00  0.00     0.098 A 
ATOM      4  C   UNL     1     -10.939   7.743   6.431  1.00  0.00     0.142 A 
ATOM      5  C   UNL     1      -9.566   7.445   6.324  1.00  0.00     0.022 A 
ATOM      6  C   UNL     1      -8.662   8.442   5.937  1.00  0.00     0.062 A 
ATOM      7  C   UNL     1      -9.142   6.142   6.610  1.00  0.00     0.019 A 
ATOM      8  C   UNL     1     -10.081   5.184   6.991  1.00  0.00     0.094 A 
ATOM      9  C   UNL     1     -11.427   5.552   7.075  1.00  0.00     0.336 A 
ATOM     10  O   UNL     1     -12.291   4.703   7.417  1.00  0.00    -0.246 OA
ATOM     11  O   UNL     1     -11.803   6.799   6.798  1.00  0.00    -0.423 OA
ENDROOT
BRANCH   1  12
ATOM     12  O   UNL     1      -8.246  10.771   5.265  1.00  0.00    -0.493 OA
ATOM     13  C   UNL     1      -6.858  10.595   5.001  1.00  0.00     0.278 C 
ENDBRANCH   1  12
BRANCH   2  14
ATOM     14  O   UNL     1     -10.911  11.348   5.474  1.00  0.00    -0.493 OA
ATOM     15  C   UNL     1     -11.530  11.746   4.255  1.00  0.00     0.278 C 
ENDBRANCH   2  14
TORSDOF 2
ENDMDL
MODEL 7
REMARK VINA RESULT:    -4.946      2.508      4.566
REMARK INTER + INTRA:          -5.691
REMARK INTER:                  -5.610
REMARK INTRA:                  -0.081
REMARK UNBOUND:                -0.166
REMARK SMILES COc1cc2ccc(=O)oc2cc1OC
REMARK SMILES IDX 3 1 13 2 12 3 11 4 5 5 4 6 6 7 7 8 8 9 9 10 10 11 2 12 1 13
REMARK SMILES IDX 14 14 15 15
REMARK H PARENT
REMARK Flexibility Score: inf
ROOT
ATOM      1  C   UNL     1     -10.731  -4.799  -8.977  1.00  0.00     0.161 A 
ATOM      2  C   UNL     1     -12.071  -5.157  -9.204  1.00  0.00     0.164 A 
ATOM      3  C   UNL     1     -12.992  -4.184  -9.640  1.00  0.00     0.098 A 
ATOM      4  C   UNL     1     -12.582  -2.866  -9.847  1.00  0.00     0.142 A 
ATOM      5  C   UNL     1     -11.239  -2.505  -9.620  1.00  0.00     0.022 A 
ATOM      6  C   UNL     1     -10.319  -3.468  -9.187  1.00  0.00     0.062 A 
ATOM      7  C   UNL     1     -10.860  -1.175  -9.837  1.00  0.00     0.019 A 
ATOM      8  C   UNL     1     -11.812  -0.252 -10.268  1.00  0.00     0.094 A 
ATOM      9  C   UNL     1     -13.128  -0.683 -10.472  1.00  0.00     0.336 A 
ATOM     10  O   UNL     1     -14.002   0.133 -10.861  1.00  0.00    -0.246 OA
ATOM     11  O   UNL     1     -13.460  -1.954 -10.258  1.00  0.00    -0.423 OA
ENDROOT
BRANCH   1  12
ATOM     12  O   UNL     1      -9.840  -5.793  -8.544  1.00  0.00    -0.493 OA
ATOM     13  C   UNL     1      -9.655  -6.178  -7.186  1.00  0.00     0.278 C 
ENDBRANCH   1  12
BRANCH   2  14
ATOM     14  O   UNL     1     -12.448  -6.493  -8.985  1.00  0.00    -0.493 OA
ATOM     15  C   UNL     1     -12.609  -7.464 -10.013  1.00  0.00     0.278 C 
ENDBRANCH   2  14
TORSDOF 2
ENDMDL
MODEL 8
REMARK VINA RESULT:    -4.388     16.789     18.415
REMARK INTER + INTRA:          -5.068
REMARK INTER:                  -4.986
REMARK INTRA:                  -0.082
REMARK UNBOUND:                -0.166
REMARK SMILES COc1cc2ccc(=O)oc2cc1OC
REMARK SMILES IDX 3 1 13 2 12 3 11 4 5 5 4 6 6 7 7 8 8 9 9 10 10 11 2 12 1 13
REMARK SMILES IDX 14 14 15 15
REMARK H PARENT
REMARK Flexibility Score: inf
ROOT
ATOM      1  C   UNL     1      -9.949   6.300   6.938  1.00  0.00     0.161 A 
ATOM      2  C   UNL     1     -11.157   6.894   6.536  1.00  0.00     0.164 A 
ATOM      3  C   UNL     1     -11.161   8.221   6.063  1.00  0.00     0.098 A 
ATOM      4  C   UNL     1      -9.973   8.950   5.991  1.00  0.00     0.142 A 
ATOM      5  C   UNL     1      -8.760   8.355   6.394  1.00  0.00     0.022 A 
ATOM      6  C   UNL     1      -8.750   7.037   6.865  1.00  0.00     0.062 A 
ATOM      7  C   UNL     1      -7.586   9.112   6.310  1.00  0.00     0.019 A 
ATOM      8  C   UNL     1      -7.647  10.422   5.834  1.00  0.00     0.094 A 
ATOM      9  C   UNL     1      -8.887  10.946   5.453  1.00  0.00     0.336 A 
ATOM     10  O   UNL     1      -8.964  12.125   5.021  1.00  0.00    -0.246 OA
ATOM     11  O   UNL     1      -9.987  10.203   5.543  1.00  0.00    -0.423 OA
ENDROOT
BRANCH   1  12
ATOM     12  O   UNL     1      -9.980   4.976   7.403  1.00  0.00    -0.493 OA
ATOM     13  C   UNL     1     -10.228   4.599   8.754  1.00  0.00     0.278 C 
ENDBRANCH   1  12
BRANCH   2  14
ATOM     14  O   UNL     1     -12.334   6.132   6.622  1.00  0.00    -0.493 OA
ATOM     15  C   UNL     1     -12.886   5.377   5.549  1.00  0.00     0.278 C 
ENDBRANCH   2  14
TORSDOF 2
ENDMDL
