MODEL 1
REMARK VINA RESULT:    -4.823      0.000      0.000
REMARK INTER + INTRA:          -5.587
REMARK INTER:                  -5.387
REMARK INTRA:                  -0.200
REMARK UNBOUND:                -0.200
REMARK SMILES O=C([O-])c1ccccc1C(=O)[O-]
REMARK SMILES IDX 4 1 9 2 5 3 8 4 6 5 7 6 2 7 1 8 3 9 10 10 11 11 12 12
REMARK H PARENT
REMARK Flexibility Score: inf
ROOT
ATOM      1  C   UNL     1      13.786 -30.317  23.588  1.00  0.00     0.006 A 
ATOM      2  C   UNL     1      15.108 -29.865  23.318  1.00  0.00     0.006 A 
ATOM      3  C   UNL     1      13.586 -31.657  23.971  1.00  0.00     0.010 A 
ATOM      4  C   UNL     1      16.185 -30.751  23.502  1.00  0.00     0.010 A 
ATOM      5  C   UNL     1      14.668 -32.524  24.125  1.00  0.00     0.001 A 
ATOM      6  C   UNL     1      15.966 -32.069  23.903  1.00  0.00     0.001 A 
ENDROOT
BRANCH   1   7
ATOM      7  C   UNL     1      12.610 -29.417  23.556  1.00  0.00     0.072 C 
ATOM      8  O   UNL     1      11.743 -29.540  22.650  1.00  0.00    -0.545 OA
ATOM      9  O   UNL     1      12.413 -28.472  24.556  1.00  0.00    -0.545 OA
ENDBRANCH   1   7
BRANCH   2  10
ATOM     10  C   UNL     1      15.404 -28.517  22.780  1.00  0.00     0.072 C 
ATOM     11  O   UNL     1      15.581 -28.340  21.547  1.00  0.00    -0.545 OA
ATOM     12  O   UNL     1      15.558 -27.440  23.646  1.00  0.00    -0.545 OA
ENDBRANCH   2  10
TORSDOF 2
ENDMDL
MODEL 2
REMARK VINA RESULT:    -4.801      0.184      3.022
REMARK INTER + INTRA:          -5.563
REMARK INTER:                  -5.368
REMARK INTRA:                  -0.194
REMARK UNBOUND:                -0.200
REMARK SMILES O=C([O-])c1ccccc1C(=O)[O-]
REMARK SMILES IDX 4 1 9 2 5 3 8 4 6 5 7 6 2 7 1 8 3 9 10 10 11 11 12 12
REMARK H PARENT
REMARK Flexibility Score: inf
ROOT
ATOM      1  C   UNL     1      15.184 -30.010  23.290  1.00  0.00     0.006 A 
ATOM      2  C   UNL     1      13.856 -30.378  23.643  1.00  0.00     0.006 A 
ATOM      3  C   UNL     1      16.215 -30.961  23.416  1.00  0.00     0.010 A 
ATOM      4  C   UNL     1      13.598 -31.700  24.048  1.00  0.00     0.010 A 
ATOM      5  C   UNL     1      15.938 -32.260  23.842  1.00  0.00     0.001 A 
ATOM      6  C   UNL     1      14.630 -32.633  24.145  1.00  0.00     0.001 A 
ENDROOT
BRANCH   1   7
ATOM      7  C   UNL     1      15.523 -28.684  22.722  1.00  0.00     0.072 C 
ATOM      8  O   UNL     1      15.544 -28.516  21.473  1.00  0.00    -0.545 OA
ATOM      9  O   UNL     1      15.758 -27.596  23.554  1.00  0.00    -0.545 OA
ENDBRANCH   1   7
BRANCH   2  10
ATOM     10  C   UNL     1      12.733 -29.412  23.673  1.00  0.00     0.072 C 
ATOM     11  O   UNL     1      12.624 -28.580  24.612  1.00  0.00    -0.545 OA
ATOM     12  O   UNL     1      11.746 -29.460  22.695  1.00  0.00    -0.545 OA
ENDBRANCH   2  10
TORSDOF 2
ENDMDL
MODEL 3
REMARK VINA RESULT:    -4.736      2.497      4.280
REMARK INTER + INTRA:          -5.490
REMARK INTER:                  -5.444
REMARK INTRA:                  -0.046
REMARK UNBOUND:                -0.200
REMARK SMILES O=C([O-])c1ccccc1C(=O)[O-]
REMARK SMILES IDX 4 1 9 2 5 3 8 4 6 5 7 6 2 7 1 8 3 9 10 10 11 11 12 12
REMARK H PARENT
REMARK Flexibility Score: inf
ROOT
ATOM      1  C   UNL     1      14.344 -30.040  22.785  1.00  0.00     0.006 A 
ATOM      2  C   UNL     1      13.393 -30.870  22.129  1.00  0.00     0.006 A 
ATOM      3  C   UNL     1      13.903 -28.864  23.422  1.00  0.00     0.010 A 
ATOM      4  C   UNL     1      12.030 -30.528  22.190  1.00  0.00     0.010 A 
ATOM      5  C   UNL     1      12.548 -28.533  23.449  1.00  0.00     0.001 A 
ATOM      6  C   UNL     1      11.612 -29.370  22.845  1.00  0.00     0.001 A 
ENDROOT
BRANCH   1   7
ATOM      7  C   UNL     1      15.779 -30.395  22.891  1.00  0.00     0.072 C 
ATOM      8  O   UNL     1      16.210 -30.989  23.914  1.00  0.00    -0.545 OA
ATOM      9  O   UNL     1      16.652 -30.138  21.840  1.00  0.00    -0.545 OA
ENDBRANCH   1   7
BRANCH   2  10
ATOM     10  C   UNL     1      13.776 -32.050  21.319  1.00  0.00     0.072 C 
ATOM     11  O   UNL     1      13.436 -32.140  20.110  1.00  0.00    -0.545 OA
ATOM     12  O   UNL     1      14.460 -33.107  21.909  1.00  0.00    -0.545 OA
ENDBRANCH   2  10
TORSDOF 2
ENDMDL
MODEL 4
REMARK VINA RESULT:    -4.674      2.580      3.588
REMARK INTER + INTRA:          -5.420
REMARK INTER:                  -5.385
REMARK INTRA:                  -0.035
REMARK UNBOUND:                -0.200
REMARK SMILES O=C([O-])c1ccccc1C(=O)[O-]
REMARK SMILES IDX 4 1 9 2 5 3 8 4 6 5 7 6 2 7 1 8 3 9 10 10 11 11 12 12
REMARK H PARENT
REMARK Flexibility Score: inf
ROOT
ATOM      1  C   UNL     1      13.478 -30.957  22.110  1.00  0.00     0.006 A 
ATOM      2  C   UNL     1      14.493 -30.141  22.683  1.00  0.00     0.006 A 
ATOM      3  C   UNL     1      12.129 -30.584  22.267  1.00  0.00     0.010 A 
ATOM      4  C   UNL     1      14.125 -28.951  23.337  1.00  0.00     0.010 A 
ATOM      5  C   UNL     1      11.787 -29.411  22.940  1.00  0.00     0.001 A 
ATOM      6  C   UNL     1      12.783 -28.590  23.463  1.00  0.00     0.001 A 
ENDROOT
BRANCH   1   7
ATOM      7  C   UNL     1      13.781 -32.150  21.286  1.00  0.00     0.072 C 
ATOM      8  O   UNL     1      13.423 -32.195  20.079  1.00  0.00    -0.545 OA
ATOM      9  O   UNL     1      14.518 -33.205  21.811  1.00  0.00    -0.545 OA
ENDBRANCH   1   7
BRANCH   2  10
ATOM     10  C   UNL     1      15.925 -30.519  22.688  1.00  0.00     0.072 C 
ATOM     11  O   UNL     1      16.460 -31.003  23.720  1.00  0.00    -0.545 OA
ATOM     12  O   UNL     1      16.712 -30.281  21.567  1.00  0.00    -0.545 OA
ENDBRANCH   2  10
TORSDOF 2
ENDMDL
MODEL 5
REMARK VINA RESULT:    -4.557      3.631      4.727
REMARK INTER + INTRA:          -5.291
REMARK INTER:                  -5.079
REMARK INTRA:                  -0.212
REMARK UNBOUND:                -0.200
REMARK SMILES O=C([O-])c1ccccc1C(=O)[O-]
REMARK SMILES IDX 4 1 9 2 5 3 8 4 6 5 7 6 2 7 1 8 3 9 10 10 11 11 12 12
REMARK H PARENT
REMARK Flexibility Score: inf
ROOT
ATOM      1  C   UNL     1      14.574 -32.493  21.753  1.00  0.00     0.006 A 
ATOM      2  C   UNL     1      14.703 -32.100  23.114  1.00  0.00     0.006 A 
ATOM      3  C   UNL     1      13.533 -31.947  20.978  1.00  0.00     0.010 A 
ATOM      4  C   UNL     1      13.827 -31.129  23.631  1.00  0.00     0.010 A 
ATOM      5  C   UNL     1      12.662 -31.001  21.520  1.00  0.00     0.001 A 
ATOM      6  C   UNL     1      12.816 -30.584  22.840  1.00  0.00     0.001 A 
ENDROOT
BRANCH   1   7
ATOM      7  C   UNL     1      15.536 -33.403  21.088  1.00  0.00     0.072 C 
ATOM      8  O   UNL     1      16.645 -32.965  20.681  1.00  0.00    -0.545 OA
ATOM      9  O   UNL     1      15.258 -34.760  20.963  1.00  0.00    -0.545 OA
ENDBRANCH   1   7
BRANCH   2  10
ATOM     10  C   UNL     1      15.678 -32.719  24.043  1.00  0.00     0.072 C 
ATOM     11  O   UNL     1      15.415 -33.806  24.622  1.00  0.00    -0.545 OA
ATOM     12  O   UNL     1      16.870 -32.068  24.337  1.00  0.00    -0.545 OA
ENDBRANCH   2  10
TORSDOF 2
ENDMDL
MODEL 6
REMARK VINA RESULT:    -4.549      4.430      5.199
REMARK INTER + INTRA:          -5.281
REMARK INTER:                  -5.063
REMARK INTRA:                  -0.218
REMARK UNBOUND:                -0.200
REMARK SMILES O=C([O-])c1ccccc1C(=O)[O-]
REMARK SMILES IDX 4 1 9 2 5 3 8 4 6 5 7 6 2 7 1 8 3 9 10 10 11 11 12 12
REMARK H PARENT
REMARK Flexibility Score: inf
ROOT
ATOM      1  C   UNL     1      16.040 -33.997  20.865  1.00  0.00     0.006 A 
ATOM      2  C   UNL     1      17.329 -33.396  20.827  1.00  0.00     0.006 A 
ATOM      3  C   UNL     1      15.814 -35.178  20.132  1.00  0.00     0.010 A 
ATOM      4  C   UNL     1      18.359 -34.031  20.110  1.00  0.00     0.010 A 
ATOM      5  C   UNL     1      16.846 -35.778  19.410  1.00  0.00     0.001 A 
ATOM      6  C   UNL     1      18.119 -35.212  19.409  1.00  0.00     0.001 A 
ENDROOT
BRANCH   1   7
ATOM      7  C   UNL     1      14.937 -33.475  21.705  1.00  0.00     0.072 C 
ATOM      8  O   UNL     1      14.897 -33.740  22.936  1.00  0.00    -0.545 OA
ATOM      9  O   UNL     1      13.970 -32.635  21.163  1.00  0.00    -0.545 OA
ENDBRANCH   1   7
BRANCH   2  10
ATOM     10  C   UNL     1      17.625 -32.085  21.452  1.00  0.00     0.072 C 
ATOM     11  O   UNL     1      17.550 -31.021  20.784  1.00  0.00    -0.545 OA
ATOM     12  O   UNL     1      18.056 -32.025  22.772  1.00  0.00    -0.545 OA
ENDBRANCH   2  10
TORSDOF 2
ENDMDL
MODEL 7
REMARK VINA RESULT:    -4.546      4.422      5.866
REMARK INTER + INTRA:          -5.278
REMARK INTER:                  -5.055
REMARK INTRA:                  -0.223
REMARK UNBOUND:                -0.200
REMARK SMILES O=C([O-])c1ccccc1C(=O)[O-]
REMARK SMILES IDX 4 1 9 2 5 3 8 4 6 5 7 6 2 7 1 8 3 9 10 10 11 11 12 12
REMARK H PARENT
REMARK Flexibility Score: inf
ROOT
ATOM      1  C   UNL     1      17.331 -33.403  20.863  1.00  0.00     0.006 A 
ATOM      2  C   UNL     1      16.037 -33.995  20.871  1.00  0.00     0.006 A 
ATOM      3  C   UNL     1      18.372 -34.042  20.162  1.00  0.00     0.010 A 
ATOM      4  C   UNL     1      15.818 -35.169  20.127  1.00  0.00     0.010 A 
ATOM      5  C   UNL     1      18.136 -35.217  19.450  1.00  0.00     0.001 A 
ATOM      6  C   UNL     1      16.859 -35.773  19.423  1.00  0.00     0.001 A 
ENDROOT
BRANCH   1   7
ATOM      7  C   UNL     1      17.617 -32.097  21.502  1.00  0.00     0.072 C 
ATOM      8  O   UNL     1      17.529 -31.032  20.834  1.00  0.00    -0.545 OA
ATOM      9  O   UNL     1      17.922 -32.022  22.856  1.00  0.00    -0.545 OA
ENDBRANCH   1   7
BRANCH   2  10
ATOM     10  C   UNL     1      14.917 -33.473  21.688  1.00  0.00     0.072 C 
ATOM     11  O   UNL     1      14.021 -32.756  21.169  1.00  0.00    -0.545 OA
ATOM     12  O   UNL     1      14.880 -33.714  23.056  1.00  0.00    -0.545 OA
ENDBRANCH   2  10
TORSDOF 2
ENDMDL
MODEL 8
REMARK VINA RESULT:    -4.544      2.535      3.798
REMARK INTER + INTRA:          -5.276
REMARK INTER:                  -5.062
REMARK INTRA:                  -0.214
REMARK UNBOUND:                -0.200
REMARK SMILES O=C([O-])c1ccccc1C(=O)[O-]
REMARK SMILES IDX 4 1 9 2 5 3 8 4 6 5 7 6 2 7 1 8 3 9 10 10 11 11 12 12
REMARK H PARENT
REMARK Flexibility Score: inf
ROOT
ATOM      1  C   UNL     1      14.387 -30.653  22.316  1.00  0.00     0.006 A 
ATOM      2  C   UNL     1      15.107 -31.456  23.243  1.00  0.00     0.006 A 
ATOM      3  C   UNL     1      14.883 -29.377  21.987  1.00  0.00     0.010 A 
ATOM      4  C   UNL     1      16.327 -30.981  23.757  1.00  0.00     0.010 A 
ATOM      5  C   UNL     1      16.084 -28.917  22.526  1.00  0.00     0.001 A 
ATOM      6  C   UNL     1      16.811 -29.722  23.400  1.00  0.00     0.001 A 
ENDROOT
BRANCH   1   7
ATOM      7  C   UNL     1      13.168 -31.129  21.621  1.00  0.00     0.072 C 
ATOM      8  O   UNL     1      12.031 -30.739  21.996  1.00  0.00    -0.545 OA
ATOM      9  O   UNL     1      13.264 -31.958  20.509  1.00  0.00    -0.545 OA
ENDBRANCH   1   7
BRANCH   2  10
ATOM     10  C   UNL     1      14.597 -32.751  23.754  1.00  0.00     0.072 C 
ATOM     11  O   UNL     1      13.777 -32.788  24.709  1.00  0.00    -0.545 OA
ATOM     12  O   UNL     1      15.074 -33.944  23.225  1.00  0.00    -0.545 OA
ENDBRANCH   2  10
TORSDOF 2
ENDMDL
MODEL 9
REMARK VINA RESULT:    -4.533      2.849      4.401
REMARK INTER + INTRA:          -5.264
REMARK INTER:                  -5.054
REMARK INTRA:                  -0.210
REMARK UNBOUND:                -0.200
REMARK SMILES O=C([O-])c1ccccc1C(=O)[O-]
REMARK SMILES IDX 4 1 9 2 5 3 8 4 6 5 7 6 2 7 1 8 3 9 10 10 11 11 12 12
REMARK H PARENT
REMARK Flexibility Score: inf
ROOT
ATOM      1  C   UNL     1      15.375 -30.416  22.666  1.00  0.00     0.006 A 
ATOM      2  C   UNL     1      14.316 -31.365  22.626  1.00  0.00     0.006 A 
ATOM      3  C   UNL     1      15.097 -29.097  23.076  1.00  0.00     0.010 A 
ATOM      4  C   UNL     1      13.034 -30.979  23.058  1.00  0.00     0.010 A 
ATOM      5  C   UNL     1      13.812 -28.732  23.478  1.00  0.00     0.001 A 
ATOM      6  C   UNL     1      12.786 -29.674  23.480  1.00  0.00     0.001 A 
ENDROOT
BRANCH   1   7
ATOM      7  C   UNL     1      16.781 -30.771  22.363  1.00  0.00     0.072 C 
ATOM      8  O   UNL     1      17.228 -30.647  21.192  1.00  0.00    -0.545 OA
ATOM      9  O   UNL     1      17.642 -31.181  23.375  1.00  0.00    -0.545 OA
ENDBRANCH   1   7
BRANCH   2  10
ATOM     10  C   UNL     1      14.482 -32.734  22.082  1.00  0.00     0.072 C 
ATOM     11  O   UNL     1      14.133 -33.005  20.903  1.00  0.00    -0.545 OA
ATOM     12  O   UNL     1      14.963 -33.753  22.895  1.00  0.00    -0.545 OA
ENDBRANCH   2  10
TORSDOF 2
ENDMDL
