MODEL 1
REMARK VINA RESULT:    -4.078      0.000      0.000
REMARK INTER + INTRA:          -7.989
REMARK INTER:                  -7.178
REMARK INTRA:                  -0.811
REMARK UNBOUND:                -0.811
REMARK SMILES CCCCCCCCCCCCCCC(=O)[O-]
REMARK SMILES IDX 9 1 10 2 11 3 12 4 13 5 14 6 15 7 16 8 17 9 8 10 7 11 6 12
REMARK SMILES IDX 5 13 4 14 3 15 2 16 1 17
REMARK H PARENT
REMARK Flexibility Score: inf
ROOT
ATOM      1  C   UNL     1       3.165 -37.337  20.293  1.00  0.00     0.000 C 
ENDROOT
BRANCH   1   2
ATOM      2  C   UNL     1       3.641 -35.885  20.483  1.00  0.00     0.000 C 
BRANCH   2   3
ATOM      3  C   UNL     1       4.945 -35.581  19.730  1.00  0.00     0.000 C 
BRANCH   3   4
ATOM      4  C   UNL     1       6.116 -35.415  20.705  1.00  0.00     0.000 C 
BRANCH   4   5
ATOM      5  C   UNL     1       5.755 -35.953  22.095  1.00  0.00     0.006 C 
BRANCH   5   6
ATOM      6  C   UNL     1       6.110 -34.939  23.187  1.00  0.00     0.053 C 
BRANCH   6   7
ATOM      7  C   UNL     1       5.992 -35.565  24.541  1.00  0.00     0.041 C 
ATOM      8  O   UNL     1       6.125 -34.861  25.577  1.00  0.00    -0.550 OA
ATOM      9  O   UNL     1       5.785 -36.933  24.660  1.00  0.00    -0.550 OA
ENDBRANCH   6   7
ENDBRANCH   5   6
ENDBRANCH   4   5
ENDBRANCH   3   4
ENDBRANCH   2   3
ENDBRANCH   1   2
BRANCH   1  10
ATOM     10  C   UNL     1       1.725 -37.485  19.764  1.00  0.00     0.000 C 
BRANCH  10  11
ATOM     11  C   UNL     1       1.592 -37.530  18.228  1.00  0.00    -0.000 C 
BRANCH  11  12
ATOM     12  C   UNL     1       2.925 -37.494  17.461  1.00  0.00    -0.000 C 
BRANCH  12  13
ATOM     13  C   UNL     1       3.148 -36.173  16.712  1.00  0.00    -0.000 C 
BRANCH  13  14
ATOM     14  C   UNL     1       2.121 -36.001  15.583  1.00  0.00    -0.000 C 
BRANCH  14  15
ATOM     15  C   UNL     1       2.499 -36.774  14.306  1.00  0.00    -0.000 C 
BRANCH  15  16
ATOM     16  C   UNL     1       4.005 -37.036  14.130  1.00  0.00    -0.003 C 
ATOM     17  C   UNL     1       4.351 -38.525  14.085  1.00  0.00     0.004 C 
ENDBRANCH  15  16
ENDBRANCH  14  15
ENDBRANCH  13  14
ENDBRANCH  12  13
ENDBRANCH  11  12
ENDBRANCH  10  11
ENDBRANCH   1  10
TORSDOF 13
ENDMDL
MODEL 2
REMARK VINA RESULT:    -3.684      3.968      8.092
REMARK INTER + INTRA:          -7.295
REMARK INTER:                  -6.433
REMARK INTRA:                  -0.862
REMARK UNBOUND:                -0.811
REMARK SMILES CCCCCCCCCCCCCCC(=O)[O-]
REMARK SMILES IDX 9 1 10 2 11 3 12 4 13 5 14 6 15 7 16 8 17 9 8 10 7 11 6 12
REMARK SMILES IDX 5 13 4 14 3 15 2 16 1 17
REMARK H PARENT
REMARK Flexibility Score: inf
ROOT
ATOM      1  C   UNL     1       3.022 -37.489  19.805  1.00  0.00     0.000 C 
ENDROOT
BRANCH   1   2
ATOM      2  C   UNL     1       1.530 -37.410  19.431  1.00  0.00     0.000 C 
BRANCH   2   3
ATOM      3  C   UNL     1       1.269 -37.716  17.949  1.00  0.00     0.000 C 
BRANCH   3   4
ATOM      4  C   UNL     1       1.156 -36.424  17.133  1.00  0.00     0.000 C 
BRANCH   4   5
ATOM      5  C   UNL     1       2.031 -36.488  15.875  1.00  0.00     0.006 C 
BRANCH   5   6
ATOM      6  C   UNL     1       3.130 -37.544  16.024  1.00  0.00     0.053 C 
BRANCH   6   7
ATOM      7  C   UNL     1       3.843 -37.744  14.724  1.00  0.00     0.041 C 
ATOM      8  O   UNL     1       4.248 -38.889  14.394  1.00  0.00    -0.550 OA
ATOM      9  O   UNL     1       4.103 -36.658  13.898  1.00  0.00    -0.550 OA
ENDBRANCH   6   7
ENDBRANCH   5   6
ENDBRANCH   4   5
ENDBRANCH   3   4
ENDBRANCH   2   3
ENDBRANCH   1   2
BRANCH   1  10
ATOM     10  C   UNL     1       3.609 -36.200  20.415  1.00  0.00     0.000 C 
BRANCH  10  11
ATOM     11  C   UNL     1       5.081 -35.916  20.056  1.00  0.00    -0.000 C 
BRANCH  11  12
ATOM     12  C   UNL     1       5.978 -35.540  21.249  1.00  0.00    -0.000 C 
BRANCH  12  13
ATOM     13  C   UNL     1       5.177 -35.074  22.474  1.00  0.00    -0.000 C 
BRANCH  13  14
ATOM     14  C   UNL     1       6.089 -34.372  23.492  1.00  0.00    -0.000 C 
BRANCH  14  15
ATOM     15  C   UNL     1       6.125 -35.085  24.856  1.00  0.00    -0.000 C 
BRANCH  15  16
ATOM     16  C   UNL     1       5.955 -36.613  24.793  1.00  0.00    -0.003 C 
ATOM     17  C   UNL     1       4.994 -37.151  25.853  1.00  0.00     0.004 C 
ENDBRANCH  15  16
ENDBRANCH  14  15
ENDBRANCH  13  14
ENDBRANCH  12  13
ENDBRANCH  11  12
ENDBRANCH  10  11
ENDBRANCH   1  10
TORSDOF 13
ENDMDL
MODEL 3
REMARK VINA RESULT:    -3.089      1.013      1.624
REMARK INTER + INTRA:          -6.248
REMARK INTER:                  -5.390
REMARK INTRA:                  -0.858
REMARK UNBOUND:                -0.811
REMARK SMILES CCCCCCCCCCCCCCC(=O)[O-]
REMARK SMILES IDX 9 1 10 2 11 3 12 4 13 5 14 6 15 7 16 8 17 9 8 10 7 11 6 12
REMARK SMILES IDX 5 13 4 14 3 15 2 16 1 17
REMARK H PARENT
REMARK Flexibility Score: inf
ROOT
ATOM      1  C   UNL     1       2.122 -37.526  19.455  1.00  0.00     0.000 C 
ENDROOT
BRANCH   1   2
ATOM      2  C   UNL     1       3.269 -37.512  20.482  1.00  0.00     0.000 C 
BRANCH   2   3
ATOM      3  C   UNL     1       4.589 -36.993  19.895  1.00  0.00     0.000 C 
BRANCH   3   4
ATOM      4  C   UNL     1       4.846 -35.542  20.320  1.00  0.00     0.000 C 
BRANCH   4   5
ATOM      5  C   UNL     1       6.088 -35.442  21.214  1.00  0.00     0.006 C 
BRANCH   5   6
ATOM      6  C   UNL     1       5.955 -36.346  22.443  1.00  0.00     0.053 C 
BRANCH   6   7
ATOM      7  C   UNL     1       5.852 -35.524  23.689  1.00  0.00     0.041 C 
ATOM      8  O   UNL     1       5.992 -34.274  23.636  1.00  0.00    -0.550 OA
ATOM      9  O   UNL     1       5.650 -36.143  24.916  1.00  0.00    -0.550 OA
ENDBRANCH   6   7
ENDBRANCH   5   6
ENDBRANCH   4   5
ENDBRANCH   3   4
ENDBRANCH   2   3
ENDBRANCH   1   2
BRANCH   1  10
ATOM     10  C   UNL     1       2.534 -37.160  18.015  1.00  0.00     0.000 C 
BRANCH  10  11
ATOM     11  C   UNL     1       1.365 -36.920  17.039  1.00  0.00    -0.000 C 
BRANCH  11  12
ATOM     12  C   UNL     1       1.776 -36.404  15.649  1.00  0.00    -0.000 C 
BRANCH  12  13
ATOM     13  C   UNL     1       3.251 -35.981  15.581  1.00  0.00    -0.000 C 
BRANCH  13  14
ATOM     14  C   UNL     1       3.875 -36.377  14.235  1.00  0.00    -0.000 C 
BRANCH  14  15
ATOM     15  C   UNL     1       3.638 -37.855  13.875  1.00  0.00    -0.000 C 
BRANCH  15  16
ATOM     16  C   UNL     1       4.451 -38.862  14.708  1.00  0.00    -0.003 C 
ATOM     17  C   UNL     1       4.996 -40.022  13.875  1.00  0.00     0.004 C 
ENDBRANCH  15  16
ENDBRANCH  14  15
ENDBRANCH  13  14
ENDBRANCH  12  13
ENDBRANCH  11  12
ENDBRANCH  10  11
ENDBRANCH   1  10
TORSDOF 13
ENDMDL
MODEL 4
REMARK VINA RESULT:    -2.980      1.136      2.022
REMARK INTER + INTRA:          -6.055
REMARK INTER:                  -5.292
REMARK INTRA:                  -0.763
REMARK UNBOUND:                -0.811
REMARK SMILES CCCCCCCCCCCCCCC(=O)[O-]
REMARK SMILES IDX 9 1 10 2 11 3 12 4 13 5 14 6 15 7 16 8 17 9 8 10 7 11 6 12
REMARK SMILES IDX 5 13 4 14 3 15 2 16 1 17
REMARK H PARENT
REMARK Flexibility Score: inf
ROOT
ATOM      1  C   UNL     1       3.785 -35.681  21.054  1.00  0.00     0.000 C 
ENDROOT
BRANCH   1   2
ATOM      2  C   UNL     1       5.301 -35.588  20.800  1.00  0.00     0.000 C 
BRANCH   2   3
ATOM      3  C   UNL     1       6.125 -35.610  22.096  1.00  0.00     0.000 C 
BRANCH   3   4
ATOM      4  C   UNL     1       5.485 -34.722  23.169  1.00  0.00     0.000 C 
BRANCH   4   5
ATOM      5  C   UNL     1       5.978 -35.107  24.569  1.00  0.00     0.006 C 
BRANCH   5   6
ATOM      6  C   UNL     1       6.125 -36.626  24.701  1.00  0.00     0.053 C 
BRANCH   6   7
ATOM      7  C   UNL     1       5.020 -37.187  25.540  1.00  0.00     0.041 C 
ATOM      8  O   UNL     1       4.850 -38.432  25.612  1.00  0.00    -0.550 OA
ATOM      9  O   UNL     1       4.148 -36.334  26.204  1.00  0.00    -0.550 OA
ENDBRANCH   6   7
ENDBRANCH   5   6
ENDBRANCH   4   5
ENDBRANCH   3   4
ENDBRANCH   2   3
ENDBRANCH   1   2
BRANCH   1  10
ATOM     10  C   UNL     1       3.067 -36.814  20.293  1.00  0.00     0.000 C 
BRANCH  10  11
ATOM     11  C   UNL     1       3.901 -37.495  19.191  1.00  0.00    -0.000 C 
BRANCH  11  12
ATOM     12  C   UNL     1       3.799 -36.839  17.802  1.00  0.00    -0.000 C 
BRANCH  12  13
ATOM     13  C   UNL     1       2.457 -37.116  17.109  1.00  0.00    -0.000 C 
BRANCH  13  14
ATOM     14  C   UNL     1       2.124 -36.011  16.095  1.00  0.00    -0.000 C 
BRANCH  14  15
ATOM     15  C   UNL     1       2.264 -36.475  14.634  1.00  0.00    -0.000 C 
BRANCH  15  16
ATOM     16  C   UNL     1       3.707 -36.747  14.177  1.00  0.00    -0.003 C 
ATOM     17  C   UNL     1       4.085 -38.227  14.237  1.00  0.00     0.004 C 
ENDBRANCH  15  16
ENDBRANCH  14  15
ENDBRANCH  13  14
ENDBRANCH  12  13
ENDBRANCH  11  12
ENDBRANCH  10  11
ENDBRANCH   1  10
TORSDOF 13
ENDMDL
MODEL 5
REMARK VINA RESULT:    -2.689      3.290      4.332
REMARK INTER + INTRA:          -5.544
REMARK INTER:                  -5.273
REMARK INTRA:                  -0.271
REMARK UNBOUND:                -0.811
REMARK SMILES CCCCCCCCCCCCCCC(=O)[O-]
REMARK SMILES IDX 9 1 10 2 11 3 12 4 13 5 14 6 15 7 16 8 17 9 8 10 7 11 6 12
REMARK SMILES IDX 5 13 4 14 3 15 2 16 1 17
REMARK H PARENT
REMARK Flexibility Score: inf
ROOT
ATOM      1  C   UNL     1       5.577 -35.840  21.872  1.00  0.00     0.000 C 
ENDROOT
BRANCH   1   2
ATOM      2  C   UNL     1       5.999 -36.847  22.958  1.00  0.00     0.000 C 
BRANCH   2   3
ATOM      3  C   UNL     1       5.301 -38.207  22.815  1.00  0.00     0.000 C 
BRANCH   3   4
ATOM      4  C   UNL     1       5.846 -38.980  21.608  1.00  0.00     0.000 C 
BRANCH   4   5
ATOM      5  C   UNL     1       5.915 -40.483  21.902  1.00  0.00     0.006 C 
BRANCH   5   6
ATOM      6  C   UNL     1       5.922 -40.748  23.411  1.00  0.00     0.053 C 
BRANCH   6   7
ATOM      7  C   UNL     1       6.006 -42.217  23.684  1.00  0.00     0.041 C 
ATOM      8  O   UNL     1       6.125 -43.032  22.732  1.00  0.00    -0.550 OA
ATOM      9  O   UNL     1       5.904 -42.690  24.986  1.00  0.00    -0.550 OA
ENDBRANCH   6   7
ENDBRANCH   5   6
ENDBRANCH   4   5
ENDBRANCH   3   4
ENDBRANCH   2   3
ENDBRANCH   1   2
BRANCH   1  10
ATOM     10  C   UNL     1       5.512 -36.414  20.443  1.00  0.00     0.000 C 
BRANCH  10  11
ATOM     11  C   UNL     1       4.256 -36.026  19.637  1.00  0.00    -0.000 C 
BRANCH  11  12
ATOM     12  C   UNL     1       2.981 -36.802  20.009  1.00  0.00    -0.000 C 
BRANCH  12  13
ATOM     13  C   UNL     1       2.437 -37.648  18.849  1.00  0.00    -0.000 C 
BRANCH  13  14
ATOM     14  C   UNL     1       3.106 -37.258  17.523  1.00  0.00    -0.000 C 
BRANCH  14  15
ATOM     15  C   UNL     1       2.139 -36.570  16.543  1.00  0.00    -0.000 C 
BRANCH  15  16
ATOM     16  C   UNL     1       2.708 -36.327  15.134  1.00  0.00    -0.003 C 
ATOM     17  C   UNL     1       3.701 -37.404  14.697  1.00  0.00     0.004 C 
ENDBRANCH  15  16
ENDBRANCH  14  15
ENDBRANCH  13  14
ENDBRANCH  12  13
ENDBRANCH  11  12
ENDBRANCH  10  11
ENDBRANCH   1  10
TORSDOF 13
ENDMDL
MODEL 6
REMARK VINA RESULT:    -2.344      4.361      7.522
REMARK INTER + INTRA:          -4.936
REMARK INTER:                  -3.965
REMARK INTRA:                  -0.970
REMARK UNBOUND:                -0.811
REMARK SMILES CCCCCCCCCCCCCCC(=O)[O-]
REMARK SMILES IDX 9 1 10 2 11 3 12 4 13 5 14 6 15 7 16 8 17 9 8 10 7 11 6 12
REMARK SMILES IDX 5 13 4 14 3 15 2 16 1 17
REMARK H PARENT
REMARK Flexibility Score: inf
ROOT
ATOM      1  C   UNL     1       3.854 -35.735  21.559  1.00  0.00     0.000 C 
ENDROOT
BRANCH   1   2
ATOM      2  C   UNL     1       4.373 -35.678  20.111  1.00  0.00     0.000 C 
BRANCH   2   3
ATOM      3  C   UNL     1       4.302 -37.035  19.397  1.00  0.00     0.000 C 
BRANCH   3   4
ATOM      4  C   UNL     1       2.861 -37.556  19.352  1.00  0.00     0.000 C 
BRANCH   4   5
ATOM      5  C   UNL     1       2.193 -37.213  18.015  1.00  0.00     0.006 C 
BRANCH   5   6
ATOM      6  C   UNL     1       3.239 -36.881  16.947  1.00  0.00     0.053 C 
BRANCH   6   7
ATOM      7  C   UNL     1       2.575 -36.421  15.687  1.00  0.00     0.041 C 
ATOM      8  O   UNL     1       1.537 -35.710  15.742  1.00  0.00    -0.550 OA
ATOM      9  O   UNL     1       3.072 -36.819  14.453  1.00  0.00    -0.550 OA
ENDBRANCH   6   7
ENDBRANCH   5   6
ENDBRANCH   4   5
ENDBRANCH   3   4
ENDBRANCH   2   3
ENDBRANCH   1   2
BRANCH   1  10
ATOM     10  C   UNL     1       4.790 -35.106  22.611  1.00  0.00     0.000 C 
BRANCH  10  11
ATOM     11  C   UNL     1       6.125 -35.848  22.827  1.00  0.00    -0.000 C 
BRANCH  11  12
ATOM     12  C   UNL     1       6.125 -36.858  23.988  1.00  0.00    -0.000 C 
BRANCH  12  13
ATOM     13  C   UNL     1       5.369 -38.152  23.653  1.00  0.00    -0.000 C 
BRANCH  13  14
ATOM     14  C   UNL     1       5.702 -38.631  22.232  1.00  0.00    -0.000 C 
BRANCH  14  15
ATOM     15  C   UNL     1       5.797 -40.163  22.123  1.00  0.00    -0.000 C 
BRANCH  15  16
ATOM     16  C   UNL     1       5.943 -40.900  23.466  1.00  0.00    -0.003 C 
ATOM     17  C   UNL     1       6.003 -42.420  23.310  1.00  0.00     0.004 C 
ENDBRANCH  15  16
ENDBRANCH  14  15
ENDBRANCH  13  14
ENDBRANCH  12  13
ENDBRANCH  11  12
ENDBRANCH  10  11
ENDBRANCH   1  10
TORSDOF 13
ENDMDL
MODEL 7
REMARK VINA RESULT:    -2.334      4.111      7.432
REMARK INTER + INTRA:          -4.918
REMARK INTER:                  -3.729
REMARK INTRA:                  -1.189
REMARK UNBOUND:                -0.811
REMARK SMILES CCCCCCCCCCCCCCC(=O)[O-]
REMARK SMILES IDX 9 1 10 2 11 3 12 4 13 5 14 6 15 7 16 8 17 9 8 10 7 11 6 12
REMARK SMILES IDX 5 13 4 14 3 15 2 16 1 17
REMARK H PARENT
REMARK Flexibility Score: inf
ROOT
ATOM      1  C   UNL     1       3.281 -36.135  20.759  1.00  0.00     0.000 C 
ENDROOT
BRANCH   1   2
ATOM      2  C   UNL     1       3.054 -37.407  19.921  1.00  0.00     0.000 C 
BRANCH   2   3
ATOM      3  C   UNL     1       1.688 -37.423  19.218  1.00  0.00     0.000 C 
BRANCH   3   4
ATOM      4  C   UNL     1       1.853 -37.331  17.697  1.00  0.00     0.000 C 
BRANCH   4   5
ATOM      5  C   UNL     1       3.275 -36.897  17.322  1.00  0.00     0.006 C 
BRANCH   5   6
ATOM      6  C   UNL     1       3.261 -35.937  16.129  1.00  0.00     0.053 C 
BRANCH   6   7
ATOM      7  C   UNL     1       3.215 -36.701  14.843  1.00  0.00     0.041 C 
ATOM      8  O   UNL     1       2.296 -36.485  14.010  1.00  0.00    -0.550 OA
ATOM      9  O   UNL     1       4.159 -37.687  14.585  1.00  0.00    -0.550 OA
ENDBRANCH   6   7
ENDBRANCH   5   6
ENDBRANCH   4   5
ENDBRANCH   3   4
ENDBRANCH   2   3
ENDBRANCH   1   2
BRANCH   1  10
ATOM     10  C   UNL     1       4.515 -35.303  20.356  1.00  0.00     0.000 C 
BRANCH  10  11
ATOM     11  C   UNL     1       5.813 -35.646  21.115  1.00  0.00    -0.000 C 
BRANCH  11  12
ATOM     12  C   UNL     1       5.836 -35.209  22.590  1.00  0.00    -0.000 C 
BRANCH  12  13
ATOM     13  C   UNL     1       5.494 -36.351  23.557  1.00  0.00    -0.000 C 
BRANCH  13  14
ATOM     14  C   UNL     1       6.100 -37.678  23.076  1.00  0.00    -0.000 C 
BRANCH  14  15
ATOM     15  C   UNL     1       5.086 -38.836  23.078  1.00  0.00    -0.000 C 
BRANCH  15  16
ATOM     16  C   UNL     1       5.671 -40.210  22.708  1.00  0.00    -0.003 C 
ATOM     17  C   UNL     1       6.109 -40.299  21.246  1.00  0.00     0.004 C 
ENDBRANCH  15  16
ENDBRANCH  14  15
ENDBRANCH  13  14
ENDBRANCH  12  13
ENDBRANCH  11  12
ENDBRANCH  10  11
ENDBRANCH   1  10
TORSDOF 13
ENDMDL
MODEL 8
REMARK VINA RESULT:    -2.217      2.607      7.229
REMARK INTER + INTRA:          -4.713
REMARK INTER:                  -4.019
REMARK INTRA:                  -0.694
REMARK UNBOUND:                -0.811
REMARK SMILES CCCCCCCCCCCCCCC(=O)[O-]
REMARK SMILES IDX 9 1 10 2 11 3 12 4 13 5 14 6 15 7 16 8 17 9 8 10 7 11 6 12
REMARK SMILES IDX 5 13 4 14 3 15 2 16 1 17
REMARK H PARENT
REMARK Flexibility Score: inf
ROOT
ATOM      1  C   UNL     1       4.164 -35.105  18.023  1.00  0.00     0.000 C 
ENDROOT
BRANCH   1   2
ATOM      2  C   UNL     1       4.199 -36.210  16.952  1.00  0.00     0.000 C 
BRANCH   2   3
ATOM      3  C   UNL     1       3.234 -35.944  15.788  1.00  0.00     0.000 C 
BRANCH   3   4
ATOM      4  C   UNL     1       2.011 -36.864  15.868  1.00  0.00     0.000 C 
BRANCH   4   5
ATOM      5  C   UNL     1       1.241 -36.645  17.176  1.00  0.00     0.006 C 
BRANCH   5   6
ATOM      6  C   UNL     1       1.257 -37.909  18.041  1.00  0.00     0.053 C 
BRANCH   6   7
ATOM      7  C   UNL     1       1.515 -37.559  19.473  1.00  0.00     0.041 C 
ATOM      8  O   UNL     1       2.683 -37.626  19.940  1.00  0.00    -0.550 OA
ATOM      9  O   UNL     1       0.460 -37.207  20.305  1.00  0.00    -0.550 OA
ENDBRANCH   6   7
ENDBRANCH   5   6
ENDBRANCH   4   5
ENDBRANCH   3   4
ENDBRANCH   2   3
ENDBRANCH   1   2
BRANCH   1  10
ATOM     10  C   UNL     1       5.520 -34.426  18.302  1.00  0.00     0.000 C 
BRANCH  10  11
ATOM     11  C   UNL     1       6.125 -34.715  19.691  1.00  0.00    -0.000 C 
BRANCH  11  12
ATOM     12  C   UNL     1       5.325 -35.707  20.553  1.00  0.00    -0.000 C 
BRANCH  12  13
ATOM     13  C   UNL     1       5.988 -35.991  21.908  1.00  0.00    -0.000 C 
BRANCH  13  14
ATOM     14  C   UNL     1       5.786 -34.815  22.876  1.00  0.00    -0.000 C 
BRANCH  14  15
ATOM     15  C   UNL     1       6.082 -35.185  24.340  1.00  0.00    -0.000 C 
BRANCH  15  16
ATOM     16  C   UNL     1       5.927 -36.679  24.674  1.00  0.00    -0.003 C 
ATOM     17  C   UNL     1       5.014 -36.931  25.874  1.00  0.00     0.004 C 
ENDBRANCH  15  16
ENDBRANCH  14  15
ENDBRANCH  13  14
ENDBRANCH  12  13
ENDBRANCH  11  12
ENDBRANCH  10  11
ENDBRANCH   1  10
TORSDOF 13
ENDMDL
MODEL 9
REMARK VINA RESULT:    -2.207      2.046      3.428
REMARK INTER + INTRA:          -4.695
REMARK INTER:                  -3.508
REMARK INTRA:                  -1.187
REMARK UNBOUND:                -0.811
REMARK SMILES CCCCCCCCCCCCCCC(=O)[O-]
REMARK SMILES IDX 9 1 10 2 11 3 12 4 13 5 14 6 15 7 16 8 17 9 8 10 7 11 6 12
REMARK SMILES IDX 5 13 4 14 3 15 2 16 1 17
REMARK H PARENT
REMARK Flexibility Score: inf
ROOT
ATOM      1  C   UNL     1       4.090 -34.537  22.277  1.00  0.00     0.000 C 
ENDROOT
BRANCH   1   2
ATOM      2  C   UNL     1       5.222 -34.250  23.281  1.00  0.00     0.000 C 
BRANCH   2   3
ATOM      3  C   UNL     1       6.124 -35.468  23.527  1.00  0.00     0.000 C 
BRANCH   3   4
ATOM      4  C   UNL     1       5.689 -36.227  24.785  1.00  0.00     0.000 C 
BRANCH   4   5
ATOM      5  C   UNL     1       5.462 -37.713  24.481  1.00  0.00     0.006 C 
BRANCH   5   6
ATOM      6  C   UNL     1       5.875 -38.049  23.045  1.00  0.00     0.053 C 
BRANCH   6   7
ATOM      7  C   UNL     1       5.628 -39.496  22.754  1.00  0.00     0.041 C 
ATOM      8  O   UNL     1       5.679 -39.921  21.570  1.00  0.00    -0.550 OA
ATOM      9  O   UNL     1       5.293 -40.365  23.784  1.00  0.00    -0.550 OA
ENDBRANCH   6   7
ENDBRANCH   5   6
ENDBRANCH   4   5
ENDBRANCH   3   4
ENDBRANCH   2   3
ENDBRANCH   1   2
BRANCH   1  10
ATOM     10  C   UNL     1       4.540 -35.209  20.965  1.00  0.00     0.000 C 
BRANCH  10  11
ATOM     11  C   UNL     1       3.704 -36.431  20.535  1.00  0.00    -0.000 C 
BRANCH  11  12
ATOM     12  C   UNL     1       4.351 -37.310  19.450  1.00  0.00    -0.000 C 
BRANCH  12  13
ATOM     13  C   UNL     1       3.560 -37.313  18.133  1.00  0.00    -0.000 C 
BRANCH  13  14
ATOM     14  C   UNL     1       3.768 -35.999  17.365  1.00  0.00    -0.000 C 
BRANCH  14  15
ATOM     15  C   UNL     1       2.989 -35.950  16.039  1.00  0.00    -0.000 C 
BRANCH  15  16
ATOM     16  C   UNL     1       2.935 -37.282  15.271  1.00  0.00    -0.003 C 
ATOM     17  C   UNL     1       4.004 -37.389  14.183  1.00  0.00     0.004 C 
ENDBRANCH  15  16
ENDBRANCH  14  15
ENDBRANCH  13  14
ENDBRANCH  12  13
ENDBRANCH  11  12
ENDBRANCH  10  11
ENDBRANCH   1  10
TORSDOF 13
ENDMDL
