MODEL 1
REMARK VINA RESULT:    -4.734      0.000      0.000
REMARK INTER + INTRA:         -12.831
REMARK INTER:                 -10.270
REMARK INTRA:                  -2.561
REMARK UNBOUND:                -2.561
REMARK SMILES CCCCCCCCCCCCCCCCCCCCCC(=O)[O-]
REMARK SMILES IDX 12 1 11 2 10 3 9 4 8 5 7 6 6 7 5 8 4 9 3 10 2 11 1 12 13 13
REMARK SMILES IDX 14 14 15 15 16 16 17 17 18 18 19 19 20 20 21 21 22 22 23 23
REMARK SMILES IDX 24 24
REMARK H PARENT
REMARK Flexibility Score: inf
ROOT
ATOM      1  C   UNL     1      56.827  -3.904  31.050  1.00  0.00     0.000 C 
ENDROOT
BRANCH   1   2
ATOM      2  C   UNL     1      55.598  -4.540  31.723  1.00  0.00     0.000 C 
BRANCH   2   3
ATOM      3  C   UNL     1      54.453  -3.541  31.944  1.00  0.00     0.000 C 
BRANCH   3   4
ATOM      4  C   UNL     1      54.852  -2.136  31.475  1.00  0.00    -0.000 C 
BRANCH   4   5
ATOM      5  C   UNL     1      53.716  -1.478  30.675  1.00  0.00    -0.000 C 
BRANCH   5   6
ATOM      6  C   UNL     1      54.025  -1.390  29.169  1.00  0.00    -0.000 C 
BRANCH   6   7
ATOM      7  C   UNL     1      55.512  -1.172  28.829  1.00  0.00    -0.000 C 
BRANCH   7   8
ATOM      8  C   UNL     1      55.816   0.135  28.072  1.00  0.00    -0.000 C 
BRANCH   8   9
ATOM      9  C   UNL     1      56.945   0.970  28.713  1.00  0.00    -0.000 C 
BRANCH   9  10
ATOM     10  C   UNL     1      57.038   0.756  30.231  1.00  0.00    -0.000 C 
BRANCH  10  11
ATOM     11  C   UNL     1      58.267  -0.087  30.591  1.00  0.00    -0.003 C 
ATOM     12  C   UNL     1      59.195  -0.252  29.391  1.00  0.00     0.004 C 
ENDBRANCH  10  11
ENDBRANCH   9  10
ENDBRANCH   8   9
ENDBRANCH   7   8
ENDBRANCH   6   7
ENDBRANCH   5   6
ENDBRANCH   4   5
ENDBRANCH   3   4
ENDBRANCH   2   3
ENDBRANCH   1   2
BRANCH   1  13
ATOM     13  C   UNL     1      58.015  -3.613  31.992  1.00  0.00     0.000 C 
BRANCH  13  14
ATOM     14  C   UNL     1      59.383  -3.487  31.298  1.00  0.00     0.000 C 
BRANCH  14  15
ATOM     15  C   UNL     1      59.355  -3.941  29.832  1.00  0.00     0.000 C 
BRANCH  15  16
ATOM     16  C   UNL     1      60.731  -3.750  29.176  1.00  0.00     0.000 C 
BRANCH  16  17
ATOM     17  C   UNL     1      61.717  -2.973  30.067  1.00  0.00     0.000 C 
BRANCH  17  18
ATOM     18  C   UNL     1      63.179  -2.972  29.575  1.00  0.00     0.000 C 
BRANCH  18  19
ATOM     19  C   UNL     1      63.494  -1.954  28.465  1.00  0.00     0.000 C 
BRANCH  19  20
ATOM     20  C   UNL     1      64.381  -2.539  27.352  1.00  0.00     0.006 C 
BRANCH  20  21
ATOM     21  C   UNL     1      64.477  -4.067  27.430  1.00  0.00     0.053 C 
BRANCH  21  22
ATOM     22  C   UNL     1      63.561  -4.734  26.449  1.00  0.00     0.041 C 
ATOM     23  O   UNL     1      63.334  -5.970  26.533  1.00  0.00    -0.550 OA
ATOM     24  O   UNL     1      62.942  -3.986  25.455  1.00  0.00    -0.550 OA
ENDBRANCH  21  22
ENDBRANCH  20  21
ENDBRANCH  19  20
ENDBRANCH  18  19
ENDBRANCH  17  18
ENDBRANCH  16  17
ENDBRANCH  15  16
ENDBRANCH  14  15
ENDBRANCH  13  14
ENDBRANCH   1  13
TORSDOF 20
ENDMDL
MODEL 2
REMARK VINA RESULT:    -4.630      1.480      3.668
REMARK INTER + INTRA:         -12.604
REMARK INTER:                  -9.700
REMARK INTRA:                  -2.904
REMARK UNBOUND:                -2.561
REMARK SMILES CCCCCCCCCCCCCCCCCCCCCC(=O)[O-]
REMARK SMILES IDX 12 1 11 2 10 3 9 4 8 5 7 6 6 7 5 8 4 9 3 10 2 11 1 12 13 13
REMARK SMILES IDX 14 14 15 15 16 16 17 17 18 18 19 19 20 20 21 21 22 22 23 23
REMARK SMILES IDX 24 24
REMARK H PARENT
REMARK Flexibility Score: inf
ROOT
ATOM      1  C   UNL     1      58.381   0.231  31.733  1.00  0.00     0.000 C 
ENDROOT
BRANCH   1   2
ATOM      2  C   UNL     1      57.056   0.499  30.998  1.00  0.00     0.000 C 
BRANCH   2   3
ATOM      3  C   UNL     1      57.260   1.044  29.577  1.00  0.00     0.000 C 
BRANCH   3   4
ATOM      4  C   UNL     1      56.554   0.157  28.543  1.00  0.00    -0.000 C 
BRANCH   4   5
ATOM      5  C   UNL     1      56.007  -1.122  29.196  1.00  0.00    -0.000 C 
BRANCH   5   6
ATOM      6  C   UNL     1      54.477  -1.242  29.075  1.00  0.00    -0.000 C 
BRANCH   6   7
ATOM      7  C   UNL     1      53.740  -1.447  30.413  1.00  0.00    -0.000 C 
BRANCH   7   8
ATOM      8  C   UNL     1      54.597  -2.063  31.534  1.00  0.00    -0.000 C 
BRANCH   8   9
ATOM      9  C   UNL     1      54.139  -3.477  31.954  1.00  0.00    -0.000 C 
BRANCH   9  10
ATOM     10  C   UNL     1      55.239  -4.529  31.750  1.00  0.00    -0.000 C 
BRANCH  10  11
ATOM     11  C   UNL     1      56.623  -3.871  31.697  1.00  0.00    -0.003 C 
ATOM     12  C   UNL     1      57.404  -4.325  30.467  1.00  0.00     0.004 C 
ENDBRANCH  10  11
ENDBRANCH   9  10
ENDBRANCH   8   9
ENDBRANCH   7   8
ENDBRANCH   6   7
ENDBRANCH   5   6
ENDBRANCH   4   5
ENDBRANCH   3   4
ENDBRANCH   2   3
ENDBRANCH   1   2
BRANCH   1  13
ATOM     13  C   UNL     1      58.999  -1.162  31.486  1.00  0.00     0.000 C 
BRANCH  13  14
ATOM     14  C   UNL     1      60.199  -1.182  30.523  1.00  0.00     0.000 C 
BRANCH  14  15
ATOM     15  C   UNL     1      59.825  -1.649  29.109  1.00  0.00     0.000 C 
BRANCH  15  16
ATOM     16  C   UNL     1      61.056  -2.198  28.373  1.00  0.00     0.000 C 
BRANCH  16  17
ATOM     17  C   UNL     1      61.124  -3.736  28.384  1.00  0.00     0.000 C 
BRANCH  17  18
ATOM     18  C   UNL     1      62.485  -4.326  28.808  1.00  0.00     0.000 C 
BRANCH  18  19
ATOM     19  C   UNL     1      63.086  -5.350  27.829  1.00  0.00     0.000 C 
BRANCH  19  20
ATOM     20  C   UNL     1      63.516  -4.718  26.492  1.00  0.00     0.006 C 
BRANCH  20  21
ATOM     21  C   UNL     1      64.395  -3.477  26.693  1.00  0.00     0.053 C 
BRANCH  21  22
ATOM     22  C   UNL     1      63.957  -2.338  25.824  1.00  0.00     0.041 C 
ATOM     23  O   UNL     1      62.810  -2.343  25.303  1.00  0.00    -0.550 OA
ATOM     24  O   UNL     1      64.808  -1.261  25.607  1.00  0.00    -0.550 OA
ENDBRANCH  21  22
ENDBRANCH  20  21
ENDBRANCH  19  20
ENDBRANCH  18  19
ENDBRANCH  17  18
ENDBRANCH  16  17
ENDBRANCH  15  16
ENDBRANCH  14  15
ENDBRANCH  13  14
ENDBRANCH   1  13
TORSDOF 20
ENDMDL
MODEL 3
REMARK VINA RESULT:    -4.584      0.959      3.125
REMARK INTER + INTRA:         -12.505
REMARK INTER:                  -9.311
REMARK INTRA:                  -3.194
REMARK UNBOUND:                -2.561
REMARK SMILES CCCCCCCCCCCCCCCCCCCCCC(=O)[O-]
REMARK SMILES IDX 12 1 11 2 10 3 9 4 8 5 7 6 6 7 5 8 4 9 3 10 2 11 1 12 13 13
REMARK SMILES IDX 14 14 15 15 16 16 17 17 18 18 19 19 20 20 21 21 22 22 23 23
REMARK SMILES IDX 24 24
REMARK H PARENT
REMARK Flexibility Score: inf
ROOT
ATOM      1  C   UNL     1      59.040  -1.562  31.468  1.00  0.00     0.000 C 
ENDROOT
BRANCH   1   2
ATOM      2  C   UNL     1      58.847  -0.489  30.382  1.00  0.00     0.000 C 
BRANCH   2   3
ATOM      3  C   UNL     1      57.810   0.576  30.770  1.00  0.00     0.000 C 
BRANCH   3   4
ATOM      4  C   UNL     1      56.936   0.953  29.568  1.00  0.00    -0.000 C 
BRANCH   4   5
ATOM      5  C   UNL     1      56.768  -0.239  28.613  1.00  0.00    -0.000 C 
BRANCH   5   6
ATOM      6  C   UNL     1      55.316  -0.413  28.131  1.00  0.00    -0.000 C 
BRANCH   6   7
ATOM      7  C   UNL     1      54.579  -1.625  28.735  1.00  0.00    -0.000 C 
BRANCH   7   8
ATOM      8  C   UNL     1      53.641  -1.290  29.909  1.00  0.00    -0.000 C 
BRANCH   8   9
ATOM      9  C   UNL     1      53.981  -2.054  31.207  1.00  0.00    -0.000 C 
BRANCH   9  10
ATOM     10  C   UNL     1      55.485  -2.339  31.338  1.00  0.00    -0.000 C 
BRANCH  10  11
ATOM     11  C   UNL     1      55.731  -3.789  31.773  1.00  0.00    -0.003 C 
ATOM     12  C   UNL     1      56.035  -4.681  30.573  1.00  0.00     0.004 C 
ENDBRANCH  10  11
ENDBRANCH   9  10
ENDBRANCH   8   9
ENDBRANCH   7   8
ENDBRANCH   6   7
ENDBRANCH   5   6
ENDBRANCH   4   5
ENDBRANCH   3   4
ENDBRANCH   2   3
ENDBRANCH   1   2
BRANCH   1  13
ATOM     13  C   UNL     1      59.501  -2.942  30.954  1.00  0.00     0.000 C 
BRANCH  13  14
ATOM     14  C   UNL     1      59.236  -3.204  29.460  1.00  0.00     0.000 C 
BRANCH  14  15
ATOM     15  C   UNL     1      60.522  -3.459  28.660  1.00  0.00     0.000 C 
BRANCH  15  16
ATOM     16  C   UNL     1      61.170  -2.133  28.233  1.00  0.00     0.000 C 
BRANCH  16  17
ATOM     17  C   UNL     1      62.537  -1.892  28.900  1.00  0.00     0.000 C 
BRANCH  17  18
ATOM     18  C   UNL     1      63.042  -3.047  29.789  1.00  0.00     0.000 C 
BRANCH  18  19
ATOM     19  C   UNL     1      64.533  -3.393  29.625  1.00  0.00     0.000 C 
BRANCH  19  20
ATOM     20  C   UNL     1      64.770  -4.579  28.674  1.00  0.00     0.006 C 
BRANCH  20  21
ATOM     21  C   UNL     1      64.785  -4.148  27.202  1.00  0.00     0.053 C 
BRANCH  21  22
ATOM     22  C   UNL     1      63.589  -4.661  26.459  1.00  0.00     0.041 C 
ATOM     23  O   UNL     1      63.191  -5.842  26.638  1.00  0.00    -0.550 OA
ATOM     24  O   UNL     1      62.902  -3.827  25.585  1.00  0.00    -0.550 OA
ENDBRANCH  21  22
ENDBRANCH  20  21
ENDBRANCH  19  20
ENDBRANCH  18  19
ENDBRANCH  17  18
ENDBRANCH  16  17
ENDBRANCH  15  16
ENDBRANCH  14  15
ENDBRANCH  13  14
ENDBRANCH   1  13
TORSDOF 20
ENDMDL
MODEL 4
REMARK VINA RESULT:    -4.537      1.291      3.282
REMARK INTER + INTRA:         -12.404
REMARK INTER:                  -9.204
REMARK INTRA:                  -3.199
REMARK UNBOUND:                -2.561
REMARK SMILES CCCCCCCCCCCCCCCCCCCCCC(=O)[O-]
REMARK SMILES IDX 12 1 11 2 10 3 9 4 8 5 7 6 6 7 5 8 4 9 3 10 2 11 1 12 13 13
REMARK SMILES IDX 14 14 15 15 16 16 17 17 18 18 19 19 20 20 21 21 22 22 23 23
REMARK SMILES IDX 24 24
REMARK H PARENT
REMARK Flexibility Score: inf
ROOT
ATOM      1  C   UNL     1      59.794  -4.020  29.478  1.00  0.00     0.000 C 
ENDROOT
BRANCH   1   2
ATOM      2  C   UNL     1      58.367  -3.752  29.986  1.00  0.00     0.000 C 
BRANCH   2   3
ATOM      3  C   UNL     1      58.309  -3.491  31.498  1.00  0.00     0.000 C 
BRANCH   3   4
ATOM      4  C   UNL     1      57.641  -2.143  31.796  1.00  0.00    -0.000 C 
BRANCH   4   5
ATOM      5  C   UNL     1      58.677  -1.008  31.827  1.00  0.00    -0.000 C 
BRANCH   5   6
ATOM      6  C   UNL     1      58.240   0.217  31.005  1.00  0.00    -0.000 C 
BRANCH   6   7
ATOM      7  C   UNL     1      58.068  -0.048  29.496  1.00  0.00    -0.000 C 
BRANCH   7   8
ATOM      8  C   UNL     1      56.959   0.778  28.819  1.00  0.00    -0.000 C 
BRANCH   8   9
ATOM      9  C   UNL     1      55.881  -0.087  28.130  1.00  0.00    -0.000 C 
BRANCH   9  10
ATOM     10  C   UNL     1      55.606  -1.391  28.892  1.00  0.00    -0.000 C 
BRANCH  10  11
ATOM     11  C   UNL     1      54.178  -1.407  29.452  1.00  0.00    -0.003 C 
ATOM     12  C   UNL     1      54.184  -1.456  30.977  1.00  0.00     0.004 C 
ENDBRANCH  10  11
ENDBRANCH   9  10
ENDBRANCH   8   9
ENDBRANCH   7   8
ENDBRANCH   6   7
ENDBRANCH   5   6
ENDBRANCH   4   5
ENDBRANCH   3   4
ENDBRANCH   2   3
ENDBRANCH   1   2
BRANCH   1  13
ATOM     13  C   UNL     1      60.426  -2.875  28.658  1.00  0.00     0.000 C 
BRANCH  13  14
ATOM     14  C   UNL     1      61.373  -1.953  29.446  1.00  0.00     0.000 C 
BRANCH  14  15
ATOM     15  C   UNL     1      62.474  -2.721  30.191  1.00  0.00     0.000 C 
BRANCH  15  16
ATOM     16  C   UNL     1      63.823  -1.994  30.070  1.00  0.00     0.000 C 
BRANCH  16  17
ATOM     17  C   UNL     1      64.717  -2.571  28.957  1.00  0.00     0.000 C 
BRANCH  17  18
ATOM     18  C   UNL     1      65.109  -1.572  27.850  1.00  0.00     0.000 C 
BRANCH  18  19
ATOM     19  C   UNL     1      64.701  -1.982  26.425  1.00  0.00     0.000 C 
BRANCH  19  20
ATOM     20  C   UNL     1      63.255  -2.505  26.344  1.00  0.00     0.006 C 
BRANCH  20  21
ATOM     21  C   UNL     1      63.167  -3.859  25.630  1.00  0.00     0.053 C 
BRANCH  21  22
ATOM     22  C   UNL     1      63.542  -4.992  26.537  1.00  0.00     0.041 C 
ATOM     23  O   UNL     1      62.887  -5.202  27.593  1.00  0.00    -0.550 OA
ATOM     24  O   UNL     1      64.600  -5.829  26.206  1.00  0.00    -0.550 OA
ENDBRANCH  21  22
ENDBRANCH  20  21
ENDBRANCH  19  20
ENDBRANCH  18  19
ENDBRANCH  17  18
ENDBRANCH  16  17
ENDBRANCH  15  16
ENDBRANCH  14  15
ENDBRANCH  13  14
ENDBRANCH   1  13
TORSDOF 20
ENDMDL
MODEL 5
REMARK VINA RESULT:    -4.532      1.405      2.346
REMARK INTER + INTRA:         -12.392
REMARK INTER:                  -9.747
REMARK INTRA:                  -2.645
REMARK UNBOUND:                -2.561
REMARK SMILES CCCCCCCCCCCCCCCCCCCCCC(=O)[O-]
REMARK SMILES IDX 12 1 11 2 10 3 9 4 8 5 7 6 6 7 5 8 4 9 3 10 2 11 1 12 13 13
REMARK SMILES IDX 14 14 15 15 16 16 17 17 18 18 19 19 20 20 21 21 22 22 23 23
REMARK SMILES IDX 24 24
REMARK H PARENT
REMARK Flexibility Score: inf
ROOT
ATOM      1  C   UNL     1      58.340  -3.650  29.959  1.00  0.00     0.000 C 
ENDROOT
BRANCH   1   2
ATOM      2  C   UNL     1      57.003  -4.288  30.374  1.00  0.00     0.000 C 
BRANCH   2   3
ATOM      3  C   UNL     1      56.406  -3.658  31.641  1.00  0.00     0.000 C 
BRANCH   3   4
ATOM      4  C   UNL     1      54.935  -4.056  31.811  1.00  0.00    -0.000 C 
BRANCH   4   5
ATOM      5  C   UNL     1      54.042  -2.815  31.971  1.00  0.00    -0.000 C 
BRANCH   5   6
ATOM      6  C   UNL     1      54.614  -1.577  31.257  1.00  0.00    -0.000 C 
BRANCH   6   7
ATOM      7  C   UNL     1      54.099  -1.368  29.819  1.00  0.00    -0.000 C 
BRANCH   7   8
ATOM      8  C   UNL     1      55.180  -1.467  28.727  1.00  0.00    -0.000 C 
BRANCH   8   9
ATOM      9  C   UNL     1      55.942  -0.145  28.492  1.00  0.00    -0.000 C 
BRANCH   9  10
ATOM     10  C   UNL     1      57.354  -0.173  29.093  1.00  0.00    -0.000 C 
BRANCH  10  11
ATOM     11  C   UNL     1      57.429   0.694  30.357  1.00  0.00    -0.003 C 
ATOM     12  C   UNL     1      58.077  -0.066  31.510  1.00  0.00     0.004 C 
ENDBRANCH  10  11
ENDBRANCH   9  10
ENDBRANCH   8   9
ENDBRANCH   7   8
ENDBRANCH   6   7
ENDBRANCH   5   6
ENDBRANCH   4   5
ENDBRANCH   3   4
ENDBRANCH   2   3
ENDBRANCH   1   2
BRANCH   1  13
ATOM     13  C   UNL     1      59.327  -3.384  31.114  1.00  0.00     0.000 C 
BRANCH  13  14
ATOM     14  C   UNL     1      60.750  -2.989  30.680  1.00  0.00     0.000 C 
BRANCH  14  15
ATOM     15  C   UNL     1      60.926  -2.969  29.155  1.00  0.00     0.000 C 
BRANCH  15  16
ATOM     16  C   UNL     1      61.935  -1.888  28.737  1.00  0.00     0.000 C 
BRANCH  16  17
ATOM     17  C   UNL     1      62.832  -2.326  27.565  1.00  0.00     0.000 C 
BRANCH  17  18
ATOM     18  C   UNL     1      62.321  -3.548  26.774  1.00  0.00     0.000 C 
BRANCH  18  19
ATOM     19  C   UNL     1      63.355  -4.199  25.838  1.00  0.00     0.000 C 
BRANCH  19  20
ATOM     20  C   UNL     1      64.137  -5.340  26.512  1.00  0.00     0.006 C 
BRANCH  20  21
ATOM     21  C   UNL     1      63.409  -5.893  27.744  1.00  0.00     0.053 C 
BRANCH  21  22
ATOM     22  C   UNL     1      63.195  -7.373  27.647  1.00  0.00     0.041 C 
ATOM     23  O   UNL     1      63.106  -8.070  28.692  1.00  0.00    -0.550 OA
ATOM     24  O   UNL     1      63.072  -7.979  26.403  1.00  0.00    -0.550 OA
ENDBRANCH  21  22
ENDBRANCH  20  21
ENDBRANCH  19  20
ENDBRANCH  18  19
ENDBRANCH  17  18
ENDBRANCH  16  17
ENDBRANCH  15  16
ENDBRANCH  14  15
ENDBRANCH  13  14
ENDBRANCH   1  13
TORSDOF 20
ENDMDL
MODEL 6
REMARK VINA RESULT:    -4.416     14.944     18.549
REMARK INTER + INTRA:         -12.141
REMARK INTER:                  -8.049
REMARK INTRA:                  -4.092
REMARK UNBOUND:                -2.561
REMARK SMILES CCCCCCCCCCCCCCCCCCCCCC(=O)[O-]
REMARK SMILES IDX 12 1 11 2 10 3 9 4 8 5 7 6 6 7 5 8 4 9 3 10 2 11 1 12 13 13
REMARK SMILES IDX 14 14 15 15 16 16 17 17 18 18 19 19 20 20 21 21 22 22 23 23
REMARK SMILES IDX 24 24
REMARK H PARENT
REMARK Flexibility Score: inf
ROOT
ATOM      1  C   UNL     1      62.223 -11.374  14.832  1.00  0.00     0.000 C 
ENDROOT
BRANCH   1   2
ATOM      2  C   UNL     1      61.441 -11.883  16.056  1.00  0.00     0.000 C 
BRANCH   2   3
ATOM      3  C   UNL     1      61.697 -13.367  16.355  1.00  0.00     0.000 C 
BRANCH   3   4
ATOM      4  C   UNL     1      60.490 -14.000  17.060  1.00  0.00    -0.000 C 
BRANCH   4   5
ATOM      5  C   UNL     1      60.110 -15.339  16.408  1.00  0.00    -0.000 C 
BRANCH   5   6
ATOM      6  C   UNL     1      60.227 -15.306  14.873  1.00  0.00    -0.000 C 
BRANCH   6   7
ATOM      7  C   UNL     1      61.027 -16.474  14.264  1.00  0.00    -0.000 C 
BRANCH   7   8
ATOM      8  C   UNL     1      62.484 -16.137  13.900  1.00  0.00    -0.000 C 
BRANCH   8   9
ATOM      9  C   UNL     1      63.523 -16.967  14.684  1.00  0.00    -0.000 C 
BRANCH   9  10
ATOM     10  C   UNL     1      62.932 -17.585  15.960  1.00  0.00    -0.000 C 
BRANCH  10  11
ATOM     11  C   UNL     1      63.559 -16.960  17.212  1.00  0.00    -0.003 C 
ATOM     12  C   UNL     1      64.497 -15.813  16.847  1.00  0.00     0.004 C 
ENDBRANCH  10  11
ENDBRANCH   9  10
ENDBRANCH   8   9
ENDBRANCH   7   8
ENDBRANCH   6   7
ENDBRANCH   5   6
ENDBRANCH   4   5
ENDBRANCH   3   4
ENDBRANCH   2   3
ENDBRANCH   1   2
BRANCH   1  13
ATOM     13  C   UNL     1      62.494 -12.431  13.740  1.00  0.00     0.000 C 
BRANCH  13  14
ATOM     14  C   UNL     1      63.954 -12.514  13.259  1.00  0.00     0.000 C 
BRANCH  14  15
ATOM     15  C   UNL     1      64.841 -13.359  14.184  1.00  0.00     0.000 C 
BRANCH  15  16
ATOM     16  C   UNL     1      66.110 -12.587  14.576  1.00  0.00     0.000 C 
BRANCH  16  17
ATOM     17  C   UNL     1      65.860 -11.081  14.770  1.00  0.00     0.000 C 
BRANCH  17  18
ATOM     18  C   UNL     1      65.759 -10.620  16.239  1.00  0.00     0.000 C 
BRANCH  18  19
ATOM     19  C   UNL     1      65.529 -11.746  17.262  1.00  0.00     0.000 C 
BRANCH  19  20
ATOM     20  C   UNL     1      64.349 -11.461  18.209  1.00  0.00     0.006 C 
BRANCH  20  21
ATOM     21  C   UNL     1      64.029 -12.658  19.112  1.00  0.00     0.053 C 
BRANCH  21  22
ATOM     22  C   UNL     1      64.454 -12.416  20.529  1.00  0.00     0.041 C 
ATOM     23  O   UNL     1      64.381 -13.342  21.380  1.00  0.00    -0.550 OA
ATOM     24  O   UNL     1      64.950 -11.174  20.905  1.00  0.00    -0.550 OA
ENDBRANCH  21  22
ENDBRANCH  20  21
ENDBRANCH  19  20
ENDBRANCH  18  19
ENDBRANCH  17  18
ENDBRANCH  16  17
ENDBRANCH  15  16
ENDBRANCH  14  15
ENDBRANCH  13  14
ENDBRANCH   1  13
TORSDOF 20
ENDMDL
MODEL 7
REMARK VINA RESULT:    -4.383      2.669      8.167
REMARK INTER + INTRA:         -12.069
REMARK INTER:                  -9.275
REMARK INTRA:                  -2.794
REMARK UNBOUND:                -2.561
REMARK SMILES CCCCCCCCCCCCCCCCCCCCCC(=O)[O-]
REMARK SMILES IDX 12 1 11 2 10 3 9 4 8 5 7 6 6 7 5 8 4 9 3 10 2 11 1 12 13 13
REMARK SMILES IDX 14 14 15 15 16 16 17 17 18 18 19 19 20 20 21 21 22 22 23 23
REMARK SMILES IDX 24 24
REMARK H PARENT
REMARK Flexibility Score: inf
ROOT
ATOM      1  C   UNL     1      60.725  -3.689  29.085  1.00  0.00     0.000 C 
ENDROOT
BRANCH   1   2
ATOM      2  C   UNL     1      61.047  -2.224  28.742  1.00  0.00     0.000 C 
BRANCH   2   3
ATOM      3  C   UNL     1      62.439  -1.788  29.223  1.00  0.00     0.000 C 
BRANCH   3   4
ATOM      4  C   UNL     1      63.117  -2.907  30.025  1.00  0.00    -0.000 C 
BRANCH   4   5
ATOM      5  C   UNL     1      64.540  -3.170  29.509  1.00  0.00    -0.000 C 
BRANCH   5   6
ATOM      6  C   UNL     1      64.776  -4.647  29.145  1.00  0.00    -0.000 C 
BRANCH   6   7
ATOM      7  C   UNL     1      65.362  -4.877  27.738  1.00  0.00    -0.000 C 
BRANCH   7   8
ATOM      8  C   UNL     1      64.362  -5.428  26.705  1.00  0.00    -0.000 C 
BRANCH   8   9
ATOM      9  C   UNL     1      63.088  -4.569  26.562  1.00  0.00    -0.000 C 
BRANCH   9  10
ATOM     10  C   UNL     1      63.093  -3.730  25.276  1.00  0.00    -0.000 C 
BRANCH  10  11
ATOM     11  C   UNL     1      63.085  -2.230  25.600  1.00  0.00    -0.003 C 
ATOM     12  C   UNL     1      64.457  -1.762  26.075  1.00  0.00     0.004 C 
ENDBRANCH  10  11
ENDBRANCH   9  10
ENDBRANCH   8   9
ENDBRANCH   7   8
ENDBRANCH   6   7
ENDBRANCH   5   6
ENDBRANCH   4   5
ENDBRANCH   3   4
ENDBRANCH   2   3
ENDBRANCH   1   2
BRANCH   1  13
ATOM     13  C   UNL     1      59.350  -3.923  29.744  1.00  0.00     0.000 C 
BRANCH  13  14
ATOM     14  C   UNL     1      59.103  -3.130  31.040  1.00  0.00     0.000 C 
BRANCH  14  15
ATOM     15  C   UNL     1      57.939  -3.687  31.871  1.00  0.00     0.000 C 
BRANCH  15  16
ATOM     16  C   UNL     1      56.851  -4.275  30.959  1.00  0.00     0.000 C 
BRANCH  16  17
ATOM     17  C   UNL     1      55.542  -4.581  31.710  1.00  0.00     0.000 C 
BRANCH  17  18
ATOM     18  C   UNL     1      54.612  -3.369  31.923  1.00  0.00     0.000 C 
BRANCH  18  19
ATOM     19  C   UNL     1      54.651  -2.312  30.806  1.00  0.00     0.000 C 
BRANCH  19  20
ATOM     20  C   UNL     1      54.866  -0.885  31.341  1.00  0.00     0.006 C 
BRANCH  20  21
ATOM     21  C   UNL     1      56.352  -0.510  31.414  1.00  0.00     0.053 C 
BRANCH  21  22
ATOM     22  C   UNL     1      56.858   0.017  30.106  1.00  0.00     0.041 C 
ATOM     23  O   UNL     1      57.028  -0.763  29.131  1.00  0.00    -0.550 OA
ATOM     24  O   UNL     1      57.121   1.373  29.956  1.00  0.00    -0.550 OA
ENDBRANCH  21  22
ENDBRANCH  20  21
ENDBRANCH  19  20
ENDBRANCH  18  19
ENDBRANCH  17  18
ENDBRANCH  16  17
ENDBRANCH  15  16
ENDBRANCH  14  15
ENDBRANCH  13  14
ENDBRANCH   1  13
TORSDOF 20
ENDMDL
MODEL 8
REMARK VINA RESULT:    -4.354      1.772      3.742
REMARK INTER + INTRA:         -12.005
REMARK INTER:                  -9.200
REMARK INTRA:                  -2.805
REMARK UNBOUND:                -2.561
REMARK SMILES CCCCCCCCCCCCCCCCCCCCCC(=O)[O-]
REMARK SMILES IDX 12 1 11 2 10 3 9 4 8 5 7 6 6 7 5 8 4 9 3 10 2 11 1 12 13 13
REMARK SMILES IDX 14 14 15 15 16 16 17 17 18 18 19 19 20 20 21 21 22 22 23 23
REMARK SMILES IDX 24 24
REMARK H PARENT
REMARK Flexibility Score: inf
ROOT
ATOM      1  C   UNL     1      58.544  -3.946  29.615  1.00  0.00     0.000 C 
ENDROOT
BRANCH   1   2
ATOM      2  C   UNL     1      57.929  -3.901  31.025  1.00  0.00     0.000 C 
BRANCH   2   3
ATOM      3  C   UNL     1      58.688  -2.968  31.980  1.00  0.00     0.000 C 
BRANCH   3   4
ATOM      4  C   UNL     1      58.102  -1.552  31.944  1.00  0.00    -0.000 C 
BRANCH   4   5
ATOM      5  C   UNL     1      59.063  -0.574  31.249  1.00  0.00    -0.000 C 
BRANCH   5   6
ATOM      6  C   UNL     1      58.561  -0.134  29.862  1.00  0.00    -0.000 C 
BRANCH   6   7
ATOM      7  C   UNL     1      57.117   0.407  29.842  1.00  0.00    -0.000 C 
BRANCH   7   8
ATOM      8  C   UNL     1      56.209  -0.219  28.769  1.00  0.00    -0.000 C 
BRANCH   8   9
ATOM      9  C   UNL     1      55.639  -1.596  29.170  1.00  0.00    -0.000 C 
BRANCH   9  10
ATOM     10  C   UNL     1      54.249  -1.487  29.813  1.00  0.00    -0.000 C 
BRANCH  10  11
ATOM     11  C   UNL     1      54.339  -1.616  31.339  1.00  0.00    -0.003 C 
ATOM     12  C   UNL     1      54.459  -3.077  31.763  1.00  0.00     0.004 C 
ENDBRANCH  10  11
ENDBRANCH   9  10
ENDBRANCH   8   9
ENDBRANCH   7   8
ENDBRANCH   6   7
ENDBRANCH   5   6
ENDBRANCH   4   5
ENDBRANCH   3   4
ENDBRANCH   2   3
ENDBRANCH   1   2
BRANCH   1  13
ATOM     13  C   UNL     1      60.079  -3.793  29.563  1.00  0.00     0.000 C 
BRANCH  13  14
ATOM     14  C   UNL     1      60.613  -2.976  28.373  1.00  0.00     0.000 C 
BRANCH  14  15
ATOM     15  C   UNL     1      61.663  -1.934  28.785  1.00  0.00     0.000 C 
BRANCH  15  16
ATOM     16  C   UNL     1      63.067  -2.556  28.812  1.00  0.00     0.000 C 
BRANCH  16  17
ATOM     17  C   UNL     1      63.730  -2.598  27.423  1.00  0.00     0.000 C 
BRANCH  17  18
ATOM     18  C   UNL     1      64.336  -3.961  27.030  1.00  0.00     0.000 C 
BRANCH  18  19
ATOM     19  C   UNL     1      63.396  -5.167  27.201  1.00  0.00     0.000 C 
BRANCH  19  20
ATOM     20  C   UNL     1      64.045  -6.496  26.775  1.00  0.00     0.006 C 
BRANCH  20  21
ATOM     21  C   UNL     1      63.290  -7.713  27.325  1.00  0.00     0.053 C 
BRANCH  21  22
ATOM     22  C   UNL     1      63.409  -8.899  26.417  1.00  0.00     0.041 C 
ATOM     23  O   UNL     1      64.430  -9.635  26.468  1.00  0.00    -0.550 OA
ATOM     24  O   UNL     1      62.383  -9.204  25.530  1.00  0.00    -0.550 OA
ENDBRANCH  21  22
ENDBRANCH  20  21
ENDBRANCH  19  20
ENDBRANCH  18  19
ENDBRANCH  17  18
ENDBRANCH  16  17
ENDBRANCH  15  16
ENDBRANCH  14  15
ENDBRANCH  13  14
ENDBRANCH   1  13
TORSDOF 20
ENDMDL
MODEL 9
REMARK VINA RESULT:    -4.323      3.422      7.762
REMARK INTER + INTRA:         -11.938
REMARK INTER:                  -8.836
REMARK INTRA:                  -3.102
REMARK UNBOUND:                -2.561
REMARK SMILES CCCCCCCCCCCCCCCCCCCCCC(=O)[O-]
REMARK SMILES IDX 12 1 11 2 10 3 9 4 8 5 7 6 6 7 5 8 4 9 3 10 2 11 1 12 13 13
REMARK SMILES IDX 14 14 15 15 16 16 17 17 18 18 19 19 20 20 21 21 22 22 23 23
REMARK SMILES IDX 24 24
REMARK H PARENT
REMARK Flexibility Score: inf
ROOT
ATOM      1  C   UNL     1      58.087  -3.483  30.289  1.00  0.00     0.000 C 
ENDROOT
BRANCH   1   2
ATOM      2  C   UNL     1      58.976  -3.995  29.142  1.00  0.00     0.000 C 
BRANCH   2   3
ATOM      3  C   UNL     1      60.464  -3.675  29.348  1.00  0.00     0.000 C 
BRANCH   3   4
ATOM      4  C   UNL     1      60.851  -2.379  28.625  1.00  0.00    -0.000 C 
BRANCH   4   5
ATOM      5  C   UNL     1      62.266  -1.929  29.019  1.00  0.00    -0.000 C 
BRANCH   5   6
ATOM      6  C   UNL     1      62.758  -2.588  30.320  1.00  0.00    -0.000 C 
BRANCH   6   7
ATOM      7  C   UNL     1      64.165  -3.212  30.234  1.00  0.00    -0.000 C 
BRANCH   7   8
ATOM      8  C   UNL     1      64.492  -3.883  28.888  1.00  0.00    -0.000 C 
BRANCH   8   9
ATOM      9  C   UNL     1      63.725  -5.203  28.655  1.00  0.00    -0.000 C 
BRANCH   9  10
ATOM     10  C   UNL     1      63.215  -5.334  27.213  1.00  0.00    -0.000 C 
BRANCH  10  11
ATOM     11  C   UNL     1      63.819  -4.244  26.318  1.00  0.00    -0.003 C 
ATOM     12  C   UNL     1      62.732  -3.475  25.573  1.00  0.00     0.004 C 
ENDBRANCH  10  11
ENDBRANCH   9  10
ENDBRANCH   8   9
ENDBRANCH   7   8
ENDBRANCH   6   7
ENDBRANCH   5   6
ENDBRANCH   4   5
ENDBRANCH   3   4
ENDBRANCH   2   3
ENDBRANCH   1   2
BRANCH   1  13
ATOM     13  C   UNL     1      58.791  -3.352  31.656  1.00  0.00     0.000 C 
BRANCH  13  14
ATOM     14  C   UNL     1      59.280  -1.935  32.005  1.00  0.00     0.000 C 
BRANCH  14  15
ATOM     15  C   UNL     1      58.209  -0.859  31.777  1.00  0.00     0.000 C 
BRANCH  15  16
ATOM     16  C   UNL     1      58.469  -0.100  30.467  1.00  0.00     0.000 C 
BRANCH  16  17
ATOM     17  C   UNL     1      57.471   1.048  30.230  1.00  0.00     0.000 C 
BRANCH  17  18
ATOM     18  C   UNL     1      56.719   0.992  28.885  1.00  0.00     0.000 C 
BRANCH  18  19
ATOM     19  C   UNL     1      56.384  -0.423  28.383  1.00  0.00     0.000 C 
BRANCH  19  20
ATOM     20  C   UNL     1      54.989  -0.900  28.824  1.00  0.00     0.006 C 
BRANCH  20  21
ATOM     21  C   UNL     1      55.061  -2.066  29.817  1.00  0.00     0.053 C 
BRANCH  21  22
ATOM     22  C   UNL     1      54.497  -1.694  31.155  1.00  0.00     0.041 C 
ATOM     23  O   UNL     1      53.738  -2.491  31.767  1.00  0.00    -0.550 OA
ATOM     24  O   UNL     1      54.827  -0.475  31.736  1.00  0.00    -0.550 OA
ENDBRANCH  21  22
ENDBRANCH  20  21
ENDBRANCH  19  20
ENDBRANCH  18  19
ENDBRANCH  17  18
ENDBRANCH  16  17
ENDBRANCH  15  16
ENDBRANCH  14  15
ENDBRANCH  13  14
ENDBRANCH   1  13
TORSDOF 20
ENDMDL
