MODEL 1
REMARK VINA RESULT:    -4.810      0.000      0.000
REMARK INTER + INTRA:          -7.314
REMARK INTER:                  -6.216
REMARK INTRA:                  -1.098
REMARK UNBOUND:                -1.098
REMARK SMILES CCCCC(=O)c1ccccc1C(=O)[O-]
REMARK SMILES IDX 4 1 5 2 6 3 7 4 12 5 11 6 10 7 8 8 9 9 13 10 14 11 15 12
REMARK SMILES IDX 3 13 2 14 1 15
REMARK H PARENT
REMARK Flexibility Score: inf
ROOT
ATOM      1  C   UNL     1     -35.222  24.354  16.367  1.00  0.00     0.081 C 
ENDROOT
BRANCH   1   2
ATOM      2  C   UNL     1     -33.789  23.903  16.493  1.00  0.00     0.163 C 
ATOM      3  O   UNL     1     -33.015  24.054  15.510  1.00  0.00    -0.294 OA
BRANCH   2   4
ATOM      4  C   UNL     1     -33.271  23.290  17.744  1.00  0.00     0.027 A 
ATOM      5  C   UNL     1     -33.105  24.039  18.944  1.00  0.00     0.008 A 
ATOM      6  C   UNL     1     -32.736  23.369  20.125  1.00  0.00     0.011 A 
ATOM      7  C   UNL     1     -32.494  21.996  20.122  1.00  0.00     0.001 A 
ATOM      8  C   UNL     1     -33.000  21.908  17.762  1.00  0.00     0.012 A 
ATOM      9  C   UNL     1     -32.614  21.269  18.940  1.00  0.00     0.001 A 
BRANCH   5  10
ATOM     10  C   UNL     1     -33.242  25.514  18.998  1.00  0.00     0.072 C 
ATOM     11  O   UNL     1     -32.334  26.264  18.551  1.00  0.00    -0.545 OA
ATOM     12  O   UNL     1     -34.353  26.089  19.604  1.00  0.00    -0.545 OA
ENDBRANCH   5  10
ENDBRANCH   2   4
ENDBRANCH   1   2
BRANCH   1  13
ATOM     13  C   UNL     1     -36.226  23.352  16.970  1.00  0.00     0.008 C 
BRANCH  13  14
ATOM     14  C   UNL     1     -36.876  23.802  18.290  1.00  0.00    -0.003 C 
ATOM     15  C   UNL     1     -36.554  22.877  19.463  1.00  0.00     0.004 C 
ENDBRANCH  13  14
ENDBRANCH   1  13
TORSDOF 5
ENDMDL
MODEL 2
REMARK VINA RESULT:    -4.652      1.944      3.694
REMARK INTER + INTRA:          -7.109
REMARK INTER:                  -6.057
REMARK INTRA:                  -1.052
REMARK UNBOUND:                -1.098
REMARK SMILES CCCCC(=O)c1ccccc1C(=O)[O-]
REMARK SMILES IDX 4 1 5 2 6 3 7 4 12 5 11 6 10 7 8 8 9 9 13 10 14 11 15 12
REMARK SMILES IDX 3 13 2 14 1 15
REMARK H PARENT
REMARK Flexibility Score: inf
ROOT
ATOM      1  C   UNL     1     -32.123  25.646  17.494  1.00  0.00     0.081 C 
ENDROOT
BRANCH   1   2
ATOM      2  C   UNL     1     -32.560  24.291  17.000  1.00  0.00     0.163 C 
ATOM      3  O   UNL     1     -31.724  23.565  16.396  1.00  0.00    -0.294 OA
BRANCH   2   4
ATOM      4  C   UNL     1     -33.945  23.793  17.207  1.00  0.00     0.027 A 
ATOM      5  C   UNL     1     -34.285  22.920  18.281  1.00  0.00     0.008 A 
ATOM      6  C   UNL     1     -35.636  22.594  18.497  1.00  0.00     0.011 A 
ATOM      7  C   UNL     1     -36.633  23.079  17.651  1.00  0.00     0.001 A 
ATOM      8  C   UNL     1     -34.967  24.253  16.355  1.00  0.00     0.012 A 
ATOM      9  C   UNL     1     -36.298  23.898  16.576  1.00  0.00     0.001 A 
BRANCH   5  10
ATOM     10  C   UNL     1     -33.270  22.283  19.153  1.00  0.00     0.072 C 
ATOM     11  O   UNL     1     -32.769  22.908  20.125  1.00  0.00    -0.545 OA
ATOM     12  O   UNL     1     -32.811  21.002  18.867  1.00  0.00    -0.545 OA
ENDBRANCH   5  10
ENDBRANCH   2   4
ENDBRANCH   1   2
BRANCH   1  13
ATOM     13  C   UNL     1     -32.764  26.034  18.840  1.00  0.00     0.008 C 
BRANCH  13  14
ATOM     14  C   UNL     1     -33.936  27.026  18.738  1.00  0.00    -0.003 C 
ATOM     15  C   UNL     1     -35.226  26.498  19.365  1.00  0.00     0.004 C 
ENDBRANCH  13  14
ENDBRANCH   1  13
TORSDOF 5
ENDMDL
MODEL 3
REMARK VINA RESULT:    -4.599      1.852      3.764
REMARK INTER + INTRA:          -7.042
REMARK INTER:                  -5.953
REMARK INTRA:                  -1.089
REMARK UNBOUND:                -1.098
REMARK SMILES CCCCC(=O)c1ccccc1C(=O)[O-]
REMARK SMILES IDX 4 1 5 2 6 3 7 4 12 5 11 6 10 7 8 8 9 9 13 10 14 11 15 12
REMARK SMILES IDX 3 13 2 14 1 15
REMARK H PARENT
REMARK Flexibility Score: inf
ROOT
ATOM      1  C   UNL     1     -35.522  25.715  19.541  1.00  0.00     0.081 C 
ENDROOT
BRANCH   1   2
ATOM      2  C   UNL     1     -35.725  24.224  19.618  1.00  0.00     0.163 C 
ATOM      3  O   UNL     1     -36.809  23.781  20.087  1.00  0.00    -0.294 OA
BRANCH   2   4
ATOM      4  C   UNL     1     -34.684  23.269  19.156  1.00  0.00     0.027 A 
ATOM      5  C   UNL     1     -34.408  23.057  17.775  1.00  0.00     0.008 A 
ATOM      6  C   UNL     1     -33.322  22.240  17.411  1.00  0.00     0.011 A 
ATOM      7  C   UNL     1     -32.546  21.609  18.382  1.00  0.00     0.001 A 
ATOM      8  C   UNL     1     -33.898  22.604  20.117  1.00  0.00     0.012 A 
ATOM      9  C   UNL     1     -32.840  21.781  19.732  1.00  0.00     0.001 A 
BRANCH   5  10
ATOM     10  C   UNL     1     -35.254  23.609  16.691  1.00  0.00     0.072 C 
ATOM     11  O   UNL     1     -34.869  24.597  16.010  1.00  0.00    -0.545 OA
ATOM     12  O   UNL     1     -36.517  23.079  16.453  1.00  0.00    -0.545 OA
ENDBRANCH   5  10
ENDBRANCH   2   4
ENDBRANCH   1   2
BRANCH   1  13
ATOM     13  C   UNL     1     -34.052  26.136  19.730  1.00  0.00     0.008 C 
BRANCH  13  14
ATOM     14  C   UNL     1     -33.375  26.709  18.473  1.00  0.00    -0.003 C 
ATOM     15  C   UNL     1     -32.176  25.883  18.007  1.00  0.00     0.004 C 
ENDBRANCH  13  14
ENDBRANCH   1  13
TORSDOF 5
ENDMDL
MODEL 4
REMARK VINA RESULT:    -4.559      1.806      3.679
REMARK INTER + INTRA:          -6.990
REMARK INTER:                  -6.130
REMARK INTRA:                  -0.860
REMARK UNBOUND:                -1.098
REMARK SMILES CCCCC(=O)c1ccccc1C(=O)[O-]
REMARK SMILES IDX 4 1 5 2 6 3 7 4 12 5 11 6 10 7 8 8 9 9 13 10 14 11 15 12
REMARK SMILES IDX 3 13 2 14 1 15
REMARK H PARENT
REMARK Flexibility Score: inf
ROOT
ATOM      1  C   UNL     1     -32.623  22.898  17.026  1.00  0.00     0.081 C 
ENDROOT
BRANCH   1   2
ATOM      2  C   UNL     1     -33.536  24.091  16.908  1.00  0.00     0.163 C 
ATOM      3  O   UNL     1     -34.410  24.100  16.000  1.00  0.00    -0.294 OA
BRANCH   2   4
ATOM      4  C   UNL     1     -33.429  25.250  17.832  1.00  0.00     0.027 A 
ATOM      5  C   UNL     1     -34.359  25.465  18.890  1.00  0.00     0.008 A 
ATOM      6  C   UNL     1     -34.124  26.505  19.807  1.00  0.00     0.011 A 
ATOM      7  C   UNL     1     -33.021  27.347  19.667  1.00  0.00     0.001 A 
ATOM      8  C   UNL     1     -32.334  26.126  17.699  1.00  0.00     0.012 A 
ATOM      9  C   UNL     1     -32.134  27.165  18.609  1.00  0.00     0.001 A 
BRANCH   5  10
ATOM     10  C   UNL     1     -35.606  24.679  19.038  1.00  0.00     0.072 C 
ATOM     11  O   UNL     1     -35.629  23.628  19.733  1.00  0.00    -0.545 OA
ATOM     12  O   UNL     1     -36.756  25.060  18.355  1.00  0.00    -0.545 OA
ENDBRANCH   5  10
ENDBRANCH   2   4
ENDBRANCH   1   2
BRANCH   1  13
ATOM     13  C   UNL     1     -33.242  21.740  17.833  1.00  0.00     0.008 C 
BRANCH  13  14
ATOM     14  C   UNL     1     -32.495  21.382  19.129  1.00  0.00    -0.003 C 
ATOM     15  C   UNL     1     -32.429  22.541  20.124  1.00  0.00     0.004 C 
ENDBRANCH  13  14
ENDBRANCH   1  13
TORSDOF 5
ENDMDL
MODEL 5
REMARK VINA RESULT:    -4.408      1.958      4.680
REMARK INTER + INTRA:          -6.794
REMARK INTER:                  -6.120
REMARK INTRA:                  -0.674
REMARK UNBOUND:                -1.098
REMARK SMILES CCCCC(=O)c1ccccc1C(=O)[O-]
REMARK SMILES IDX 4 1 5 2 6 3 7 4 12 5 11 6 10 7 8 8 9 9 13 10 14 11 15 12
REMARK SMILES IDX 3 13 2 14 1 15
REMARK H PARENT
REMARK Flexibility Score: inf
ROOT
ATOM      1  C   UNL     1     -33.903  25.403  19.945  1.00  0.00     0.081 C 
ENDROOT
BRANCH   1   2
ATOM      2  C   UNL     1     -34.429  24.061  19.506  1.00  0.00     0.163 C 
ATOM      3  O   UNL     1     -34.008  23.023  20.087  1.00  0.00    -0.294 OA
BRANCH   2   4
ATOM      4  C   UNL     1     -35.426  23.932  18.411  1.00  0.00     0.027 A 
ATOM      5  C   UNL     1     -35.074  23.445  17.119  1.00  0.00     0.008 A 
ATOM      6  C   UNL     1     -36.089  23.224  16.171  1.00  0.00     0.011 A 
ATOM      7  C   UNL     1     -37.420  23.515  16.468  1.00  0.00     0.001 A 
ATOM      8  C   UNL     1     -36.774  24.238  18.679  1.00  0.00     0.012 A 
ATOM      9  C   UNL     1     -37.760  24.032  17.716  1.00  0.00     0.001 A 
BRANCH   5  10
ATOM     10  C   UNL     1     -33.671  23.215  16.699  1.00  0.00     0.072 C 
ATOM     11  O   UNL     1     -33.079  24.037  15.950  1.00  0.00    -0.545 OA
ATOM     12  O   UNL     1     -33.012  22.052  17.078  1.00  0.00    -0.545 OA
ENDBRANCH   5  10
ENDBRANCH   2   4
ENDBRANCH   1   2
BRANCH   1  13
ATOM     13  C   UNL     1     -33.781  26.412  18.787  1.00  0.00     0.008 C 
BRANCH  13  14
ATOM     14  C   UNL     1     -32.357  26.596  18.234  1.00  0.00    -0.003 C 
ATOM     15  C   UNL     1     -31.887  28.051  18.258  1.00  0.00     0.004 C 
ENDBRANCH  13  14
ENDBRANCH   1  13
TORSDOF 5
ENDMDL
MODEL 6
REMARK VINA RESULT:    -4.309      1.016      2.911
REMARK INTER + INTRA:          -6.667
REMARK INTER:                  -5.714
REMARK INTRA:                  -0.953
REMARK UNBOUND:                -1.098
REMARK SMILES CCCCC(=O)c1ccccc1C(=O)[O-]
REMARK SMILES IDX 4 1 5 2 6 3 7 4 12 5 11 6 10 7 8 8 9 9 13 10 14 11 15 12
REMARK SMILES IDX 3 13 2 14 1 15
REMARK H PARENT
REMARK Flexibility Score: inf
ROOT
ATOM      1  C   UNL     1     -34.558  26.260  18.872  1.00  0.00     0.081 C 
ENDROOT
BRANCH   1   2
ATOM      2  C   UNL     1     -33.225  25.578  18.703  1.00  0.00     0.163 C 
ATOM      3  O   UNL     1     -32.203  26.284  18.487  1.00  0.00    -0.294 OA
BRANCH   2   4
ATOM      4  C   UNL     1     -33.089  24.100  18.785  1.00  0.00     0.027 A 
ATOM      5  C   UNL     1     -33.224  23.261  17.642  1.00  0.00     0.008 A 
ATOM      6  C   UNL     1     -32.953  21.886  17.765  1.00  0.00     0.011 A 
ATOM      7  C   UNL     1     -32.597  21.335  18.995  1.00  0.00     0.001 A 
ATOM      8  C   UNL     1     -32.749  23.516  20.021  1.00  0.00     0.012 A 
ATOM      9  C   UNL     1     -32.506  22.147  20.124  1.00  0.00     0.001 A 
BRANCH   5  10
ATOM     10  C   UNL     1     -33.700  23.759  16.329  1.00  0.00     0.072 C 
ATOM     11  O   UNL     1     -34.929  23.929  16.110  1.00  0.00    -0.545 OA
ATOM     12  O   UNL     1     -32.795  23.985  15.299  1.00  0.00    -0.545 OA
ENDBRANCH   5  10
ENDBRANCH   2   4
ENDBRANCH   1   2
BRANCH   1  13
ATOM     13  C   UNL     1     -35.465  25.569  19.908  1.00  0.00     0.008 C 
BRANCH  13  14
ATOM     14  C   UNL     1     -36.730  24.913  19.327  1.00  0.00    -0.003 C 
ATOM     15  C   UNL     1     -36.615  23.394  19.200  1.00  0.00     0.004 C 
ENDBRANCH  13  14
ENDBRANCH   1  13
TORSDOF 5
ENDMDL
MODEL 7
REMARK VINA RESULT:    -4.298      2.250      3.508
REMARK INTER + INTRA:          -6.652
REMARK INTER:                  -5.887
REMARK INTRA:                  -0.765
REMARK UNBOUND:                -1.098
REMARK SMILES CCCCC(=O)c1ccccc1C(=O)[O-]
REMARK SMILES IDX 4 1 5 2 6 3 7 4 12 5 11 6 10 7 8 8 9 9 13 10 14 11 15 12
REMARK SMILES IDX 3 13 2 14 1 15
REMARK H PARENT
REMARK Flexibility Score: inf
ROOT
ATOM      1  C   UNL     1     -36.046  22.843  18.383  1.00  0.00     0.081 C 
ENDROOT
BRANCH   1   2
ATOM      2  C   UNL     1     -35.482  23.842  17.406  1.00  0.00     0.163 C 
ATOM      3  O   UNL     1     -36.019  23.952  16.271  1.00  0.00    -0.294 OA
BRANCH   2   4
ATOM      4  C   UNL     1     -34.313  24.695  17.748  1.00  0.00     0.027 A 
ATOM      5  C   UNL     1     -32.972  24.258  17.551  1.00  0.00     0.008 A 
ATOM      6  C   UNL     1     -31.917  25.163  17.772  1.00  0.00     0.011 A 
ATOM      7  C   UNL     1     -32.170  26.460  18.218  1.00  0.00     0.001 A 
ATOM      8  C   UNL     1     -34.541  26.003  18.219  1.00  0.00     0.012 A 
ATOM      9  C   UNL     1     -33.478  26.875  18.452  1.00  0.00     0.001 A 
BRANCH   5  10
ATOM     10  C   UNL     1     -32.624  22.866  17.181  1.00  0.00     0.072 C 
ATOM     11  O   UNL     1     -32.503  22.529  15.973  1.00  0.00    -0.545 OA
ATOM     12  O   UNL     1     -32.489  21.896  18.167  1.00  0.00    -0.545 OA
ENDBRANCH   5  10
ENDBRANCH   2   4
ENDBRANCH   1   2
BRANCH   1  13
ATOM     13  C   UNL     1     -36.809  23.502  19.549  1.00  0.00     0.008 C 
BRANCH  13  14
ATOM     14  C   UNL     1     -38.106  24.225  19.147  1.00  0.00    -0.003 C 
ATOM     15  C   UNL     1     -38.087  25.718  19.473  1.00  0.00     0.004 C 
ENDBRANCH  13  14
ENDBRANCH   1  13
TORSDOF 5
ENDMDL
MODEL 8
REMARK VINA RESULT:    -4.255      1.222      3.547
REMARK INTER + INTRA:          -6.596
REMARK INTER:                  -5.946
REMARK INTRA:                  -0.651
REMARK UNBOUND:                -1.098
REMARK SMILES CCCCC(=O)c1ccccc1C(=O)[O-]
REMARK SMILES IDX 4 1 5 2 6 3 7 4 12 5 11 6 10 7 8 8 9 9 13 10 14 11 15 12
REMARK SMILES IDX 3 13 2 14 1 15
REMARK H PARENT
REMARK Flexibility Score: inf
ROOT
ATOM      1  C   UNL     1     -32.513  22.622  17.321  1.00  0.00     0.081 C 
ENDROOT
BRANCH   1   2
ATOM      2  C   UNL     1     -33.430  23.614  16.653  1.00  0.00     0.163 C 
ATOM      3  O   UNL     1     -32.992  24.289  15.682  1.00  0.00    -0.294 OA
BRANCH   2   4
ATOM      4  C   UNL     1     -34.830  23.814  17.110  1.00  0.00     0.027 A 
ATOM      5  C   UNL     1     -35.173  24.774  18.104  1.00  0.00     0.008 A 
ATOM      6  C   UNL     1     -36.530  25.004  18.395  1.00  0.00     0.011 A 
ATOM      7  C   UNL     1     -37.532  24.276  17.754  1.00  0.00     0.001 A 
ATOM      8  C   UNL     1     -35.859  23.077  16.491  1.00  0.00     0.012 A 
ATOM      9  C   UNL     1     -37.196  23.307  16.812  1.00  0.00     0.001 A 
BRANCH   5  10
ATOM     10  C   UNL     1     -34.160  25.507  18.901  1.00  0.00     0.072 C 
ATOM     11  O   UNL     1     -33.688  25.012  19.958  1.00  0.00    -0.545 OA
ATOM     12  O   UNL     1     -33.763  26.783  18.519  1.00  0.00    -0.545 OA
ENDBRANCH   5  10
ENDBRANCH   2   4
ENDBRANCH   1   2
BRANCH   1  13
ATOM     13  C   UNL     1     -33.260  21.618  18.219  1.00  0.00     0.008 C 
BRANCH  13  14
ATOM     14  C   UNL     1     -32.886  21.680  19.711  1.00  0.00    -0.003 C 
ATOM     15  C   UNL     1     -31.889  20.597  20.125  1.00  0.00     0.004 C 
ENDBRANCH  13  14
ENDBRANCH   1  13
TORSDOF 5
ENDMDL
MODEL 9
REMARK VINA RESULT:    -4.088      2.024      3.831
REMARK INTER + INTRA:          -6.381
REMARK INTER:                  -5.763
REMARK INTRA:                  -0.619
REMARK UNBOUND:                -1.098
REMARK SMILES CCCCC(=O)c1ccccc1C(=O)[O-]
REMARK SMILES IDX 4 1 5 2 6 3 7 4 12 5 11 6 10 7 8 8 9 9 13 10 14 11 15 12
REMARK SMILES IDX 3 13 2 14 1 15
REMARK H PARENT
REMARK Flexibility Score: inf
ROOT
ATOM      1  C   UNL     1     -35.686  23.880  19.628  1.00  0.00     0.081 C 
ENDROOT
BRANCH   1   2
ATOM      2  C   UNL     1     -34.183  23.916  19.534  1.00  0.00     0.163 C 
ATOM      3  O   UNL     1     -33.532  22.868  19.794  1.00  0.00    -0.294 OA
BRANCH   2   4
ATOM      4  C   UNL     1     -33.454  25.152  19.145  1.00  0.00     0.027 A 
ATOM      5  C   UNL     1     -32.900  25.328  17.845  1.00  0.00     0.008 A 
ATOM      6  C   UNL     1     -32.339  26.571  17.501  1.00  0.00     0.011 A 
ATOM      7  C   UNL     1     -32.284  27.611  18.429  1.00  0.00     0.001 A 
ATOM      8  C   UNL     1     -33.367  26.209  20.071  1.00  0.00     0.012 A 
ATOM      9  C   UNL     1     -32.786  27.426  19.715  1.00  0.00     0.001 A 
BRANCH   5  10
ATOM     10  C   UNL     1     -32.828  24.235  16.845  1.00  0.00     0.072 C 
ATOM     11  O   UNL     1     -33.795  24.003  16.071  1.00  0.00    -0.545 OA
ATOM     12  O   UNL     1     -31.711  23.411  16.793  1.00  0.00    -0.545 OA
ENDBRANCH   5  10
ENDBRANCH   2   4
ENDBRANCH   1   2
BRANCH   1  13
ATOM     13  C   UNL     1     -36.344  23.081  18.486  1.00  0.00     0.008 C 
BRANCH  13  14
ATOM     14  C   UNL     1     -37.006  23.938  17.393  1.00  0.00    -0.003 C 
ATOM     15  C   UNL     1     -37.290  23.159  16.109  1.00  0.00     0.004 C 
ENDBRANCH  13  14
ENDBRANCH   1  13
TORSDOF 5
ENDMDL
