MODEL 1
REMARK VINA RESULT:    -5.028      0.000      0.000
REMARK INTER + INTRA:          -7.442
REMARK INTER:                  -6.792
REMARK INTRA:                  -0.650
REMARK UNBOUND:                -0.650
REMARK SMILES CC(=O)CCC=C(C)CCC=C(C)C
REMARK SMILES IDX 7 1 6 2 8 3 9 4 10 5 11 6 13 7 12 8 14 9 5 10 4 11 2 12 3 13
REMARK SMILES IDX 1 14
REMARK H PARENT
REMARK Flexibility Score: inf
ROOT
ATOM      1  C   UNL     1     101.729 131.219 126.701  1.00  0.00    -0.077 C 
ATOM      2  C   UNL     1     100.665 130.978 127.501  1.00  0.00    -0.028 C 
ATOM      3  C   UNL     1     103.121 130.753 127.060  1.00  0.00     0.039 C 
ENDROOT
BRANCH   1   4
ATOM      4  C   UNL     1     101.515 131.959 125.399  1.00  0.00     0.034 C 
BRANCH   4   5
ATOM      5  C   UNL     1     101.671 133.470 125.599  1.00  0.00     0.032 C 
BRANCH   5   6
ATOM      6  C   UNL     1     100.326 134.153 125.590  1.00  0.00    -0.028 C 
ATOM      7  C   UNL     1      98.712 135.965 125.201  1.00  0.00     0.039 C 
ATOM      8  C   UNL     1     100.103 135.394 125.103  1.00  0.00    -0.080 C 
ATOM      9  C   UNL     1     101.199 136.209 124.456  1.00  0.00     0.039 C 
ENDBRANCH   5   6
ENDBRANCH   4   5
ENDBRANCH   1   4
BRANCH   2  10
ATOM     10  C   UNL     1     100.740 130.293 128.845  1.00  0.00     0.035 C 
BRANCH  10  11
ATOM     11  C   UNL     1     100.559 131.288 129.999  1.00  0.00     0.079 C 
BRANCH  11  12
ATOM     12  C   UNL     1     101.555 131.044 131.104  1.00  0.00     0.130 C 
ATOM     13  O   UNL     1     101.174 131.031 132.265  1.00  0.00    -0.300 OA
ATOM     14  C   UNL     1     103.007 130.815 130.808  1.00  0.00     0.087 C 
ENDBRANCH  11  12
ENDBRANCH  10  11
ENDBRANCH   2  10
TORSDOF 6
ENDMDL
MODEL 2
REMARK VINA RESULT:    -4.737      1.376      2.151
REMARK INTER + INTRA:          -7.048
REMARK INTER:                  -6.311
REMARK INTRA:                  -0.737
REMARK UNBOUND:                -0.650
REMARK SMILES CC(=O)CCC=C(C)CCC=C(C)C
REMARK SMILES IDX 7 1 6 2 8 3 9 4 10 5 11 6 13 7 12 8 14 9 5 10 4 11 2 12 3 13
REMARK SMILES IDX 1 14
REMARK H PARENT
REMARK Flexibility Score: inf
ROOT
ATOM      1  C   UNL     1     101.090 131.652 124.839  1.00  0.00    -0.077 C 
ATOM      2  C   UNL     1     101.585 131.714 126.096  1.00  0.00    -0.028 C 
ATOM      3  C   UNL     1      99.753 131.016 124.536  1.00  0.00     0.039 C 
ENDROOT
BRANCH   1   4
ATOM      4  C   UNL     1     101.890 132.256 123.706  1.00  0.00     0.034 C 
BRANCH   4   5
ATOM      5  C   UNL     1     102.034 133.771 123.887  1.00  0.00     0.032 C 
BRANCH   5   6
ATOM      6  C   UNL     1     100.687 134.416 124.098  1.00  0.00    -0.028 C 
ATOM      7  C   UNL     1      99.002 135.827 125.198  1.00  0.00     0.039 C 
ATOM      8  C   UNL     1     100.407 135.295 125.085  1.00  0.00    -0.080 C 
ATOM      9  C   UNL     1     101.462 135.767 126.059  1.00  0.00     0.039 C 
ENDBRANCH   5   6
ENDBRANCH   4   5
ENDBRANCH   1   4
BRANCH   2  10
ATOM     10  C   UNL     1     100.917 131.116 127.312  1.00  0.00     0.035 C 
BRANCH  10  11
ATOM     11  C   UNL     1     101.934 130.441 128.241  1.00  0.00     0.079 C 
BRANCH  11  12
ATOM     12  C   UNL     1     101.347 130.169 129.603  1.00  0.00     0.130 C 
ATOM     13  O   UNL     1     102.076 130.173 130.584  1.00  0.00    -0.300 OA
ATOM     14  C   UNL     1      99.884 129.894 129.780  1.00  0.00     0.087 C 
ENDBRANCH  11  12
ENDBRANCH  10  11
ENDBRANCH   2  10
TORSDOF 6
ENDMDL
MODEL 3
REMARK VINA RESULT:    -4.581     12.240     14.394
REMARK INTER + INTRA:          -6.838
REMARK INTER:                  -5.967
REMARK INTRA:                  -0.871
REMARK UNBOUND:                -0.650
REMARK SMILES CC(=O)CCC=C(C)CCC=C(C)C
REMARK SMILES IDX 7 1 6 2 8 3 9 4 10 5 11 6 13 7 12 8 14 9 5 10 4 11 2 12 3 13
REMARK SMILES IDX 1 14
REMARK H PARENT
REMARK Flexibility Score: inf
ROOT
ATOM      1  C   UNL     1      97.478 142.621 134.613  1.00  0.00    -0.077 C 
ATOM      2  C   UNL     1      96.467 143.394 134.157  1.00  0.00    -0.028 C 
ATOM      3  C   UNL     1      97.987 142.724 136.032  1.00  0.00     0.039 C 
ENDROOT
BRANCH   1   4
ATOM      4  C   UNL     1      98.106 141.608 133.680  1.00  0.00     0.034 C 
BRANCH   4   5
ATOM      5  C   UNL     1      98.504 140.339 134.440  1.00  0.00     0.032 C 
BRANCH   5   6
ATOM      6  C   UNL     1      97.312 139.438 134.640  1.00  0.00    -0.028 C 
ATOM      7  C   UNL     1      95.774 137.958 135.859  1.00  0.00     0.039 C 
ATOM      8  C   UNL     1      96.971 138.872 135.819  1.00  0.00    -0.080 C 
ATOM      9  C   UNL     1      97.744 139.143 137.090  1.00  0.00     0.039 C 
ENDBRANCH   5   6
ENDBRANCH   4   5
ENDBRANCH   1   4
BRANCH   2  10
ATOM     10  C   UNL     1      95.781 144.473 134.962  1.00  0.00     0.035 C 
BRANCH  10  11
ATOM     11  C   UNL     1      95.938 145.852 134.310  1.00  0.00     0.079 C 
BRANCH  11  12
ATOM     12  C   UNL     1      97.241 146.504 134.696  1.00  0.00     0.130 C 
ATOM     13  O   UNL     1      97.744 146.248 135.780  1.00  0.00    -0.300 OA
ATOM     14  C   UNL     1      97.936 147.462 133.775  1.00  0.00     0.087 C 
ENDBRANCH  11  12
ENDBRANCH  10  11
ENDBRANCH   2  10
TORSDOF 6
ENDMDL
MODEL 4
REMARK VINA RESULT:    -4.578     12.529     14.066
REMARK INTER + INTRA:          -6.833
REMARK INTER:                  -6.241
REMARK INTRA:                  -0.592
REMARK UNBOUND:                -0.650
REMARK SMILES CC(=O)CCC=C(C)CCC=C(C)C
REMARK SMILES IDX 7 1 6 2 8 3 9 4 10 5 11 6 13 7 12 8 14 9 5 10 4 11 2 12 3 13
REMARK SMILES IDX 1 14
REMARK H PARENT
REMARK Flexibility Score: inf
ROOT
ATOM      1  C   UNL     1      97.121 143.127 134.625  1.00  0.00    -0.077 C 
ATOM      2  C   UNL     1      97.714 142.238 133.796  1.00  0.00    -0.028 C 
ATOM      3  C   UNL     1      97.317 143.078 136.122  1.00  0.00     0.039 C 
ENDROOT
BRANCH   1   4
ATOM      4  C   UNL     1      96.251 144.214 134.033  1.00  0.00     0.034 C 
BRANCH   4   5
ATOM      5  C   UNL     1      96.394 145.518 134.824  1.00  0.00     0.032 C 
BRANCH   5   6
ATOM      6  C   UNL     1      97.088 146.572 133.998  1.00  0.00    -0.028 C 
ATOM      7  C   UNL     1      97.638 148.838 133.220  1.00  0.00     0.039 C 
ATOM      8  C   UNL     1      96.906 147.903 134.148  1.00  0.00    -0.080 C 
ATOM      9  C   UNL     1      96.009 148.472 135.224  1.00  0.00     0.039 C 
ENDBRANCH   5   6
ENDBRANCH   4   5
ENDBRANCH   1   4
BRANCH   2  10
ATOM     10  C   UNL     1      98.569 141.079 134.251  1.00  0.00     0.035 C 
BRANCH  10  11
ATOM     11  C   UNL     1      97.801 139.752 134.194  1.00  0.00     0.079 C 
BRANCH  11  12
ATOM     12  C   UNL     1      97.398 139.284 135.569  1.00  0.00     0.130 C 
ATOM     13  O   UNL     1      98.041 139.650 136.541  1.00  0.00    -0.300 OA
ATOM     14  C   UNL     1      96.221 138.376 135.769  1.00  0.00     0.087 C 
ENDBRANCH  11  12
ENDBRANCH  10  11
ENDBRANCH   2  10
TORSDOF 6
ENDMDL
MODEL 5
REMARK VINA RESULT:    -4.542      3.490      4.876
REMARK INTER + INTRA:          -6.785
REMARK INTER:                  -5.356
REMARK INTRA:                  -1.429
REMARK UNBOUND:                -0.650
REMARK SMILES CC(=O)CCC=C(C)CCC=C(C)C
REMARK SMILES IDX 7 1 6 2 8 3 9 4 10 5 11 6 13 7 12 8 14 9 5 10 4 11 2 12 3 13
REMARK SMILES IDX 1 14
REMARK H PARENT
REMARK Flexibility Score: inf
ROOT
ATOM      1  C   UNL     1     103.149 133.911 123.002  1.00  0.00    -0.077 C 
ATOM      2  C   UNL     1     102.589 132.730 122.655  1.00  0.00    -0.028 C 
ATOM      3  C   UNL     1     104.147 134.022 124.131  1.00  0.00     0.039 C 
ENDROOT
BRANCH   1   4
ATOM      4  C   UNL     1     102.780 135.155 122.224  1.00  0.00     0.034 C 
BRANCH   4   5
ATOM      5  C   UNL     1     102.237 136.242 123.157  1.00  0.00     0.032 C 
BRANCH   5   6
ATOM      6  C   UNL     1     100.862 135.879 123.659  1.00  0.00    -0.028 C 
ATOM      7  C   UNL     1      99.136 135.302 125.310  1.00  0.00     0.039 C 
ATOM      8  C   UNL     1     100.545 135.703 124.961  1.00  0.00    -0.080 C 
ATOM      9  C   UNL     1     101.555 135.914 126.066  1.00  0.00     0.039 C 
ENDBRANCH   5   6
ENDBRANCH   4   5
ENDBRANCH   1   4
BRANCH   2  10
ATOM     10  C   UNL     1     102.831 131.422 123.371  1.00  0.00     0.035 C 
BRANCH  10  11
ATOM     11  C   UNL     1     101.515 130.755 123.792  1.00  0.00     0.079 C 
BRANCH  11  12
ATOM     12  C   UNL     1     100.692 131.658 124.674  1.00  0.00     0.130 C 
ATOM     13  O   UNL     1      99.583 132.014 124.303  1.00  0.00    -0.300 OA
ATOM     14  C   UNL     1     101.205 132.130 126.001  1.00  0.00     0.087 C 
ENDBRANCH  11  12
ENDBRANCH  10  11
ENDBRANCH   2  10
TORSDOF 6
ENDMDL
MODEL 6
REMARK VINA RESULT:    -4.525     12.106     13.942
REMARK INTER + INTRA:          -6.762
REMARK INTER:                  -5.510
REMARK INTRA:                  -1.252
REMARK UNBOUND:                -0.650
REMARK SMILES CC(=O)CCC=C(C)CCC=C(C)C
REMARK SMILES IDX 7 1 6 2 8 3 9 4 10 5 11 6 13 7 12 8 14 9 5 10 4 11 2 12 3 13
REMARK SMILES IDX 1 14
REMARK H PARENT
REMARK Flexibility Score: inf
ROOT
ATOM      1  C   UNL     1      97.435 142.622 134.641  1.00  0.00    -0.077 C 
ATOM      2  C   UNL     1      96.365 143.335 134.221  1.00  0.00    -0.028 C 
ATOM      3  C   UNL     1      97.975 142.744 136.047  1.00  0.00     0.039 C 
ENDROOT
BRANCH   1   4
ATOM      4  C   UNL     1      98.097 141.659 133.680  1.00  0.00     0.034 C 
BRANCH   4   5
ATOM      5  C   UNL     1      98.508 140.369 134.398  1.00  0.00     0.032 C 
BRANCH   5   6
ATOM      6  C   UNL     1      97.316 139.469 134.607  1.00  0.00    -0.028 C 
ATOM      7  C   UNL     1      95.788 137.989 135.838  1.00  0.00     0.039 C 
ATOM      8  C   UNL     1      96.986 138.901 135.788  1.00  0.00    -0.080 C 
ATOM      9  C   UNL     1      97.771 139.169 137.052  1.00  0.00     0.039 C 
ENDBRANCH   5   6
ENDBRANCH   4   5
ENDBRANCH   1   4
BRANCH   2  10
ATOM     10  C   UNL     1      95.636 144.361 135.057  1.00  0.00     0.035 C 
BRANCH  10  11
ATOM     11  C   UNL     1      94.266 143.847 135.517  1.00  0.00     0.079 C 
BRANCH  11  12
ATOM     12  C   UNL     1      94.378 143.008 136.764  1.00  0.00     0.130 C 
ATOM     13  O   UNL     1      94.445 143.556 137.854  1.00  0.00    -0.300 OA
ATOM     14  C   UNL     1      94.407 141.510 136.696  1.00  0.00     0.087 C 
ENDBRANCH  11  12
ENDBRANCH  10  11
ENDBRANCH   2  10
TORSDOF 6
ENDMDL
MODEL 7
REMARK VINA RESULT:    -4.523      1.858      3.249
REMARK INTER + INTRA:          -6.759
REMARK INTER:                  -6.090
REMARK INTRA:                  -0.668
REMARK UNBOUND:                -0.650
REMARK SMILES CC(=O)CCC=C(C)CCC=C(C)C
REMARK SMILES IDX 7 1 6 2 8 3 9 4 10 5 11 6 13 7 12 8 14 9 5 10 4 11 2 12 3 13
REMARK SMILES IDX 1 14
REMARK H PARENT
REMARK Flexibility Score: inf
ROOT
ATOM      1  C   UNL     1     100.908 130.463 129.513  1.00  0.00    -0.077 C 
ATOM      2  C   UNL     1     102.227 130.206 129.674  1.00  0.00    -0.028 C 
ATOM      3  C   UNL     1      99.956 130.526 130.684  1.00  0.00     0.039 C 
ENDROOT
BRANCH   1   4
ATOM      4  C   UNL     1     100.376 130.714 128.119  1.00  0.00     0.034 C 
BRANCH   4   5
ATOM      5  C   UNL     1     101.472 131.285 127.212  1.00  0.00     0.032 C 
BRANCH   5   6
ATOM      6  C   UNL     1     100.946 131.517 125.817  1.00  0.00    -0.028 C 
ATOM      7  C   UNL     1      99.994 132.787 123.941  1.00  0.00     0.039 C 
ATOM      8  C   UNL     1     100.536 132.715 125.345  1.00  0.00    -0.080 C 
ATOM      9  C   UNL     1     100.622 133.975 126.176  1.00  0.00     0.039 C 
ENDBRANCH   5   6
ENDBRANCH   4   5
ENDBRANCH   1   4
BRANCH   2  10
ATOM     10  C   UNL     1     102.884 129.893 130.998  1.00  0.00     0.035 C 
BRANCH  10  11
ATOM     11  C   UNL     1     104.145 130.739 131.218  1.00  0.00     0.079 C 
BRANCH  11  12
ATOM     12  C   UNL     1     103.966 131.719 132.349  1.00  0.00     0.130 C 
ATOM     13  O   UNL     1     104.945 132.103 132.972  1.00  0.00    -0.300 OA
ATOM     14  C   UNL     1     102.610 132.235 132.727  1.00  0.00     0.087 C 
ENDBRANCH  11  12
ENDBRANCH  10  11
ENDBRANCH   2  10
TORSDOF 6
ENDMDL
MODEL 8
REMARK VINA RESULT:    -4.501      2.651      6.119
REMARK INTER + INTRA:          -6.729
REMARK INTER:                  -5.878
REMARK INTRA:                  -0.851
REMARK UNBOUND:                -0.650
REMARK SMILES CC(=O)CCC=C(C)CCC=C(C)C
REMARK SMILES IDX 7 1 6 2 8 3 9 4 10 5 11 6 13 7 12 8 14 9 5 10 4 11 2 12 3 13
REMARK SMILES IDX 1 14
REMARK H PARENT
REMARK Flexibility Score: inf
ROOT
ATOM      1  C   UNL     1     102.106 131.805 125.495  1.00  0.00    -0.077 C 
ATOM      2  C   UNL     1     101.532 132.986 125.819  1.00  0.00    -0.028 C 
ATOM      3  C   UNL     1     101.657 130.999 124.299  1.00  0.00     0.039 C 
ENDROOT
BRANCH   1   4
ATOM      4  C   UNL     1     103.245 131.285 126.345  1.00  0.00     0.034 C 
BRANCH   4   5
ATOM      5  C   UNL     1     102.834 130.010 127.088  1.00  0.00     0.032 C 
BRANCH   5   6
ATOM      6  C   UNL     1     102.799 130.245 128.577  1.00  0.00    -0.028 C 
ATOM      7  C   UNL     1     101.803 130.774 130.760  1.00  0.00     0.039 C 
ATOM      8  C   UNL     1     101.678 130.520 129.281  1.00  0.00    -0.080 C 
ATOM      9  C   UNL     1     100.315 130.563 128.630  1.00  0.00     0.039 C 
ENDBRANCH   5   6
ENDBRANCH   4   5
ENDBRANCH   1   4
BRANCH   2  10
ATOM     10  C   UNL     1     100.362 133.600 125.088  1.00  0.00     0.035 C 
BRANCH  10  11
ATOM     11  C   UNL     1     100.155 135.068 125.483  1.00  0.00     0.079 C 
BRANCH  11  12
ATOM     12  C   UNL     1     101.062 135.986 124.704  1.00  0.00     0.130 C 
ATOM     13  O   UNL     1     101.480 137.007 125.228  1.00  0.00    -0.300 OA
ATOM     14  C   UNL     1     101.465 135.671 123.294  1.00  0.00     0.087 C 
ENDBRANCH  11  12
ENDBRANCH  10  11
ENDBRANCH   2  10
TORSDOF 6
ENDMDL
MODEL 9
REMARK VINA RESULT:    -4.378     10.544     11.865
REMARK INTER + INTRA:          -6.563
REMARK INTER:                  -5.558
REMARK INTRA:                  -1.005
REMARK UNBOUND:                -0.650
REMARK SMILES CC(=O)CCC=C(C)CCC=C(C)C
REMARK SMILES IDX 7 1 6 2 8 3 9 4 10 5 11 6 13 7 12 8 14 9 5 10 4 11 2 12 3 13
REMARK SMILES IDX 1 14
REMARK H PARENT
REMARK Flexibility Score: inf
ROOT
ATOM      1  C   UNL     1      97.374 139.219 135.579  1.00  0.00    -0.077 C 
ATOM      2  C   UNL     1      98.256 139.430 136.583  1.00  0.00    -0.028 C 
ATOM      3  C   UNL     1      96.071 138.489 135.799  1.00  0.00     0.039 C 
ENDROOT
BRANCH   1   4
ATOM      4  C   UNL     1      97.696 139.749 134.199  1.00  0.00     0.034 C 
BRANCH   4   5
ATOM      5  C   UNL     1      98.512 141.042 134.287  1.00  0.00     0.032 C 
BRANCH   5   6
ATOM      6  C   UNL     1      97.697 142.223 133.822  1.00  0.00    -0.028 C 
ATOM      7  C   UNL     1      96.227 144.181 134.034  1.00  0.00     0.039 C 
ATOM      8  C   UNL     1      97.036 143.067 134.646  1.00  0.00    -0.080 C 
ATOM      9  C   UNL     1      97.102 142.933 136.150  1.00  0.00     0.039 C 
ENDBRANCH   5   6
ENDBRANCH   4   5
ENDBRANCH   1   4
BRANCH   2  10
ATOM     10  C   UNL     1      98.085 138.921 137.995  1.00  0.00     0.035 C 
BRANCH  10  11
ATOM     11  C   UNL     1      99.118 137.838 138.335  1.00  0.00     0.079 C 
BRANCH  11  12
ATOM     12  C   UNL     1      98.608 136.460 138.000  1.00  0.00     0.130 C 
ATOM     13  O   UNL     1      97.419 136.210 138.130  1.00  0.00    -0.300 OA
ATOM     14  C   UNL     1      99.531 135.386 137.507  1.00  0.00     0.087 C 
ENDBRANCH  11  12
ENDBRANCH  10  11
ENDBRANCH   2  10
TORSDOF 6
ENDMDL
