MODEL 1
REMARK VINA RESULT:    30.203      0.000      0.000
REMARK INTER + INTRA:          34.315
REMARK INTER:                  34.617
REMARK INTRA:                  -0.302
REMARK UNBOUND:                -0.302
REMARK SMILES O=C1C[C@H](c2ccc(O)cc2)Oc2cc(O)cc(O)c21
REMARK SMILES IDX 3 1 4 2 12 3 13 4 14 5 15 6 17 7 18 8 20 9 2 10 1 11 5 12
REMARK SMILES IDX 6 13 11 14 7 15 10 16 8 17 9 18 19 20 16 22
REMARK H PARENT 9 19 19 21 16 23
REMARK Flexibility Score: inf
ROOT
ATOM      1  C   UNL     1      -7.646  -5.309  19.967  1.00  0.00     0.131 C 
ATOM      2  C   UNL     1      -8.172  -4.443  21.121  1.00  0.00     0.211 C 
ATOM      3  O   UNL     1      -8.099  -5.156  22.359  1.00  0.00    -0.484 OA
ATOM      4  C   UNL     1      -8.396  -6.522  22.463  1.00  0.00     0.138 A 
ATOM      5  C   UNL     1      -8.575  -7.081  23.730  1.00  0.00     0.093 A 
ATOM      6  C   UNL     1      -8.886  -8.437  23.865  1.00  0.00     0.123 A 
ATOM      7  C   UNL     1      -8.992  -9.242  22.728  1.00  0.00     0.093 A 
ATOM      8  C   UNL     1      -8.778  -8.710  21.450  1.00  0.00     0.133 A 
ATOM      9  C   UNL     1      -8.508  -7.324  21.306  1.00  0.00     0.102 A 
ATOM     10  C   UNL     1      -8.334  -6.641  19.999  1.00  0.00     0.174 C 
ATOM     11  O   UNL     1      -8.797  -7.124  18.933  1.00  0.00    -0.294 OA
ENDROOT
BRANCH   2  12
ATOM     12  C   UNL     1      -7.391  -3.155  21.219  1.00  0.00    -0.007 A 
ATOM     13  C   UNL     1      -6.529  -2.759  20.182  1.00  0.00     0.011 A 
ATOM     14  C   UNL     1      -7.561  -2.308  22.329  1.00  0.00     0.011 A 
ATOM     15  C   UNL     1      -5.831  -1.551  20.264  1.00  0.00     0.046 A 
ATOM     16  C   UNL     1      -6.861  -1.100  22.408  1.00  0.00     0.046 A 
ATOM     17  C   UNL     1      -5.995  -0.719  21.379  1.00  0.00     0.115 A 
BRANCH  17  18
ATOM     18  O   UNL     1      -5.304   0.488  21.473  1.00  0.00    -0.508 OA
ATOM     19  H   UNL     1      -5.004   0.858  22.367  1.00  0.00     0.293 HD
ENDBRANCH  17  18
ENDBRANCH   2  12
BRANCH   8  20
ATOM     20  O   UNL     1      -8.809  -9.598  20.373  1.00  0.00    -0.507 OA
ATOM     21  H   UNL     1      -8.351  -9.429  19.489  1.00  0.00     0.293 HD
ENDBRANCH   8  20
BRANCH   6  22
ATOM     22  O   UNL     1      -9.086  -8.998  25.125  1.00  0.00    -0.508 OA
ATOM     23  H   UNL     1      -8.692  -9.898  25.372  1.00  0.00     0.293 HD
ENDBRANCH   6  22
TORSDOF 4
ENDMDL
