MODEL 1
REMARK VINA RESULT:    12.730      0.000      0.000
REMARK INTER + INTRA:          28.915
REMARK INTER:                  29.102
REMARK INTRA:                  -0.187
REMARK UNBOUND:                -0.187
REMARK SMILES CCCCCCCCCCCCCCCCCCCCCCCC(=O)[O-]
REMARK SMILES IDX 13 1 14 2 15 3 16 4 17 5 18 6 19 7 20 8 21 9 22 10 23 11
REMARK SMILES IDX 24 12 25 13 26 14 12 15 11 16 10 17 9 18 8 19 7 20 6 21 5 22
REMARK SMILES IDX 4 23 3 24 2 25 1 26
REMARK H PARENT
REMARK Flexibility Score: inf
ROOT
ATOM      1  C   UNL     1      -8.469  29.555 -12.219  1.00  0.00     0.000 C 
ENDROOT
BRANCH   1   2
ATOM      2  C   UNL     1      -7.509  28.895 -11.212  1.00  0.00     0.000 C 
BRANCH   2   3
ATOM      3  C   UNL     1      -8.164  28.428  -9.900  1.00  0.00     0.000 C 
BRANCH   3   4
ATOM      4  C   UNL     1      -8.413  26.912  -9.862  1.00  0.00     0.000 C 
BRANCH   4   5
ATOM      5  C   UNL     1      -9.072  26.497  -8.542  1.00  0.00     0.000 C 
BRANCH   5   6
ATOM      6  C   UNL     1      -8.502  25.161  -8.043  1.00  0.00     0.000 C 
BRANCH   6   7
ATOM      7  C   UNL     1      -7.797  25.284  -6.682  1.00  0.00     0.000 C 
BRANCH   7   8
ATOM      8  C   UNL     1      -8.459  24.496  -5.534  1.00  0.00     0.000 C 
BRANCH   8   9
ATOM      9  C   UNL     1      -9.531  25.298  -4.766  1.00  0.00     0.000 C 
BRANCH   9  10
ATOM     10  C   UNL     1      -9.526  26.787  -5.143  1.00  0.00     0.006 C 
BRANCH  10  11
ATOM     11  C   UNL     1     -10.507  27.579  -4.272  1.00  0.00     0.053 C 
BRANCH  11  12
ATOM     12  C   UNL     1     -11.917  27.302  -4.690  1.00  0.00     0.041 C 
ATOM     13  O   UNL     1     -12.811  28.172  -4.517  1.00  0.00    -0.550 OA
ATOM     14  O   UNL     1     -12.254  26.065  -5.225  1.00  0.00    -0.550 OA
ENDBRANCH  11  12
ENDBRANCH  10  11
ENDBRANCH   9  10
ENDBRANCH   8   9
ENDBRANCH   7   8
ENDBRANCH   6   7
ENDBRANCH   5   6
ENDBRANCH   4   5
ENDBRANCH   3   4
ENDBRANCH   2   3
ENDBRANCH   1   2
BRANCH   1  15
ATOM     15  C   UNL     1      -7.860  29.698 -13.622  1.00  0.00     0.000 C 
BRANCH  15  16
ATOM     16  C   UNL     1      -8.959  29.793 -14.690  1.00  0.00     0.000 C 
BRANCH  16  17
ATOM     17  C   UNL     1      -9.143  31.221 -15.234  1.00  0.00     0.000 C 
BRANCH  17  18
ATOM     18  C   UNL     1      -9.176  31.334 -16.771  1.00  0.00    -0.000 C 
BRANCH  18  19
ATOM     19  C   UNL     1      -9.545  30.035 -17.514  1.00  0.00    -0.000 C 
BRANCH  19  20
ATOM     20  C   UNL     1      -8.445  29.477 -18.440  1.00  0.00    -0.000 C 
BRANCH  20  21
ATOM     21  C   UNL     1      -7.361  28.645 -17.732  1.00  0.00    -0.000 C 
BRANCH  21  22
ATOM     22  C   UNL     1      -5.996  28.616 -18.445  1.00  0.00    -0.000 C 
BRANCH  22  23
ATOM     23  C   UNL     1      -6.044  27.975 -19.849  1.00  0.00    -0.000 C 
BRANCH  23  24
ATOM     24  C   UNL     1      -6.728  28.879 -20.885  1.00  0.00    -0.000 C 
BRANCH  24  25
ATOM     25  C   UNL     1      -6.210  28.589 -22.298  1.00  0.00    -0.003 C 
ATOM     26  C   UNL     1      -5.253  27.401 -22.301  1.00  0.00     0.004 C 
ENDBRANCH  24  25
ENDBRANCH  23  24
ENDBRANCH  22  23
ENDBRANCH  21  22
ENDBRANCH  20  21
ENDBRANCH  19  20
ENDBRANCH  18  19
ENDBRANCH  17  18
ENDBRANCH  16  17
ENDBRANCH  15  16
ENDBRANCH   1  15
TORSDOF 22
ENDMDL
MODEL 2
REMARK VINA RESULT:    13.604      5.238     13.158
REMARK INTER + INTRA:          30.913
REMARK INTER:                  31.440
REMARK INTRA:                  -0.527
REMARK UNBOUND:                -0.187
REMARK SMILES CCCCCCCCCCCCCCCCCCCCCCCC(=O)[O-]
REMARK SMILES IDX 13 1 14 2 15 3 16 4 17 5 18 6 19 7 20 8 21 9 22 10 23 11
REMARK SMILES IDX 24 12 25 13 26 14 12 15 11 16 10 17 9 18 8 19 7 20 6 21 5 22
REMARK SMILES IDX 4 23 3 24 2 25 1 26
REMARK H PARENT
REMARK Flexibility Score: inf
ROOT
ATOM      1  C   UNL     1      -7.546  29.352 -11.234  1.00  0.00     0.000 C 
ENDROOT
BRANCH   1   2
ATOM      2  C   UNL     1      -7.796  29.366 -12.753  1.00  0.00     0.000 C 
BRANCH   2   3
ATOM      3  C   UNL     1      -9.078  30.093 -13.193  1.00  0.00     0.000 C 
BRANCH   3   4
ATOM      4  C   UNL     1      -8.952  30.742 -14.580  1.00  0.00     0.000 C 
BRANCH   4   5
ATOM      5  C   UNL     1      -8.796  29.678 -15.673  1.00  0.00     0.000 C 
BRANCH   5   6
ATOM      6  C   UNL     1      -9.418  30.155 -16.994  1.00  0.00     0.000 C 
BRANCH   6   7
ATOM      7  C   UNL     1      -8.671  29.626 -18.229  1.00  0.00     0.000 C 
BRANCH   7   8
ATOM      8  C   UNL     1      -7.625  28.533 -17.937  1.00  0.00     0.000 C 
BRANCH   8   9
ATOM      9  C   UNL     1      -6.218  28.857 -18.484  1.00  0.00     0.000 C 
BRANCH   9  10
ATOM     10  C   UNL     1      -5.879  28.042 -19.742  1.00  0.00     0.006 C 
BRANCH  10  11
ATOM     11  C   UNL     1      -6.094  28.873 -21.010  1.00  0.00     0.053 C 
BRANCH  11  12
ATOM     12  C   UNL     1      -6.081  27.992 -22.220  1.00  0.00     0.041 C 
ATOM     13  O   UNL     1      -7.159  27.523 -22.674  1.00  0.00    -0.550 OA
ATOM     14  O   UNL     1      -4.875  27.650 -22.818  1.00  0.00    -0.550 OA
ENDBRANCH  11  12
ENDBRANCH  10  11
ENDBRANCH   9  10
ENDBRANCH   8   9
ENDBRANCH   7   8
ENDBRANCH   6   7
ENDBRANCH   5   6
ENDBRANCH   4   5
ENDBRANCH   3   4
ENDBRANCH   2   3
ENDBRANCH   1   2
BRANCH   1  15
ATOM     15  C   UNL     1      -7.314  27.938 -10.678  1.00  0.00     0.000 C 
BRANCH  15  16
ATOM     16  C   UNL     1      -8.595  27.382 -10.038  1.00  0.00     0.000 C 
BRANCH  16  17
ATOM     17  C   UNL     1      -8.412  25.963  -9.472  1.00  0.00     0.000 C 
BRANCH  17  18
ATOM     18  C   UNL     1      -8.490  25.860  -7.936  1.00  0.00    -0.000 C 
BRANCH  18  19
ATOM     19  C   UNL     1      -8.422  24.426  -7.372  1.00  0.00    -0.000 C 
BRANCH  19  20
ATOM     20  C   UNL     1      -7.387  24.216  -6.248  1.00  0.00    -0.000 C 
BRANCH  20  21
ATOM     21  C   UNL     1      -7.714  24.927  -4.923  1.00  0.00    -0.000 C 
BRANCH  21  22
ATOM     22  C   UNL     1      -9.140  25.500  -4.829  1.00  0.00    -0.000 C 
BRANCH  22  23
ATOM     23  C   UNL     1      -9.205  27.033  -5.001  1.00  0.00    -0.000 C 
BRANCH  23  24
ATOM     24  C   UNL     1     -10.434  27.650  -4.316  1.00  0.00    -0.000 C 
BRANCH  24  25
ATOM     25  C   UNL     1     -11.733  27.096  -4.910  1.00  0.00    -0.003 C 
ATOM     26  C   UNL     1     -12.949  27.835  -4.362  1.00  0.00     0.004 C 
ENDBRANCH  24  25
ENDBRANCH  23  24
ENDBRANCH  22  23
ENDBRANCH  21  22
ENDBRANCH  20  21
ENDBRANCH  19  20
ENDBRANCH  18  19
ENDBRANCH  17  18
ENDBRANCH  16  17
ENDBRANCH  15  16
ENDBRANCH   1  15
TORSDOF 22
ENDMDL
MODEL 3
REMARK VINA RESULT:    14.093      0.836      1.391
REMARK INTER + INTRA:          32.032
REMARK INTER:                  32.915
REMARK INTRA:                  -0.883
REMARK UNBOUND:                -0.187
REMARK SMILES CCCCCCCCCCCCCCCCCCCCCCCC(=O)[O-]
REMARK SMILES IDX 13 1 14 2 15 3 16 4 17 5 18 6 19 7 20 8 21 9 22 10 23 11
REMARK SMILES IDX 24 12 25 13 26 14 12 15 11 16 10 17 9 18 8 19 7 20 6 21 5 22
REMARK SMILES IDX 4 23 3 24 2 25 1 26
REMARK H PARENT
REMARK Flexibility Score: inf
ROOT
ATOM      1  C   UNL     1      -8.551  29.053 -10.744  1.00  0.00     0.000 C 
ENDROOT
BRANCH   1   2
ATOM      2  C   UNL     1      -8.051  27.688 -10.237  1.00  0.00     0.000 C 
BRANCH   2   3
ATOM      3  C   UNL     1      -9.149  26.751  -9.704  1.00  0.00     0.000 C 
BRANCH   3   4
ATOM      4  C   UNL     1      -8.885  26.274  -8.267  1.00  0.00     0.000 C 
BRANCH   4   5
ATOM      5  C   UNL     1      -8.096  24.959  -8.261  1.00  0.00     0.000 C 
BRANCH   5   6
ATOM      6  C   UNL     1      -8.488  24.093  -7.055  1.00  0.00     0.000 C 
BRANCH   6   7
ATOM      7  C   UNL     1      -7.588  24.331  -5.832  1.00  0.00     0.000 C 
BRANCH   7   8
ATOM      8  C   UNL     1      -8.285  25.005  -4.633  1.00  0.00     0.000 C 
BRANCH   8   9
ATOM      9  C   UNL     1      -9.726  25.471  -4.934  1.00  0.00     0.000 C 
BRANCH   9  10
ATOM     10  C   UNL     1      -9.838  27.000  -5.023  1.00  0.00     0.006 C 
BRANCH  10  11
ATOM     11  C   UNL     1     -10.905  27.531  -4.061  1.00  0.00     0.053 C 
BRANCH  11  12
ATOM     12  C   UNL     1     -12.255  27.497  -4.707  1.00  0.00     0.041 C 
ATOM     13  O   UNL     1     -12.722  26.412  -5.143  1.00  0.00    -0.550 OA
ATOM     14  O   UNL     1     -12.976  28.673  -4.872  1.00  0.00    -0.550 OA
ENDBRANCH  11  12
ENDBRANCH  10  11
ENDBRANCH   9  10
ENDBRANCH   8   9
ENDBRANCH   7   8
ENDBRANCH   6   7
ENDBRANCH   5   6
ENDBRANCH   4   5
ENDBRANCH   3   4
ENDBRANCH   2   3
ENDBRANCH   1   2
BRANCH   1  15
ATOM     15  C   UNL     1      -7.852  29.504 -12.036  1.00  0.00     0.000 C 
BRANCH  15  16
ATOM     16  C   UNL     1      -8.874  29.749 -13.156  1.00  0.00     0.000 C 
BRANCH  16  17
ATOM     17  C   UNL     1      -8.213  30.090 -14.504  1.00  0.00     0.000 C 
BRANCH  17  18
ATOM     18  C   UNL     1      -8.686  29.235 -15.696  1.00  0.00    -0.000 C 
BRANCH  18  19
ATOM     19  C   UNL     1      -9.031  30.027 -16.973  1.00  0.00    -0.000 C 
BRANCH  19  20
ATOM     20  C   UNL     1      -8.337  29.530 -18.257  1.00  0.00    -0.000 C 
BRANCH  20  21
ATOM     21  C   UNL     1      -6.918  28.970 -18.053  1.00  0.00    -0.000 C 
BRANCH  21  22
ATOM     22  C   UNL     1      -6.450  27.980 -19.136  1.00  0.00    -0.000 C 
BRANCH  22  23
ATOM     23  C   UNL     1      -5.834  28.663 -20.377  1.00  0.00    -0.000 C 
BRANCH  23  24
ATOM     24  C   UNL     1      -6.812  28.725 -21.560  1.00  0.00    -0.000 C 
BRANCH  24  25
ATOM     25  C   UNL     1      -6.388  27.765 -22.676  1.00  0.00    -0.003 C 
ATOM     26  C   UNL     1      -4.882  27.823 -22.911  1.00  0.00     0.004 C 
ENDBRANCH  24  25
ENDBRANCH  23  24
ENDBRANCH  22  23
ENDBRANCH  21  22
ENDBRANCH  20  21
ENDBRANCH  19  20
ENDBRANCH  18  19
ENDBRANCH  17  18
ENDBRANCH  16  17
ENDBRANCH  15  16
ENDBRANCH   1  15
TORSDOF 22
ENDMDL
MODEL 4
REMARK VINA RESULT:    14.521      5.087     12.846
REMARK INTER + INTRA:          33.009
REMARK INTER:                  34.335
REMARK INTRA:                  -1.326
REMARK UNBOUND:                -0.187
REMARK SMILES CCCCCCCCCCCCCCCCCCCCCCCC(=O)[O-]
REMARK SMILES IDX 13 1 14 2 15 3 16 4 17 5 18 6 19 7 20 8 21 9 22 10 23 11
REMARK SMILES IDX 24 12 25 13 26 14 12 15 11 16 10 17 9 18 8 19 7 20 6 21 5 22
REMARK SMILES IDX 4 23 3 24 2 25 1 26
REMARK H PARENT
REMARK Flexibility Score: inf
ROOT
ATOM      1  C   UNL     1      -7.891  29.312 -12.041  1.00  0.00     0.000 C 
ENDROOT
BRANCH   1   2
ATOM      2  C   UNL     1      -7.409  28.672 -13.356  1.00  0.00     0.000 C 
BRANCH   2   3
ATOM      3  C   UNL     1      -7.929  29.350 -14.636  1.00  0.00     0.000 C 
BRANCH   3   4
ATOM      4  C   UNL     1      -8.849  30.547 -14.349  1.00  0.00     0.000 C 
BRANCH   4   5
ATOM      5  C   UNL     1      -9.808  30.796 -15.519  1.00  0.00     0.000 C 
BRANCH   5   6
ATOM      6  C   UNL     1      -9.039  30.902 -16.844  1.00  0.00     0.000 C 
BRANCH   6   7
ATOM      7  C   UNL     1      -9.445  29.819 -17.858  1.00  0.00     0.000 C 
BRANCH   7   8
ATOM      8  C   UNL     1      -8.311  29.341 -18.786  1.00  0.00     0.000 C 
BRANCH   8   9
ATOM      9  C   UNL     1      -7.110  28.726 -18.036  1.00  0.00     0.000 C 
BRANCH   9  10
ATOM     10  C   UNL     1      -5.970  28.329 -18.986  1.00  0.00     0.006 C 
BRANCH  10  11
ATOM     11  C   UNL     1      -6.515  27.651 -20.246  1.00  0.00     0.053 C 
BRANCH  11  12
ATOM     12  C   UNL     1      -6.173  28.454 -21.462  1.00  0.00     0.041 C 
ATOM     13  O   UNL     1      -6.163  27.912 -22.598  1.00  0.00    -0.550 OA
ATOM     14  O   UNL     1      -5.816  29.791 -21.334  1.00  0.00    -0.550 OA
ENDBRANCH  11  12
ENDBRANCH  10  11
ENDBRANCH   9  10
ENDBRANCH   8   9
ENDBRANCH   7   8
ENDBRANCH   6   7
ENDBRANCH   5   6
ENDBRANCH   4   5
ENDBRANCH   3   4
ENDBRANCH   2   3
ENDBRANCH   1   2
BRANCH   1  15
ATOM     15  C   UNL     1      -7.419  28.546 -10.796  1.00  0.00     0.000 C 
BRANCH  15  16
ATOM     16  C   UNL     1      -8.615  28.022  -9.987  1.00  0.00     0.000 C 
BRANCH  16  17
ATOM     17  C   UNL     1      -8.641  26.487  -9.885  1.00  0.00     0.000 C 
BRANCH  17  18
ATOM     18  C   UNL     1      -8.290  25.920  -8.495  1.00  0.00    -0.000 C 
BRANCH  18  19
ATOM     19  C   UNL     1      -8.674  24.444  -8.274  1.00  0.00    -0.000 C 
BRANCH  19  20
ATOM     20  C   UNL     1      -8.445  23.917  -6.843  1.00  0.00    -0.000 C 
BRANCH  20  21
ATOM     21  C   UNL     1      -7.557  24.809  -5.957  1.00  0.00    -0.000 C 
BRANCH  21  22
ATOM     22  C   UNL     1      -8.287  25.486  -4.781  1.00  0.00    -0.000 C 
BRANCH  22  23
ATOM     23  C   UNL     1      -9.744  25.884  -5.102  1.00  0.00    -0.000 C 
BRANCH  23  24
ATOM     24  C   UNL     1     -10.070  27.321  -4.669  1.00  0.00    -0.000 C 
BRANCH  24  25
ATOM     25  C   UNL     1     -11.550  27.462  -4.296  1.00  0.00    -0.003 C 
ATOM     26  C   UNL     1     -12.443  26.751  -5.308  1.00  0.00     0.004 C 
ENDBRANCH  24  25
ENDBRANCH  23  24
ENDBRANCH  22  23
ENDBRANCH  21  22
ENDBRANCH  20  21
ENDBRANCH  19  20
ENDBRANCH  18  19
ENDBRANCH  17  18
ENDBRANCH  16  17
ENDBRANCH  15  16
ENDBRANCH   1  15
TORSDOF 22
ENDMDL
MODEL 5
REMARK VINA RESULT:    14.543      2.192      3.183
REMARK INTER + INTRA:          33.061
REMARK INTER:                  34.249
REMARK INTRA:                  -1.188
REMARK UNBOUND:                -0.187
REMARK SMILES CCCCCCCCCCCCCCCCCCCCCCCC(=O)[O-]
REMARK SMILES IDX 13 1 14 2 15 3 16 4 17 5 18 6 19 7 20 8 21 9 22 10 23 11
REMARK SMILES IDX 24 12 25 13 26 14 12 15 11 16 10 17 9 18 8 19 7 20 6 21 5 22
REMARK SMILES IDX 4 23 3 24 2 25 1 26
REMARK H PARENT
REMARK Flexibility Score: inf
ROOT
ATOM      1  C   UNL     1      -7.793  25.100 -12.785  1.00  0.00     0.000 C 
ENDROOT
BRANCH   1   2
ATOM      2  C   UNL     1      -8.548  23.810 -12.412  1.00  0.00     0.000 C 
BRANCH   2   3
ATOM      3  C   UNL     1      -9.090  23.768 -10.973  1.00  0.00     0.000 C 
BRANCH   3   4
ATOM      4  C   UNL     1      -9.449  22.348 -10.510  1.00  0.00     0.000 C 
BRANCH   4   5
ATOM      5  C   UNL     1      -9.599  22.289  -8.985  1.00  0.00     0.000 C 
BRANCH   5   6
ATOM      6  C   UNL     1      -8.691  23.324  -8.306  1.00  0.00     0.000 C 
BRANCH   6   7
ATOM      7  C   UNL     1      -8.531  23.078  -6.796  1.00  0.00     0.000 C 
BRANCH   7   8
ATOM      8  C   UNL     1      -7.355  23.827  -6.138  1.00  0.00     0.000 C 
BRANCH   8   9
ATOM      9  C   UNL     1      -7.784  24.781  -5.002  1.00  0.00     0.000 C 
BRANCH   9  10
ATOM     10  C   UNL     1      -9.294  25.060  -5.014  1.00  0.00     0.006 C 
BRANCH  10  11
ATOM     11  C   UNL     1      -9.582  26.514  -5.399  1.00  0.00     0.053 C 
BRANCH  11  12
ATOM     12  C   UNL     1     -10.847  26.986  -4.752  1.00  0.00     0.041 C 
ATOM     13  O   UNL     1     -10.812  27.898  -3.884  1.00  0.00    -0.550 OA
ATOM     14  O   UNL     1     -12.057  26.384  -5.072  1.00  0.00    -0.550 OA
ENDBRANCH  11  12
ENDBRANCH  10  11
ENDBRANCH   9  10
ENDBRANCH   8   9
ENDBRANCH   7   8
ENDBRANCH   6   7
ENDBRANCH   5   6
ENDBRANCH   4   5
ENDBRANCH   3   4
ENDBRANCH   2   3
ENDBRANCH   1   2
BRANCH   1  15
ATOM     15  C   UNL     1      -7.818  25.393 -14.293  1.00  0.00     0.000 C 
BRANCH  15  16
ATOM     16  C   UNL     1      -6.762  26.444 -14.666  1.00  0.00     0.000 C 
BRANCH  16  17
ATOM     17  C   UNL     1      -7.311  27.536 -15.601  1.00  0.00     0.000 C 
BRANCH  17  18
ATOM     18  C   UNL     1      -7.421  28.938 -14.970  1.00  0.00    -0.000 C 
BRANCH  18  19
ATOM     19  C   UNL     1      -8.843  29.532 -14.940  1.00  0.00    -0.000 C 
BRANCH  19  20
ATOM     20  C   UNL     1      -8.982  30.926 -15.585  1.00  0.00    -0.000 C 
BRANCH  20  21
ATOM     21  C   UNL     1      -9.355  30.917 -17.079  1.00  0.00    -0.000 C 
BRANCH  21  22
ATOM     22  C   UNL     1      -9.192  29.555 -17.779  1.00  0.00    -0.000 C 
BRANCH  22  23
ATOM     23  C   UNL     1      -8.314  29.611 -19.047  1.00  0.00    -0.000 C 
BRANCH  23  24
ATOM     24  C   UNL     1      -7.053  28.742 -18.929  1.00  0.00    -0.000 C 
BRANCH  24  25
ATOM     25  C   UNL     1      -6.102  28.986 -20.105  1.00  0.00    -0.003 C 
ATOM     26  C   UNL     1      -6.511  28.168 -21.325  1.00  0.00     0.004 C 
ENDBRANCH  24  25
ENDBRANCH  23  24
ENDBRANCH  22  23
ENDBRANCH  21  22
ENDBRANCH  20  21
ENDBRANCH  19  20
ENDBRANCH  18  19
ENDBRANCH  17  18
ENDBRANCH  16  17
ENDBRANCH  15  16
ENDBRANCH   1  15
TORSDOF 22
ENDMDL
MODEL 6
REMARK VINA RESULT:    14.798      5.307     12.894
REMARK INTER + INTRA:          33.641
REMARK INTER:                  33.786
REMARK INTRA:                  -0.144
REMARK UNBOUND:                -0.187
REMARK SMILES CCCCCCCCCCCCCCCCCCCCCCCC(=O)[O-]
REMARK SMILES IDX 13 1 14 2 15 3 16 4 17 5 18 6 19 7 20 8 21 9 22 10 23 11
REMARK SMILES IDX 24 12 25 13 26 14 12 15 11 16 10 17 9 18 8 19 7 20 6 21 5 22
REMARK SMILES IDX 4 23 3 24 2 25 1 26
REMARK H PARENT
REMARK Flexibility Score: inf
ROOT
ATOM      1  C   UNL     1      -8.684  29.682 -12.331  1.00  0.00     0.000 C 
ENDROOT
BRANCH   1   2
ATOM      2  C   UNL     1      -8.275  30.100 -13.755  1.00  0.00     0.000 C 
BRANCH   2   3
ATOM      3  C   UNL     1      -9.429  30.602 -14.641  1.00  0.00     0.000 C 
BRANCH   3   4
ATOM      4  C   UNL     1      -9.079  31.884 -15.412  1.00  0.00     0.000 C 
BRANCH   4   5
ATOM      5  C   UNL     1      -9.381  31.727 -16.906  1.00  0.00     0.000 C 
BRANCH   5   6
ATOM      6  C   UNL     1      -9.265  30.257 -17.336  1.00  0.00     0.000 C 
BRANCH   6   7
ATOM      7  C   UNL     1      -7.939  29.612 -16.903  1.00  0.00     0.000 C 
BRANCH   7   8
ATOM      8  C   UNL     1      -7.476  28.428 -17.776  1.00  0.00     0.000 C 
BRANCH   8   9
ATOM      9  C   UNL     1      -6.070  28.618 -18.385  1.00  0.00     0.000 C 
BRANCH   9  10
ATOM     10  C   UNL     1      -6.121  28.880 -19.898  1.00  0.00     0.006 C 
BRANCH  10  11
ATOM     11  C   UNL     1      -5.928  27.582 -20.689  1.00  0.00     0.053 C 
BRANCH  11  12
ATOM     12  C   UNL     1      -6.009  27.850 -22.159  1.00  0.00     0.041 C 
ATOM     13  O   UNL     1      -6.521  28.920 -22.582  1.00  0.00    -0.550 OA
ATOM     14  O   UNL     1      -5.563  26.894 -23.064  1.00  0.00    -0.550 OA
ENDBRANCH  11  12
ENDBRANCH  10  11
ENDBRANCH   9  10
ENDBRANCH   8   9
ENDBRANCH   7   8
ENDBRANCH   6   7
ENDBRANCH   5   6
ENDBRANCH   4   5
ENDBRANCH   3   4
ENDBRANCH   2   3
ENDBRANCH   1   2
BRANCH   1  15
ATOM     15  C   UNL     1      -7.567  28.939 -11.582  1.00  0.00     0.000 C 
BRANCH  15  16
ATOM     16  C   UNL     1      -7.955  28.699 -10.115  1.00  0.00     0.000 C 
BRANCH  16  17
ATOM     17  C   UNL     1      -8.902  27.499  -9.936  1.00  0.00     0.000 C 
BRANCH  17  18
ATOM     18  C   UNL     1      -8.561  26.572  -8.752  1.00  0.00    -0.000 C 
BRANCH  18  19
ATOM     19  C   UNL     1      -9.657  26.460  -7.673  1.00  0.00    -0.000 C 
BRANCH  19  20
ATOM     20  C   UNL     1      -9.358  27.211  -6.360  1.00  0.00    -0.000 C 
BRANCH  20  21
ATOM     21  C   UNL     1     -10.218  26.784  -5.157  1.00  0.00    -0.000 C 
BRANCH  21  22
ATOM     22  C   UNL     1     -10.003  25.332  -4.689  1.00  0.00    -0.000 C 
BRANCH  22  23
ATOM     23  C   UNL     1      -8.526  24.985  -4.404  1.00  0.00    -0.000 C 
BRANCH  23  24
ATOM     24  C   UNL     1      -7.844  24.292  -5.593  1.00  0.00    -0.000 C 
BRANCH  24  25
ATOM     25  C   UNL     1      -6.340  24.583  -5.612  1.00  0.00    -0.003 C 
ATOM     26  C   UNL     1      -5.555  23.473  -4.921  1.00  0.00     0.004 C 
ENDBRANCH  24  25
ENDBRANCH  23  24
ENDBRANCH  22  23
ENDBRANCH  21  22
ENDBRANCH  20  21
ENDBRANCH  19  20
ENDBRANCH  18  19
ENDBRANCH  17  18
ENDBRANCH  16  17
ENDBRANCH  15  16
ENDBRANCH   1  15
TORSDOF 22
ENDMDL
MODEL 7
REMARK VINA RESULT:    14.941      1.976      2.763
REMARK INTER + INTRA:          33.969
REMARK INTER:                  35.017
REMARK INTRA:                  -1.048
REMARK UNBOUND:                -0.187
REMARK SMILES CCCCCCCCCCCCCCCCCCCCCCCC(=O)[O-]
REMARK SMILES IDX 13 1 14 2 15 3 16 4 17 5 18 6 19 7 20 8 21 9 22 10 23 11
REMARK SMILES IDX 24 12 25 13 26 14 12 15 11 16 10 17 9 18 8 19 7 20 6 21 5 22
REMARK SMILES IDX 4 23 3 24 2 25 1 26
REMARK H PARENT
REMARK Flexibility Score: inf
ROOT
ATOM      1  C   UNL     1      -8.519  29.688 -12.875  1.00  0.00     0.000 C 
ENDROOT
BRANCH   1   2
ATOM      2  C   UNL     1      -7.330  28.914 -12.276  1.00  0.00     0.000 C 
BRANCH   2   3
ATOM      3  C   UNL     1      -7.291  28.873 -10.739  1.00  0.00     0.000 C 
BRANCH   3   4
ATOM      4  C   UNL     1      -8.606  28.376 -10.119  1.00  0.00     0.000 C 
BRANCH   4   5
ATOM      5  C   UNL     1      -8.493  26.908  -9.693  1.00  0.00     0.000 C 
BRANCH   5   6
ATOM      6  C   UNL     1      -9.588  26.547  -8.677  1.00  0.00     0.000 C 
BRANCH   6   7
ATOM      7  C   UNL     1      -9.334  27.152  -7.287  1.00  0.00     0.000 C 
BRANCH   7   8
ATOM      8  C   UNL     1     -10.511  27.025  -6.299  1.00  0.00     0.000 C 
BRANCH   8   9
ATOM      9  C   UNL     1     -10.136  26.335  -4.970  1.00  0.00     0.000 C 
BRANCH   9  10
ATOM     10  C   UNL     1      -8.631  26.043  -4.870  1.00  0.00     0.006 C 
BRANCH  10  11
ATOM     11  C   UNL     1      -8.362  24.535  -4.852  1.00  0.00     0.053 C 
BRANCH  11  12
ATOM     12  C   UNL     1      -7.210  24.198  -5.746  1.00  0.00     0.041 C 
ATOM     13  O   UNL     1      -6.373  23.324  -5.398  1.00  0.00    -0.550 OA
ATOM     14  O   UNL     1      -7.034  24.885  -6.941  1.00  0.00    -0.550 OA
ENDBRANCH  11  12
ENDBRANCH  10  11
ENDBRANCH   9  10
ENDBRANCH   8   9
ENDBRANCH   7   8
ENDBRANCH   6   7
ENDBRANCH   5   6
ENDBRANCH   4   5
ENDBRANCH   3   4
ENDBRANCH   2   3
ENDBRANCH   1   2
BRANCH   1  15
ATOM     15  C   UNL     1      -8.440  29.815 -14.405  1.00  0.00     0.000 C 
BRANCH  15  16
ATOM     16  C   UNL     1      -9.252  31.022 -14.898  1.00  0.00     0.000 C 
BRANCH  16  17
ATOM     17  C   UNL     1      -9.299  31.123 -16.433  1.00  0.00     0.000 C 
BRANCH  17  18
ATOM     18  C   UNL     1      -9.441  29.777 -17.170  1.00  0.00    -0.000 C 
BRANCH  18  19
ATOM     19  C   UNL     1      -8.266  29.415 -18.101  1.00  0.00    -0.000 C 
BRANCH  19  20
ATOM     20  C   UNL     1      -7.068  28.736 -17.406  1.00  0.00    -0.000 C 
BRANCH  20  21
ATOM     21  C   UNL     1      -5.978  28.210 -18.357  1.00  0.00    -0.000 C 
BRANCH  21  22
ATOM     22  C   UNL     1      -6.437  27.990 -19.811  1.00  0.00    -0.000 C 
BRANCH  22  23
ATOM     23  C   UNL     1      -5.984  29.103 -20.780  1.00  0.00    -0.000 C 
BRANCH  23  24
ATOM     24  C   UNL     1      -6.646  28.986 -22.161  1.00  0.00    -0.000 C 
BRANCH  24  25
ATOM     25  C   UNL     1      -6.363  27.620 -22.794  1.00  0.00    -0.003 C 
ATOM     26  C   UNL     1      -4.875  27.290 -22.751  1.00  0.00     0.004 C 
ENDBRANCH  24  25
ENDBRANCH  23  24
ENDBRANCH  22  23
ENDBRANCH  21  22
ENDBRANCH  20  21
ENDBRANCH  19  20
ENDBRANCH  18  19
ENDBRANCH  17  18
ENDBRANCH  16  17
ENDBRANCH  15  16
ENDBRANCH   1  15
TORSDOF 22
ENDMDL
MODEL 8
REMARK VINA RESULT:    15.428      2.272      3.571
REMARK INTER + INTRA:          35.082
REMARK INTER:                  35.948
REMARK INTRA:                  -0.865
REMARK UNBOUND:                -0.187
REMARK SMILES CCCCCCCCCCCCCCCCCCCCCCCC(=O)[O-]
REMARK SMILES IDX 13 1 14 2 15 3 16 4 17 5 18 6 19 7 20 8 21 9 22 10 23 11
REMARK SMILES IDX 24 12 25 13 26 14 12 15 11 16 10 17 9 18 8 19 7 20 6 21 5 22
REMARK SMILES IDX 4 23 3 24 2 25 1 26
REMARK H PARENT
REMARK Flexibility Score: inf
ROOT
ATOM      1  C   UNL     1      -9.151  23.809 -11.185  1.00  0.00     0.000 C 
ENDROOT
BRANCH   1   2
ATOM      2  C   UNL     1      -9.325  22.323 -10.824  1.00  0.00     0.000 C 
BRANCH   2   3
ATOM      3  C   UNL     1      -9.717  22.051  -9.360  1.00  0.00     0.000 C 
BRANCH   3   4
ATOM      4  C   UNL     1      -9.034  23.007  -8.370  1.00  0.00     0.000 C 
BRANCH   4   5
ATOM      5  C   UNL     1      -8.896  22.359  -6.988  1.00  0.00     0.000 C 
BRANCH   5   6
ATOM      6  C   UNL     1      -7.628  22.853  -6.276  1.00  0.00     0.000 C 
BRANCH   6   7
ATOM      7  C   UNL     1      -7.816  24.225  -5.607  1.00  0.00     0.000 C 
BRANCH   7   8
ATOM      8  C   UNL     1      -9.251  24.522  -5.129  1.00  0.00     0.000 C 
BRANCH   8   9
ATOM      9  C   UNL     1      -9.385  25.849  -4.351  1.00  0.00     0.000 C 
BRANCH   9  10
ATOM     10  C   UNL     1      -9.681  27.040  -5.275  1.00  0.00     0.006 C 
BRANCH  10  11
ATOM     11  C   UNL     1     -10.655  28.020  -4.615  1.00  0.00     0.053 C 
BRANCH  11  12
ATOM     12  C   UNL     1     -12.039  27.451  -4.598  1.00  0.00     0.041 C 
ATOM     13  O   UNL     1     -12.915  27.939  -3.837  1.00  0.00    -0.550 OA
ATOM     14  O   UNL     1     -12.347  26.349  -5.386  1.00  0.00    -0.550 OA
ENDBRANCH  11  12
ENDBRANCH  10  11
ENDBRANCH   9  10
ENDBRANCH   8   9
ENDBRANCH   7   8
ENDBRANCH   6   7
ENDBRANCH   5   6
ENDBRANCH   4   5
ENDBRANCH   3   4
ENDBRANCH   2   3
ENDBRANCH   1   2
BRANCH   1  15
ATOM     15  C   UNL     1      -7.937  24.066 -12.091  1.00  0.00     0.000 C 
BRANCH  15  16
ATOM     16  C   UNL     1      -8.360  24.769 -13.389  1.00  0.00     0.000 C 
BRANCH  16  17
ATOM     17  C   UNL     1      -7.362  25.854 -13.833  1.00  0.00     0.000 C 
BRANCH  17  18
ATOM     18  C   UNL     1      -7.323  26.120 -15.351  1.00  0.00    -0.000 C 
BRANCH  18  19
ATOM     19  C   UNL     1      -6.623  27.429 -15.768  1.00  0.00    -0.000 C 
BRANCH  19  20
ATOM     20  C   UNL     1      -7.567  28.549 -16.249  1.00  0.00    -0.000 C 
BRANCH  20  21
ATOM     21  C   UNL     1      -7.494  28.858 -17.755  1.00  0.00    -0.000 C 
BRANCH  21  22
ATOM     22  C   UNL     1      -6.238  28.321 -18.466  1.00  0.00    -0.000 C 
BRANCH  22  23
ATOM     23  C   UNL     1      -5.989  28.956 -19.851  1.00  0.00    -0.000 C 
BRANCH  23  24
ATOM     24  C   UNL     1      -7.118  28.656 -20.848  1.00  0.00    -0.000 C 
BRANCH  24  25
ATOM     25  C   UNL     1      -6.637  27.718 -21.960  1.00  0.00    -0.003 C 
ATOM     26  C   UNL     1      -5.222  28.073 -22.406  1.00  0.00     0.004 C 
ENDBRANCH  24  25
ENDBRANCH  23  24
ENDBRANCH  22  23
ENDBRANCH  21  22
ENDBRANCH  20  21
ENDBRANCH  19  20
ENDBRANCH  18  19
ENDBRANCH  17  18
ENDBRANCH  16  17
ENDBRANCH  15  16
ENDBRANCH   1  15
TORSDOF 22
ENDMDL
MODEL 9
REMARK VINA RESULT:    15.472      3.958     12.280
REMARK INTER + INTRA:          35.184
REMARK INTER:                  35.812
REMARK INTRA:                  -0.628
REMARK UNBOUND:                -0.187
REMARK SMILES CCCCCCCCCCCCCCCCCCCCCCCC(=O)[O-]
REMARK SMILES IDX 13 1 14 2 15 3 16 4 17 5 18 6 19 7 20 8 21 9 22 10 23 11
REMARK SMILES IDX 24 12 25 13 26 14 12 15 11 16 10 17 9 18 8 19 7 20 6 21 5 22
REMARK SMILES IDX 4 23 3 24 2 25 1 26
REMARK H PARENT
REMARK Flexibility Score: inf
ROOT
ATOM      1  C   UNL     1      -9.125  23.477 -10.417  1.00  0.00     0.000 C 
ENDROOT
BRANCH   1   2
ATOM      2  C   UNL     1      -8.751  23.483 -11.911  1.00  0.00     0.000 C 
BRANCH   2   3
ATOM      3  C   UNL     1      -7.795  24.612 -12.336  1.00  0.00     0.000 C 
BRANCH   3   4
ATOM      4  C   UNL     1      -7.978  25.032 -13.802  1.00  0.00     0.000 C 
BRANCH   4   5
ATOM      5  C   UNL     1      -7.046  26.195 -14.161  1.00  0.00     0.000 C 
BRANCH   5   6
ATOM      6  C   UNL     1      -7.170  26.555 -15.649  1.00  0.00     0.000 C 
BRANCH   6   7
ATOM      7  C   UNL     1      -7.081  28.069 -15.905  1.00  0.00     0.000 C 
BRANCH   7   8
ATOM      8  C   UNL     1      -6.606  28.462 -17.318  1.00  0.00     0.000 C 
BRANCH   8   9
ATOM      9  C   UNL     1      -7.643  29.278 -18.118  1.00  0.00     0.000 C 
BRANCH   9  10
ATOM     10  C   UNL     1      -8.972  29.432 -17.364  1.00  0.00     0.006 C 
BRANCH  10  11
ATOM     11  C   UNL     1      -9.327  30.909 -17.168  1.00  0.00     0.053 C 
BRANCH  11  12
ATOM     12  C   UNL     1      -9.095  31.318 -15.747  1.00  0.00     0.041 C 
ATOM     13  O   UNL     1      -8.977  32.536 -15.449  1.00  0.00    -0.550 OA
ATOM     14  O   UNL     1      -8.960  30.351 -14.758  1.00  0.00    -0.550 OA
ENDBRANCH  11  12
ENDBRANCH  10  11
ENDBRANCH   9  10
ENDBRANCH   8   9
ENDBRANCH   7   8
ENDBRANCH   6   7
ENDBRANCH   5   6
ENDBRANCH   4   5
ENDBRANCH   3   4
ENDBRANCH   2   3
ENDBRANCH   1   2
BRANCH   1  15
ATOM     15  C   UNL     1      -9.701  22.131  -9.951  1.00  0.00     0.000 C 
BRANCH  15  16
ATOM     16  C   UNL     1      -9.709  22.039  -8.418  1.00  0.00     0.000 C 
BRANCH  16  17
ATOM     17  C   UNL     1      -8.739  23.032  -7.754  1.00  0.00     0.000 C 
BRANCH  17  18
ATOM     18  C   UNL     1      -8.051  22.515  -6.475  1.00  0.00    -0.000 C 
BRANCH  18  19
ATOM     19  C   UNL     1      -6.898  23.394  -5.952  1.00  0.00    -0.000 C 
BRANCH  19  20
ATOM     20  C   UNL     1      -7.337  24.633  -5.145  1.00  0.00    -0.000 C 
BRANCH  20  21
ATOM     21  C   UNL     1      -8.646  25.288  -5.621  1.00  0.00    -0.000 C 
BRANCH  21  22
ATOM     22  C   UNL     1      -9.729  25.436  -4.535  1.00  0.00    -0.000 C 
BRANCH  22  23
ATOM     23  C   UNL     1      -9.835  26.863  -3.955  1.00  0.00    -0.000 C 
BRANCH  23  24
ATOM     24  C   UNL     1     -10.744  27.773  -4.794  1.00  0.00    -0.000 C 
BRANCH  24  25
ATOM     25  C   UNL     1     -12.217  27.387  -4.626  1.00  0.00    -0.003 C 
ATOM     26  C   UNL     1     -13.132  28.581  -4.874  1.00  0.00     0.004 C 
ENDBRANCH  24  25
ENDBRANCH  23  24
ENDBRANCH  22  23
ENDBRANCH  21  22
ENDBRANCH  20  21
ENDBRANCH  19  20
ENDBRANCH  18  19
ENDBRANCH  17  18
ENDBRANCH  16  17
ENDBRANCH  15  16
ENDBRANCH   1  15
TORSDOF 22
ENDMDL
