MODEL 1
REMARK VINA RESULT:     0.263      0.000      0.000
REMARK INTER + INTRA:           0.182
REMARK INTER:                   0.364
REMARK INTRA:                  -0.181
REMARK UNBOUND:                -0.181
REMARK SMILES C=C(CC[C@@H](C(=O)[O-])[C@@H]1CC[C@@]2(C)C3=C(CC[C@@]12C)[C@]1(C)CC[C@@H](O)C(C)(C)[C@@H]1CC3)C(C)C
REMARK SMILES IDX 4 1 5 2 6 3 7 4 8 5 9 6 10 7 18 8 11 9 12 10 17 11 19 12
REMARK SMILES IDX 13 13 14 14 16 15 15 16 31 17 20 18 30 19 29 20 22 21 21 22
REMARK SMILES IDX 26 23 23 24 24 25 27 26 28 27 25 28 3 30 2 31 1 32 32 33
REMARK SMILES IDX 33 34 34 35
REMARK H PARENT 25 29
REMARK Flexibility Score: inf
ROOT
ATOM      1  C   UNL     1       2.390  40.760  12.231  1.00  0.00     0.014 C 
ENDROOT
BRANCH   1   2
ATOM      2  C   UNL     1       3.541  41.595  12.854  1.00  0.00     0.039 C 
BRANCH   2   3
ATOM      3  C   UNL     1       4.797  40.739  12.797  1.00  0.00     0.045 C 
ATOM      4  O   UNL     1       5.722  41.030  11.991  1.00  0.00    -0.550 OA
ATOM      5  O   UNL     1       4.918  39.605  13.605  1.00  0.00    -0.550 OA
ENDBRANCH   2   3
BRANCH   2   6
ATOM      6  C   UNL     1       3.860  42.984  12.159  1.00  0.00     0.004 C 
ATOM      7  C   UNL     1       3.092  44.101  12.899  1.00  0.00     0.006 C 
ATOM      8  C   UNL     1       3.536  43.296  10.633  1.00  0.00    -0.020 C 
ATOM      9  C   UNL     1       1.884  44.488  12.048  1.00  0.00     0.012 C 
ATOM     10  C   UNL     1       2.051  43.855  10.638  1.00  0.00    -0.006 C 
ATOM     11  C   UNL     1       4.567  44.398  10.130  1.00  0.00     0.012 C 
ATOM     12  C   UNL     1       3.722  42.112   9.648  1.00  0.00     0.012 C 
ATOM     13  C   UNL     1       0.984  42.719  10.511  1.00  0.00     0.017 C 
ATOM     14  C   UNL     1       1.836  44.946   9.552  1.00  0.00    -0.064 C 
ATOM     15  C   UNL     1       4.048  45.832  10.188  1.00  0.00     0.032 C 
ATOM     16  C   UNL     1       2.757  45.950   9.395  1.00  0.00    -0.064 C 
ATOM     17  C   UNL     1       0.576  44.977   8.712  1.00  0.00     0.032 C 
ATOM     18  C   UNL     1       2.442  47.268   8.613  1.00  0.00    -0.008 C 
ATOM     19  C   UNL     1       0.880  45.604   7.365  1.00  0.00     0.009 C 
ATOM     20  C   UNL     1       1.290  47.085   7.519  1.00  0.00     0.007 C 
ATOM     21  C   UNL     1       2.074  48.341   9.679  1.00  0.00     0.014 C 
ATOM     22  C   UNL     1       3.708  47.769   7.877  1.00  0.00     0.016 C 
ATOM     23  C   UNL     1       0.091  48.137   7.601  1.00  0.00    -0.006 C 
ATOM     24  C   UNL     1       0.641  48.200  10.182  1.00  0.00     0.033 C 
ATOM     25  C   UNL     1      -0.421  48.359   9.075  1.00  0.00     0.120 C 
ATOM     26  C   UNL     1      -1.124  47.693   6.735  1.00  0.00     0.014 C 
ATOM     27  C   UNL     1       0.563  49.487   6.959  1.00  0.00     0.014 C 
BRANCH  25  28
ATOM     28  O   UNL     1      -1.028  49.628   9.210  1.00  0.00    -0.393 OA
ATOM     29  H   UNL     1      -0.311  50.305   9.056  1.00  0.00     0.210 HD
ENDBRANCH  25  28
ENDBRANCH   2   6
ENDBRANCH   1   2
BRANCH   1  30
ATOM     30  C   UNL     1       1.958  39.582  13.128  1.00  0.00     0.031 C 
BRANCH  30  31
ATOM     31  C   UNL     1       0.546  39.778  13.632  1.00  0.00    -0.075 C 
ATOM     32  C   UNL     1      -0.356  38.799  13.443  1.00  0.00     0.008 C 
BRANCH  31  33
ATOM     33  C   UNL     1       0.170  41.073  14.333  1.00  0.00     0.008 C 
ATOM     34  C   UNL     1      -0.055  40.848  15.834  1.00  0.00     0.012 C 
ATOM     35  C   UNL     1      -1.050  41.738  13.671  1.00  0.00     0.012 C 
ENDBRANCH  31  33
ENDBRANCH  30  31
ENDBRANCH   1  30
TORSDOF 7
ENDMDL
MODEL 2
REMARK VINA RESULT:     1.911      1.101      1.738
REMARK INTER + INTRA:           2.456
REMARK INTER:                   2.575
REMARK INTRA:                  -0.119
REMARK UNBOUND:                -0.181
REMARK SMILES C=C(CC[C@@H](C(=O)[O-])[C@@H]1CC[C@@]2(C)C3=C(CC[C@@]12C)[C@]1(C)CC[C@@H](O)C(C)(C)[C@@H]1CC3)C(C)C
REMARK SMILES IDX 4 1 5 2 6 3 7 4 8 5 9 6 10 7 18 8 11 9 12 10 17 11 19 12
REMARK SMILES IDX 13 13 14 14 16 15 15 16 31 17 20 18 30 19 29 20 22 21 21 22
REMARK SMILES IDX 26 23 23 24 24 25 27 26 28 27 25 28 3 30 2 31 1 32 32 33
REMARK SMILES IDX 33 34 34 35
REMARK H PARENT 25 29
REMARK Flexibility Score: inf
ROOT
ATOM      1  C   UNL     1       2.420  40.526  12.247  1.00  0.00     0.014 C 
ENDROOT
BRANCH   1   2
ATOM      2  C   UNL     1       3.471  41.425  12.952  1.00  0.00     0.039 C 
BRANCH   2   3
ATOM      3  C   UNL     1       4.754  40.616  13.059  1.00  0.00     0.045 C 
ATOM      4  O   UNL     1       5.599  40.649  12.123  1.00  0.00    -0.550 OA
ATOM      5  O   UNL     1       4.987  39.802  14.170  1.00  0.00    -0.550 OA
ENDBRANCH   2   3
BRANCH   2   6
ATOM      6  C   UNL     1       3.813  42.800  12.241  1.00  0.00     0.004 C 
ATOM      7  C   UNL     1       3.079  43.941  12.979  1.00  0.00     0.006 C 
ATOM      8  C   UNL     1       3.479  43.106  10.716  1.00  0.00    -0.020 C 
ATOM      9  C   UNL     1       1.870  44.348  12.138  1.00  0.00     0.012 C 
ATOM     10  C   UNL     1       2.007  43.699  10.732  1.00  0.00    -0.006 C 
ATOM     11  C   UNL     1       4.528  44.180  10.191  1.00  0.00     0.012 C 
ATOM     12  C   UNL     1       3.627  41.909   9.740  1.00  0.00     0.012 C 
ATOM     13  C   UNL     1       0.913  42.586  10.627  1.00  0.00     0.017 C 
ATOM     14  C   UNL     1       1.804  44.784   9.638  1.00  0.00    -0.064 C 
ATOM     15  C   UNL     1       4.042  45.626  10.241  1.00  0.00     0.032 C 
ATOM     16  C   UNL     1       2.746  45.765   9.461  1.00  0.00    -0.064 C 
ATOM     17  C   UNL     1       0.536  44.836   8.812  1.00  0.00     0.032 C 
ATOM     18  C   UNL     1       2.452  47.083   8.671  1.00  0.00    -0.008 C 
ATOM     19  C   UNL     1       0.839  45.443   7.456  1.00  0.00     0.009 C 
ATOM     20  C   UNL     1       1.283  46.916   7.591  1.00  0.00     0.007 C 
ATOM     21  C   UNL     1       2.120  48.173   9.731  1.00  0.00     0.014 C 
ATOM     22  C   UNL     1       3.720  47.549   7.916  1.00  0.00     0.016 C 
ATOM     23  C   UNL     1       0.110  47.995   7.676  1.00  0.00    -0.006 C 
ATOM     24  C   UNL     1       0.690  48.069  10.251  1.00  0.00     0.033 C 
ATOM     25  C   UNL     1      -0.381  48.242   9.154  1.00  0.00     0.120 C 
ATOM     26  C   UNL     1      -1.125  47.571   6.828  1.00  0.00     0.014 C 
ATOM     27  C   UNL     1       0.605  49.328   7.017  1.00  0.00     0.014 C 
BRANCH  25  28
ATOM     28  O   UNL     1      -0.958  49.525   9.284  1.00  0.00    -0.393 OA
ATOM     29  H   UNL     1      -1.820  49.503   8.781  1.00  0.00     0.210 HD
ENDBRANCH  25  28
ENDBRANCH   2   6
ENDBRANCH   1   2
BRANCH   1  30
ATOM     30  C   UNL     1       1.994  39.321  13.110  1.00  0.00     0.031 C 
BRANCH  30  31
ATOM     31  C   UNL     1       1.950  38.054  12.285  1.00  0.00    -0.075 C 
ATOM     32  C   UNL     1       3.107  37.482  11.909  1.00  0.00     0.008 C 
BRANCH  31  33
ATOM     33  C   UNL     1       0.609  37.459  11.890  1.00  0.00     0.008 C 
ATOM     34  C   UNL     1      -0.458  37.737  12.957  1.00  0.00     0.012 C 
ATOM     35  C   UNL     1       0.728  35.955  11.587  1.00  0.00     0.012 C 
ENDBRANCH  31  33
ENDBRANCH  30  31
ENDBRANCH   1  30
TORSDOF 7
ENDMDL
MODEL 3
REMARK VINA RESULT:     2.458      1.466      2.804
REMARK INTER + INTRA:           3.211
REMARK INTER:                   3.623
REMARK INTRA:                  -0.412
REMARK UNBOUND:                -0.181
REMARK SMILES C=C(CC[C@@H](C(=O)[O-])[C@@H]1CC[C@@]2(C)C3=C(CC[C@@]12C)[C@]1(C)CC[C@@H](O)C(C)(C)[C@@H]1CC3)C(C)C
REMARK SMILES IDX 4 1 5 2 6 3 7 4 8 5 9 6 10 7 18 8 11 9 12 10 17 11 19 12
REMARK SMILES IDX 13 13 14 14 16 15 15 16 31 17 20 18 30 19 29 20 22 21 21 22
REMARK SMILES IDX 26 23 23 24 24 25 27 26 28 27 25 28 3 30 2 31 1 32 32 33
REMARK SMILES IDX 33 34 34 35
REMARK H PARENT 25 29
REMARK Flexibility Score: inf
ROOT
ATOM      1  C   UNL     1       2.700  40.468  12.183  1.00  0.00     0.014 C 
ENDROOT
BRANCH   1   2
ATOM      2  C   UNL     1       2.912  41.998  12.032  1.00  0.00     0.039 C 
BRANCH   2   3
ATOM      3  C   UNL     1       4.410  42.251  12.087  1.00  0.00     0.045 C 
ATOM      4  O   UNL     1       5.207  41.437  11.545  1.00  0.00    -0.550 OA
ATOM      5  O   UNL     1       4.916  43.360  12.771  1.00  0.00    -0.550 OA
ENDBRANCH   2   3
BRANCH   2   6
ATOM      6  C   UNL     1       2.349  42.660  10.705  1.00  0.00     0.004 C 
ATOM      7  C   UNL     1       3.530  43.240   9.896  1.00  0.00     0.006 C 
ATOM      8  C   UNL     1       1.305  43.861  10.698  1.00  0.00    -0.020 C 
ATOM      9  C   UNL     1       3.536  44.756  10.089  1.00  0.00     0.012 C 
ATOM     10  C   UNL     1       2.194  45.174  10.751  1.00  0.00    -0.006 C 
ATOM     11  C   UNL     1       0.475  43.779   9.343  1.00  0.00     0.012 C 
ATOM     12  C   UNL     1       0.229  43.825  11.816  1.00  0.00     0.012 C 
ATOM     13  C   UNL     1       2.517  45.619  12.215  1.00  0.00     0.017 C 
ATOM     14  C   UNL     1       1.559  46.339   9.942  1.00  0.00    -0.064 C 
ATOM     15  C   UNL     1       0.998  44.667   8.219  1.00  0.00     0.032 C 
ATOM     16  C   UNL     1       1.061  46.112   8.684  1.00  0.00    -0.064 C 
ATOM     17  C   UNL     1       1.555  47.755  10.480  1.00  0.00     0.032 C 
ATOM     18  C   UNL     1       0.763  47.268   7.674  1.00  0.00    -0.008 C 
ATOM     19  C   UNL     1       0.358  48.505   9.926  1.00  0.00     0.009 C 
ATOM     20  C   UNL     1       0.461  48.664   8.393  1.00  0.00     0.007 C 
ATOM     21  C   UNL     1       1.990  47.354   6.720  1.00  0.00     0.014 C 
ATOM     22  C   UNL     1      -0.469  46.916   6.805  1.00  0.00     0.016 C 
ATOM     23  C   UNL     1       1.323  49.905   7.877  1.00  0.00    -0.006 C 
ATOM     24  C   UNL     1       3.168  48.093   7.345  1.00  0.00     0.033 C 
ATOM     25  C   UNL     1       2.853  49.556   7.717  1.00  0.00     0.120 C 
ATOM     26  C   UNL     1       1.209  51.125   8.837  1.00  0.00     0.014 C 
ATOM     27  C   UNL     1       0.716  50.409   6.522  1.00  0.00     0.014 C 
BRANCH  25  28
ATOM     28  O   UNL     1       3.465  50.407   6.770  1.00  0.00    -0.393 OA
ATOM     29  H   UNL     1       2.988  51.282   6.822  1.00  0.00     0.210 HD
ENDBRANCH  25  28
ENDBRANCH   2   6
ENDBRANCH   1   2
BRANCH   1  30
ATOM     30  C   UNL     1       2.246  40.069  13.603  1.00  0.00     0.031 C 
BRANCH  30  31
ATOM     31  C   UNL     1       0.751  40.233  13.757  1.00  0.00    -0.075 C 
ATOM     32  C   UNL     1      -0.067  39.368  13.133  1.00  0.00     0.008 C 
BRANCH  31  33
ATOM     33  C   UNL     1       0.201  41.369  14.604  1.00  0.00     0.008 C 
ATOM     34  C   UNL     1       0.056  40.949  16.072  1.00  0.00     0.012 C 
ATOM     35  C   UNL     1      -1.125  41.904  14.035  1.00  0.00     0.012 C 
ENDBRANCH  31  33
ENDBRANCH  30  31
ENDBRANCH   1  30
TORSDOF 7
ENDMDL
MODEL 4
REMARK VINA RESULT:     2.979      1.616      3.151
REMARK INTER + INTRA:           3.930
REMARK INTER:                   3.545
REMARK INTRA:                   0.385
REMARK UNBOUND:                -0.181
REMARK SMILES C=C(CC[C@@H](C(=O)[O-])[C@@H]1CC[C@@]2(C)C3=C(CC[C@@]12C)[C@]1(C)CC[C@@H](O)C(C)(C)[C@@H]1CC3)C(C)C
REMARK SMILES IDX 4 1 5 2 6 3 7 4 8 5 9 6 10 7 18 8 11 9 12 10 17 11 19 12
REMARK SMILES IDX 13 13 14 14 16 15 15 16 31 17 20 18 30 19 29 20 22 21 21 22
REMARK SMILES IDX 26 23 23 24 24 25 27 26 28 27 25 28 3 30 2 31 1 32 32 33
REMARK SMILES IDX 33 34 34 35
REMARK H PARENT 25 29
REMARK Flexibility Score: inf
ROOT
ATOM      1  C   UNL     1       3.000  40.336  11.910  1.00  0.00     0.014 C 
ENDROOT
BRANCH   1   2
ATOM      2  C   UNL     1       3.016  41.888  11.897  1.00  0.00     0.039 C 
BRANCH   2   3
ATOM      3  C   UNL     1       4.462  42.323  12.077  1.00  0.00     0.045 C 
ATOM      4  O   UNL     1       5.399  41.564  11.706  1.00  0.00    -0.550 OA
ATOM      5  O   UNL     1       4.764  43.542  12.689  1.00  0.00    -0.550 OA
ENDBRANCH   2   3
BRANCH   2   6
ATOM      6  C   UNL     1       2.450  42.588  10.592  1.00  0.00     0.004 C 
ATOM      7  C   UNL     1       3.626  43.213   9.810  1.00  0.00     0.006 C 
ATOM      8  C   UNL     1       1.389  43.774  10.622  1.00  0.00    -0.020 C 
ATOM      9  C   UNL     1       3.611  44.720  10.055  1.00  0.00     0.012 C 
ATOM     10  C   UNL     1       2.259  45.097  10.725  1.00  0.00    -0.006 C 
ATOM     11  C   UNL     1       0.566  43.728   9.262  1.00  0.00     0.012 C 
ATOM     12  C   UNL     1       0.310  43.685  11.734  1.00  0.00     0.012 C 
ATOM     13  C   UNL     1       2.571  45.494  12.206  1.00  0.00     0.017 C 
ATOM     14  C   UNL     1       1.612  46.281   9.956  1.00  0.00    -0.064 C 
ATOM     15  C   UNL     1       1.082  44.663   8.172  1.00  0.00     0.032 C 
ATOM     16  C   UNL     1       1.123  46.091   8.688  1.00  0.00    -0.064 C 
ATOM     17  C   UNL     1       1.586  47.677  10.543  1.00  0.00     0.032 C 
ATOM     18  C   UNL     1       0.813  47.279   7.718  1.00  0.00    -0.008 C 
ATOM     19  C   UNL     1       0.382  48.429  10.011  1.00  0.00     0.009 C 
ATOM     20  C   UNL     1       0.488  48.644   8.485  1.00  0.00     0.007 C 
ATOM     21  C   UNL     1       2.042  47.414   6.773  1.00  0.00     0.014 C 
ATOM     22  C   UNL     1      -0.411  46.940   6.832  1.00  0.00     0.016 C 
ATOM     23  C   UNL     1       1.335  49.914   8.016  1.00  0.00    -0.006 C 
ATOM     24  C   UNL     1       3.207  48.147   7.429  1.00  0.00     0.033 C 
ATOM     25  C   UNL     1       2.870  49.592   7.852  1.00  0.00     0.120 C 
ATOM     26  C   UNL     1       1.201  51.098   9.019  1.00  0.00     0.014 C 
ATOM     27  C   UNL     1       0.727  50.457   6.677  1.00  0.00     0.014 C 
BRANCH  25  28
ATOM     28  O   UNL     1       3.474  50.484   6.938  1.00  0.00    -0.393 OA
ATOM     29  H   UNL     1       4.391  50.672   7.286  1.00  0.00     0.210 HD
ENDBRANCH  25  28
ENDBRANCH   2   6
ENDBRANCH   1   2
BRANCH   1  30
ATOM     30  C   UNL     1       2.557  39.758  13.271  1.00  0.00     0.031 C 
BRANCH  30  31
ATOM     31  C   UNL     1       1.191  39.118  13.165  1.00  0.00    -0.075 C 
ATOM     32  C   UNL     1       0.101  39.866  13.407  1.00  0.00     0.008 C 
BRANCH  31  33
ATOM     33  C   UNL     1       1.075  37.648  12.798  1.00  0.00     0.008 C 
ATOM     34  C   UNL     1       2.084  37.267  11.706  1.00  0.00     0.012 C 
ATOM     35  C   UNL     1      -0.363  37.281  12.392  1.00  0.00     0.012 C 
ENDBRANCH  31  33
ENDBRANCH  30  31
ENDBRANCH   1  30
TORSDOF 7
ENDMDL
