MODEL 1
REMARK VINA RESULT:    -3.716      0.000      0.000
REMARK INTER + INTRA:          -4.689
REMARK INTER:                  -4.476
REMARK INTRA:                  -0.213
REMARK UNBOUND:                -0.213
REMARK SMILES OCC(O)CO
REMARK SMILES IDX 3 1 5 2 6 3 2 5 1 6 4 8
REMARK H PARENT 6 4 1 7 4 9
REMARK Flexibility Score: inf
ROOT
ATOM      1  C   UNL     1      25.063  -2.005 -48.713  1.00  0.00     0.165 C 
ENDROOT
BRANCH   1   2
ATOM      2  C   UNL     1      25.826  -0.906 -47.958  1.00  0.00     0.190 C 
BRANCH   2   3
ATOM      3  O   UNL     1      24.956   0.127 -47.580  1.00  0.00    -0.394 OA
ATOM      4  H   UNL     1      25.313   0.963 -47.981  1.00  0.00     0.210 HD
ENDBRANCH   2   3
ENDBRANCH   1   2
BRANCH   1   5
ATOM      5  C   UNL     1      24.696  -1.530 -50.125  1.00  0.00     0.190 C 
BRANCH   5   6
ATOM      6  O   UNL     1      23.502  -0.797 -50.098  1.00  0.00    -0.394 OA
ATOM      7  H   UNL     1      23.705   0.097 -50.479  1.00  0.00     0.210 HD
ENDBRANCH   5   6
ENDBRANCH   1   5
BRANCH   1   8
ATOM      8  O   UNL     1      23.889  -2.334 -48.017  1.00  0.00    -0.388 OA
ATOM      9  H   UNL     1      23.191  -2.525 -48.697  1.00  0.00     0.211 HD
ENDBRANCH   1   8
TORSDOF 5
ENDMDL
MODEL 2
REMARK VINA RESULT:    -3.477      1.127      2.427
REMARK INTER + INTRA:          -4.401
REMARK INTER:                  -4.212
REMARK INTRA:                  -0.189
REMARK UNBOUND:                -0.213
REMARK SMILES OCC(O)CO
REMARK SMILES IDX 3 1 5 2 6 3 2 5 1 6 4 8
REMARK H PARENT 6 4 1 7 4 9
REMARK Flexibility Score: inf
ROOT
ATOM      1  C   UNL     1      25.086  -1.991 -48.609  1.00  0.00     0.165 C 
ENDROOT
BRANCH   1   2
ATOM      2  C   UNL     1      24.744  -1.648 -50.067  1.00  0.00     0.190 C 
BRANCH   2   3
ATOM      3  O   UNL     1      23.616  -0.816 -50.125  1.00  0.00    -0.394 OA
ATOM      4  H   UNL     1      23.794  -0.143 -50.834  1.00  0.00     0.210 HD
ENDBRANCH   2   3
ENDBRANCH   1   2
BRANCH   1   5
ATOM      5  C   UNL     1      25.249  -0.710 -47.781  1.00  0.00     0.190 C 
BRANCH   5   6
ATOM      6  O   UNL     1      23.996  -0.142 -47.510  1.00  0.00    -0.394 OA
ATOM      7  H   UNL     1      23.405  -0.880 -47.210  1.00  0.00     0.210 HD
ENDBRANCH   5   6
ENDBRANCH   1   5
BRANCH   1   8
ATOM      8  O   UNL     1      26.281  -2.727 -48.560  1.00  0.00    -0.388 OA
ATOM      9  H   UNL     1      26.855  -2.304 -47.869  1.00  0.00     0.211 HD
ENDBRANCH   1   8
TORSDOF 5
ENDMDL
MODEL 3
REMARK VINA RESULT:    -3.452      8.359      8.520
REMARK INTER + INTRA:          -4.371
REMARK INTER:                  -4.148
REMARK INTRA:                  -0.223
REMARK UNBOUND:                -0.213
REMARK SMILES OCC(O)CO
REMARK SMILES IDX 3 1 5 2 6 3 2 5 1 6 4 8
REMARK H PARENT 6 4 1 7 4 9
REMARK Flexibility Score: inf
ROOT
ATOM      1  C   UNL     1      16.959   1.872 -46.744  1.00  0.00     0.165 C 
ENDROOT
BRANCH   1   2
ATOM      2  C   UNL     1      16.267   1.245 -45.524  1.00  0.00     0.190 C 
BRANCH   2   3
ATOM      3  O   UNL     1      17.076   0.250 -44.957  1.00  0.00    -0.394 OA
ATOM      4  H   UNL     1      17.533   0.663 -44.177  1.00  0.00     0.210 HD
ENDBRANCH   2   3
ENDBRANCH   1   2
BRANCH   1   5
ATOM      5  C   UNL     1      16.550   1.140 -48.028  1.00  0.00     0.190 C 
BRANCH   5   6
ATOM      6  O   UNL     1      16.642  -0.248 -47.849  1.00  0.00    -0.394 OA
ATOM      7  H   UNL     1      17.293  -0.581 -48.520  1.00  0.00     0.210 HD
ENDBRANCH   5   6
ENDBRANCH   1   5
BRANCH   1   8
ATOM      8  O   UNL     1      18.353   1.796 -46.593  1.00  0.00    -0.388 OA
ATOM      9  H   UNL     1      18.561   2.091 -45.669  1.00  0.00     0.211 HD
ENDBRANCH   1   8
TORSDOF 5
ENDMDL
MODEL 4
REMARK VINA RESULT:    -3.330      8.399      8.952
REMARK INTER + INTRA:          -4.225
REMARK INTER:                  -4.028
REMARK INTRA:                  -0.197
REMARK UNBOUND:                -0.213
REMARK SMILES OCC(O)CO
REMARK SMILES IDX 3 1 5 2 6 3 2 5 1 6 4 8
REMARK H PARENT 6 4 1 7 4 9
REMARK Flexibility Score: inf
ROOT
ATOM      1  C   UNL     1      16.920   1.634 -47.526  1.00  0.00     0.165 C 
ENDROOT
BRANCH   1   2
ATOM      2  C   UNL     1      16.024   0.608 -48.236  1.00  0.00     0.190 C 
BRANCH   2   3
ATOM      3  O   UNL     1      16.636  -0.654 -48.250  1.00  0.00    -0.394 OA
ATOM      4  H   UNL     1      17.606  -0.501 -48.398  1.00  0.00     0.210 HD
ENDBRANCH   2   3
ENDBRANCH   1   2
BRANCH   1   5
ATOM      5  C   UNL     1      16.706   1.574 -46.009  1.00  0.00     0.190 C 
BRANCH   5   6
ATOM      6  O   UNL     1      17.412   0.494 -45.459  1.00  0.00    -0.394 OA
ATOM      7  H   UNL     1      18.062   0.876 -44.812  1.00  0.00     0.210 HD
ENDBRANCH   5   6
ENDBRANCH   1   5
BRANCH   1   8
ATOM      8  O   UNL     1      16.620   2.927 -47.985  1.00  0.00    -0.388 OA
ATOM      9  H   UNL     1      16.197   2.828 -48.877  1.00  0.00     0.211 HD
ENDBRANCH   1   8
TORSDOF 5
ENDMDL
MODEL 5
REMARK VINA RESULT:    -3.318     18.101     18.496
REMARK INTER + INTRA:          -4.210
REMARK INTER:                  -4.181
REMARK INTRA:                  -0.029
REMARK UNBOUND:                -0.213
REMARK SMILES OCC(O)CO
REMARK SMILES IDX 3 1 5 2 6 3 2 5 1 6 4 8
REMARK H PARENT 6 4 1 7 4 9
REMARK Flexibility Score: inf
ROOT
ATOM      1  C   UNL     1      21.881  -1.776 -30.284  1.00  0.00     0.165 C 
ENDROOT
BRANCH   1   2
ATOM      2  C   UNL     1      20.485  -2.271 -29.875  1.00  0.00     0.190 C 
BRANCH   2   3
ATOM      3  O   UNL     1      19.790  -2.758 -30.991  1.00  0.00    -0.394 OA
ATOM      4  H   UNL     1      19.429  -1.967 -31.471  1.00  0.00     0.210 HD
ENDBRANCH   2   3
ENDBRANCH   1   2
BRANCH   1   5
ATOM      5  C   UNL     1      21.966  -0.249 -30.162  1.00  0.00     0.190 C 
BRANCH   5   6
ATOM      6  O   UNL     1      21.616   0.357 -31.377  1.00  0.00    -0.394 OA
ATOM      7  H   UNL     1      22.134   1.202 -31.436  1.00  0.00     0.210 HD
ENDBRANCH   5   6
ENDBRANCH   1   5
BRANCH   1   8
ATOM      8  O   UNL     1      22.149  -2.149 -31.611  1.00  0.00    -0.388 OA
ATOM      9  H   UNL     1      21.774  -1.439 -32.194  1.00  0.00     0.211 HD
ENDBRANCH   1   8
TORSDOF 5
ENDMDL
MODEL 6
REMARK VINA RESULT:    -3.297      8.405      8.592
REMARK INTER + INTRA:          -4.184
REMARK INTER:                  -3.999
REMARK INTRA:                  -0.185
REMARK UNBOUND:                -0.213
REMARK SMILES OCC(O)CO
REMARK SMILES IDX 3 1 5 2 6 3 2 5 1 6 4 8
REMARK H PARENT 6 4 1 7 4 9
REMARK Flexibility Score: inf
ROOT
ATOM      1  C   UNL     1      16.407   1.275 -47.063  1.00  0.00     0.165 C 
ENDROOT
BRANCH   1   2
ATOM      2  C   UNL     1      17.623   2.200 -47.222  1.00  0.00     0.190 C 
BRANCH   2   3
ATOM      3  O   UNL     1      18.648   1.820 -46.344  1.00  0.00    -0.394 OA
ATOM      4  H   UNL     1      18.210   1.428 -45.545  1.00  0.00     0.210 HD
ENDBRANCH   2   3
ENDBRANCH   1   2
BRANCH   1   5
ATOM      5  C   UNL     1      15.996   1.179 -45.588  1.00  0.00     0.190 C 
BRANCH   5   6
ATOM      6  O   UNL     1      16.890   0.358 -44.885  1.00  0.00    -0.394 OA
ATOM      7  H   UNL     1      17.776   0.461 -45.320  1.00  0.00     0.210 HD
ENDBRANCH   5   6
ENDBRANCH   1   5
BRANCH   1   8
ATOM      8  O   UNL     1      16.718  -0.009 -47.540  1.00  0.00    -0.388 OA
ATOM      9  H   UNL     1      16.812  -0.598 -46.748  1.00  0.00     0.211 HD
ENDBRANCH   1   8
TORSDOF 5
ENDMDL
MODEL 7
REMARK VINA RESULT:    -3.272      8.332      8.642
REMARK INTER + INTRA:          -4.154
REMARK INTER:                  -4.126
REMARK INTRA:                  -0.028
REMARK UNBOUND:                -0.213
REMARK SMILES OCC(O)CO
REMARK SMILES IDX 3 1 5 2 6 3 2 5 1 6 4 8
REMARK H PARENT 6 4 1 7 4 9
REMARK Flexibility Score: inf
ROOT
ATOM      1  C   UNL     1      16.616   1.240 -45.749  1.00  0.00     0.165 C 
ENDROOT
BRANCH   1   2
ATOM      2  C   UNL     1      15.825   0.645 -46.923  1.00  0.00     0.190 C 
BRANCH   2   3
ATOM      3  O   UNL     1      16.669  -0.108 -47.753  1.00  0.00    -0.394 OA
ATOM      4  H   UNL     1      16.214  -0.977 -47.911  1.00  0.00     0.210 HD
ENDBRANCH   2   3
ENDBRANCH   1   2
BRANCH   1   5
ATOM      5  C   UNL     1      17.903   1.907 -46.252  1.00  0.00     0.190 C 
BRANCH   5   6
ATOM      6  O   UNL     1      18.992   1.530 -45.453  1.00  0.00    -0.394 OA
ATOM      7  H   UNL     1      19.082   2.221 -44.747  1.00  0.00     0.210 HD
ENDBRANCH   5   6
ENDBRANCH   1   5
BRANCH   1   8
ATOM      8  O   UNL     1      16.947   0.227 -44.835  1.00  0.00    -0.388 OA
ATOM      9  H   UNL     1      16.732  -0.638 -45.269  1.00  0.00     0.211 HD
ENDBRANCH   1   8
TORSDOF 5
ENDMDL
MODEL 8
REMARK VINA RESULT:    -3.169     17.676     17.966
REMARK INTER + INTRA:          -4.031
REMARK INTER:                  -3.807
REMARK INTRA:                  -0.224
REMARK UNBOUND:                -0.213
REMARK SMILES OCC(O)CO
REMARK SMILES IDX 3 1 5 2 6 3 2 5 1 6 4 8
REMARK H PARENT 6 4 1 7 4 9
REMARK Flexibility Score: inf
ROOT
ATOM      1  C   UNL     1      14.606  -6.329 -33.935  1.00  0.00     0.165 C 
ENDROOT
BRANCH   1   2
ATOM      2  C   UNL     1      15.682  -5.380 -33.387  1.00  0.00     0.190 C 
BRANCH   2   3
ATOM      3  O   UNL     1      16.184  -4.562 -34.410  1.00  0.00    -0.394 OA
ATOM      4  H   UNL     1      16.699  -5.152 -35.021  1.00  0.00     0.210 HD
ENDBRANCH   2   3
ENDBRANCH   1   2
BRANCH   1   5
ATOM      5  C   UNL     1      15.245  -7.625 -34.449  1.00  0.00     0.190 C 
BRANCH   5   6
ATOM      6  O   UNL     1      16.618  -7.441 -34.663  1.00  0.00    -0.394 OA
ATOM      7  H   UNL     1      16.736  -6.509 -34.984  1.00  0.00     0.210 HD
ENDBRANCH   5   6
ENDBRANCH   1   5
BRANCH   1   8
ATOM      8  O   UNL     1      13.912  -5.708 -34.985  1.00  0.00    -0.388 OA
ATOM      9  H   UNL     1      14.521  -5.026 -35.372  1.00  0.00     0.211 HD
ENDBRANCH   1   8
TORSDOF 5
ENDMDL
