MODEL 1
REMARK VINA RESULT:    -8.823      0.000      0.000
REMARK INTER + INTRA:         -11.242
REMARK INTER:                 -10.887
REMARK INTRA:                  -0.356
REMARK UNBOUND:                -0.356
REMARK SMILES Oc1cc(O)c2cc(O)c(-c3cc(O)c(O)c(O)c3)[o+]c2c1.[Cl-]
REMARK SMILES IDX 10 1 20 2 21 3 22 4 2 5 3 6 4 7 6 8 7 9 8 10 11 11 12 12
REMARK SMILES IDX 13 13 19 14 15 15 17 16 14 17 16 19 18 21 9 23 1 25 5 27
REMARK H PARENT 14 18 16 20 18 22 9 24 1 26 5 28
REMARK Flexibility Score: inf
ROOT
ATOM      1  C   UNL     1      44.685 -13.390 -35.961  1.00  0.00     0.402 A 
ATOM      2  O   UNL     1      43.884 -14.453 -36.019  1.00  0.00    -0.202 OA
ATOM      3  C   UNL     1      43.832 -15.379 -35.065  1.00  0.00     0.368 A 
ATOM      4  C   UNL     1      42.958 -16.462 -35.200  1.00  0.00     0.162 A 
ATOM      5  C   UNL     1      42.892 -17.442 -34.201  1.00  0.00     0.128 A 
ATOM      6  C   UNL     1      43.703 -17.337 -33.067  1.00  0.00     0.093 A 
ATOM      7  C   UNL     1      44.585 -16.256 -32.917  1.00  0.00     0.136 A 
ATOM      8  C   UNL     1      44.651 -15.271 -33.921  1.00  0.00     0.125 A 
ATOM      9  C   UNL     1      45.517 -14.175 -33.831  1.00  0.00     0.078 A 
ATOM     10  C   UNL     1      45.550 -13.228 -34.859  1.00  0.00     0.223 A 
ENDROOT
BRANCH   1  11
ATOM     11  C   UNL     1      44.647 -12.422 -37.080  1.00  0.00     0.091 A 
ATOM     12  C   UNL     1      43.938 -11.223 -36.929  1.00  0.00     0.068 A 
ATOM     13  C   UNL     1      43.896 -10.275 -37.959  1.00  0.00     0.162 A 
ATOM     14  C   UNL     1      45.353 -12.652 -38.271  1.00  0.00     0.068 A 
ATOM     15  C   UNL     1      44.591 -10.522 -39.166  1.00  0.00     0.200 A 
ATOM     16  C   UNL     1      45.323 -11.717 -39.308  1.00  0.00     0.162 A 
BRANCH  13  17
ATOM     17  O   UNL     1      43.158  -9.110 -37.738  1.00  0.00    -0.504 OA
ATOM     18  H   UNL     1      42.939  -8.433 -38.454  1.00  0.00     0.293 HD
ENDBRANCH  13  17
BRANCH  15  19
ATOM     19  O   UNL     1      44.582  -9.618 -40.232  1.00  0.00    -0.502 OA
ATOM     20  H   UNL     1      44.865  -8.652 -40.158  1.00  0.00     0.293 HD
ENDBRANCH  15  19
BRANCH  16  21
ATOM     21  O   UNL     1      46.036 -11.989 -40.476  1.00  0.00    -0.504 OA
ATOM     22  H   UNL     1      46.911 -12.499 -40.471  1.00  0.00     0.293 HD
ENDBRANCH  16  21
ENDBRANCH   1  11
BRANCH  10  23
ATOM     23  O   UNL     1      46.446 -12.162 -34.798  1.00  0.00    -0.500 OA
ATOM     24  H   UNL     1      46.358 -11.357 -35.409  1.00  0.00     0.294 HD
ENDBRANCH  10  23
BRANCH   5  25
ATOM     25  O   UNL     1      42.025 -18.524 -34.327  1.00  0.00    -0.507 OA
ATOM     26  H   UNL     1      41.025 -18.393 -34.431  1.00  0.00     0.293 HD
ENDBRANCH   5  25
BRANCH   7  27
ATOM     27  O   UNL     1      45.389 -16.164 -31.782  1.00  0.00    -0.507 OA
ATOM     28  H   UNL     1      45.612 -16.978 -31.221  1.00  0.00     0.293 HD
ENDBRANCH   7  27
TORSDOF 7
ENDMDL
MODEL 2
REMARK VINA RESULT:    -8.543      2.063      7.263
REMARK INTER + INTRA:         -10.896
REMARK INTER:                 -10.738
REMARK INTRA:                  -0.158
REMARK UNBOUND:                -0.356
REMARK SMILES Oc1cc(O)c2cc(O)c(-c3cc(O)c(O)c(O)c3)[o+]c2c1.[Cl-]
REMARK SMILES IDX 10 1 20 2 21 3 22 4 2 5 3 6 4 7 6 8 7 9 8 10 11 11 12 12
REMARK SMILES IDX 13 13 19 14 15 15 17 16 14 17 16 19 18 21 9 23 1 25 5 27
REMARK H PARENT 14 18 16 20 18 22 9 24 1 26 5 28
REMARK Flexibility Score: inf
ROOT
ATOM      1  C   UNL     1      43.089 -12.630 -36.202  1.00  0.00     0.402 A 
ATOM      2  O   UNL     1      43.786 -12.151 -37.231  1.00  0.00    -0.202 OA
ATOM      3  C   UNL     1      43.241 -11.429 -38.206  1.00  0.00     0.368 A 
ATOM      4  C   UNL     1      44.044 -10.959 -39.251  1.00  0.00     0.162 A 
ATOM      5  C   UNL     1      43.482 -10.195 -40.282  1.00  0.00     0.128 A 
ATOM      6  C   UNL     1      42.115  -9.902 -40.267  1.00  0.00     0.093 A 
ATOM      7  C   UNL     1      41.296 -10.367 -39.227  1.00  0.00     0.136 A 
ATOM      8  C   UNL     1      41.861 -11.134 -38.190  1.00  0.00     0.125 A 
ATOM      9  C   UNL     1      41.093 -11.632 -37.131  1.00  0.00     0.078 A 
ATOM     10  C   UNL     1      41.700 -12.396 -36.130  1.00  0.00     0.223 A 
ENDROOT
BRANCH   1  11
ATOM     11  C   UNL     1      43.808 -13.412 -35.172  1.00  0.00     0.091 A 
ATOM     12  C   UNL     1      43.452 -14.749 -34.949  1.00  0.00     0.068 A 
ATOM     13  C   UNL     1      44.123 -15.526 -33.997  1.00  0.00     0.162 A 
ATOM     14  C   UNL     1      44.879 -12.863 -34.451  1.00  0.00     0.068 A 
ATOM     15  C   UNL     1      45.188 -14.959 -33.257  1.00  0.00     0.200 A 
ATOM     16  C   UNL     1      45.562 -13.623 -33.498  1.00  0.00     0.162 A 
BRANCH  13  17
ATOM     17  O   UNL     1      43.703 -16.846 -33.824  1.00  0.00    -0.504 OA
ATOM     18  H   UNL     1      43.343 -17.429 -34.565  1.00  0.00     0.293 HD
ENDBRANCH  13  17
BRANCH  15  19
ATOM     19  O   UNL     1      45.892 -15.681 -32.289  1.00  0.00    -0.502 OA
ATOM     20  H   UNL     1      46.115 -15.328 -31.370  1.00  0.00     0.293 HD
ENDBRANCH  15  19
BRANCH  16  21
ATOM     21  O   UNL     1      46.617 -13.034 -32.801  1.00  0.00    -0.504 OA
ATOM     22  H   UNL     1      46.772 -13.197 -31.813  1.00  0.00     0.293 HD
ENDBRANCH  16  21
ENDBRANCH   1  11
BRANCH  10  23
ATOM     23  O   UNL     1      40.931 -12.936 -35.100  1.00  0.00    -0.500 OA
ATOM     24  H   UNL     1      40.760 -12.426 -34.241  1.00  0.00     0.294 HD
ENDBRANCH  10  23
BRANCH   5  25
ATOM     25  O   UNL     1      44.274  -9.723 -41.325  1.00  0.00    -0.507 OA
ATOM     26  H   UNL     1      45.095  -9.154 -41.152  1.00  0.00     0.293 HD
ENDBRANCH   5  25
BRANCH   7  27
ATOM     27  O   UNL     1      39.934 -10.069 -39.225  1.00  0.00    -0.507 OA
ATOM     28  H   UNL     1      39.385 -10.100 -38.374  1.00  0.00     0.293 HD
ENDBRANCH   7  27
TORSDOF 7
ENDMDL
MODEL 3
REMARK VINA RESULT:    -8.492      1.929      7.136
REMARK INTER + INTRA:         -10.833
REMARK INTER:                 -10.472
REMARK INTRA:                  -0.361
REMARK UNBOUND:                -0.356
REMARK SMILES Oc1cc(O)c2cc(O)c(-c3cc(O)c(O)c(O)c3)[o+]c2c1.[Cl-]
REMARK SMILES IDX 10 1 20 2 21 3 22 4 2 5 3 6 4 7 6 8 7 9 8 10 11 11 12 12
REMARK SMILES IDX 13 13 19 14 15 15 17 16 14 17 16 19 18 21 9 23 1 25 5 27
REMARK H PARENT 14 18 16 20 18 22 9 24 1 26 5 28
REMARK Flexibility Score: inf
ROOT
ATOM      1  C   UNL     1      44.973 -12.669 -37.021  1.00  0.00     0.402 A 
ATOM      2  O   UNL     1      44.077 -11.691 -36.907  1.00  0.00    -0.202 OA
ATOM      3  C   UNL     1      43.607 -11.008 -37.947  1.00  0.00     0.368 A 
ATOM      4  C   UNL     1      42.662  -9.998 -37.743  1.00  0.00     0.162 A 
ATOM      5  C   UNL     1      42.157  -9.274 -38.831  1.00  0.00     0.128 A 
ATOM      6  C   UNL     1      42.600  -9.563 -40.126  1.00  0.00     0.093 A 
ATOM      7  C   UNL     1      43.548 -10.573 -40.347  1.00  0.00     0.136 A 
ATOM      8  C   UNL     1      44.054 -11.301 -39.253  1.00  0.00     0.125 A 
ATOM      9  C   UNL     1      45.007 -12.314 -39.412  1.00  0.00     0.078 A 
ATOM     10  C   UNL     1      45.484 -13.002 -38.293  1.00  0.00     0.223 A 
ENDROOT
BRANCH   1  11
ATOM     11  C   UNL     1      45.413 -13.363 -35.790  1.00  0.00     0.091 A 
ATOM     12  C   UNL     1      46.593 -12.955 -35.153  1.00  0.00     0.068 A 
ATOM     13  C   UNL     1      47.029 -13.575 -33.977  1.00  0.00     0.162 A 
ATOM     14  C   UNL     1      44.646 -14.387 -35.213  1.00  0.00     0.068 A 
ATOM     15  C   UNL     1      46.263 -14.622 -33.412  1.00  0.00     0.200 A 
ATOM     16  C   UNL     1      45.066 -15.016 -34.039  1.00  0.00     0.162 A 
BRANCH  13  17
ATOM     17  O   UNL     1      48.221 -13.119 -33.407  1.00  0.00    -0.504 OA
ATOM     18  H   UNL     1      48.599 -12.194 -33.548  1.00  0.00     0.293 HD
ENDBRANCH  13  17
BRANCH  15  19
ATOM     19  O   UNL     1      46.651 -15.284 -32.243  1.00  0.00    -0.502 OA
ATOM     20  H   UNL     1      47.504 -15.814 -32.149  1.00  0.00     0.293 HD
ENDBRANCH  15  19
BRANCH  16  21
ATOM     21  O   UNL     1      44.274 -16.033 -33.504  1.00  0.00    -0.504 OA
ATOM     22  H   UNL     1      44.652 -16.940 -33.255  1.00  0.00     0.293 HD
ENDBRANCH  16  21
ENDBRANCH   1  11
BRANCH  10  23
ATOM     23  O   UNL     1      46.470 -13.977 -38.439  1.00  0.00    -0.500 OA
ATOM     24  H   UNL     1      46.237 -14.960 -38.520  1.00  0.00     0.294 HD
ENDBRANCH  10  23
BRANCH   5  25
ATOM     25  O   UNL     1      41.216  -8.266 -38.636  1.00  0.00    -0.507 OA
ATOM     26  H   UNL     1      40.843  -8.060 -37.716  1.00  0.00     0.293 HD
ENDBRANCH   5  25
BRANCH   7  27
ATOM     27  O   UNL     1      43.982 -10.850 -41.643  1.00  0.00    -0.507 OA
ATOM     28  H   UNL     1      43.387 -10.691 -42.448  1.00  0.00     0.293 HD
ENDBRANCH   7  27
TORSDOF 7
ENDMDL
MODEL 4
REMARK VINA RESULT:    -8.481      1.999      7.161
REMARK INTER + INTRA:         -10.819
REMARK INTER:                 -10.741
REMARK INTRA:                  -0.079
REMARK UNBOUND:                -0.356
REMARK SMILES Oc1cc(O)c2cc(O)c(-c3cc(O)c(O)c(O)c3)[o+]c2c1.[Cl-]
REMARK SMILES IDX 10 1 20 2 21 3 22 4 2 5 3 6 4 7 6 8 7 9 8 10 11 11 12 12
REMARK SMILES IDX 13 13 19 14 15 15 17 16 14 17 16 19 18 21 9 23 1 25 5 27
REMARK H PARENT 14 18 16 20 18 22 9 24 1 26 5 28
REMARK Flexibility Score: inf
ROOT
ATOM      1  C   UNL     1      43.293 -12.622 -36.234  1.00  0.00     0.402 A 
ATOM      2  O   UNL     1      43.928 -12.145 -37.303  1.00  0.00    -0.202 OA
ATOM      3  C   UNL     1      43.322 -11.442 -38.256  1.00  0.00     0.368 A 
ATOM      4  C   UNL     1      44.063 -10.971 -39.345  1.00  0.00     0.162 A 
ATOM      5  C   UNL     1      43.437 -10.227 -40.354  1.00  0.00     0.128 A 
ATOM      6  C   UNL     1      42.067  -9.955 -40.271  1.00  0.00     0.093 A 
ATOM      7  C   UNL     1      41.311 -10.421 -39.186  1.00  0.00     0.136 A 
ATOM      8  C   UNL     1      41.940 -11.168 -38.172  1.00  0.00     0.125 A 
ATOM      9  C   UNL     1      41.236 -11.666 -37.070  1.00  0.00     0.078 A 
ATOM     10  C   UNL     1      41.906 -12.409 -36.093  1.00  0.00     0.223 A 
ENDROOT
BRANCH   1  11
ATOM     11  C   UNL     1      44.077 -13.382 -35.235  1.00  0.00     0.091 A 
ATOM     12  C   UNL     1      45.213 -12.796 -34.660  1.00  0.00     0.068 A 
ATOM     13  C   UNL     1      45.967 -13.477 -33.697  1.00  0.00     0.162 A 
ATOM     14  C   UNL     1      43.678 -14.658 -34.808  1.00  0.00     0.068 A 
ATOM     15  C   UNL     1      45.572 -14.773 -33.287  1.00  0.00     0.200 A 
ATOM     16  C   UNL     1      44.418 -15.352 -33.848  1.00  0.00     0.162 A 
BRANCH  13  17
ATOM     17  O   UNL     1      47.092 -12.832 -33.179  1.00  0.00    -0.504 OA
ATOM     18  H   UNL     1      47.501 -13.039 -32.279  1.00  0.00     0.293 HD
ENDBRANCH  13  17
BRANCH  15  19
ATOM     19  O   UNL     1      46.288 -15.505 -32.336  1.00  0.00    -0.502 OA
ATOM     20  H   UNL     1      46.842 -16.322 -32.549  1.00  0.00     0.293 HD
ENDBRANCH  15  19
BRANCH  16  21
ATOM     21  O   UNL     1      43.987 -16.620 -33.457  1.00  0.00    -0.504 OA
ATOM     22  H   UNL     1      44.634 -17.362 -33.218  1.00  0.00     0.293 HD
ENDBRANCH  16  21
ENDBRANCH   1  11
BRANCH  10  23
ATOM     23  O   UNL     1      41.201 -12.950 -35.020  1.00  0.00    -0.500 OA
ATOM     24  H   UNL     1      40.194 -12.857 -34.943  1.00  0.00     0.294 HD
ENDBRANCH  10  23
BRANCH   5  25
ATOM     25  O   UNL     1      44.166  -9.754 -41.442  1.00  0.00    -0.507 OA
ATOM     26  H   UNL     1      45.170  -9.620 -41.389  1.00  0.00     0.293 HD
ENDBRANCH   5  25
BRANCH   7  27
ATOM     27  O   UNL     1      39.946 -10.144 -39.117  1.00  0.00    -0.507 OA
ATOM     28  H   UNL     1      39.558  -9.286 -39.491  1.00  0.00     0.293 HD
ENDBRANCH   7  27
TORSDOF 7
ENDMDL
MODEL 5
REMARK VINA RESULT:    -8.465      1.939      7.106
REMARK INTER + INTRA:         -10.800
REMARK INTER:                 -10.437
REMARK INTRA:                  -0.362
REMARK UNBOUND:                -0.356
REMARK SMILES Oc1cc(O)c2cc(O)c(-c3cc(O)c(O)c(O)c3)[o+]c2c1.[Cl-]
REMARK SMILES IDX 10 1 20 2 21 3 22 4 2 5 3 6 4 7 6 8 7 9 8 10 11 11 12 12
REMARK SMILES IDX 13 13 19 14 15 15 17 16 14 17 16 19 18 21 9 23 1 25 5 27
REMARK H PARENT 14 18 16 20 18 22 9 24 1 26 5 28
REMARK Flexibility Score: inf
ROOT
ATOM      1  C   UNL     1      45.006 -12.638 -36.946  1.00  0.00     0.402 A 
ATOM      2  O   UNL     1      44.102 -11.663 -36.862  1.00  0.00    -0.202 OA
ATOM      3  C   UNL     1      43.631 -11.013 -37.923  1.00  0.00     0.368 A 
ATOM      4  C   UNL     1      42.678 -10.004 -37.750  1.00  0.00     0.162 A 
ATOM      5  C   UNL     1      42.173  -9.315 -38.860  1.00  0.00     0.128 A 
ATOM      6  C   UNL     1      42.623  -9.636 -40.144  1.00  0.00     0.093 A 
ATOM      7  C   UNL     1      43.579 -10.645 -40.334  1.00  0.00     0.136 A 
ATOM      8  C   UNL     1      44.087 -11.338 -39.219  1.00  0.00     0.125 A 
ATOM      9  C   UNL     1      45.047 -12.348 -39.346  1.00  0.00     0.078 A 
ATOM     10  C   UNL     1      45.525 -13.002 -38.206  1.00  0.00     0.223 A 
ENDROOT
BRANCH   1  11
ATOM     11  C   UNL     1      45.446 -13.294 -35.695  1.00  0.00     0.091 A 
ATOM     12  C   UNL     1      44.697 -14.358 -35.174  1.00  0.00     0.068 A 
ATOM     13  C   UNL     1      45.094 -15.015 -34.004  1.00  0.00     0.162 A 
ATOM     14  C   UNL     1      46.630 -12.912 -35.046  1.00  0.00     0.068 A 
ATOM     15  C   UNL     1      46.277 -14.611 -33.341  1.00  0.00     0.200 A 
ATOM     16  C   UNL     1      47.042 -13.558 -33.878  1.00  0.00     0.162 A 
BRANCH  13  17
ATOM     17  O   UNL     1      44.289 -16.059 -33.541  1.00  0.00    -0.504 OA
ATOM     18  H   UNL     1      43.293 -15.983 -33.390  1.00  0.00     0.293 HD
ENDBRANCH  13  17
BRANCH  15  19
ATOM     19  O   UNL     1      46.721 -15.223 -32.166  1.00  0.00    -0.502 OA
ATOM     20  H   UNL     1      47.694 -15.340 -31.921  1.00  0.00     0.293 HD
ENDBRANCH  15  19
BRANCH  16  21
ATOM     21  O   UNL     1      48.224 -13.141 -33.263  1.00  0.00    -0.504 OA
ATOM     22  H   UNL     1      49.131 -13.255 -33.699  1.00  0.00     0.293 HD
ENDBRANCH  16  21
ENDBRANCH   1  11
BRANCH  10  23
ATOM     23  O   UNL     1      46.518 -13.973 -38.322  1.00  0.00    -0.500 OA
ATOM     24  H   UNL     1      47.139 -14.193 -37.552  1.00  0.00     0.294 HD
ENDBRANCH  10  23
BRANCH   5  25
ATOM     25  O   UNL     1      41.223  -8.309 -38.696  1.00  0.00    -0.507 OA
ATOM     26  H   UNL     1      41.441  -7.450 -38.204  1.00  0.00     0.293 HD
ENDBRANCH   5  25
BRANCH   7  27
ATOM     27  O   UNL     1      44.021 -10.954 -41.620  1.00  0.00    -0.507 OA
ATOM     28  H   UNL     1      43.550 -11.647 -42.191  1.00  0.00     0.293 HD
ENDBRANCH   7  27
TORSDOF 7
ENDMDL
MODEL 6
REMARK VINA RESULT:    -8.357      2.099      3.865
REMARK INTER + INTRA:         -10.667
REMARK INTER:                 -10.469
REMARK INTRA:                  -0.198
REMARK UNBOUND:                -0.356
REMARK SMILES Oc1cc(O)c2cc(O)c(-c3cc(O)c(O)c(O)c3)[o+]c2c1.[Cl-]
REMARK SMILES IDX 10 1 20 2 21 3 22 4 2 5 3 6 4 7 6 8 7 9 8 10 11 11 12 12
REMARK SMILES IDX 13 13 19 14 15 15 17 16 14 17 16 19 18 21 9 23 1 25 5 27
REMARK H PARENT 14 18 16 20 18 22 9 24 1 26 5 28
REMARK Flexibility Score: inf
ROOT
ATOM      1  C   UNL     1      43.693 -12.073 -36.647  1.00  0.00     0.402 A 
ATOM      2  O   UNL     1      44.961 -12.124 -36.242  1.00  0.00    -0.202 OA
ATOM      3  C   UNL     1      45.373 -12.889 -35.235  1.00  0.00     0.368 A 
ATOM      4  C   UNL     1      46.725 -12.890 -34.875  1.00  0.00     0.162 A 
ATOM      5  C   UNL     1      47.172 -13.693 -33.818  1.00  0.00     0.128 A 
ATOM      6  C   UNL     1      46.263 -14.496 -33.120  1.00  0.00     0.093 A 
ATOM      7  C   UNL     1      44.905 -14.505 -33.469  1.00  0.00     0.136 A 
ATOM      8  C   UNL     1      44.456 -13.698 -34.531  1.00  0.00     0.125 A 
ATOM      9  C   UNL     1      43.111 -13.660 -34.919  1.00  0.00     0.078 A 
ATOM     10  C   UNL     1      42.715 -12.836 -35.977  1.00  0.00     0.223 A 
ENDROOT
BRANCH   1  11
ATOM     11  C   UNL     1      43.357 -11.191 -37.787  1.00  0.00     0.091 A 
ATOM     12  C   UNL     1      43.879 -11.476 -39.057  1.00  0.00     0.068 A 
ATOM     13  C   UNL     1      43.567 -10.675 -40.161  1.00  0.00     0.162 A 
ATOM     14  C   UNL     1      42.481 -10.105 -37.639  1.00  0.00     0.068 A 
ATOM     15  C   UNL     1      42.701  -9.568 -40.001  1.00  0.00     0.200 A 
ATOM     16  C   UNL     1      42.158  -9.296 -38.731  1.00  0.00     0.162 A 
BRANCH  13  17
ATOM     17  O   UNL     1      44.135 -11.017 -41.391  1.00  0.00    -0.504 OA
ATOM     18  H   UNL     1      45.129 -11.062 -41.564  1.00  0.00     0.293 HD
ENDBRANCH  13  17
BRANCH  15  19
ATOM     19  O   UNL     1      42.358  -8.728 -41.064  1.00  0.00    -0.502 OA
ATOM     20  H   UNL     1      42.370  -9.008 -42.034  1.00  0.00     0.293 HD
ENDBRANCH  15  19
BRANCH  16  21
ATOM     21  O   UNL     1      41.287  -8.223 -38.535  1.00  0.00    -0.504 OA
ATOM     22  H   UNL     1      40.397  -8.328 -38.063  1.00  0.00     0.293 HD
ENDBRANCH  16  21
ENDBRANCH   1  11
BRANCH  10  23
ATOM     23  O   UNL     1      41.370 -12.756 -36.334  1.00  0.00    -0.500 OA
ATOM     24  H   UNL     1      40.802 -13.586 -36.460  1.00  0.00     0.294 HD
ENDBRANCH  10  23
BRANCH   5  25
ATOM     25  O   UNL     1      48.515 -13.700 -33.453  1.00  0.00    -0.507 OA
ATOM     26  H   UNL     1      49.008 -14.566 -33.263  1.00  0.00     0.293 HD
ENDBRANCH   5  25
BRANCH   7  27
ATOM     27  O   UNL     1      44.009 -15.309 -32.764  1.00  0.00    -0.507 OA
ATOM     28  H   UNL     1      44.247 -16.255 -32.490  1.00  0.00     0.293 HD
ENDBRANCH   7  27
TORSDOF 7
ENDMDL
MODEL 7
REMARK VINA RESULT:    -8.259      3.137      7.659
REMARK INTER + INTRA:         -10.546
REMARK INTER:                 -10.921
REMARK INTRA:                   0.375
REMARK UNBOUND:                -0.356
REMARK SMILES Oc1cc(O)c2cc(O)c(-c3cc(O)c(O)c(O)c3)[o+]c2c1.[Cl-]
REMARK SMILES IDX 10 1 20 2 21 3 22 4 2 5 3 6 4 7 6 8 7 9 8 10 11 11 12 12
REMARK SMILES IDX 13 13 19 14 15 15 17 16 14 17 16 19 18 21 9 23 1 25 5 27
REMARK H PARENT 14 18 16 20 18 22 9 24 1 26 5 28
REMARK Flexibility Score: inf
ROOT
ATOM      1  C   UNL     1      43.501 -11.498 -38.773  1.00  0.00     0.402 A 
ATOM      2  O   UNL     1      43.525 -11.091 -40.041  1.00  0.00    -0.202 OA
ATOM      3  C   UNL     1      42.535 -10.404 -40.604  1.00  0.00     0.368 A 
ATOM      4  C   UNL     1      42.640 -10.008 -41.941  1.00  0.00     0.162 A 
ATOM      5  C   UNL     1      41.606  -9.282 -42.544  1.00  0.00     0.128 A 
ATOM      6  C   UNL     1      40.464  -8.952 -41.807  1.00  0.00     0.093 A 
ATOM      7  C   UNL     1      40.343  -9.342 -40.465  1.00  0.00     0.136 A 
ATOM      8  C   UNL     1      41.383 -10.072 -39.859  1.00  0.00     0.125 A 
ATOM      9  C   UNL     1      41.316 -10.495 -38.527  1.00  0.00     0.078 A 
ATOM     10  C   UNL     1      42.372 -11.224 -37.973  1.00  0.00     0.223 A 
ENDROOT
BRANCH   1  11
ATOM     11  C   UNL     1      44.668 -12.248 -38.256  1.00  0.00     0.091 A 
ATOM     12  C   UNL     1      45.850 -12.288 -39.008  1.00  0.00     0.068 A 
ATOM     13  C   UNL     1      46.979 -12.970 -38.542  1.00  0.00     0.162 A 
ATOM     14  C   UNL     1      44.637 -12.874 -37.001  1.00  0.00     0.068 A 
ATOM     15  C   UNL     1      46.935 -13.619 -37.285  1.00  0.00     0.200 A 
ATOM     16  C   UNL     1      45.755 -13.558 -36.518  1.00  0.00     0.162 A 
BRANCH  13  17
ATOM     17  O   UNL     1      48.116 -12.975 -39.354  1.00  0.00    -0.504 OA
ATOM     18  H   UNL     1      48.889 -12.334 -39.252  1.00  0.00     0.293 HD
ENDBRANCH  13  17
BRANCH  15  19
ATOM     19  O   UNL     1      48.027 -14.322 -36.768  1.00  0.00    -0.502 OA
ATOM     20  H   UNL     1      47.954 -15.058 -36.082  1.00  0.00     0.293 HD
ENDBRANCH  15  19
BRANCH  16  21
ATOM     21  O   UNL     1      45.678 -14.171 -35.267  1.00  0.00    -0.504 OA
ATOM     22  H   UNL     1      46.481 -14.257 -34.655  1.00  0.00     0.293 HD
ENDBRANCH  16  21
ENDBRANCH   1  11
BRANCH  10  23
ATOM     23  O   UNL     1      42.289 -11.691 -36.663  1.00  0.00    -0.500 OA
ATOM     24  H   UNL     1      41.463 -11.538 -36.095  1.00  0.00     0.294 HD
ENDBRANCH  10  23
BRANCH   5  25
ATOM     25  O   UNL     1      41.702  -8.884 -43.875  1.00  0.00    -0.507 OA
ATOM     26  H   UNL     1      41.483  -9.518 -44.635  1.00  0.00     0.293 HD
ENDBRANCH   5  25
BRANCH   7  27
ATOM     27  O   UNL     1      39.199  -9.008 -39.742  1.00  0.00    -0.507 OA
ATOM     28  H   UNL     1      38.270  -9.213 -40.092  1.00  0.00     0.293 HD
ENDBRANCH   7  27
TORSDOF 7
ENDMDL
MODEL 8
REMARK VINA RESULT:    -8.209      3.410      7.900
REMARK INTER + INTRA:         -10.484
REMARK INTER:                 -10.404
REMARK INTRA:                  -0.080
REMARK UNBOUND:                -0.356
REMARK SMILES Oc1cc(O)c2cc(O)c(-c3cc(O)c(O)c(O)c3)[o+]c2c1.[Cl-]
REMARK SMILES IDX 10 1 20 2 21 3 22 4 2 5 3 6 4 7 6 8 7 9 8 10 11 11 12 12
REMARK SMILES IDX 13 13 19 14 15 15 17 16 14 17 16 19 18 21 9 23 1 25 5 27
REMARK H PARENT 14 18 16 20 18 22 9 24 1 26 5 28
REMARK Flexibility Score: inf
ROOT
ATOM      1  C   UNL     1      43.784 -11.002 -39.712  1.00  0.00     0.402 A 
ATOM      2  O   UNL     1      43.447 -11.339 -40.956  1.00  0.00    -0.202 OA
ATOM      3  C   UNL     1      42.510 -10.704 -41.654  1.00  0.00     0.368 A 
ATOM      4  C   UNL     1      42.218 -11.118 -42.958  1.00  0.00     0.162 A 
ATOM      5  C   UNL     1      41.236 -10.455 -43.704  1.00  0.00     0.128 A 
ATOM      6  C   UNL     1      40.544  -9.377 -43.144  1.00  0.00     0.093 A 
ATOM      7  C   UNL     1      40.824  -8.951 -41.837  1.00  0.00     0.136 A 
ATOM      8  C   UNL     1      41.812  -9.616 -41.087  1.00  0.00     0.125 A 
ATOM      9  C   UNL     1      42.128  -9.242 -39.776  1.00  0.00     0.078 A 
ATOM     10  C   UNL     1      43.113  -9.940 -39.071  1.00  0.00     0.223 A 
ENDROOT
BRANCH   1  11
ATOM     11  C   UNL     1      44.850 -11.778 -39.040  1.00  0.00     0.091 A 
ATOM     12  C   UNL     1      44.586 -12.384 -37.804  1.00  0.00     0.068 A 
ATOM     13  C   UNL     1      45.564 -13.142 -37.149  1.00  0.00     0.162 A 
ATOM     14  C   UNL     1      46.104 -11.969 -39.639  1.00  0.00     0.068 A 
ATOM     15  C   UNL     1      46.835 -13.313 -37.748  1.00  0.00     0.200 A 
ATOM     16  C   UNL     1      47.091 -12.724 -39.001  1.00  0.00     0.162 A 
BRANCH  13  17
ATOM     17  O   UNL     1      45.230 -13.705 -35.915  1.00  0.00    -0.504 OA
ATOM     18  H   UNL     1      44.788 -14.606 -35.803  1.00  0.00     0.293 HD
ENDBRANCH  13  17
BRANCH  15  19
ATOM     19  O   UNL     1      47.853 -14.052 -37.140  1.00  0.00    -0.502 OA
ATOM     20  H   UNL     1      48.122 -13.957 -36.172  1.00  0.00     0.293 HD
ENDBRANCH  15  19
BRANCH  16  21
ATOM     21  O   UNL     1      48.326 -12.883 -39.631  1.00  0.00    -0.504 OA
ATOM     22  H   UNL     1      48.486 -12.595 -40.590  1.00  0.00     0.293 HD
ENDBRANCH  16  21
ENDBRANCH   1  11
BRANCH  10  23
ATOM     23  O   UNL     1      43.397  -9.604 -37.748  1.00  0.00    -0.500 OA
ATOM     24  H   UNL     1      42.922  -8.840 -37.280  1.00  0.00     0.294 HD
ENDBRANCH  10  23
BRANCH   5  25
ATOM     25  O   UNL     1      40.940 -10.860 -45.003  1.00  0.00    -0.507 OA
ATOM     26  H   UNL     1      39.991 -10.845 -45.360  1.00  0.00     0.293 HD
ENDBRANCH   5  25
BRANCH   7  27
ATOM     27  O   UNL     1      40.125  -7.875 -41.289  1.00  0.00    -0.507 OA
ATOM     28  H   UNL     1      40.121  -7.697 -40.291  1.00  0.00     0.293 HD
ENDBRANCH   7  27
TORSDOF 7
ENDMDL
MODEL 9
REMARK VINA RESULT:    -8.198      2.393      3.831
REMARK INTER + INTRA:         -10.470
REMARK INTER:                 -10.377
REMARK INTRA:                  -0.093
REMARK UNBOUND:                -0.356
REMARK SMILES Oc1cc(O)c2cc(O)c(-c3cc(O)c(O)c(O)c3)[o+]c2c1.[Cl-]
REMARK SMILES IDX 10 1 20 2 21 3 22 4 2 5 3 6 4 7 6 8 7 9 8 10 11 11 12 12
REMARK SMILES IDX 13 13 19 14 15 15 17 16 14 17 16 19 18 21 9 23 1 25 5 27
REMARK H PARENT 14 18 16 20 18 22 9 24 1 26 5 28
REMARK Flexibility Score: inf
ROOT
ATOM      1  C   UNL     1      45.111 -12.200 -38.886  1.00  0.00     0.402 A 
ATOM      2  O   UNL     1      44.506 -12.589 -37.765  1.00  0.00    -0.202 OA
ATOM      3  C   UNL     1      45.142 -13.203 -36.771  1.00  0.00     0.368 A 
ATOM      4  C   UNL     1      44.434 -13.576 -35.623  1.00  0.00     0.162 A 
ATOM      5  C   UNL     1      45.093 -14.220 -34.568  1.00  0.00     0.128 A 
ATOM      6  C   UNL     1      46.461 -14.493 -34.663  1.00  0.00     0.093 A 
ATOM      7  C   UNL     1      47.184 -14.127 -35.808  1.00  0.00     0.136 A 
ATOM      8  C   UNL     1      46.522 -13.478 -36.868  1.00  0.00     0.125 A 
ATOM      9  C   UNL     1      47.189 -13.097 -38.038  1.00  0.00     0.078 A 
ATOM     10  C   UNL     1      46.485 -12.462 -39.065  1.00  0.00     0.223 A 
ENDROOT
BRANCH   1  11
ATOM     11  C   UNL     1      44.300 -11.516 -39.918  1.00  0.00     0.091 A 
ATOM     12  C   UNL     1      43.585 -10.359 -39.579  1.00  0.00     0.068 A 
ATOM     13  C   UNL     1      42.824  -9.675 -40.533  1.00  0.00     0.162 A 
ATOM     14  C   UNL     1      44.274 -11.968 -41.247  1.00  0.00     0.068 A 
ATOM     15  C   UNL     1      42.783 -10.148 -41.866  1.00  0.00     0.200 A 
ATOM     16  C   UNL     1      43.520 -11.297 -42.213  1.00  0.00     0.162 A 
BRANCH  13  17
ATOM     17  O   UNL     1      42.130  -8.537 -40.115  1.00  0.00    -0.504 OA
ATOM     18  H   UNL     1      41.274  -8.208 -40.537  1.00  0.00     0.293 HD
ENDBRANCH  13  17
BRANCH  15  19
ATOM     19  O   UNL     1      42.036  -9.513 -42.862  1.00  0.00    -0.502 OA
ATOM     20  H   UNL     1      41.748  -8.546 -42.824  1.00  0.00     0.293 HD
ENDBRANCH  15  19
BRANCH  16  21
ATOM     21  O   UNL     1      43.520 -11.785 -43.520  1.00  0.00    -0.504 OA
ATOM     22  H   UNL     1      42.714 -11.701 -44.129  1.00  0.00     0.293 HD
ENDBRANCH  16  21
ENDBRANCH   1  11
BRANCH  10  23
ATOM     23  O   UNL     1      47.133 -12.125 -40.253  1.00  0.00    -0.500 OA
ATOM     24  H   UNL     1      47.130 -11.176 -40.610  1.00  0.00     0.294 HD
ENDBRANCH  10  23
BRANCH   5  25
ATOM     25  O   UNL     1      44.396 -14.594 -33.422  1.00  0.00    -0.507 OA
ATOM     26  H   UNL     1      44.537 -15.499 -32.987  1.00  0.00     0.293 HD
ENDBRANCH   5  25
BRANCH   7  27
ATOM     27  O   UNL     1      48.548 -14.406 -35.891  1.00  0.00    -0.507 OA
ATOM     28  H   UNL     1      48.944 -15.244 -35.481  1.00  0.00     0.293 HD
ENDBRANCH   7  27
TORSDOF 7
ENDMDL
