MODEL 1
REMARK VINA RESULT:    -3.700      0.000      0.000
REMARK INTER + INTRA:          -4.439
REMARK INTER:                  -4.349
REMARK INTRA:                  -0.090
REMARK UNBOUND:                -0.090
REMARK SMILES O=C([O-])CCC(=O)[O-]
REMARK SMILES IDX 4 1 2 2 1 3 3 4 5 5 6 6 7 7 8 8
REMARK H PARENT
REMARK Flexibility Score: inf
ROOT
ATOM      1  C   UNL     1      -1.133  19.979  27.276  1.00  0.00     0.059 C 
ENDROOT
BRANCH   1   2
ATOM      2  C   UNL     1      -1.898  20.989  26.482  1.00  0.00     0.042 C 
ATOM      3  O   UNL     1      -1.335  21.621  25.551  1.00  0.00    -0.550 OA
ATOM      4  O   UNL     1      -3.247  21.199  26.740  1.00  0.00    -0.550 OA
ENDBRANCH   1   2
BRANCH   1   5
ATOM      5  C   UNL     1      -1.995  19.429  28.415  1.00  0.00     0.059 C 
BRANCH   5   6
ATOM      6  C   UNL     1      -2.505  18.065  28.073  1.00  0.00     0.042 C 
ATOM      7  O   UNL     1      -3.397  17.923  27.195  1.00  0.00    -0.550 OA
ATOM      8  O   UNL     1      -1.961  16.945  28.690  1.00  0.00    -0.550 OA
ENDBRANCH   5   6
ENDBRANCH   1   5
TORSDOF 3
ENDMDL
MODEL 2
REMARK VINA RESULT:    -3.671      0.105      3.809
REMARK INTER + INTRA:          -4.405
REMARK INTER:                  -4.332
REMARK INTRA:                  -0.072
REMARK UNBOUND:                -0.090
REMARK SMILES O=C([O-])CCC(=O)[O-]
REMARK SMILES IDX 4 1 2 2 1 3 3 4 5 5 6 6 7 7 8 8
REMARK H PARENT
REMARK Flexibility Score: inf
ROOT
ATOM      1  C   UNL     1      -2.035  19.384  28.412  1.00  0.00     0.059 C 
ENDROOT
BRANCH   1   2
ATOM      2  C   UNL     1      -2.485  17.998  28.073  1.00  0.00     0.042 C 
ATOM      3  O   UNL     1      -3.330  17.812  27.159  1.00  0.00    -0.550 OA
ATOM      4  O   UNL     1      -1.934  16.908  28.734  1.00  0.00    -0.550 OA
ENDBRANCH   1   2
BRANCH   1   5
ATOM      5  C   UNL     1      -1.155  19.949  27.295  1.00  0.00     0.059 C 
BRANCH   5   6
ATOM      6  C   UNL     1      -1.930  20.910  26.452  1.00  0.00     0.042 C 
ATOM      7  O   UNL     1      -3.168  21.058  26.634  1.00  0.00    -0.550 OA
ATOM      8  O   UNL     1      -1.279  21.682  25.497  1.00  0.00    -0.550 OA
ENDBRANCH   5   6
ENDBRANCH   1   5
TORSDOF 3
ENDMDL
MODEL 3
REMARK VINA RESULT:    -3.350      7.003      8.075
REMARK INTER + INTRA:          -4.027
REMARK INTER:                  -3.922
REMARK INTRA:                  -0.105
REMARK UNBOUND:                -0.090
REMARK SMILES O=C([O-])CCC(=O)[O-]
REMARK SMILES IDX 4 1 2 2 1 3 3 4 5 5 6 6 7 7 8 8
REMARK H PARENT
REMARK Flexibility Score: inf
ROOT
ATOM      1  C   UNL     1       0.191  20.913  33.520  1.00  0.00     0.059 C 
ENDROOT
BRANCH   1   2
ATOM      2  C   UNL     1       1.644  20.620  33.317  1.00  0.00     0.042 C 
ATOM      3  O   UNL     1       2.457  20.764  34.266  1.00  0.00    -0.550 OA
ATOM      4  O   UNL     1       2.092  20.141  32.092  1.00  0.00    -0.550 OA
ENDBRANCH   1   2
BRANCH   1   5
ATOM      5  C   UNL     1      -0.193  22.220  32.821  1.00  0.00     0.059 C 
BRANCH   5   6
ATOM      6  C   UNL     1      -0.547  23.267  33.828  1.00  0.00     0.042 C 
ATOM      7  O   UNL     1       0.239  23.525  34.778  1.00  0.00    -0.550 OA
ATOM      8  O   UNL     1      -1.722  23.996  33.691  1.00  0.00    -0.550 OA
ENDBRANCH   5   6
ENDBRANCH   1   5
TORSDOF 3
ENDMDL
MODEL 4
REMARK VINA RESULT:    -3.334      7.045      7.646
REMARK INTER + INTRA:          -4.009
REMARK INTER:                  -3.908
REMARK INTRA:                  -0.101
REMARK UNBOUND:                -0.090
REMARK SMILES O=C([O-])CCC(=O)[O-]
REMARK SMILES IDX 4 1 2 2 1 3 3 4 5 5 6 6 7 7 8 8
REMARK H PARENT
REMARK Flexibility Score: inf
ROOT
ATOM      1  C   UNL     1      -0.160  22.206  32.874  1.00  0.00     0.059 C 
ENDROOT
BRANCH   1   2
ATOM      2  C   UNL     1      -0.535  23.265  33.862  1.00  0.00     0.042 C 
ATOM      3  O   UNL     1       0.232  23.533  34.823  1.00  0.00    -0.550 OA
ATOM      4  O   UNL     1      -1.709  23.987  33.695  1.00  0.00    -0.550 OA
ENDBRANCH   1   2
BRANCH   1   5
ATOM      5  C   UNL     1       0.238  20.917  33.596  1.00  0.00     0.059 C 
BRANCH   5   6
ATOM      6  C   UNL     1       1.685  20.614  33.368  1.00  0.00     0.042 C 
ATOM      7  O   UNL     1       2.511  20.720  34.312  1.00  0.00    -0.550 OA
ATOM      8  O   UNL     1       2.114  20.166  32.124  1.00  0.00    -0.550 OA
ENDBRANCH   5   6
ENDBRANCH   1   5
TORSDOF 3
ENDMDL
MODEL 5
REMARK VINA RESULT:    -3.250     12.054     12.841
REMARK INTER + INTRA:          -3.910
REMARK INTER:                  -3.874
REMARK INTRA:                  -0.036
REMARK UNBOUND:                -0.090
REMARK SMILES O=C([O-])CCC(=O)[O-]
REMARK SMILES IDX 4 1 2 2 1 3 3 4 5 5 6 6 7 7 8 8
REMARK H PARENT
REMARK Flexibility Score: inf
ROOT
ATOM      1  C   UNL     1       8.481  14.587  24.901  1.00  0.00     0.059 C 
ENDROOT
BRANCH   1   2
ATOM      2  C   UNL     1       7.045  14.800  24.541  1.00  0.00     0.042 C 
ATOM      3  O   UNL     1       6.591  14.351  23.456  1.00  0.00    -0.550 OA
ATOM      4  O   UNL     1       6.196  15.453  25.425  1.00  0.00    -0.550 OA
ENDBRANCH   1   2
BRANCH   1   5
ATOM      5  C   UNL     1       9.383  14.879  23.700  1.00  0.00     0.059 C 
BRANCH   5   6
ATOM      6  C   UNL     1      10.794  14.480  23.996  1.00  0.00     0.042 C 
ATOM      7  O   UNL     1      11.659  14.482  23.080  1.00  0.00    -0.550 OA
ATOM      8  O   UNL     1      11.167  14.153  25.294  1.00  0.00    -0.550 OA
ENDBRANCH   5   6
ENDBRANCH   1   5
TORSDOF 3
ENDMDL
MODEL 6
REMARK VINA RESULT:    -3.228     15.834     16.362
REMARK INTER + INTRA:          -3.884
REMARK INTER:                  -3.850
REMARK INTRA:                  -0.035
REMARK UNBOUND:                -0.090
REMARK SMILES O=C([O-])CCC(=O)[O-]
REMARK SMILES IDX 4 1 2 2 1 3 3 4 5 5 6 6 7 7 8 8
REMARK H PARENT
REMARK Flexibility Score: inf
ROOT
ATOM      1  C   UNL     1       8.233  12.256  17.067  1.00  0.00     0.059 C 
ENDROOT
BRANCH   1   2
ATOM      2  C   UNL     1       8.937  12.532  18.358  1.00  0.00     0.042 C 
ATOM      3  O   UNL     1       9.571  11.615  18.942  1.00  0.00    -0.550 OA
ATOM      4  O   UNL     1       8.933  13.814  18.891  1.00  0.00    -0.550 OA
ENDBRANCH   1   2
BRANCH   1   5
ATOM      5  C   UNL     1       7.689  10.826  17.050  1.00  0.00     0.059 C 
BRANCH   5   6
ATOM      6  C   UNL     1       6.445  10.749  16.223  1.00  0.00     0.042 C 
ATOM      7  O   UNL     1       5.540   9.924  16.514  1.00  0.00    -0.550 OA
ATOM      8  O   UNL     1       6.263  11.622  15.157  1.00  0.00    -0.550 OA
ENDBRANCH   5   6
ENDBRANCH   1   5
TORSDOF 3
ENDMDL
MODEL 7
REMARK VINA RESULT:    -3.204     15.823     16.454
REMARK INTER + INTRA:          -3.855
REMARK INTER:                  -3.821
REMARK INTRA:                  -0.034
REMARK UNBOUND:                -0.090
REMARK SMILES O=C([O-])CCC(=O)[O-]
REMARK SMILES IDX 4 1 2 2 1 3 3 4 5 5 6 6 7 7 8 8
REMARK H PARENT
REMARK Flexibility Score: inf
ROOT
ATOM      1  C   UNL     1       7.592  10.834  17.085  1.00  0.00     0.059 C 
ENDROOT
BRANCH   1   2
ATOM      2  C   UNL     1       6.386  10.765  16.202  1.00  0.00     0.042 C 
ATOM      3  O   UNL     1       5.467   9.942  16.449  1.00  0.00    -0.550 OA
ATOM      4  O   UNL     1       6.256  11.644  15.135  1.00  0.00    -0.550 OA
ENDBRANCH   1   2
BRANCH   1   5
ATOM      5  C   UNL     1       8.194  12.241  17.060  1.00  0.00     0.059 C 
BRANCH   5   6
ATOM      6  C   UNL     1       8.917  12.523  18.338  1.00  0.00     0.042 C 
ATOM      7  O   UNL     1       9.579  11.614  18.906  1.00  0.00    -0.550 OA
ATOM      8  O   UNL     1       8.903  13.804  18.877  1.00  0.00    -0.550 OA
ENDBRANCH   5   6
ENDBRANCH   1   5
TORSDOF 3
ENDMDL
MODEL 8
REMARK VINA RESULT:    -3.159     11.731     12.484
REMARK INTER + INTRA:          -3.804
REMARK INTER:                  -3.770
REMARK INTRA:                  -0.034
REMARK UNBOUND:                -0.090
REMARK SMILES O=C([O-])CCC(=O)[O-]
REMARK SMILES IDX 4 1 2 2 1 3 3 4 5 5 6 6 7 7 8 8
REMARK H PARENT
REMARK Flexibility Score: inf
ROOT
ATOM      1  C   UNL     1       9.032  14.956  23.795  1.00  0.00     0.059 C 
ENDROOT
BRANCH   1   2
ATOM      2  C   UNL     1      10.439  14.510  24.037  1.00  0.00     0.042 C 
ATOM      3  O   UNL     1      11.269  14.489  23.091  1.00  0.00    -0.550 OA
ATOM      4  O   UNL     1      10.847  14.162  25.319  1.00  0.00    -0.550 OA
ENDBRANCH   1   2
BRANCH   1   5
ATOM      5  C   UNL     1       8.148  14.614  24.997  1.00  0.00     0.059 C 
BRANCH   5   6
ATOM      6  C   UNL     1       6.703  14.745  24.637  1.00  0.00     0.042 C 
ATOM      7  O   UNL     1       6.157  13.895  23.884  1.00  0.00    -0.550 OA
ATOM      8  O   UNL     1       5.943  15.778  25.172  1.00  0.00    -0.550 OA
ENDBRANCH   5   6
ENDBRANCH   1   5
TORSDOF 3
ENDMDL
