MODEL 1
REMARK VINA RESULT:    -4.705      0.000      0.000
REMARK INTER + INTRA:          -9.706
REMARK INTER:                  -8.830
REMARK INTRA:                  -0.876
REMARK UNBOUND:                -0.876
REMARK SMILES O=C([O-])CCCCCCCCCCCCCCC(=O)[O-]
REMARK SMILES IDX 10 1 9 2 8 3 7 4 6 5 5 6 4 7 2 8 1 9 3 10 11 11 12 12 13 13
REMARK SMILES IDX 14 14 15 15 16 16 17 17 18 18 19 19 20 20
REMARK H PARENT
REMARK Flexibility Score: inf
ROOT
ATOM      1  C   UNL     1      39.713  -6.630   7.648  1.00  0.00     0.000 C 
ENDROOT
BRANCH   1   2
ATOM      2  C   UNL     1      39.250  -6.386   9.097  1.00  0.00     0.000 C 
BRANCH   2   3
ATOM      3  C   UNL     1      40.032  -7.161  10.176  1.00  0.00     0.000 C 
BRANCH   3   4
ATOM      4  C   UNL     1      39.131  -7.888  11.197  1.00  0.00     0.000 C 
BRANCH   4   5
ATOM      5  C   UNL     1      37.727  -8.174  10.642  1.00  0.00     0.000 C 
BRANCH   5   6
ATOM      6  C   UNL     1      36.751  -8.533  11.768  1.00  0.00     0.006 C 
BRANCH   6   7
ATOM      7  C   UNL     1      36.023  -7.287  12.281  1.00  0.00     0.053 C 
BRANCH   7   8
ATOM      8  C   UNL     1      36.262  -7.106  13.747  1.00  0.00     0.041 C 
ATOM      9  O   UNL     1      37.024  -6.193  14.157  1.00  0.00    -0.550 OA
ATOM     10  O   UNL     1      35.604  -7.918  14.664  1.00  0.00    -0.550 OA
ENDBRANCH   7   8
ENDBRANCH   6   7
ENDBRANCH   5   6
ENDBRANCH   4   5
ENDBRANCH   3   4
ENDBRANCH   2   3
ENDBRANCH   1   2
BRANCH   1  11
ATOM     11  C   UNL     1      41.023  -7.427   7.506  1.00  0.00     0.000 C 
BRANCH  11  12
ATOM     12  C   UNL     1      41.563  -7.436   6.066  1.00  0.00     0.000 C 
BRANCH  12  13
ATOM     13  C   UNL     1      40.677  -6.641   5.089  1.00  0.00     0.000 C 
BRANCH  13  14
ATOM     14  C   UNL     1      40.861  -6.994   3.601  1.00  0.00     0.000 C 
BRANCH  14  15
ATOM     15  C   UNL     1      40.764  -5.769   2.677  1.00  0.00     0.000 C 
BRANCH  15  16
ATOM     16  C   UNL     1      40.895  -4.438   3.445  1.00  0.00     0.006 C 
BRANCH  16  17
ATOM     17  C   UNL     1      40.813  -3.196   2.543  1.00  0.00     0.053 C 
BRANCH  17  18
ATOM     18  C   UNL     1      39.416  -2.911   2.089  1.00  0.00     0.041 C 
ATOM     19  O   UNL     1      38.665  -2.168   2.776  1.00  0.00    -0.550 OA
ATOM     20  O   UNL     1      38.933  -3.485   0.919  1.00  0.00    -0.550 OA
ENDBRANCH  17  18
ENDBRANCH  16  17
ENDBRANCH  15  16
ENDBRANCH  14  15
ENDBRANCH  13  14
ENDBRANCH  12  13
ENDBRANCH  11  12
ENDBRANCH   1  11
TORSDOF 15
ENDMDL
MODEL 2
REMARK VINA RESULT:    -4.700      1.105      9.772
REMARK INTER + INTRA:          -9.698
REMARK INTER:                  -8.707
REMARK INTRA:                  -0.991
REMARK UNBOUND:                -0.876
REMARK SMILES O=C([O-])CCCCCCCCCCCCCCC(=O)[O-]
REMARK SMILES IDX 10 1 9 2 8 3 7 4 6 5 5 6 4 7 2 8 1 9 3 10 11 11 12 12 13 13
REMARK SMILES IDX 14 14 15 15 16 16 17 17 18 18 19 19 20 20
REMARK H PARENT
REMARK Flexibility Score: inf
ROOT
ATOM      1  C   UNL     1      39.551  -6.601   7.629  1.00  0.00     0.000 C 
ENDROOT
BRANCH   1   2
ATOM      2  C   UNL     1      40.849  -7.418   7.485  1.00  0.00     0.000 C 
BRANCH   2   3
ATOM      3  C   UNL     1      41.431  -7.481   6.059  1.00  0.00     0.000 C 
BRANCH   3   4
ATOM      4  C   UNL     1      40.713  -6.559   5.050  1.00  0.00     0.000 C 
BRANCH   4   5
ATOM      5  C   UNL     1      41.111  -6.858   3.597  1.00  0.00     0.000 C 
BRANCH   5   6
ATOM      6  C   UNL     1      40.577  -5.780   2.646  1.00  0.00     0.006 C 
BRANCH   6   7
ATOM      7  C   UNL     1      41.687  -4.804   2.245  1.00  0.00     0.053 C 
BRANCH   7   8
ATOM      8  C   UNL     1      41.342  -3.413   2.673  1.00  0.00     0.041 C 
ATOM      9  O   UNL     1      41.972  -2.430   2.203  1.00  0.00    -0.550 OA
ATOM     10  O   UNL     1      40.291  -3.198   3.558  1.00  0.00    -0.550 OA
ENDBRANCH   7   8
ENDBRANCH   6   7
ENDBRANCH   5   6
ENDBRANCH   4   5
ENDBRANCH   3   4
ENDBRANCH   2   3
ENDBRANCH   1   2
BRANCH   1  11
ATOM     11  C   UNL     1      39.047  -6.424   9.074  1.00  0.00     0.000 C 
BRANCH  11  12
ATOM     12  C   UNL     1      40.012  -7.010  10.118  1.00  0.00     0.000 C 
BRANCH  12  13
ATOM     13  C   UNL     1      39.346  -8.057  11.029  1.00  0.00     0.000 C 
BRANCH  13  14
ATOM     14  C   UNL     1      38.226  -8.884  10.370  1.00  0.00     0.000 C 
BRANCH  14  15
ATOM     15  C   UNL     1      36.859  -8.691  11.047  1.00  0.00     0.000 C 
BRANCH  15  16
ATOM     16  C   UNL     1      36.829  -7.460  11.977  1.00  0.00     0.006 C 
BRANCH  16  17
ATOM     17  C   UNL     1      35.444  -7.180  12.582  1.00  0.00     0.053 C 
BRANCH  17  18
ATOM     18  C   UNL     1      35.506  -6.920  14.054  1.00  0.00     0.041 C 
ATOM     19  O   UNL     1      36.423  -6.202  14.533  1.00  0.00    -0.550 OA
ATOM     20  O   UNL     1      34.564  -7.490  14.903  1.00  0.00    -0.550 OA
ENDBRANCH  17  18
ENDBRANCH  16  17
ENDBRANCH  15  16
ENDBRANCH  14  15
ENDBRANCH  13  14
ENDBRANCH  12  13
ENDBRANCH  11  12
ENDBRANCH   1  11
TORSDOF 15
ENDMDL
MODEL 3
REMARK VINA RESULT:    -4.664      5.024     12.338
REMARK INTER + INTRA:          -9.630
REMARK INTER:                  -8.426
REMARK INTRA:                  -1.204
REMARK UNBOUND:                -0.876
REMARK SMILES O=C([O-])CCCCCCCCCCCCCCC(=O)[O-]
REMARK SMILES IDX 10 1 9 2 8 3 7 4 6 5 5 6 4 7 2 8 1 9 3 10 11 11 12 12 13 13
REMARK SMILES IDX 14 14 15 15 16 16 17 17 18 18 19 19 20 20
REMARK H PARENT
REMARK Flexibility Score: inf
ROOT
ATOM      1  C   UNL     1      34.226  -8.354  14.844  1.00  0.00     0.000 C 
ENDROOT
BRANCH   1   2
ATOM      2  C   UNL     1      34.800  -7.394  13.785  1.00  0.00     0.000 C 
BRANCH   2   3
ATOM      3  C   UNL     1      35.950  -6.490  14.272  1.00  0.00     0.000 C 
BRANCH   3   4
ATOM      4  C   UNL     1      37.225  -6.582  13.407  1.00  0.00     0.000 C 
BRANCH   4   5
ATOM      5  C   UNL     1      37.292  -7.886  12.599  1.00  0.00     0.000 C 
BRANCH   5   6
ATOM      6  C   UNL     1      38.514  -7.898  11.672  1.00  0.00     0.006 C 
BRANCH   6   7
ATOM      7  C   UNL     1      38.141  -7.421  10.266  1.00  0.00     0.053 C 
BRANCH   7   8
ATOM      8  C   UNL     1      39.295  -6.713   9.629  1.00  0.00     0.041 C 
ATOM      9  O   UNL     1      40.418  -6.694  10.197  1.00  0.00    -0.550 OA
ATOM     10  O   UNL     1      39.143  -6.115   8.384  1.00  0.00    -0.550 OA
ENDBRANCH   7   8
ENDBRANCH   6   7
ENDBRANCH   5   6
ENDBRANCH   4   5
ENDBRANCH   3   4
ENDBRANCH   2   3
ENDBRANCH   1   2
BRANCH   1  11
ATOM     11  C   UNL     1      32.690  -8.477  14.849  1.00  0.00     0.000 C 
BRANCH  11  12
ATOM     12  C   UNL     1      32.048  -7.872  16.109  1.00  0.00     0.000 C 
BRANCH  12  13
ATOM     13  C   UNL     1      31.670  -8.934  17.158  1.00  0.00     0.000 C 
BRANCH  13  14
ATOM     14  C   UNL     1      32.800  -9.332  18.126  1.00  0.00     0.000 C 
BRANCH  14  15
ATOM     15  C   UNL     1      33.186  -8.201  19.095  1.00  0.00     0.000 C 
BRANCH  15  16
ATOM     16  C   UNL     1      34.628  -7.700  18.873  1.00  0.00     0.006 C 
BRANCH  16  17
ATOM     17  C   UNL     1      34.704  -6.286  18.277  1.00  0.00     0.053 C 
BRANCH  17  18
ATOM     18  C   UNL     1      34.947  -5.239  19.319  1.00  0.00     0.041 C 
ATOM     19  O   UNL     1      35.072  -5.566  20.529  1.00  0.00    -0.550 OA
ATOM     20  O   UNL     1      35.014  -3.899  18.958  1.00  0.00    -0.550 OA
ENDBRANCH  17  18
ENDBRANCH  16  17
ENDBRANCH  15  16
ENDBRANCH  14  15
ENDBRANCH  13  14
ENDBRANCH  12  13
ENDBRANCH  11  12
ENDBRANCH   1  11
TORSDOF 15
ENDMDL
MODEL 4
REMARK VINA RESULT:    -4.647      4.442      6.694
REMARK INTER + INTRA:          -9.599
REMARK INTER:                  -8.595
REMARK INTRA:                  -1.004
REMARK UNBOUND:                -0.876
REMARK SMILES O=C([O-])CCCCCCCCCCCCCCC(=O)[O-]
REMARK SMILES IDX 10 1 9 2 8 3 7 4 6 5 5 6 4 7 2 8 1 9 3 10 11 11 12 12 13 13
REMARK SMILES IDX 14 14 15 15 16 16 17 17 18 18 19 19 20 20
REMARK H PARENT
REMARK Flexibility Score: inf
ROOT
ATOM      1  C   UNL     1      36.834  -6.628  13.239  1.00  0.00     0.000 C 
ENDROOT
BRANCH   1   2
ATOM      2  C   UNL     1      35.327  -6.752  12.947  1.00  0.00     0.000 C 
BRANCH   2   3
ATOM      3  C   UNL     1      34.534  -7.622  13.943  1.00  0.00     0.000 C 
BRANCH   3   4
ATOM      4  C   UNL     1      34.982  -7.455  15.411  1.00  0.00     0.000 C 
BRANCH   4   5
ATOM      5  C   UNL     1      33.797  -7.470  16.390  1.00  0.00     0.000 C 
BRANCH   5   6
ATOM      6  C   UNL     1      32.479  -7.743  15.655  1.00  0.00     0.006 C 
BRANCH   6   7
ATOM      7  C   UNL     1      31.710  -8.890  16.317  1.00  0.00     0.053 C 
BRANCH   7   8
ATOM      8  C   UNL     1      31.466  -9.993  15.336  1.00  0.00     0.041 C 
ATOM      9  O   UNL     1      30.307 -10.459  15.181  1.00  0.00    -0.550 OA
ATOM     10  O   UNL     1      32.512 -10.475  14.557  1.00  0.00    -0.550 OA
ENDBRANCH   7   8
ENDBRANCH   6   7
ENDBRANCH   5   6
ENDBRANCH   4   5
ENDBRANCH   3   4
ENDBRANCH   2   3
ENDBRANCH   1   2
BRANCH   1  11
ATOM     11  C   UNL     1      37.745  -7.500  12.353  1.00  0.00     0.000 C 
BRANCH  11  12
ATOM     12  C   UNL     1      37.104  -7.851  11.001  1.00  0.00     0.000 C 
BRANCH  12  13
ATOM     13  C   UNL     1      38.127  -7.929   9.853  1.00  0.00     0.000 C 
BRANCH  13  14
ATOM     14  C   UNL     1      38.583  -6.571   9.287  1.00  0.00     0.000 C 
BRANCH  14  15
ATOM     15  C   UNL     1      40.085  -6.310   9.489  1.00  0.00     0.000 C 
BRANCH  15  16
ATOM     16  C   UNL     1      40.951  -7.535   9.128  1.00  0.00     0.006 C 
BRANCH  16  17
ATOM     17  C   UNL     1      41.175  -7.705   7.617  1.00  0.00     0.053 C 
BRANCH  17  18
ATOM     18  C   UNL     1      42.539  -8.230   7.298  1.00  0.00     0.041 C 
ATOM     19  O   UNL     1      42.770  -9.468   7.347  1.00  0.00    -0.550 OA
ATOM     20  O   UNL     1      43.565  -7.352   6.968  1.00  0.00    -0.550 OA
ENDBRANCH  17  18
ENDBRANCH  16  17
ENDBRANCH  15  16
ENDBRANCH  14  15
ENDBRANCH  13  14
ENDBRANCH  12  13
ENDBRANCH  11  12
ENDBRANCH   1  11
TORSDOF 15
ENDMDL
MODEL 5
REMARK VINA RESULT:    -4.644      3.724      4.979
REMARK INTER + INTRA:          -9.593
REMARK INTER:                  -8.188
REMARK INTRA:                  -1.404
REMARK UNBOUND:                -0.876
REMARK SMILES O=C([O-])CCCCCCCCCCCCCCC(=O)[O-]
REMARK SMILES IDX 10 1 9 2 8 3 7 4 6 5 5 6 4 7 2 8 1 9 3 10 11 11 12 12 13 13
REMARK SMILES IDX 14 14 15 15 16 16 17 17 18 18 19 19 20 20
REMARK H PARENT
REMARK Flexibility Score: inf
ROOT
ATOM      1  C   UNL     1      41.330  -7.596   7.301  1.00  0.00     0.000 C 
ENDROOT
BRANCH   1   2
ATOM      2  C   UNL     1      39.992  -7.803   8.036  1.00  0.00     0.000 C 
BRANCH   2   3
ATOM      3  C   UNL     1      39.206  -6.515   8.346  1.00  0.00     0.000 C 
BRANCH   3   4
ATOM      4  C   UNL     1      38.374  -6.589   9.644  1.00  0.00     0.000 C 
BRANCH   4   5
ATOM      5  C   UNL     1      39.079  -7.393  10.747  1.00  0.00     0.000 C 
BRANCH   5   6
ATOM      6  C   UNL     1      38.147  -8.463  11.330  1.00  0.00     0.006 C 
BRANCH   6   7
ATOM      7  C   UNL     1      36.680  -8.050  11.185  1.00  0.00     0.053 C 
BRANCH   7   8
ATOM      8  C   UNL     1      36.124  -7.617  12.505  1.00  0.00     0.041 C 
ATOM      9  O   UNL     1      35.136  -6.838  12.552  1.00  0.00    -0.550 OA
ATOM     10  O   UNL     1      36.667  -8.112  13.685  1.00  0.00    -0.550 OA
ENDBRANCH   7   8
ENDBRANCH   6   7
ENDBRANCH   5   6
ENDBRANCH   4   5
ENDBRANCH   3   4
ENDBRANCH   2   3
ENDBRANCH   1   2
BRANCH   1  11
ATOM     11  C   UNL     1      42.555  -8.237   7.981  1.00  0.00     0.000 C 
BRANCH  11  12
ATOM     12  C   UNL     1      42.399  -9.753   8.184  1.00  0.00     0.000 C 
BRANCH  12  13
ATOM     13  C   UNL     1      43.748 -10.481   8.332  1.00  0.00     0.000 C 
BRANCH  13  14
ATOM     14  C   UNL     1      44.942  -9.795   7.642  1.00  0.00     0.000 C 
BRANCH  14  15
ATOM     15  C   UNL     1      45.675 -10.718   6.654  1.00  0.00     0.000 C 
BRANCH  15  16
ATOM     16  C   UNL     1      45.417 -10.333   5.182  1.00  0.00     0.006 C 
BRANCH  16  17
ATOM     17  C   UNL     1      44.571  -9.060   5.020  1.00  0.00     0.053 C 
BRANCH  17  18
ATOM     18  C   UNL     1      43.228  -9.340   4.423  1.00  0.00     0.041 C 
ATOM     19  O   UNL     1      42.686  -8.498   3.658  1.00  0.00    -0.550 OA
ATOM     20  O   UNL     1      42.560 -10.520   4.730  1.00  0.00    -0.550 OA
ENDBRANCH  17  18
ENDBRANCH  16  17
ENDBRANCH  15  16
ENDBRANCH  14  15
ENDBRANCH  13  14
ENDBRANCH  12  13
ENDBRANCH  11  12
ENDBRANCH   1  11
TORSDOF 15
ENDMDL
MODEL 6
REMARK VINA RESULT:    -4.638      4.082      9.265
REMARK INTER + INTRA:          -9.582
REMARK INTER:                  -7.728
REMARK INTRA:                  -1.854
REMARK UNBOUND:                -0.876
REMARK SMILES O=C([O-])CCCCCCCCCCCCCCC(=O)[O-]
REMARK SMILES IDX 10 1 9 2 8 3 7 4 6 5 5 6 4 7 2 8 1 9 3 10 11 11 12 12 13 13
REMARK SMILES IDX 14 14 15 15 16 16 17 17 18 18 19 19 20 20
REMARK H PARENT
REMARK Flexibility Score: inf
ROOT
ATOM      1  C   UNL     1      38.074  -8.175   9.927  1.00  0.00     0.000 C 
ENDROOT
BRANCH   1   2
ATOM      2  C   UNL     1      39.109  -7.297  10.655  1.00  0.00     0.000 C 
BRANCH   2   3
ATOM      3  C   UNL     1      40.198  -6.682   9.755  1.00  0.00     0.000 C 
BRANCH   3   4
ATOM      4  C   UNL     1      39.866  -6.736   8.248  1.00  0.00     0.000 C 
BRANCH   4   5
ATOM      5  C   UNL     1      40.943  -7.473   7.437  1.00  0.00     0.000 C 
BRANCH   5   6
ATOM      6  C   UNL     1      41.636  -8.545   8.287  1.00  0.00     0.006 C 
BRANCH   6   7
ATOM      7  C   UNL     1      42.409  -9.529   7.405  1.00  0.00     0.053 C 
BRANCH   7   8
ATOM      8  C   UNL     1      43.802  -9.037   7.166  1.00  0.00     0.041 C 
ATOM      9  O   UNL     1      44.690  -9.199   8.044  1.00  0.00    -0.550 OA
ATOM     10  O   UNL     1      44.131  -8.441   5.955  1.00  0.00    -0.550 OA
ENDBRANCH   7   8
ENDBRANCH   6   7
ENDBRANCH   5   6
ENDBRANCH   4   5
ENDBRANCH   3   4
ENDBRANCH   2   3
ENDBRANCH   1   2
BRANCH   1  11
ATOM     11  C   UNL     1      38.330  -9.692  10.010  1.00  0.00     0.000 C 
BRANCH  11  12
ATOM     12  C   UNL     1      39.477 -10.052  10.968  1.00  0.00     0.000 C 
BRANCH  12  13
ATOM     13  C   UNL     1      38.981 -10.519  12.349  1.00  0.00     0.000 C 
BRANCH  13  14
ATOM     14  C   UNL     1      37.455 -10.680  12.479  1.00  0.00     0.000 C 
BRANCH  14  15
ATOM     15  C   UNL     1      36.858  -9.836  13.618  1.00  0.00     0.000 C 
BRANCH  15  16
ATOM     16  C   UNL     1      35.531  -9.157  13.217  1.00  0.00     0.006 C 
BRANCH  16  17
ATOM     17  C   UNL     1      35.691  -7.679  12.826  1.00  0.00     0.053 C 
BRANCH  17  18
ATOM     18  C   UNL     1      36.278  -6.856  13.928  1.00  0.00     0.041 C 
ATOM     19  O   UNL     1      37.371  -6.254  13.757  1.00  0.00    -0.550 OA
ATOM     20  O   UNL     1      35.631  -6.771  15.155  1.00  0.00    -0.550 OA
ENDBRANCH  17  18
ENDBRANCH  16  17
ENDBRANCH  15  16
ENDBRANCH  14  15
ENDBRANCH  13  14
ENDBRANCH  12  13
ENDBRANCH  11  12
ENDBRANCH   1  11
TORSDOF 15
ENDMDL
MODEL 7
REMARK VINA RESULT:    -4.606      4.270      9.292
REMARK INTER + INTRA:          -9.520
REMARK INTER:                  -7.900
REMARK INTRA:                  -1.621
REMARK UNBOUND:                -0.876
REMARK SMILES O=C([O-])CCCCCCCCCCCCCCC(=O)[O-]
REMARK SMILES IDX 10 1 9 2 8 3 7 4 6 5 5 6 4 7 2 8 1 9 3 10 11 11 12 12 13 13
REMARK SMILES IDX 14 14 15 15 16 16 17 17 18 18 19 19 20 20
REMARK H PARENT
REMARK Flexibility Score: inf
ROOT
ATOM      1  C   UNL     1      40.963  -7.492   9.049  1.00  0.00     0.000 C 
ENDROOT
BRANCH   1   2
ATOM      2  C   UNL     1      40.447  -8.855   8.551  1.00  0.00     0.000 C 
BRANCH   2   3
ATOM      3  C   UNL     1      40.622 -10.025   9.539  1.00  0.00     0.000 C 
BRANCH   3   4
ATOM      4  C   UNL     1      41.778 -10.981   9.176  1.00  0.00     0.000 C 
BRANCH   4   5
ATOM      5  C   UNL     1      42.415 -10.642   7.820  1.00  0.00     0.000 C 
BRANCH   5   6
ATOM      6  C   UNL     1      43.906 -10.317   7.976  1.00  0.00     0.006 C 
BRANCH   6   7
ATOM      7  C   UNL     1      44.160  -8.816   7.811  1.00  0.00     0.053 C 
BRANCH   7   8
ATOM      8  C   UNL     1      43.832  -8.379   6.418  1.00  0.00     0.041 C 
ATOM      9  O   UNL     1      44.421  -8.900   5.435  1.00  0.00    -0.550 OA
ATOM     10  O   UNL     1      42.841  -7.429   6.202  1.00  0.00    -0.550 OA
ENDBRANCH   7   8
ENDBRANCH   6   7
ENDBRANCH   5   6
ENDBRANCH   4   5
ENDBRANCH   3   4
ENDBRANCH   2   3
ENDBRANCH   1   2
BRANCH   1  11
ATOM     11  C   UNL     1      39.927  -6.637   9.804  1.00  0.00     0.000 C 
BRANCH  11  12
ATOM     12  C   UNL     1      38.478  -7.048   9.497  1.00  0.00     0.000 C 
BRANCH  12  13
ATOM     13  C   UNL     1      37.663  -7.366  10.765  1.00  0.00     0.000 C 
BRANCH  13  14
ATOM     14  C   UNL     1      38.448  -8.066  11.890  1.00  0.00     0.000 C 
BRANCH  14  15
ATOM     15  C   UNL     1      37.765  -9.351  12.388  1.00  0.00     0.000 C 
BRANCH  15  16
ATOM     16  C   UNL     1      36.226  -9.257  12.346  1.00  0.00     0.006 C 
BRANCH  16  17
ATOM     17  C   UNL     1      35.587  -9.016  13.723  1.00  0.00     0.053 C 
BRANCH  17  18
ATOM     18  C   UNL     1      34.729  -7.791  13.749  1.00  0.00     0.041 C 
ATOM     19  O   UNL     1      33.746  -7.721  14.534  1.00  0.00    -0.550 OA
ATOM     20  O   UNL     1      35.000  -6.732  12.890  1.00  0.00    -0.550 OA
ENDBRANCH  17  18
ENDBRANCH  16  17
ENDBRANCH  15  16
ENDBRANCH  14  15
ENDBRANCH  13  14
ENDBRANCH  12  13
ENDBRANCH  11  12
ENDBRANCH   1  11
TORSDOF 15
ENDMDL
MODEL 8
REMARK VINA RESULT:    -4.568     13.437     14.645
REMARK INTER + INTRA:          -9.449
REMARK INTER:                  -7.866
REMARK INTRA:                  -1.583
REMARK UNBOUND:                -0.876
REMARK SMILES O=C([O-])CCCCCCCCCCCCCCC(=O)[O-]
REMARK SMILES IDX 10 1 9 2 8 3 7 4 6 5 5 6 4 7 2 8 1 9 3 10 11 11 12 12 13 13
REMARK SMILES IDX 14 14 15 15 16 16 17 17 18 18 19 19 20 20
REMARK H PARENT
REMARK Flexibility Score: inf
ROOT
ATOM      1  C   UNL     1      37.768   6.668  11.326  1.00  0.00     0.000 C 
ENDROOT
BRANCH   1   2
ATOM      2  C   UNL     1      39.136   6.889  11.998  1.00  0.00     0.000 C 
BRANCH   2   3
ATOM      3  C   UNL     1      39.464   8.351  12.358  1.00  0.00     0.000 C 
BRANCH   3   4
ATOM      4  C   UNL     1      39.724   8.580  13.862  1.00  0.00     0.000 C 
BRANCH   4   5
ATOM      5  C   UNL     1      39.865   7.263  14.640  1.00  0.00     0.000 C 
BRANCH   5   6
ATOM      6  C   UNL     1      39.160   7.347  15.999  1.00  0.00     0.006 C 
BRANCH   6   7
ATOM      7  C   UNL     1      37.639   7.283  15.833  1.00  0.00     0.053 C 
BRANCH   7   8
ATOM      8  C   UNL     1      37.003   6.686  17.048  1.00  0.00     0.041 C 
ATOM      9  O   UNL     1      36.193   7.360  17.736  1.00  0.00    -0.550 OA
ATOM     10  O   UNL     1      37.269   5.367  17.395  1.00  0.00    -0.550 OA
ENDBRANCH   7   8
ENDBRANCH   6   7
ENDBRANCH   5   6
ENDBRANCH   4   5
ENDBRANCH   3   4
ENDBRANCH   2   3
ENDBRANCH   1   2
BRANCH   1  11
ATOM     11  C   UNL     1      36.551   7.103  12.164  1.00  0.00     0.000 C 
BRANCH  11  12
ATOM     12  C   UNL     1      35.813   8.311  11.563  1.00  0.00     0.000 C 
BRANCH  12  13
ATOM     13  C   UNL     1      36.391   8.752  10.205  1.00  0.00     0.000 C 
BRANCH  13  14
ATOM     14  C   UNL     1      35.429   8.623   9.009  1.00  0.00     0.000 C 
BRANCH  14  15
ATOM     15  C   UNL     1      35.928   7.635   7.941  1.00  0.00     0.000 C 
BRANCH  15  16
ATOM     16  C   UNL     1      37.467   7.545   7.893  1.00  0.00     0.006 C 
BRANCH  16  17
ATOM     17  C   UNL     1      38.077   8.118   6.604  1.00  0.00     0.053 C 
BRANCH  17  18
ATOM     18  C   UNL     1      37.822   7.248   5.415  1.00  0.00     0.041 C 
ATOM     19  O   UNL     1      38.073   6.014   5.466  1.00  0.00    -0.550 OA
ATOM     20  O   UNL     1      37.327   7.801   4.239  1.00  0.00    -0.550 OA
ENDBRANCH  17  18
ENDBRANCH  16  17
ENDBRANCH  15  16
ENDBRANCH  14  15
ENDBRANCH  13  14
ENDBRANCH  12  13
ENDBRANCH  11  12
ENDBRANCH   1  11
TORSDOF 15
ENDMDL
MODEL 9
REMARK VINA RESULT:    -4.540      2.831      4.005
REMARK INTER + INTRA:          -9.398
REMARK INTER:                  -7.650
REMARK INTRA:                  -1.748
REMARK UNBOUND:                -0.876
REMARK SMILES O=C([O-])CCCCCCCCCCCCCCC(=O)[O-]
REMARK SMILES IDX 10 1 9 2 8 3 7 4 6 5 5 6 4 7 2 8 1 9 3 10 11 11 12 12 13 13
REMARK SMILES IDX 14 14 15 15 16 16 17 17 18 18 19 19 20 20
REMARK H PARENT
REMARK Flexibility Score: inf
ROOT
ATOM      1  C   UNL     1      43.708  -8.025   7.613  1.00  0.00     0.000 C 
ENDROOT
BRANCH   1   2
ATOM      2  C   UNL     1      42.182  -7.856   7.501  1.00  0.00     0.000 C 
BRANCH   2   3
ATOM      3  C   UNL     1      41.349  -9.054   7.997  1.00  0.00     0.000 C 
BRANCH   3   4
ATOM      4  C   UNL     1      40.115  -8.653   8.833  1.00  0.00     0.000 C 
BRANCH   4   5
ATOM      5  C   UNL     1      39.493  -7.329   8.363  1.00  0.00     0.000 C 
BRANCH   5   6
ATOM      6  C   UNL     1      38.748  -6.633   9.508  1.00  0.00     0.006 C 
BRANCH   6   7
ATOM      7  C   UNL     1      38.961  -7.374  10.832  1.00  0.00     0.053 C 
BRANCH   7   8
ATOM      8  C   UNL     1      37.652  -7.824  11.398  1.00  0.00     0.041 C 
ATOM      9  O   UNL     1      36.599  -7.728  10.714  1.00  0.00    -0.550 OA
ATOM     10  O   UNL     1      37.600  -8.395  12.664  1.00  0.00    -0.550 OA
ENDBRANCH   7   8
ENDBRANCH   6   7
ENDBRANCH   5   6
ENDBRANCH   4   5
ENDBRANCH   3   4
ENDBRANCH   2   3
ENDBRANCH   1   2
BRANCH   1  11
ATOM     11  C   UNL     1      44.193  -9.477   7.797  1.00  0.00     0.000 C 
BRANCH  11  12
ATOM     12  C   UNL     1      45.099  -9.952   6.649  1.00  0.00     0.000 C 
BRANCH  12  13
ATOM     13  C   UNL     1      44.385  -9.961   5.285  1.00  0.00     0.000 C 
BRANCH  13  14
ATOM     14  C   UNL     1      43.148 -10.874   5.197  1.00  0.00     0.000 C 
BRANCH  14  15
ATOM     15  C   UNL     1      42.004 -10.257   4.374  1.00  0.00     0.000 C 
BRANCH  15  16
ATOM     16  C   UNL     1      42.280  -8.790   3.987  1.00  0.00     0.006 C 
BRANCH  16  17
ATOM     17  C   UNL     1      41.083  -8.094   3.318  1.00  0.00     0.053 C 
BRANCH  17  18
ATOM     18  C   UNL     1      40.989  -6.646   3.680  1.00  0.00     0.041 C 
ATOM     19  O   UNL     1      40.609  -6.303   4.831  1.00  0.00    -0.550 OA
ATOM     20  O   UNL     1      41.298  -5.671   2.738  1.00  0.00    -0.550 OA
ENDBRANCH  17  18
ENDBRANCH  16  17
ENDBRANCH  15  16
ENDBRANCH  14  15
ENDBRANCH  13  14
ENDBRANCH  12  13
ENDBRANCH  11  12
ENDBRANCH   1  11
TORSDOF 15
ENDMDL
