MODEL 1
REMARK VINA RESULT:    -6.117      0.000      0.000
REMARK INTER + INTRA:          -7.730
REMARK INTER:                  -7.368
REMARK INTRA:                  -0.362
REMARK UNBOUND:                -0.362
REMARK SMILES Oc1cc(O)c2c(c1)O[C@H](c1ccc(O)c(O)c1)[C@@H](O)C2
REMARK SMILES IDX 21 1 19 2 10 3 9 4 7 5 8 6 2 7 3 8 4 9 6 10 20 11 11 13
REMARK SMILES IDX 18 14 12 15 16 16 13 17 14 18 17 19 15 21 5 23 1 25
REMARK H PARENT 20 12 17 20 15 22 5 24 1 26
REMARK Flexibility Score: inf
ROOT
ATOM      1  C   UNL     1      11.630  -8.276 -11.280  1.00  0.00     0.079 C 
ATOM      2  C   UNL     1      10.764  -7.907 -10.061  1.00  0.00     0.164 C 
ATOM      3  C   UNL     1      10.378  -6.419 -10.126  1.00  0.00     0.232 C 
ATOM      4  O   UNL     1      11.556  -5.617 -10.202  1.00  0.00    -0.482 OA
ATOM      5  C   UNL     1      12.671  -5.996 -10.957  1.00  0.00     0.131 A 
ATOM      6  C   UNL     1      13.710  -5.080 -11.141  1.00  0.00     0.093 A 
ATOM      7  C   UNL     1      14.829  -5.427 -11.905  1.00  0.00     0.122 A 
ATOM      8  C   UNL     1      14.902  -6.690 -12.494  1.00  0.00     0.092 A 
ATOM      9  C   UNL     1      13.871  -7.621 -12.322  1.00  0.00     0.126 A 
ATOM     10  C   UNL     1      12.756  -7.291 -11.513  1.00  0.00     0.039 A 
ENDROOT
BRANCH   2  11
ATOM     11  O   UNL     1       9.603  -8.697 -10.044  1.00  0.00    -0.389 OA
ATOM     12  H   UNL     1       9.174  -8.593 -10.933  1.00  0.00     0.211 HD
ENDBRANCH   2  11
BRANCH   3  13
ATOM     13  C   UNL     1       9.566  -6.013  -8.918  1.00  0.00    -0.001 A 
ATOM     14  C   UNL     1       8.272  -5.492  -9.079  1.00  0.00     0.057 A 
ATOM     15  C   UNL     1      10.074  -6.196  -7.621  1.00  0.00     0.012 A 
ATOM     16  C   UNL     1       7.501  -5.139  -7.960  1.00  0.00     0.157 A 
ATOM     17  C   UNL     1       9.309  -5.844  -6.506  1.00  0.00     0.050 A 
ATOM     18  C   UNL     1       8.025  -5.315  -6.668  1.00  0.00     0.157 A 
BRANCH  16  19
ATOM     19  O   UNL     1       6.219  -4.618  -8.129  1.00  0.00    -0.504 OA
ATOM     20  H   UNL     1       6.032  -3.872  -8.788  1.00  0.00     0.293 HD
ENDBRANCH  16  19
BRANCH  18  21
ATOM     21  O   UNL     1       7.286  -4.973  -5.537  1.00  0.00    -0.504 OA
ATOM     22  H   UNL     1       7.605  -4.273  -4.877  1.00  0.00     0.293 HD
ENDBRANCH  18  21
ENDBRANCH   3  13
BRANCH   9  23
ATOM     23  O   UNL     1      13.981  -8.852 -12.973  1.00  0.00    -0.507 OA
ATOM     24  H   UNL     1      14.328  -8.951 -13.918  1.00  0.00     0.293 HD
ENDBRANCH   9  23
BRANCH   7  25
ATOM     25  O   UNL     1      15.870  -4.520 -12.091  1.00  0.00    -0.508 OA
ATOM     26  H   UNL     1      16.142  -4.208 -13.017  1.00  0.00     0.293 HD
ENDBRANCH   7  25
TORSDOF 6
ENDMDL
MODEL 2
REMARK VINA RESULT:    -5.780     13.672     15.392
REMARK INTER + INTRA:          -7.325
REMARK INTER:                  -6.963
REMARK INTRA:                  -0.362
REMARK UNBOUND:                -0.362
REMARK SMILES Oc1cc(O)c2c(c1)O[C@H](c1ccc(O)c(O)c1)[C@@H](O)C2
REMARK SMILES IDX 21 1 19 2 10 3 9 4 7 5 8 6 2 7 3 8 4 9 6 10 20 11 11 13
REMARK SMILES IDX 18 14 12 15 16 16 13 17 14 18 17 19 15 21 5 23 1 25
REMARK H PARENT 20 12 17 20 15 22 5 24 1 26
REMARK Flexibility Score: inf
ROOT
ATOM      1  C   UNL     1       9.218   2.534 -20.497  1.00  0.00     0.079 C 
ATOM      2  C   UNL     1      10.446   3.461 -20.415  1.00  0.00     0.164 C 
ATOM      3  C   UNL     1      10.750   3.795 -18.945  1.00  0.00     0.232 C 
ATOM      4  O   UNL     1       9.601   4.382 -18.334  1.00  0.00    -0.482 OA
ATOM      5  C   UNL     1       8.302   3.941 -18.608  1.00  0.00     0.131 A 
ATOM      6  C   UNL     1       7.243   4.427 -17.837  1.00  0.00     0.093 A 
ATOM      7  C   UNL     1       5.936   3.991 -18.078  1.00  0.00     0.122 A 
ATOM      8  C   UNL     1       5.692   3.057 -19.087  1.00  0.00     0.092 A 
ATOM      9  C   UNL     1       6.740   2.557 -19.869  1.00  0.00     0.126 A 
ATOM     10  C   UNL     1       8.059   3.029 -19.659  1.00  0.00     0.039 A 
ENDROOT
BRANCH   2  11
ATOM     11  O   UNL     1      11.557   2.831 -20.998  1.00  0.00    -0.389 OA
ATOM     12  H   UNL     1      11.514   1.875 -20.736  1.00  0.00     0.211 HD
ENDBRANCH   2  11
BRANCH   3  13
ATOM     13  C   UNL     1      11.923   4.742 -18.832  1.00  0.00    -0.001 A 
ATOM     14  C   UNL     1      13.125   4.312 -18.247  1.00  0.00     0.057 A 
ATOM     15  C   UNL     1      11.842   6.044 -19.353  1.00  0.00     0.012 A 
ATOM     16  C   UNL     1      14.227   5.177 -18.165  1.00  0.00     0.157 A 
ATOM     17  C   UNL     1      12.937   6.907 -19.270  1.00  0.00     0.050 A 
ATOM     18  C   UNL     1      14.130   6.482 -18.678  1.00  0.00     0.157 A 
BRANCH  16  19
ATOM     19  O   UNL     1      15.415   4.744 -17.578  1.00  0.00    -0.504 OA
ATOM     20  H   UNL     1      16.302   5.184 -17.787  1.00  0.00     0.293 HD
ENDBRANCH  16  19
BRANCH  18  21
ATOM     21  O   UNL     1      15.206   7.365 -18.609  1.00  0.00    -0.504 OA
ATOM     22  H   UNL     1      16.160   7.043 -18.499  1.00  0.00     0.293 HD
ENDBRANCH  18  21
ENDBRANCH   3  13
BRANCH   9  23
ATOM     23  O   UNL     1       6.439   1.592 -20.833  1.00  0.00    -0.507 OA
ATOM     24  H   UNL     1       5.937   1.798 -21.686  1.00  0.00     0.293 HD
ENDBRANCH   9  23
BRANCH   7  25
ATOM     25  O   UNL     1       4.875   4.473 -17.316  1.00  0.00    -0.508 OA
ATOM     26  H   UNL     1       5.028   4.935 -16.426  1.00  0.00     0.293 HD
ENDBRANCH   7  25
TORSDOF 6
ENDMDL
MODEL 3
REMARK VINA RESULT:    -5.754      9.567     12.148
REMARK INTER + INTRA:          -7.293
REMARK INTER:                  -6.939
REMARK INTRA:                  -0.354
REMARK UNBOUND:                -0.362
REMARK SMILES Oc1cc(O)c2c(c1)O[C@H](c1ccc(O)c(O)c1)[C@@H](O)C2
REMARK SMILES IDX 21 1 19 2 10 3 9 4 7 5 8 6 2 7 3 8 4 9 6 10 20 11 11 13
REMARK SMILES IDX 18 14 12 15 16 16 13 17 14 18 17 19 15 21 5 23 1 25
REMARK H PARENT 20 12 17 20 15 22 5 24 1 26
REMARK Flexibility Score: inf
ROOT
ATOM      1  C   UNL     1      23.036  -2.671 -11.784  1.00  0.00     0.079 C 
ATOM      2  C   UNL     1      22.510  -3.044 -10.385  1.00  0.00     0.164 C 
ATOM      3  C   UNL     1      21.464  -2.012  -9.929  1.00  0.00     0.232 C 
ATOM      4  O   UNL     1      22.033  -0.704  -9.950  1.00  0.00    -0.482 OA
ATOM      5  C   UNL     1      22.910  -0.286 -10.957  1.00  0.00     0.131 A 
ATOM      6  C   UNL     1      23.278   1.060 -11.022  1.00  0.00     0.093 A 
ATOM      7  C   UNL     1      24.139   1.508 -12.028  1.00  0.00     0.122 A 
ATOM      8  C   UNL     1      24.624   0.607 -12.978  1.00  0.00     0.092 A 
ATOM      9  C   UNL     1      24.265  -0.745 -12.931  1.00  0.00     0.126 A 
ATOM     10  C   UNL     1      23.429  -1.212 -11.888  1.00  0.00     0.039 A 
ENDROOT
BRANCH   2  11
ATOM     11  O   UNL     1      21.931  -4.322 -10.419  1.00  0.00    -0.389 OA
ATOM     12  H   UNL     1      22.336  -4.799 -11.190  1.00  0.00     0.211 HD
ENDBRANCH   2  11
BRANCH   3  13
ATOM     13  C   UNL     1      20.961  -2.324  -8.538  1.00  0.00    -0.001 A 
ATOM     14  C   UNL     1      19.588  -2.510  -8.308  1.00  0.00     0.057 A 
ATOM     15  C   UNL     1      21.862  -2.479  -7.471  1.00  0.00     0.012 A 
ATOM     16  C   UNL     1      19.118  -2.827  -7.024  1.00  0.00     0.157 A 
ATOM     17  C   UNL     1      21.395  -2.793  -6.193  1.00  0.00     0.050 A 
ATOM     18  C   UNL     1      20.027  -2.967  -5.962  1.00  0.00     0.157 A 
BRANCH  16  19
ATOM     19  O   UNL     1      17.753  -3.005  -6.803  1.00  0.00    -0.504 OA
ATOM     20  H   UNL     1      17.404  -3.445  -5.960  1.00  0.00     0.293 HD
ENDBRANCH  16  19
BRANCH  18  21
ATOM     21  O   UNL     1      19.590  -3.280  -4.675  1.00  0.00    -0.504 OA
ATOM     22  H   UNL     1      18.980  -2.665  -4.150  1.00  0.00     0.293 HD
ENDBRANCH  18  21
ENDBRANCH   3  13
BRANCH   9  23
ATOM     23  O   UNL     1      24.747  -1.588 -13.935  1.00  0.00    -0.507 OA
ATOM     24  H   UNL     1      24.179  -2.292 -14.387  1.00  0.00     0.293 HD
ENDBRANCH   9  23
BRANCH   7  25
ATOM     25  O   UNL     1      24.513   2.848 -12.098  1.00  0.00    -0.508 OA
ATOM     26  H   UNL     1      25.462   3.123 -12.328  1.00  0.00     0.293 HD
ENDBRANCH   7  25
TORSDOF 6
ENDMDL
MODEL 4
REMARK VINA RESULT:    -5.692      8.346     13.086
REMARK INTER + INTRA:          -7.219
REMARK INTER:                  -7.055
REMARK INTRA:                  -0.164
REMARK UNBOUND:                -0.362
REMARK SMILES Oc1cc(O)c2c(c1)O[C@H](c1ccc(O)c(O)c1)[C@@H](O)C2
REMARK SMILES IDX 21 1 19 2 10 3 9 4 7 5 8 6 2 7 3 8 4 9 6 10 20 11 11 13
REMARK SMILES IDX 18 14 12 15 16 16 13 17 14 18 17 19 15 21 5 23 1 25
REMARK H PARENT 20 12 17 20 15 22 5 24 1 26
REMARK Flexibility Score: inf
ROOT
ATOM      1  C   UNL     1      17.518  -2.143 -15.101  1.00  0.00     0.079 C 
ATOM      2  C   UNL     1      18.404  -1.302 -16.039  1.00  0.00     0.164 C 
ATOM      3  C   UNL     1      18.310  -1.848 -17.474  1.00  0.00     0.232 C 
ATOM      4  O   UNL     1      18.678  -3.227 -17.492  1.00  0.00    -0.482 OA
ATOM      5  C   UNL     1      18.311  -4.112 -16.472  1.00  0.00     0.131 A 
ATOM      6  C   UNL     1      18.539  -5.479 -16.646  1.00  0.00     0.093 A 
ATOM      7  C   UNL     1      18.167  -6.388 -15.650  1.00  0.00     0.122 A 
ATOM      8  C   UNL     1      17.556  -5.926 -14.482  1.00  0.00     0.092 A 
ATOM      9  C   UNL     1      17.318  -4.560 -14.292  1.00  0.00     0.126 A 
ATOM     10  C   UNL     1      17.733  -3.632 -15.277  1.00  0.00     0.039 A 
ENDROOT
BRANCH   2  11
ATOM     11  O   UNL     1      17.987   0.038 -16.013  1.00  0.00    -0.389 OA
ATOM     12  H   UNL     1      17.483   0.196 -16.854  1.00  0.00     0.211 HD
ENDBRANCH   2  11
BRANCH   3  13
ATOM     13  C   UNL     1      19.205  -1.072 -18.412  1.00  0.00    -0.001 A 
ATOM     14  C   UNL     1      20.408  -0.517 -17.946  1.00  0.00     0.057 A 
ATOM     15  C   UNL     1      18.871  -0.938 -19.771  1.00  0.00     0.012 A 
ATOM     16  C   UNL     1      21.256   0.182 -18.818  1.00  0.00     0.157 A 
ATOM     17  C   UNL     1      19.714  -0.243 -20.640  1.00  0.00     0.050 A 
ATOM     18  C   UNL     1      20.905   0.320 -20.172  1.00  0.00     0.157 A 
BRANCH  16  19
ATOM     19  O   UNL     1      22.445   0.735 -18.345  1.00  0.00    -0.504 OA
ATOM     20  H   UNL     1      22.524   1.722 -18.132  1.00  0.00     0.293 HD
ENDBRANCH  16  19
BRANCH  18  21
ATOM     21  O   UNL     1      21.726   1.009 -21.064  1.00  0.00    -0.504 OA
ATOM     22  H   UNL     1      22.007   1.969 -20.903  1.00  0.00     0.293 HD
ENDBRANCH  18  21
ENDBRANCH   3  13
BRANCH   9  23
ATOM     23  O   UNL     1      16.663  -4.164 -13.123  1.00  0.00    -0.507 OA
ATOM     24  H   UNL     1      15.664  -4.020 -13.069  1.00  0.00     0.293 HD
ENDBRANCH   9  23
BRANCH   7  25
ATOM     25  O   UNL     1      18.393  -7.752 -15.814  1.00  0.00    -0.508 OA
ATOM     26  H   UNL     1      17.879  -8.444 -15.279  1.00  0.00     0.293 HD
ENDBRANCH   7  25
TORSDOF 6
ENDMDL
MODEL 5
REMARK VINA RESULT:    -5.658      1.601      6.691
REMARK INTER + INTRA:          -7.178
REMARK INTER:                  -7.083
REMARK INTRA:                  -0.094
REMARK UNBOUND:                -0.362
REMARK SMILES Oc1cc(O)c2c(c1)O[C@H](c1ccc(O)c(O)c1)[C@@H](O)C2
REMARK SMILES IDX 21 1 19 2 10 3 9 4 7 5 8 6 2 7 3 8 4 9 6 10 20 11 11 13
REMARK SMILES IDX 18 14 12 15 16 16 13 17 14 18 17 19 15 21 5 23 1 25
REMARK H PARENT 20 12 17 20 15 22 5 24 1 26
REMARK Flexibility Score: inf
ROOT
ATOM      1  C   UNL     1       9.663  -7.892 -10.818  1.00  0.00     0.079 C 
ATOM      2  C   UNL     1      10.842  -7.186 -11.514  1.00  0.00     0.164 C 
ATOM      3  C   UNL     1      12.037  -7.094 -10.551  1.00  0.00     0.232 C 
ATOM      4  O   UNL     1      11.645  -6.418  -9.357  1.00  0.00    -0.482 OA
ATOM      5  C   UNL     1      10.393  -6.613  -8.765  1.00  0.00     0.131 A 
ATOM      6  C   UNL     1      10.148  -6.070  -7.501  1.00  0.00     0.093 A 
ATOM      7  C   UNL     1       8.910  -6.262  -6.879  1.00  0.00     0.122 A 
ATOM      8  C   UNL     1       7.920  -7.009  -7.520  1.00  0.00     0.092 A 
ATOM      9  C   UNL     1       8.148  -7.563  -8.786  1.00  0.00     0.126 A 
ATOM     10  C   UNL     1       9.383  -7.333  -9.439  1.00  0.00     0.039 A 
ENDROOT
BRANCH   2  11
ATOM     11  O   UNL     1      11.213  -7.902 -12.664  1.00  0.00    -0.389 OA
ATOM     12  H   UNL     1      12.170  -7.696 -12.831  1.00  0.00     0.211 HD
ENDBRANCH   2  11
BRANCH   3  13
ATOM     13  C   UNL     1      13.197  -6.365 -11.189  1.00  0.00    -0.001 A 
ATOM     14  C   UNL     1      13.451  -5.021 -10.869  1.00  0.00     0.057 A 
ATOM     15  C   UNL     1      14.063  -7.033 -12.071  1.00  0.00     0.012 A 
ATOM     16  C   UNL     1      14.542  -4.347 -11.437  1.00  0.00     0.157 A 
ATOM     17  C   UNL     1      15.149  -6.363 -12.638  1.00  0.00     0.050 A 
ATOM     18  C   UNL     1      15.394  -5.023 -12.328  1.00  0.00     0.157 A 
BRANCH  16  19
ATOM     19  O   UNL     1      14.783  -3.011 -11.117  1.00  0.00    -0.504 OA
ATOM     20  H   UNL     1      15.590  -2.516 -11.478  1.00  0.00     0.293 HD
ENDBRANCH  16  19
BRANCH  18  21
ATOM     21  O   UNL     1      16.485  -4.379 -12.910  1.00  0.00    -0.504 OA
ATOM     22  H   UNL     1      17.180  -4.881 -13.450  1.00  0.00     0.293 HD
ENDBRANCH  18  21
ENDBRANCH   3  13
BRANCH   9  23
ATOM     23  O   UNL     1       7.136  -8.338  -9.356  1.00  0.00    -0.507 OA
ATOM     24  H   UNL     1       6.464  -7.973 -10.019  1.00  0.00     0.293 HD
ENDBRANCH   9  23
BRANCH   7  25
ATOM     25  O   UNL     1       8.656  -5.722  -5.620  1.00  0.00    -0.508 OA
ATOM     26  H   UNL     1       7.820  -5.959  -5.100  1.00  0.00     0.293 HD
ENDBRANCH   7  25
TORSDOF 6
ENDMDL
MODEL 6
REMARK VINA RESULT:    -5.591      1.306      6.958
REMARK INTER + INTRA:          -7.097
REMARK INTER:                  -6.734
REMARK INTRA:                  -0.363
REMARK UNBOUND:                -0.362
REMARK SMILES Oc1cc(O)c2c(c1)O[C@H](c1ccc(O)c(O)c1)[C@@H](O)C2
REMARK SMILES IDX 21 1 19 2 10 3 9 4 7 5 8 6 2 7 3 8 4 9 6 10 20 11 11 13
REMARK SMILES IDX 18 14 12 15 16 16 13 17 14 18 17 19 15 21 5 23 1 25
REMARK H PARENT 20 12 17 20 15 22 5 24 1 26
REMARK Flexibility Score: inf
ROOT
ATOM      1  C   UNL     1       7.951  -5.873 -10.010  1.00  0.00     0.079 C 
ATOM      2  C   UNL     1       9.226  -6.162 -10.822  1.00  0.00     0.164 C 
ATOM      3  C   UNL     1      10.044  -7.269 -10.134  1.00  0.00     0.232 C 
ATOM      4  O   UNL     1      10.345  -6.886  -8.793  1.00  0.00    -0.482 OA
ATOM      5  C   UNL     1       9.425  -6.208  -7.985  1.00  0.00     0.131 A 
ATOM      6  C   UNL     1       9.714  -6.033  -6.630  1.00  0.00     0.093 A 
ATOM      7  C   UNL     1       8.805  -5.375  -5.794  1.00  0.00     0.122 A 
ATOM      8  C   UNL     1       7.601  -4.899  -6.318  1.00  0.00     0.092 A 
ATOM      9  C   UNL     1       7.295  -5.066  -7.674  1.00  0.00     0.126 A 
ATOM     10  C   UNL     1       8.231  -5.693  -8.532  1.00  0.00     0.039 A 
ENDROOT
BRANCH   2  11
ATOM     11  O   UNL     1       8.882  -6.566 -12.122  1.00  0.00    -0.389 OA
ATOM     12  H   UNL     1       9.620  -7.143 -12.447  1.00  0.00     0.211 HD
ENDBRANCH   2  11
BRANCH   3  13
ATOM     13  C   UNL     1      11.327  -7.545 -10.884  1.00  0.00    -0.001 A 
ATOM     14  C   UNL     1      12.241  -6.508 -11.127  1.00  0.00     0.057 A 
ATOM     15  C   UNL     1      11.643  -8.849 -11.302  1.00  0.00     0.012 A 
ATOM     16  C   UNL     1      13.447  -6.763 -11.798  1.00  0.00     0.157 A 
ATOM     17  C   UNL     1      12.842  -9.104 -11.971  1.00  0.00     0.050 A 
ATOM     18  C   UNL     1      13.747  -8.069 -12.223  1.00  0.00     0.157 A 
BRANCH  16  19
ATOM     19  O   UNL     1      14.347  -5.726 -12.040  1.00  0.00    -0.504 OA
ATOM     20  H   UNL     1      15.339  -5.898 -12.149  1.00  0.00     0.293 HD
ENDBRANCH  16  19
BRANCH  18  21
ATOM     21  O   UNL     1      14.935  -8.354 -12.894  1.00  0.00    -0.504 OA
ATOM     22  H   UNL     1      14.959  -8.547 -13.888  1.00  0.00     0.293 HD
ENDBRANCH  18  21
ENDBRANCH   3  13
BRANCH   9  23
ATOM     23  O   UNL     1       6.056  -4.609  -8.129  1.00  0.00    -0.507 OA
ATOM     24  H   UNL     1       5.343  -5.220  -8.505  1.00  0.00     0.293 HD
ENDBRANCH   9  23
BRANCH   7  25
ATOM     25  O   UNL     1       9.086  -5.194  -4.443  1.00  0.00    -0.508 OA
ATOM     26  H   UNL     1       8.352  -5.205  -3.742  1.00  0.00     0.293 HD
ENDBRANCH   7  25
TORSDOF 6
ENDMDL
MODEL 7
REMARK VINA RESULT:    -5.588     13.126     14.622
REMARK INTER + INTRA:          -7.094
REMARK INTER:                  -6.732
REMARK INTRA:                  -0.361
REMARK UNBOUND:                -0.362
REMARK SMILES Oc1cc(O)c2c(c1)O[C@H](c1ccc(O)c(O)c1)[C@@H](O)C2
REMARK SMILES IDX 21 1 19 2 10 3 9 4 7 5 8 6 2 7 3 8 4 9 6 10 20 11 11 13
REMARK SMILES IDX 18 14 12 15 16 16 13 17 14 18 17 19 15 21 5 23 1 25
REMARK H PARENT 20 12 17 20 15 22 5 24 1 26
REMARK Flexibility Score: inf
ROOT
ATOM      1  C   UNL     1      13.158   3.926 -18.577  1.00  0.00     0.079 C 
ATOM      2  C   UNL     1      11.729   3.394 -18.362  1.00  0.00     0.164 C 
ATOM      3  C   UNL     1      10.764   4.075 -19.348  1.00  0.00     0.232 C 
ATOM      4  O   UNL     1      10.832   5.492 -19.191  1.00  0.00    -0.482 OA
ATOM      5  C   UNL     1      12.037   6.160 -18.948  1.00  0.00     0.131 A 
ATOM      6  C   UNL     1      12.060   7.556 -18.994  1.00  0.00     0.093 A 
ATOM      7  C   UNL     1      13.254   8.250 -18.773  1.00  0.00     0.122 A 
ATOM      8  C   UNL     1      14.429   7.542 -18.514  1.00  0.00     0.092 A 
ATOM      9  C   UNL     1      14.426   6.143 -18.466  1.00  0.00     0.126 A 
ATOM     10  C   UNL     1      13.211   5.438 -18.645  1.00  0.00     0.039 A 
ENDROOT
BRANCH   2  11
ATOM     11  O   UNL     1      11.703   2.004 -18.558  1.00  0.00    -0.389 OA
ATOM     12  H   UNL     1      11.808   1.587 -17.663  1.00  0.00     0.211 HD
ENDBRANCH   2  11
BRANCH   3  13
ATOM     13  C   UNL     1       9.343   3.608 -19.132  1.00  0.00    -0.001 A 
ATOM     14  C   UNL     1       8.635   2.990 -20.176  1.00  0.00     0.057 A 
ATOM     15  C   UNL     1       8.731   3.742 -17.874  1.00  0.00     0.012 A 
ATOM     16  C   UNL     1       7.326   2.529 -19.973  1.00  0.00     0.157 A 
ATOM     17  C   UNL     1       7.427   3.285 -17.672  1.00  0.00     0.050 A 
ATOM     18  C   UNL     1       6.719   2.680 -18.714  1.00  0.00     0.157 A 
BRANCH  16  19
ATOM     19  O   UNL     1       6.628   1.921 -21.016  1.00  0.00    -0.504 OA
ATOM     20  H   UNL     1       6.876   2.082 -21.985  1.00  0.00     0.293 HD
ENDBRANCH  16  19
BRANCH  18  21
ATOM     21  O   UNL     1       5.418   2.234 -18.482  1.00  0.00    -0.504 OA
ATOM     22  H   UNL     1       4.835   2.632 -17.756  1.00  0.00     0.293 HD
ENDBRANCH  18  21
ENDBRANCH   3  13
BRANCH   9  23
ATOM     23  O   UNL     1      15.642   5.490 -18.248  1.00  0.00    -0.507 OA
ATOM     24  H   UNL     1      16.424   5.918 -17.771  1.00  0.00     0.293 HD
ENDBRANCH   9  23
BRANCH   7  25
ATOM     25  O   UNL     1      13.285   9.641 -18.814  1.00  0.00    -0.508 OA
ATOM     26  H   UNL     1      14.158  10.154 -18.774  1.00  0.00     0.293 HD
ENDBRANCH   7  25
TORSDOF 6
ENDMDL
MODEL 8
REMARK VINA RESULT:    -5.406      6.512      9.675
REMARK INTER + INTRA:          -6.875
REMARK INTER:                  -6.619
REMARK INTRA:                  -0.256
REMARK UNBOUND:                -0.362
REMARK SMILES Oc1cc(O)c2c(c1)O[C@H](c1ccc(O)c(O)c1)[C@@H](O)C2
REMARK SMILES IDX 21 1 19 2 10 3 9 4 7 5 8 6 2 7 3 8 4 9 6 10 20 11 11 13
REMARK SMILES IDX 18 14 12 15 16 16 13 17 14 18 17 19 15 21 5 23 1 25
REMARK H PARENT 20 12 17 20 15 22 5 24 1 26
REMARK Flexibility Score: inf
ROOT
ATOM      1  C   UNL     1      16.182  -0.651  -9.973  1.00  0.00     0.079 C 
ATOM      2  C   UNL     1      17.195  -0.988  -8.864  1.00  0.00     0.164 C 
ATOM      3  C   UNL     1      18.461  -1.606  -9.483  1.00  0.00     0.232 C 
ATOM      4  O   UNL     1      18.112  -2.758 -10.249  1.00  0.00    -0.482 OA
ATOM      5  C   UNL     1      16.954  -2.810 -11.034  1.00  0.00     0.131 A 
ATOM      6  C   UNL     1      16.773  -3.889 -11.903  1.00  0.00     0.093 A 
ATOM      7  C   UNL     1      15.633  -3.959 -12.712  1.00  0.00     0.122 A 
ATOM      8  C   UNL     1      14.680  -2.941 -12.656  1.00  0.00     0.092 A 
ATOM      9  C   UNL     1      14.846  -1.852 -11.792  1.00  0.00     0.126 A 
ATOM     10  C   UNL     1      15.975  -1.798 -10.940  1.00  0.00     0.039 A 
ENDROOT
BRANCH   2  11
ATOM     11  O   UNL     1      17.534   0.177  -8.157  1.00  0.00    -0.389 OA
ATOM     12  H   UNL     1      16.739   0.423  -7.615  1.00  0.00     0.211 HD
ENDBRANCH   2  11
BRANCH   3  13
ATOM     13  C   UNL     1      19.459  -1.991  -8.415  1.00  0.00    -0.001 A 
ATOM     14  C   UNL     1      19.022  -2.584  -7.219  1.00  0.00     0.057 A 
ATOM     15  C   UNL     1      20.836  -1.806  -8.624  1.00  0.00     0.012 A 
ATOM     16  C   UNL     1      19.946  -2.968  -6.236  1.00  0.00     0.157 A 
ATOM     17  C   UNL     1      21.757  -2.187  -7.646  1.00  0.00     0.050 A 
ATOM     18  C   UNL     1      21.320  -2.767  -6.451  1.00  0.00     0.157 A 
BRANCH  16  19
ATOM     19  O   UNL     1      19.503  -3.551  -5.049  1.00  0.00    -0.504 OA
ATOM     20  H   UNL     1      19.308  -4.543  -4.985  1.00  0.00     0.293 HD
ENDBRANCH  16  19
BRANCH  18  21
ATOM     21  O   UNL     1      22.262  -3.136  -5.492  1.00  0.00    -0.504 OA
ATOM     22  H   UNL     1      22.258  -4.052  -5.059  1.00  0.00     0.293 HD
ENDBRANCH  18  21
ENDBRANCH   3  13
BRANCH   9  23
ATOM     23  O   UNL     1      13.880  -0.843 -11.815  1.00  0.00    -0.507 OA
ATOM     24  H   UNL     1      13.753  -0.179 -11.062  1.00  0.00     0.293 HD
ENDBRANCH   9  23
BRANCH   7  25
ATOM     25  O   UNL     1      15.443  -5.032 -13.579  1.00  0.00    -0.508 OA
ATOM     26  H   UNL     1      15.702  -5.977 -13.318  1.00  0.00     0.293 HD
ENDBRANCH   7  25
TORSDOF 6
ENDMDL
MODEL 9
REMARK VINA RESULT:    -5.391      7.803     10.737
REMARK INTER + INTRA:          -6.856
REMARK INTER:                  -6.493
REMARK INTRA:                  -0.362
REMARK UNBOUND:                -0.362
REMARK SMILES Oc1cc(O)c2c(c1)O[C@H](c1ccc(O)c(O)c1)[C@@H](O)C2
REMARK SMILES IDX 21 1 19 2 10 3 9 4 7 5 8 6 2 7 3 8 4 9 6 10 20 11 11 13
REMARK SMILES IDX 18 14 12 15 16 16 13 17 14 18 17 19 15 21 5 23 1 25
REMARK H PARENT 20 12 17 20 15 22 5 24 1 26
REMARK Flexibility Score: inf
ROOT
ATOM      1  C   UNL     1      17.120  -2.582  -9.474  1.00  0.00     0.079 C 
ATOM      2  C   UNL     1      17.110  -1.985 -10.893  1.00  0.00     0.164 C 
ATOM      3  C   UNL     1      18.272  -2.572 -11.714  1.00  0.00     0.232 C 
ATOM      4  O   UNL     1      19.508  -2.328 -11.045  1.00  0.00    -0.482 OA
ATOM      5  C   UNL     1      19.634  -2.412  -9.654  1.00  0.00     0.131 A 
ATOM      6  C   UNL     1      20.908  -2.349  -9.083  1.00  0.00     0.093 A 
ATOM      7  C   UNL     1      21.066  -2.447  -7.696  1.00  0.00     0.122 A 
ATOM      8  C   UNL     1      19.945  -2.617  -6.882  1.00  0.00     0.092 A 
ATOM      9  C   UNL     1      18.661  -2.684  -7.436  1.00  0.00     0.126 A 
ATOM     10  C   UNL     1      18.492  -2.541  -8.835  1.00  0.00     0.039 A 
ENDROOT
BRANCH   2  11
ATOM     11  O   UNL     1      15.890  -2.276 -11.524  1.00  0.00    -0.389 OA
ATOM     12  H   UNL     1      16.021  -3.125 -12.022  1.00  0.00     0.211 HD
ENDBRANCH   2  11
BRANCH   3  13
ATOM     13  C   UNL     1      18.318  -1.972 -13.100  1.00  0.00    -0.001 A 
ATOM     14  C   UNL     1      18.722  -0.639 -13.281  1.00  0.00     0.057 A 
ATOM     15  C   UNL     1      18.006  -2.751 -14.227  1.00  0.00     0.012 A 
ATOM     16  C   UNL     1      18.794  -0.084 -14.568  1.00  0.00     0.157 A 
ATOM     17  C   UNL     1      18.075  -2.200 -15.508  1.00  0.00     0.050 A 
ATOM     18  C   UNL     1      18.466  -0.870 -15.686  1.00  0.00     0.157 A 
BRANCH  16  19
ATOM     19  O   UNL     1      19.190   1.242 -14.738  1.00  0.00    -0.504 OA
ATOM     20  H   UNL     1      19.926   1.652 -14.175  1.00  0.00     0.293 HD
ENDBRANCH  16  19
BRANCH  18  21
ATOM     21  O   UNL     1      18.526  -0.347 -16.977  1.00  0.00    -0.504 OA
ATOM     22  H   UNL     1      18.652  -0.937 -17.791  1.00  0.00     0.293 HD
ENDBRANCH  18  21
ENDBRANCH   3  13
BRANCH   9  23
ATOM     23  O   UNL     1      17.583  -2.900  -6.574  1.00  0.00    -0.507 OA
ATOM     24  H   UNL     1      17.035  -3.750  -6.573  1.00  0.00     0.293 HD
ENDBRANCH   9  23
BRANCH   7  25
ATOM     25  O   UNL     1      22.331  -2.383  -7.120  1.00  0.00    -0.508 OA
ATOM     26  H   UNL     1      22.997  -1.664  -7.379  1.00  0.00     0.293 HD
ENDBRANCH   7  25
TORSDOF 6
ENDMDL
