MODEL 1
REMARK VINA RESULT:    -3.827      0.000      0.000
REMARK INTER + INTRA:          -6.184
REMARK INTER:                  -5.616
REMARK INTRA:                  -0.568
REMARK UNBOUND:                -0.568
REMARK SMILES O=C([O-])CCCCCCCC(=O)[O-]
REMARK SMILES IDX 7 1 6 2 5 3 4 4 2 5 1 6 3 7 8 8 9 9 10 10 11 11 12 12 13 13
REMARK H PARENT
REMARK Flexibility Score: inf
ROOT
ATOM      1  C   UNL     1       7.422  -4.812  42.684  1.00  0.00     0.000 C 
ENDROOT
BRANCH   1   2
ATOM      2  C   UNL     1       8.094  -6.185  42.840  1.00  0.00     0.000 C 
BRANCH   2   3
ATOM      3  C   UNL     1       7.832  -7.109  41.641  1.00  0.00     0.006 C 
BRANCH   3   4
ATOM      4  C   UNL     1       8.467  -8.486  41.862  1.00  0.00     0.053 C 
BRANCH   4   5
ATOM      5  C   UNL     1       7.455  -9.450  42.396  1.00  0.00     0.041 C 
ATOM      6  O   UNL     1       7.449  -9.751  43.619  1.00  0.00    -0.550 OA
ATOM      7  O   UNL     1       6.487  -9.979  41.552  1.00  0.00    -0.550 OA
ENDBRANCH   4   5
ENDBRANCH   3   4
ENDBRANCH   2   3
ENDBRANCH   1   2
BRANCH   1   8
ATOM      8  C   UNL     1       8.434  -3.653  42.691  1.00  0.00     0.000 C 
BRANCH   8   9
ATOM      9  C   UNL     1       8.406  -2.832  41.389  1.00  0.00     0.006 C 
BRANCH   9  10
ATOM     10  C   UNL     1       7.862  -3.597  40.172  1.00  0.00     0.053 C 
BRANCH  10  11
ATOM     11  C   UNL     1       8.962  -4.112  39.295  1.00  0.00     0.041 C 
ATOM     12  O   UNL     1       8.947  -3.882  38.057  1.00  0.00    -0.550 OA
ATOM     13  O   UNL     1       9.986  -4.876  39.841  1.00  0.00    -0.550 OA
ENDBRANCH  10  11
ENDBRANCH   9  10
ENDBRANCH   8   9
ENDBRANCH   1   8
TORSDOF 8
ENDMDL
MODEL 2
REMARK VINA RESULT:    -3.816      2.649      6.581
REMARK INTER + INTRA:          -6.168
REMARK INTER:                  -5.829
REMARK INTRA:                  -0.340
REMARK UNBOUND:                -0.568
REMARK SMILES O=C([O-])CCCCCCCC(=O)[O-]
REMARK SMILES IDX 7 1 6 2 5 3 4 4 2 5 1 6 3 7 8 8 9 9 10 10 11 11 12 12 13 13
REMARK H PARENT
REMARK Flexibility Score: inf
ROOT
ATOM      1  C   UNL     1       8.294  -2.021  40.726  1.00  0.00     0.000 C 
ENDROOT
BRANCH   1   2
ATOM      2  C   UNL     1       7.685  -1.606  39.378  1.00  0.00     0.000 C 
BRANCH   2   3
ATOM      3  C   UNL     1       7.108  -2.797  38.599  1.00  0.00     0.006 C 
BRANCH   3   4
ATOM      4  C   UNL     1       6.133  -2.324  37.516  1.00  0.00     0.053 C 
BRANCH   4   5
ATOM      5  C   UNL     1       6.879  -1.890  36.294  1.00  0.00     0.041 C 
ATOM      6  O   UNL     1       7.546  -2.725  35.629  1.00  0.00    -0.550 OA
ATOM      7  O   UNL     1       6.796  -0.573  35.861  1.00  0.00    -0.550 OA
ENDBRANCH   4   5
ENDBRANCH   3   4
ENDBRANCH   2   3
ENDBRANCH   1   2
BRANCH   1   8
ATOM      8  C   UNL     1       8.200  -3.537  40.975  1.00  0.00     0.000 C 
BRANCH   8   9
ATOM      9  C   UNL     1       8.172  -3.892  42.473  1.00  0.00     0.006 C 
BRANCH   9  10
ATOM     10  C   UNL     1       7.342  -5.141  42.809  1.00  0.00     0.053 C 
BRANCH  10  11
ATOM     11  C   UNL     1       8.185  -6.236  43.386  1.00  0.00     0.041 C 
ATOM     12  O   UNL     1       9.298  -6.519  42.871  1.00  0.00    -0.550 OA
ATOM     13  O   UNL     1       7.724  -6.969  44.473  1.00  0.00    -0.550 OA
ENDBRANCH  10  11
ENDBRANCH   9  10
ENDBRANCH   8   9
ENDBRANCH   1   8
TORSDOF 8
ENDMDL
MODEL 3
REMARK VINA RESULT:    -3.791      1.890      2.361
REMARK INTER + INTRA:          -6.131
REMARK INTER:                  -5.636
REMARK INTRA:                  -0.495
REMARK UNBOUND:                -0.568
REMARK SMILES O=C([O-])CCCCCCCC(=O)[O-]
REMARK SMILES IDX 7 1 6 2 5 3 4 4 2 5 1 6 3 7 8 8 9 9 10 10 11 11 12 12 13 13
REMARK H PARENT
REMARK Flexibility Score: inf
ROOT
ATOM      1  C   UNL     1       7.942  -6.448  43.333  1.00  0.00     0.000 C 
ENDROOT
BRANCH   1   2
ATOM      2  C   UNL     1       8.500  -7.241  42.141  1.00  0.00     0.000 C 
BRANCH   2   3
ATOM      3  C   UNL     1       7.475  -8.223  41.554  1.00  0.00     0.006 C 
BRANCH   3   4
ATOM      4  C   UNL     1       7.830  -9.668  41.918  1.00  0.00     0.053 C 
BRANCH   4   5
ATOM      5  C   UNL     1       7.040 -10.118  43.107  1.00  0.00     0.041 C 
ATOM      6  O   UNL     1       7.431  -9.838  44.271  1.00  0.00    -0.550 OA
ATOM      7  O   UNL     1       5.847 -10.806  42.928  1.00  0.00    -0.550 OA
ENDBRANCH   4   5
ENDBRANCH   3   4
ENDBRANCH   2   3
ENDBRANCH   1   2
BRANCH   1   8
ATOM      8  C   UNL     1       7.352  -5.090  42.916  1.00  0.00     0.000 C 
BRANCH   8   9
ATOM      9  C   UNL     1       7.815  -4.645  41.516  1.00  0.00     0.006 C 
BRANCH   9  10
ATOM     10  C   UNL     1       8.435  -3.240  41.474  1.00  0.00     0.053 C 
BRANCH  10  11
ATOM     11  C   UNL     1       9.537  -3.082  42.476  1.00  0.00     0.041 C 
ATOM     12  O   UNL     1       9.524  -2.119  43.288  1.00  0.00    -0.550 OA
ATOM     13  O   UNL     1      10.597  -3.980  42.491  1.00  0.00    -0.550 OA
ENDBRANCH  10  11
ENDBRANCH   9  10
ENDBRANCH   8   9
ENDBRANCH   1   8
TORSDOF 8
ENDMDL
MODEL 4
REMARK VINA RESULT:    -3.788      2.246      3.185
REMARK INTER + INTRA:          -6.128
REMARK INTER:                  -5.813
REMARK INTRA:                  -0.315
REMARK UNBOUND:                -0.568
REMARK SMILES O=C([O-])CCCCCCCC(=O)[O-]
REMARK SMILES IDX 7 1 6 2 5 3 4 4 2 5 1 6 3 7 8 8 9 9 10 10 11 11 12 12 13 13
REMARK H PARENT
REMARK Flexibility Score: inf
ROOT
ATOM      1  C   UNL     1       8.030  -4.083  40.419  1.00  0.00     0.000 C 
ENDROOT
BRANCH   1   2
ATOM      2  C   UNL     1       8.128  -3.863  41.936  1.00  0.00     0.000 C 
BRANCH   2   3
ATOM      3  C   UNL     1       7.761  -5.120  42.739  1.00  0.00     0.006 C 
BRANCH   3   4
ATOM      4  C   UNL     1       7.611  -6.335  41.818  1.00  0.00     0.053 C 
BRANCH   4   5
ATOM      5  C   UNL     1       8.577  -7.410  42.206  1.00  0.00     0.041 C 
ATOM      6  O   UNL     1       9.330  -7.256  43.203  1.00  0.00    -0.550 OA
ATOM      7  O   UNL     1       8.611  -8.602  41.495  1.00  0.00    -0.550 OA
ENDBRANCH   4   5
ENDBRANCH   3   4
ENDBRANCH   2   3
ENDBRANCH   1   2
BRANCH   1   8
ATOM      8  C   UNL     1       7.742  -2.781  39.650  1.00  0.00     0.000 C 
BRANCH   8   9
ATOM      9  C   UNL     1       7.208  -3.037  38.228  1.00  0.00     0.006 C 
BRANCH   9  10
ATOM     10  C   UNL     1       8.243  -3.640  37.266  1.00  0.00     0.053 C 
BRANCH  10  11
ATOM     11  C   UNL     1       7.674  -3.863  35.898  1.00  0.00     0.041 C 
ATOM     12  O   UNL     1       8.240  -4.650  35.095  1.00  0.00    -0.550 OA
ATOM     13  O   UNL     1       6.536  -3.172  35.498  1.00  0.00    -0.550 OA
ENDBRANCH  10  11
ENDBRANCH   9  10
ENDBRANCH   8   9
ENDBRANCH   1   8
TORSDOF 8
ENDMDL
MODEL 5
REMARK VINA RESULT:    -3.781      3.226      4.459
REMARK INTER + INTRA:          -6.117
REMARK INTER:                  -5.867
REMARK INTRA:                  -0.250
REMARK UNBOUND:                -0.568
REMARK SMILES O=C([O-])CCCCCCCC(=O)[O-]
REMARK SMILES IDX 7 1 6 2 5 3 4 4 2 5 1 6 3 7 8 8 9 9 10 10 11 11 12 12 13 13
REMARK H PARENT
REMARK Flexibility Score: inf
ROOT
ATOM      1  C   UNL     1       7.903  -3.123  39.933  1.00  0.00     0.000 C 
ENDROOT
BRANCH   1   2
ATOM      2  C   UNL     1       8.238  -2.599  41.338  1.00  0.00     0.000 C 
BRANCH   2   3
ATOM      3  C   UNL     1       8.731  -3.708  42.279  1.00  0.00     0.006 C 
BRANCH   3   4
ATOM      4  C   UNL     1       7.552  -4.462  42.902  1.00  0.00     0.053 C 
BRANCH   4   5
ATOM      5  C   UNL     1       7.748  -5.940  42.771  1.00  0.00     0.041 C 
ATOM      6  O   UNL     1       8.006  -6.638  43.786  1.00  0.00    -0.550 OA
ATOM      7  O   UNL     1       7.596  -6.554  41.534  1.00  0.00    -0.550 OA
ENDBRANCH   4   5
ENDBRANCH   3   4
ENDBRANCH   2   3
ENDBRANCH   1   2
BRANCH   1   8
ATOM      8  C   UNL     1       7.452  -2.004  38.977  1.00  0.00     0.000 C 
BRANCH   8   9
ATOM      9  C   UNL     1       6.465  -2.501  37.905  1.00  0.00     0.006 C 
BRANCH   9  10
ATOM     10  C   UNL     1       5.633  -1.387  37.250  1.00  0.00     0.053 C 
BRANCH  10  11
ATOM     11  C   UNL     1       5.710  -1.434  35.755  1.00  0.00     0.041 C 
ATOM     12  O   UNL     1       6.252  -2.413  35.178  1.00  0.00    -0.550 OA
ATOM     13  O   UNL     1       5.215  -0.378  35.000  1.00  0.00    -0.550 OA
ENDBRANCH  10  11
ENDBRANCH   9  10
ENDBRANCH   8   9
ENDBRANCH   1   8
TORSDOF 8
ENDMDL
MODEL 6
REMARK VINA RESULT:    -3.775      2.992      6.517
REMARK INTER + INTRA:          -6.109
REMARK INTER:                  -5.697
REMARK INTRA:                  -0.412
REMARK UNBOUND:                -0.568
REMARK SMILES O=C([O-])CCCCCCCC(=O)[O-]
REMARK SMILES IDX 7 1 6 2 5 3 4 4 2 5 1 6 3 7 8 8 9 9 10 10 11 11 12 12 13 13
REMARK H PARENT
REMARK Flexibility Score: inf
ROOT
ATOM      1  C   UNL     1       7.094 -11.057  43.543  1.00  0.00     0.000 C 
ENDROOT
BRANCH   1   2
ATOM      2  C   UNL     1       7.502  -9.744  44.230  1.00  0.00     0.000 C 
BRANCH   2   3
ATOM      3  C   UNL     1       8.073  -8.715  43.243  1.00  0.00     0.006 C 
BRANCH   3   4
ATOM      4  C   UNL     1       8.199  -7.337  43.900  1.00  0.00     0.053 C 
BRANCH   4   5
ATOM      5  C   UNL     1       7.933  -6.255  42.901  1.00  0.00     0.041 C 
ATOM      6  O   UNL     1       7.233  -5.258  43.217  1.00  0.00    -0.550 OA
ATOM      7  O   UNL     1       8.501  -6.324  41.635  1.00  0.00    -0.550 OA
ENDBRANCH   4   5
ENDBRANCH   3   4
ENDBRANCH   2   3
ENDBRANCH   1   2
BRANCH   1   8
ATOM      8  C   UNL     1       5.576 -11.306  43.597  1.00  0.00     0.000 C 
BRANCH   8   9
ATOM      9  C   UNL     1       4.941 -11.412  42.199  1.00  0.00     0.006 C 
BRANCH   9  10
ATOM     10  C   UNL     1       5.839 -10.907  41.059  1.00  0.00     0.053 C 
BRANCH  10  11
ATOM     11  C   UNL     1       5.883 -11.868  39.911  1.00  0.00     0.041 C 
ATOM     12  O   UNL     1       5.088 -12.843  39.869  1.00  0.00    -0.550 OA
ATOM     13  O   UNL     1       6.828 -11.707  38.905  1.00  0.00    -0.550 OA
ENDBRANCH  10  11
ENDBRANCH   9  10
ENDBRANCH   8   9
ENDBRANCH   1   8
TORSDOF 8
ENDMDL
MODEL 7
REMARK VINA RESULT:    -3.740      2.358      6.834
REMARK INTER + INTRA:          -6.057
REMARK INTER:                  -5.642
REMARK INTRA:                  -0.415
REMARK UNBOUND:                -0.568
REMARK SMILES O=C([O-])CCCCCCCC(=O)[O-]
REMARK SMILES IDX 7 1 6 2 5 3 4 4 2 5 1 6 3 7 8 8 9 9 10 10 11 11 12 12 13 13
REMARK H PARENT
REMARK Flexibility Score: inf
ROOT
ATOM      1  C   UNL     1       7.990  -9.038  42.249  1.00  0.00     0.000 C 
ENDROOT
BRANCH   1   2
ATOM      2  C   UNL     1       7.833  -7.582  41.783  1.00  0.00     0.000 C 
BRANCH   2   3
ATOM      3  C   UNL     1       7.917  -6.579  42.944  1.00  0.00     0.006 C 
BRANCH   3   4
ATOM      4  C   UNL     1       7.451  -5.189  42.501  1.00  0.00     0.053 C 
BRANCH   4   5
ATOM      5  C   UNL     1       8.577  -4.207  42.585  1.00  0.00     0.041 C 
ATOM      6  O   UNL     1       8.343  -2.992  42.816  1.00  0.00    -0.550 OA
ATOM      7  O   UNL     1       9.889  -4.643  42.456  1.00  0.00    -0.550 OA
ENDBRANCH   4   5
ENDBRANCH   3   4
ENDBRANCH   2   3
ENDBRANCH   1   2
BRANCH   1   8
ATOM      8  C   UNL     1       7.867  -9.187  43.776  1.00  0.00     0.000 C 
BRANCH   8   9
ATOM      9  C   UNL     1       7.087 -10.448  44.189  1.00  0.00     0.006 C 
BRANCH   9  10
ATOM     10  C   UNL     1       6.059 -10.923  43.150  1.00  0.00     0.053 C 
BRANCH  10  11
ATOM     11  C   UNL     1       6.216 -12.377  42.830  1.00  0.00     0.041 C 
ATOM     12  O   UNL     1       5.222 -13.149  42.883  1.00  0.00    -0.550 OA
ATOM     13  O   UNL     1       7.467 -12.888  42.507  1.00  0.00    -0.550 OA
ENDBRANCH  10  11
ENDBRANCH   9  10
ENDBRANCH   8   9
ENDBRANCH   1   8
TORSDOF 8
ENDMDL
MODEL 8
REMARK VINA RESULT:    -3.702      2.944      4.162
REMARK INTER + INTRA:          -6.001
REMARK INTER:                  -5.750
REMARK INTRA:                  -0.251
REMARK UNBOUND:                -0.568
REMARK SMILES O=C([O-])CCCCCCCC(=O)[O-]
REMARK SMILES IDX 7 1 6 2 5 3 4 4 2 5 1 6 3 7 8 8 9 9 10 10 11 11 12 12 13 13
REMARK H PARENT
REMARK Flexibility Score: inf
ROOT
ATOM      1  C   UNL     1       7.906  -3.251  40.244  1.00  0.00     0.000 C 
ENDROOT
BRANCH   1   2
ATOM      2  C   UNL     1       8.386  -2.599  41.550  1.00  0.00     0.000 C 
BRANCH   2   3
ATOM      3  C   UNL     1       8.258  -3.538  42.760  1.00  0.00     0.006 C 
BRANCH   3   4
ATOM      4  C   UNL     1       8.997  -4.856  42.510  1.00  0.00     0.053 C 
BRANCH   4   5
ATOM      5  C   UNL     1       8.072  -6.018  42.698  1.00  0.00     0.041 C 
ATOM      6  O   UNL     1       7.451  -6.500  41.715  1.00  0.00    -0.550 OA
ATOM      7  O   UNL     1       7.934  -6.600  43.952  1.00  0.00    -0.550 OA
ENDBRANCH   4   5
ENDBRANCH   3   4
ENDBRANCH   2   3
ENDBRANCH   1   2
BRANCH   1   8
ATOM      8  C   UNL     1       7.514  -2.216  39.175  1.00  0.00     0.000 C 
BRANCH   8   9
ATOM      9  C   UNL     1       6.966  -2.866  37.891  1.00  0.00     0.006 C 
BRANCH   9  10
ATOM     10  C   UNL     1       6.213  -1.897  36.967  1.00  0.00     0.053 C 
BRANCH  10  11
ATOM     11  C   UNL     1       6.465  -2.192  35.520  1.00  0.00     0.041 C 
ATOM     12  O   UNL     1       5.601  -1.898  34.652  1.00  0.00    -0.550 OA
ATOM     13  O   UNL     1       7.641  -2.824  35.134  1.00  0.00    -0.550 OA
ENDBRANCH  10  11
ENDBRANCH   9  10
ENDBRANCH   8   9
ENDBRANCH   1   8
TORSDOF 8
ENDMDL
MODEL 9
REMARK VINA RESULT:    -3.680      4.069      7.661
REMARK INTER + INTRA:          -5.969
REMARK INTER:                  -5.735
REMARK INTRA:                  -0.234
REMARK UNBOUND:                -0.568
REMARK SMILES O=C([O-])CCCCCCCC(=O)[O-]
REMARK SMILES IDX 7 1 6 2 5 3 4 4 2 5 1 6 3 7 8 8 9 9 10 10 11 11 12 12 13 13
REMARK H PARENT
REMARK Flexibility Score: inf
ROOT
ATOM      1  C   UNL     1       7.409  -2.867  38.694  1.00  0.00     0.000 C 
ENDROOT
BRANCH   1   2
ATOM      2  C   UNL     1       6.203  -2.307  37.925  1.00  0.00     0.000 C 
BRANCH   2   3
ATOM      3  C   UNL     1       6.592  -1.728  36.557  1.00  0.00     0.006 C 
BRANCH   3   4
ATOM      4  C   UNL     1       5.642  -0.599  36.149  1.00  0.00     0.053 C 
BRANCH   4   5
ATOM      5  C   UNL     1       5.778  -0.300  34.689  1.00  0.00     0.041 C 
ATOM      6  O   UNL     1       6.592   0.575  34.293  1.00  0.00    -0.550 OA
ATOM      7  O   UNL     1       5.041  -1.025  33.760  1.00  0.00    -0.550 OA
ENDBRANCH   4   5
ENDBRANCH   3   4
ENDBRANCH   2   3
ENDBRANCH   1   2
BRANCH   1   8
ATOM      8  C   UNL     1       7.923  -1.899  39.775  1.00  0.00     0.000 C 
BRANCH   8   9
ATOM      9  C   UNL     1       8.314  -2.618  41.079  1.00  0.00     0.006 C 
BRANCH   9  10
ATOM     10  C   UNL     1       7.878  -4.090  41.142  1.00  0.00     0.053 C 
BRANCH  10  11
ATOM     11  C   UNL     1       8.556  -4.829  42.255  1.00  0.00     0.041 C 
ATOM     12  O   UNL     1       7.902  -5.625  42.979  1.00  0.00    -0.550 OA
ATOM     13  O   UNL     1       9.903  -4.610  42.516  1.00  0.00    -0.550 OA
ENDBRANCH  10  11
ENDBRANCH   9  10
ENDBRANCH   8   9
ENDBRANCH   1   8
TORSDOF 8
ENDMDL
