MODEL 1
REMARK VINA RESULT:    -5.790      0.000      0.000
REMARK INTER + INTRA:         -10.979
REMARK INTER:                 -10.021
REMARK INTRA:                  -0.958
REMARK UNBOUND:                -0.958
REMARK SMILES CCCCCCCCCCCCCCO
REMARK SMILES IDX 8 1 7 2 6 3 5 4 4 5 3 6 2 7 1 8 9 9 10 10 11 11 12 12 13 13
REMARK SMILES IDX 14 14 15 15
REMARK H PARENT 15 16
REMARK Flexibility Score: inf
ROOT
ATOM      1  C   UNL     1      62.816 151.842   3.155  1.00  0.00     0.000 C 
ENDROOT
BRANCH   1   2
ATOM      2  C   UNL     1      64.176 152.002   3.846  1.00  0.00    -0.000 C 
BRANCH   2   3
ATOM      3  C   UNL     1      64.912 150.661   3.934  1.00  0.00    -0.000 C 
BRANCH   3   4
ATOM      4  C   UNL     1      65.016 150.184   5.389  1.00  0.00    -0.000 C 
BRANCH   4   5
ATOM      5  C   UNL     1      64.247 148.875   5.647  1.00  0.00    -0.000 C 
BRANCH   5   6
ATOM      6  C   UNL     1      62.908 149.040   6.394  1.00  0.00    -0.000 C 
BRANCH   6   7
ATOM      7  C   UNL     1      61.718 148.292   5.768  1.00  0.00    -0.003 C 
ATOM      8  C   UNL     1      62.107 146.929   5.198  1.00  0.00     0.004 C 
ENDBRANCH   6   7
ENDBRANCH   5   6
ENDBRANCH   4   5
ENDBRANCH   3   4
ENDBRANCH   2   3
ENDBRANCH   1   2
BRANCH   1   9
ATOM      9  C   UNL     1      61.699 151.615   4.180  1.00  0.00     0.000 C 
BRANCH   9  10
ATOM     10  C   UNL     1      60.456 152.448   3.833  1.00  0.00     0.000 C 
BRANCH  10  11
ATOM     11  C   UNL     1      60.104 152.406   2.335  1.00  0.00     0.000 C 
BRANCH  11  12
ATOM     12  C   UNL     1      59.079 153.461   1.878  1.00  0.00     0.002 C 
BRANCH  12  13
ATOM     13  C   UNL     1      59.488 154.169   0.577  1.00  0.00     0.028 C 
BRANCH  13  14
ATOM     14  C   UNL     1      60.919 153.815   0.167  1.00  0.00     0.156 C 
BRANCH  14  15
ATOM     15  O   UNL     1      61.271 154.506  -1.000  1.00  0.00    -0.396 OA
ATOM     16  H   UNL     1      62.126 154.106  -1.308  1.00  0.00     0.210 HD
ENDBRANCH  14  15
ENDBRANCH  13  14
ENDBRANCH  12  13
ENDBRANCH  11  12
ENDBRANCH  10  11
ENDBRANCH   9  10
ENDBRANCH   1   9
TORSDOF 13
ENDMDL
MODEL 2
REMARK VINA RESULT:    -5.704      1.107      1.835
REMARK INTER + INTRA:         -10.831
REMARK INTER:                  -9.767
REMARK INTRA:                  -1.065
REMARK UNBOUND:                -0.958
REMARK SMILES CCCCCCCCCCCCCCO
REMARK SMILES IDX 8 1 7 2 6 3 5 4 4 5 3 6 2 7 1 8 9 9 10 10 11 11 12 12 13 13
REMARK SMILES IDX 14 14 15 15
REMARK H PARENT 15 16
REMARK Flexibility Score: inf
ROOT
ATOM      1  C   UNL     1      64.282 152.253   4.331  1.00  0.00     0.000 C 
ENDROOT
BRANCH   1   2
ATOM      2  C   UNL     1      65.037 151.319   5.284  1.00  0.00    -0.000 C 
BRANCH   2   3
ATOM      3  C   UNL     1      65.066 149.884   4.743  1.00  0.00    -0.000 C 
BRANCH   3   4
ATOM      4  C   UNL     1      64.475 148.900   5.762  1.00  0.00    -0.000 C 
BRANCH   4   5
ATOM      5  C   UNL     1      63.062 148.421   5.384  1.00  0.00    -0.000 C 
BRANCH   5   6
ATOM      6  C   UNL     1      61.951 148.810   6.381  1.00  0.00    -0.000 C 
BRANCH   6   7
ATOM      7  C   UNL     1      62.373 149.822   7.461  1.00  0.00    -0.003 C 
ATOM      8  C   UNL     1      61.573 149.679   8.755  1.00  0.00     0.004 C 
ENDBRANCH   6   7
ENDBRANCH   5   6
ENDBRANCH   4   5
ENDBRANCH   3   4
ENDBRANCH   2   3
ENDBRANCH   1   2
BRANCH   1   9
ATOM      9  C   UNL     1      63.516 151.456   3.269  1.00  0.00     0.000 C 
BRANCH   9  10
ATOM     10  C   UNL     1      62.012 151.764   3.329  1.00  0.00     0.000 C 
BRANCH  10  11
ATOM     11  C   UNL     1      61.409 152.083   1.949  1.00  0.00     0.000 C 
BRANCH  11  12
ATOM     12  C   UNL     1      60.049 152.805   1.985  1.00  0.00     0.002 C 
BRANCH  12  13
ATOM     13  C   UNL     1      59.947 153.941   0.955  1.00  0.00     0.028 C 
BRANCH  13  14
ATOM     14  C   UNL     1      61.242 154.098   0.155  1.00  0.00     0.156 C 
BRANCH  14  15
ATOM     15  O   UNL     1      60.955 154.507  -1.153  1.00  0.00    -0.396 OA
ATOM     16  H   UNL     1      60.180 153.963  -1.448  1.00  0.00     0.210 HD
ENDBRANCH  14  15
ENDBRANCH  13  14
ENDBRANCH  12  13
ENDBRANCH  11  12
ENDBRANCH  10  11
ENDBRANCH   9  10
ENDBRANCH   1   9
TORSDOF 13
ENDMDL
MODEL 3
REMARK VINA RESULT:    -5.358      1.211      2.764
REMARK INTER + INTRA:         -10.232
REMARK INTER:                  -9.259
REMARK INTRA:                  -0.973
REMARK UNBOUND:                -0.958
REMARK SMILES CCCCCCCCCCCCCCO
REMARK SMILES IDX 8 1 7 2 6 3 5 4 4 5 3 6 2 7 1 8 9 9 10 10 11 11 12 12 13 13
REMARK SMILES IDX 14 14 15 15
REMARK H PARENT 15 16
REMARK Flexibility Score: inf
ROOT
ATOM      1  C   UNL     1      61.295 152.347   5.924  1.00  0.00     0.000 C 
ENDROOT
BRANCH   1   2
ATOM      2  C   UNL     1      61.447 151.200   4.918  1.00  0.00    -0.000 C 
BRANCH   2   3
ATOM      3  C   UNL     1      61.541 149.847   5.634  1.00  0.00    -0.000 C 
BRANCH   3   4
ATOM      4  C   UNL     1      62.867 149.718   6.396  1.00  0.00    -0.000 C 
BRANCH   4   5
ATOM      5  C   UNL     1      63.916 148.886   5.638  1.00  0.00    -0.000 C 
BRANCH   5   6
ATOM      6  C   UNL     1      65.156 149.671   5.165  1.00  0.00    -0.000 C 
BRANCH   6   7
ATOM      7  C   UNL     1      64.895 150.674   4.027  1.00  0.00    -0.003 C 
ATOM      8  C   UNL     1      65.022 152.129   4.477  1.00  0.00     0.004 C 
ENDBRANCH   6   7
ENDBRANCH   5   6
ENDBRANCH   4   5
ENDBRANCH   3   4
ENDBRANCH   2   3
ENDBRANCH   1   2
BRANCH   1   9
ATOM      9  C   UNL     1      60.179 153.309   5.498  1.00  0.00     0.000 C 
BRANCH   9  10
ATOM     10  C   UNL     1      59.396 152.749   4.302  1.00  0.00     0.000 C 
BRANCH  10  11
ATOM     11  C   UNL     1      59.067 153.819   3.245  1.00  0.00     0.000 C 
BRANCH  11  12
ATOM     12  C   UNL     1      58.922 153.289   1.806  1.00  0.00     0.002 C 
BRANCH  12  13
ATOM     13  C   UNL     1      59.493 154.252   0.753  1.00  0.00     0.028 C 
BRANCH  13  14
ATOM     14  C   UNL     1      60.860 153.787   0.245  1.00  0.00     0.156 C 
BRANCH  14  15
ATOM     15  O   UNL     1      61.195 154.469  -0.932  1.00  0.00    -0.396 OA
ATOM     16  H   UNL     1      61.214 155.432  -0.695  1.00  0.00     0.210 HD
ENDBRANCH  14  15
ENDBRANCH  13  14
ENDBRANCH  12  13
ENDBRANCH  11  12
ENDBRANCH  10  11
ENDBRANCH   9  10
ENDBRANCH   1   9
TORSDOF 13
ENDMDL
MODEL 4
REMARK VINA RESULT:    -5.353      2.395      6.546
REMARK INTER + INTRA:         -10.223
REMARK INTER:                  -9.113
REMARK INTRA:                  -1.110
REMARK UNBOUND:                -0.958
REMARK SMILES CCCCCCCCCCCCCCO
REMARK SMILES IDX 8 1 7 2 6 3 5 4 4 5 3 6 2 7 1 8 9 9 10 10 11 11 12 12 13 13
REMARK SMILES IDX 14 14 15 15
REMARK H PARENT 15 16
REMARK Flexibility Score: inf
ROOT
ATOM      1  C   UNL     1      63.560 151.529   3.244  1.00  0.00     0.000 C 
ENDROOT
BRANCH   1   2
ATOM      2  C   UNL     1      62.106 151.837   2.867  1.00  0.00    -0.000 C 
BRANCH   2   3
ATOM      3  C   UNL     1      61.192 151.772   4.096  1.00  0.00    -0.000 C 
BRANCH   3   4
ATOM      4  C   UNL     1      60.045 152.787   3.983  1.00  0.00    -0.000 C 
BRANCH   4   5
ATOM      5  C   UNL     1      59.254 152.653   2.669  1.00  0.00    -0.000 C 
BRANCH   5   6
ATOM      6  C   UNL     1      58.891 153.988   1.986  1.00  0.00    -0.000 C 
BRANCH   6   7
ATOM      7  C   UNL     1      59.359 154.118   0.525  1.00  0.00    -0.003 C 
ATOM      8  C   UNL     1      60.873 153.990   0.372  1.00  0.00     0.004 C 
ENDBRANCH   6   7
ENDBRANCH   5   6
ENDBRANCH   4   5
ENDBRANCH   3   4
ENDBRANCH   2   3
ENDBRANCH   1   2
BRANCH   1   9
ATOM      9  C   UNL     1      63.946 152.213   4.561  1.00  0.00     0.000 C 
BRANCH   9  10
ATOM     10  C   UNL     1      64.985 151.383   5.329  1.00  0.00     0.000 C 
BRANCH  10  11
ATOM     11  C   UNL     1      65.041 149.915   4.869  1.00  0.00     0.000 C 
BRANCH  11  12
ATOM     12  C   UNL     1      64.396 148.905   5.836  1.00  0.00     0.002 C 
BRANCH  12  13
ATOM     13  C   UNL     1      62.944 149.261   6.194  1.00  0.00     0.028 C 
BRANCH  13  14
ATOM     14  C   UNL     1      61.951 148.284   5.561  1.00  0.00     0.156 C 
BRANCH  14  15
ATOM     15  O   UNL     1      60.640 148.746   5.736  1.00  0.00    -0.396 OA
ATOM     16  H   UNL     1      60.048 147.975   5.536  1.00  0.00     0.210 HD
ENDBRANCH  14  15
ENDBRANCH  13  14
ENDBRANCH  12  13
ENDBRANCH  11  12
ENDBRANCH  10  11
ENDBRANCH   9  10
ENDBRANCH   1   9
TORSDOF 13
ENDMDL
MODEL 5
REMARK VINA RESULT:    -5.309      2.911      6.550
REMARK INTER + INTRA:         -10.147
REMARK INTER:                  -9.096
REMARK INTRA:                  -1.050
REMARK UNBOUND:                -0.958
REMARK SMILES CCCCCCCCCCCCCCO
REMARK SMILES IDX 8 1 7 2 6 3 5 4 4 5 3 6 2 7 1 8 9 9 10 10 11 11 12 12 13 13
REMARK SMILES IDX 14 14 15 15
REMARK H PARENT 15 16
REMARK Flexibility Score: inf
ROOT
ATOM      1  C   UNL     1      62.972 151.413   3.036  1.00  0.00     0.000 C 
ENDROOT
BRANCH   1   2
ATOM      2  C   UNL     1      61.510 151.870   2.966  1.00  0.00    -0.000 C 
BRANCH   2   3
ATOM      3  C   UNL     1      61.229 152.626   1.662  1.00  0.00    -0.000 C 
BRANCH   3   4
ATOM      4  C   UNL     1      59.889 153.370   1.735  1.00  0.00    -0.000 C 
BRANCH   4   5
ATOM      5  C   UNL     1      59.186 153.207   3.096  1.00  0.00    -0.000 C 
BRANCH   5   6
ATOM      6  C   UNL     1      58.635 154.512   3.707  1.00  0.00    -0.000 C 
BRANCH   6   7
ATOM      7  C   UNL     1      58.966 154.721   5.196  1.00  0.00    -0.003 C 
ATOM      8  C   UNL     1      59.980 153.710   5.728  1.00  0.00     0.004 C 
ENDBRANCH   6   7
ENDBRANCH   5   6
ENDBRANCH   4   5
ENDBRANCH   3   4
ENDBRANCH   2   3
ENDBRANCH   1   2
BRANCH   1   9
ATOM      9  C   UNL     1      63.774 152.281   4.013  1.00  0.00     0.000 C 
BRANCH   9  10
ATOM     10  C   UNL     1      65.070 151.575   4.440  1.00  0.00     0.000 C 
BRANCH  10  11
ATOM     11  C   UNL     1      65.030 150.054   4.209  1.00  0.00     0.000 C 
BRANCH  11  12
ATOM     12  C   UNL     1      64.935 149.204   5.490  1.00  0.00     0.002 C 
BRANCH  12  13
ATOM     13  C   UNL     1      63.597 149.376   6.225  1.00  0.00     0.028 C 
BRANCH  13  14
ATOM     14  C   UNL     1      62.506 148.484   5.628  1.00  0.00     0.156 C 
BRANCH  14  15
ATOM     15  O   UNL     1      62.988 147.181   5.455  1.00  0.00    -0.396 OA
ATOM     16  H   UNL     1      62.235 146.657   5.076  1.00  0.00     0.210 HD
ENDBRANCH  14  15
ENDBRANCH  13  14
ENDBRANCH  12  13
ENDBRANCH  11  12
ENDBRANCH  10  11
ENDBRANCH   9  10
ENDBRANCH   1   9
TORSDOF 13
ENDMDL
MODEL 6
REMARK VINA RESULT:    -5.303      2.351      5.931
REMARK INTER + INTRA:         -10.136
REMARK INTER:                  -8.885
REMARK INTRA:                  -1.251
REMARK UNBOUND:                -0.958
REMARK SMILES CCCCCCCCCCCCCCO
REMARK SMILES IDX 8 1 7 2 6 3 5 4 4 5 3 6 2 7 1 8 9 9 10 10 11 11 12 12 13 13
REMARK SMILES IDX 14 14 15 15
REMARK H PARENT 15 16
REMARK Flexibility Score: inf
ROOT
ATOM      1  C   UNL     1      61.670 150.083   5.405  1.00  0.00     0.000 C 
ENDROOT
BRANCH   1   2
ATOM      2  C   UNL     1      60.972 151.177   6.221  1.00  0.00    -0.000 C 
BRANCH   2   3
ATOM      3  C   UNL     1      60.840 152.471   5.410  1.00  0.00    -0.000 C 
BRANCH   3   4
ATOM      4  C   UNL     1      59.380 152.723   5.008  1.00  0.00    -0.000 C 
BRANCH   4   5
ATOM      5  C   UNL     1      59.244 153.677   3.807  1.00  0.00    -0.000 C 
BRANCH   5   6
ATOM      6  C   UNL     1      59.197 152.990   2.427  1.00  0.00    -0.000 C 
BRANCH   6   7
ATOM      7  C   UNL     1      60.506 153.061   1.621  1.00  0.00    -0.003 C 
ATOM      8  C   UNL     1      61.508 151.978   2.017  1.00  0.00     0.004 C 
ENDBRANCH   6   7
ENDBRANCH   5   6
ENDBRANCH   4   5
ENDBRANCH   3   4
ENDBRANCH   2   3
ENDBRANCH   1   2
BRANCH   1   9
ATOM      9  C   UNL     1      62.663 149.299   6.271  1.00  0.00     0.000 C 
BRANCH   9  10
ATOM     10  C   UNL     1      63.815 148.743   5.420  1.00  0.00     0.000 C 
BRANCH  10  11
ATOM     11  C   UNL     1      64.932 149.773   5.174  1.00  0.00     0.000 C 
BRANCH  11  12
ATOM     12  C   UNL     1      64.795 150.581   3.870  1.00  0.00     0.002 C 
BRANCH  12  13
ATOM     13  C   UNL     1      64.522 152.073   4.116  1.00  0.00     0.028 C 
BRANCH  13  14
ATOM     14  C   UNL     1      64.880 152.485   5.545  1.00  0.00     0.156 C 
BRANCH  14  15
ATOM     15  O   UNL     1      64.071 153.552   5.958  1.00  0.00    -0.396 OA
ATOM     16  H   UNL     1      64.657 154.353   5.968  1.00  0.00     0.210 HD
ENDBRANCH  14  15
ENDBRANCH  13  14
ENDBRANCH  12  13
ENDBRANCH  11  12
ENDBRANCH  10  11
ENDBRANCH   9  10
ENDBRANCH   1   9
TORSDOF 13
ENDMDL
MODEL 7
REMARK VINA RESULT:    -5.283      2.512      4.174
REMARK INTER + INTRA:         -10.103
REMARK INTER:                  -9.034
REMARK INTRA:                  -1.069
REMARK UNBOUND:                -0.958
REMARK SMILES CCCCCCCCCCCCCCO
REMARK SMILES IDX 8 1 7 2 6 3 5 4 4 5 3 6 2 7 1 8 9 9 10 10 11 11 12 12 13 13
REMARK SMILES IDX 14 14 15 15
REMARK H PARENT 15 16
REMARK Flexibility Score: inf
ROOT
ATOM      1  C   UNL     1      60.911 153.359   0.969  1.00  0.00     0.000 C 
ENDROOT
BRANCH   1   2
ATOM      2  C   UNL     1      60.755 152.289   2.056  1.00  0.00    -0.000 C 
BRANCH   2   3
ATOM      3  C   UNL     1      62.114 151.903   2.651  1.00  0.00    -0.000 C 
BRANCH   3   4
ATOM      4  C   UNL     1      61.979 151.527   4.133  1.00  0.00    -0.000 C 
BRANCH   4   5
ATOM      5  C   UNL     1      63.301 151.670   4.910  1.00  0.00    -0.000 C 
BRANCH   5   6
ATOM      6  C   UNL     1      64.577 151.413   4.082  1.00  0.00    -0.000 C 
BRANCH   6   7
ATOM      7  C   UNL     1      65.028 149.942   4.024  1.00  0.00    -0.003 C 
ATOM      8  C   UNL     1      65.113 149.291   5.403  1.00  0.00     0.004 C 
ENDBRANCH   6   7
ENDBRANCH   5   6
ENDBRANCH   4   5
ENDBRANCH   3   4
ENDBRANCH   2   3
ENDBRANCH   1   2
BRANCH   1   9
ATOM      9  C   UNL     1      59.573 154.045   0.673  1.00  0.00     0.000 C 
BRANCH   9  10
ATOM     10  C   UNL     1      58.592 153.867   1.842  1.00  0.00     0.000 C 
BRANCH  10  11
ATOM     11  C   UNL     1      58.216 155.198   2.519  1.00  0.00     0.000 C 
BRANCH  11  12
ATOM     12  C   UNL     1      58.193 155.161   4.058  1.00  0.00     0.002 C 
BRANCH  12  13
ATOM     13  C   UNL     1      59.225 154.189   4.650  1.00  0.00     0.028 C 
BRANCH  13  14
ATOM     14  C   UNL     1      58.598 153.270   5.700  1.00  0.00     0.156 C 
BRANCH  14  15
ATOM     15  O   UNL     1      58.259 152.038   5.124  1.00  0.00    -0.396 OA
ATOM     16  H   UNL     1      57.626 151.606   5.753  1.00  0.00     0.210 HD
ENDBRANCH  14  15
ENDBRANCH  13  14
ENDBRANCH  12  13
ENDBRANCH  11  12
ENDBRANCH  10  11
ENDBRANCH   9  10
ENDBRANCH   1   9
TORSDOF 13
ENDMDL
MODEL 8
REMARK VINA RESULT:    -5.273      2.113      2.617
REMARK INTER + INTRA:         -10.085
REMARK INTER:                  -8.999
REMARK INTRA:                  -1.086
REMARK UNBOUND:                -0.958
REMARK SMILES CCCCCCCCCCCCCCO
REMARK SMILES IDX 8 1 7 2 6 3 5 4 4 5 3 6 2 7 1 8 9 9 10 10 11 11 12 12 13 13
REMARK SMILES IDX 14 14 15 15
REMARK H PARENT 15 16
REMARK Flexibility Score: inf
ROOT
ATOM      1  C   UNL     1      63.484 151.686   3.370  1.00  0.00     0.000 C 
ENDROOT
BRANCH   1   2
ATOM      2  C   UNL     1      63.992 152.296   4.681  1.00  0.00    -0.000 C 
BRANCH   2   3
ATOM      3  C   UNL     1      65.031 151.386   5.347  1.00  0.00    -0.000 C 
BRANCH   3   4
ATOM      4  C   UNL     1      65.071 150.009   4.670  1.00  0.00    -0.000 C 
BRANCH   4   5
ATOM      5  C   UNL     1      64.449 148.897   5.534  1.00  0.00    -0.000 C 
BRANCH   5   6
ATOM      6  C   UNL     1      63.192 149.311   6.327  1.00  0.00    -0.000 C 
BRANCH   6   7
ATOM      7  C   UNL     1      61.915 148.527   5.977  1.00  0.00    -0.003 C 
ATOM      8  C   UNL     1      62.204 147.215   5.250  1.00  0.00     0.004 C 
ENDBRANCH   6   7
ENDBRANCH   5   6
ENDBRANCH   4   5
ENDBRANCH   3   4
ENDBRANCH   2   3
ENDBRANCH   1   2
BRANCH   1   9
ATOM      9  C   UNL     1      61.952 151.622   3.349  1.00  0.00     0.000 C 
BRANCH   9  10
ATOM     10  C   UNL     1      61.399 152.114   2.003  1.00  0.00     0.000 C 
BRANCH  10  11
ATOM     11  C   UNL     1      60.132 152.977   2.153  1.00  0.00     0.000 C 
BRANCH  11  12
ATOM     12  C   UNL     1      59.443 152.886   3.527  1.00  0.00     0.002 C 
BRANCH  12  13
ATOM     13  C   UNL     1      59.001 154.255   4.068  1.00  0.00     0.028 C 
BRANCH  13  14
ATOM     14  C   UNL     1      59.439 154.456   5.521  1.00  0.00     0.156 C 
BRANCH  14  15
ATOM     15  O   UNL     1      60.737 153.964   5.707  1.00  0.00    -0.396 OA
ATOM     16  H   UNL     1      60.724 153.476   6.571  1.00  0.00     0.210 HD
ENDBRANCH  14  15
ENDBRANCH  13  14
ENDBRANCH  12  13
ENDBRANCH  11  12
ENDBRANCH  10  11
ENDBRANCH   9  10
ENDBRANCH   1   9
TORSDOF 13
ENDMDL
MODEL 9
REMARK VINA RESULT:    -5.251      2.932      6.868
REMARK INTER + INTRA:         -10.047
REMARK INTER:                  -9.098
REMARK INTRA:                  -0.949
REMARK UNBOUND:                -0.958
REMARK SMILES CCCCCCCCCCCCCCO
REMARK SMILES IDX 8 1 7 2 6 3 5 4 4 5 3 6 2 7 1 8 9 9 10 10 11 11 12 12 13 13
REMARK SMILES IDX 14 14 15 15
REMARK H PARENT 15 16
REMARK Flexibility Score: inf
ROOT
ATOM      1  C   UNL     1      61.419 152.829   1.661  1.00  0.00     0.000 C 
ENDROOT
BRANCH   1   2
ATOM      2  C   UNL     1      60.314 153.646   0.982  1.00  0.00    -0.000 C 
BRANCH   2   3
ATOM      3  C   UNL     1      58.972 153.464   1.700  1.00  0.00    -0.000 C 
BRANCH   3   4
ATOM      4  C   UNL     1      58.131 154.746   1.629  1.00  0.00    -0.000 C 
BRANCH   4   5
ATOM      5  C   UNL     1      58.044 155.482   2.978  1.00  0.00    -0.000 C 
BRANCH   5   6
ATOM      6  C   UNL     1      58.580 154.691   4.190  1.00  0.00    -0.000 C 
BRANCH   6   7
ATOM      7  C   UNL     1      59.034 155.555   5.379  1.00  0.00    -0.003 C 
ATOM      8  C   UNL     1      58.606 157.016   5.251  1.00  0.00     0.004 C 
ENDBRANCH   6   7
ENDBRANCH   5   6
ENDBRANCH   4   5
ENDBRANCH   3   4
ENDBRANCH   2   3
ENDBRANCH   1   2
BRANCH   1   9
ATOM      9  C   UNL     1      60.831 151.843   2.678  1.00  0.00     0.000 C 
BRANCH   9  10
ATOM     10  C   UNL     1      61.844 151.529   3.789  1.00  0.00     0.000 C 
BRANCH  10  11
ATOM     11  C   UNL     1      63.303 151.760   3.356  1.00  0.00     0.000 C 
BRANCH  11  12
ATOM     12  C   UNL     1      64.315 150.740   3.910  1.00  0.00     0.002 C 
BRANCH  12  13
ATOM     13  C   UNL     1      64.974 151.201   5.219  1.00  0.00     0.028 C 
BRANCH  13  14
ATOM     14  C   UNL     1      65.272 152.702   5.204  1.00  0.00     0.156 C 
BRANCH  14  15
ATOM     15  O   UNL     1      64.581 153.342   6.241  1.00  0.00    -0.396 OA
ATOM     16  H   UNL     1      65.056 153.100   7.078  1.00  0.00     0.210 HD
ENDBRANCH  14  15
ENDBRANCH  13  14
ENDBRANCH  12  13
ENDBRANCH  11  12
ENDBRANCH  10  11
ENDBRANCH   9  10
ENDBRANCH   1   9
TORSDOF 13
ENDMDL
