MODEL 1
REMARK VINA RESULT:    -5.817      0.000      0.000
REMARK INTER + INTRA:         -10.016
REMARK INTER:                  -8.537
REMARK INTRA:                  -1.479
REMARK UNBOUND:                -1.479
REMARK SMILES O=c1c(O[C@H]2O[C@H](CO)[C@H](O)[C@@H](O)[C@@H]2O)c(-c2ccc(O)c(O)c2)oc2cc(O)cc(O)c12
REMARK SMILES IDX 4 1 3 2 16 3 25 4 2 5 26 6 1 7 33 8 27 9 31 10 28 11 30 12
REMARK SMILES IDX 17 13 18 14 19 15 20 16 24 17 22 18 21 19 23 21 32 23 29 25
REMARK SMILES IDX 5 27 14 28 6 29 12 30 7 31 10 32 15 33 13 35 8 37 9 38 11 40
REMARK H PARENT 21 20 23 22 32 24 29 26 15 34 13 36 9 39 11 41
REMARK Flexibility Score: inf
ROOT
ATOM      1  O   UNL     1      19.160  30.544  30.972  1.00  0.00    -0.454 OA
ENDROOT
BRANCH   1   2
ATOM      2  C   UNL     1      19.106  31.590  30.032  1.00  0.00     0.214 A 
ATOM      3  C   UNL     1      18.922  31.252  28.687  1.00  0.00     0.180 A 
ATOM      4  O   UNL     1      18.651  32.188  27.789  1.00  0.00    -0.452 OA
ATOM      5  C   UNL     1      19.130  32.950  30.387  1.00  0.00     0.239 A 
ATOM      6  C   UNL     1      18.573  33.481  28.095  1.00  0.00     0.146 A 
ATOM      7  O   UNL     1      19.480  33.273  31.553  1.00  0.00    -0.285 OA
ATOM      8  C   UNL     1      18.789  33.931  29.423  1.00  0.00     0.111 A 
ATOM      9  C   UNL     1      18.253  34.386  27.078  1.00  0.00     0.094 A 
ATOM     10  C   UNL     1      18.630  35.323  29.704  1.00  0.00     0.134 A 
ATOM     11  C   UNL     1      18.098  35.741  27.363  1.00  0.00     0.123 A 
ATOM     12  C   UNL     1      18.295  36.201  28.669  1.00  0.00     0.093 A 
BRANCH   3  13
ATOM     13  C   UNL     1      19.002  29.846  28.256  1.00  0.00     0.025 A 
ATOM     14  C   UNL     1      20.213  29.147  28.376  1.00  0.00     0.016 A 
ATOM     15  C   UNL     1      20.278  27.792  28.048  1.00  0.00     0.051 A 
ATOM     16  C   UNL     1      19.138  27.129  27.574  1.00  0.00     0.157 A 
ATOM     17  C   UNL     1      17.866  29.188  27.764  1.00  0.00     0.062 A 
ATOM     18  C   UNL     1      17.936  27.831  27.414  1.00  0.00     0.158 A 
BRANCH  16  19
ATOM     19  O   UNL     1      19.181  25.765  27.293  1.00  0.00    -0.504 OA
ATOM     20  H   UNL     1      19.715  25.400  26.519  1.00  0.00     0.293 HD
ENDBRANCH  16  19
BRANCH  18  21
ATOM     21  O   UNL     1      16.802  27.164  26.953  1.00  0.00    -0.504 OA
ATOM     22  H   UNL     1      16.801  26.167  26.776  1.00  0.00     0.293 HD
ENDBRANCH  18  21
ENDBRANCH   3  13
BRANCH  10  23
ATOM     23  O   UNL     1      18.735  35.880  30.983  1.00  0.00    -0.507 OA
ATOM     24  H   UNL     1      18.574  36.851  31.203  1.00  0.00     0.293 HD
ENDBRANCH  10  23
BRANCH  11  25
ATOM     25  O   UNL     1      17.694  36.612  26.357  1.00  0.00    -0.508 OA
ATOM     26  H   UNL     1      16.716  36.725  26.115  1.00  0.00     0.293 HD
ENDBRANCH  11  25
ENDBRANCH   1   2
BRANCH   1  27
ATOM     27  C   UNL     1      18.038  29.961  31.643  1.00  0.00     0.339 C 
ATOM     28  C   UNL     1      17.668  30.811  32.890  1.00  0.00     0.214 C 
ATOM     29  O   UNL     1      18.275  28.600  31.995  1.00  0.00    -0.332 OA
ATOM     30  C   UNL     1      18.683  30.618  34.038  1.00  0.00     0.180 C 
ATOM     31  C   UNL     1      19.355  28.472  32.911  1.00  0.00     0.179 C 
ATOM     32  C   UNL     1      19.001  29.124  34.263  1.00  0.00     0.177 C 
BRANCH  28  33
ATOM     33  O   UNL     1      16.358  30.537  33.341  1.00  0.00    -0.384 OA
ATOM     34  H   UNL     1      15.978  29.813  32.784  1.00  0.00     0.211 HD
ENDBRANCH  28  33
BRANCH  30  35
ATOM     35  O   UNL     1      19.860  31.323  33.733  1.00  0.00    -0.387 OA
ATOM     36  H   UNL     1      20.493  31.175  34.485  1.00  0.00     0.211 HD
ENDBRANCH  30  35
BRANCH  31  37
ATOM     37  C   UNL     1      19.715  26.990  33.059  1.00  0.00     0.191 C 
BRANCH  37  38
ATOM     38  O   UNL     1      19.872  26.666  34.417  1.00  0.00    -0.394 OA
ATOM     39  H   UNL     1      19.156  27.142  34.915  1.00  0.00     0.210 HD
ENDBRANCH  37  38
ENDBRANCH  31  37
BRANCH  32  40
ATOM     40  O   UNL     1      17.890  28.492  34.852  1.00  0.00    -0.387 OA
ATOM     41  H   UNL     1      17.321  29.206  35.239  1.00  0.00     0.211 HD
ENDBRANCH  32  40
ENDBRANCH   1  27
TORSDOF 12
ENDMDL
MODEL 2
REMARK VINA RESULT:    -5.580      3.105      7.272
REMARK INTER + INTRA:          -9.668
REMARK INTER:                  -7.985
REMARK INTRA:                  -1.683
REMARK UNBOUND:                -1.479
REMARK SMILES O=c1c(O[C@H]2O[C@H](CO)[C@H](O)[C@@H](O)[C@@H]2O)c(-c2ccc(O)c(O)c2)oc2cc(O)cc(O)c12
REMARK SMILES IDX 4 1 3 2 16 3 25 4 2 5 26 6 1 7 33 8 27 9 31 10 28 11 30 12
REMARK SMILES IDX 17 13 18 14 19 15 20 16 24 17 22 18 21 19 23 21 32 23 29 25
REMARK SMILES IDX 5 27 14 28 6 29 12 30 7 31 10 32 15 33 13 35 8 37 9 38 11 40
REMARK H PARENT 21 20 23 22 32 24 29 26 15 34 13 36 9 39 11 41
REMARK Flexibility Score: inf
ROOT
ATOM      1  O   UNL     1      17.800  33.522  32.816  1.00  0.00    -0.454 OA
ENDROOT
BRANCH   1   2
ATOM      2  C   UNL     1      18.079  32.270  32.237  1.00  0.00     0.214 A 
ATOM      3  C   UNL     1      18.002  31.139  33.054  1.00  0.00     0.180 A 
ATOM      4  O   UNL     1      18.044  29.924  32.528  1.00  0.00    -0.452 OA
ATOM      5  C   UNL     1      18.335  32.094  30.865  1.00  0.00     0.239 A 
ATOM      6  C   UNL     1      18.192  29.707  31.223  1.00  0.00     0.146 A 
ATOM      7  O   UNL     1      18.592  33.102  30.156  1.00  0.00    -0.285 OA
ATOM      8  C   UNL     1      18.326  30.789  30.314  1.00  0.00     0.111 A 
ATOM      9  C   UNL     1      18.194  28.385  30.765  1.00  0.00     0.094 A 
ATOM     10  C   UNL     1      18.419  30.497  28.919  1.00  0.00     0.134 A 
ATOM     11  C   UNL     1      18.283  28.113  29.401  1.00  0.00     0.123 A 
ATOM     12  C   UNL     1      18.403  29.167  28.490  1.00  0.00     0.093 A 
BRANCH   3  13
ATOM     13  C   UNL     1      17.848  31.284  34.512  1.00  0.00     0.025 A 
ATOM     14  C   UNL     1      18.983  31.443  35.322  1.00  0.00     0.016 A 
ATOM     15  C   UNL     1      18.843  31.664  36.693  1.00  0.00     0.051 A 
ATOM     16  C   UNL     1      17.567  31.703  37.272  1.00  0.00     0.157 A 
ATOM     17  C   UNL     1      16.572  31.303  35.093  1.00  0.00     0.062 A 
ATOM     18  C   UNL     1      16.431  31.504  36.475  1.00  0.00     0.158 A 
BRANCH  16  19
ATOM     19  O   UNL     1      17.416  31.974  38.630  1.00  0.00    -0.504 OA
ATOM     20  H   UNL     1      17.685  32.860  39.027  1.00  0.00     0.293 HD
ENDBRANCH  16  19
BRANCH  18  21
ATOM     21  O   UNL     1      15.164  31.555  37.053  1.00  0.00    -0.504 OA
ATOM     22  H   UNL     1      15.033  31.562  38.057  1.00  0.00     0.293 HD
ENDBRANCH  18  21
ENDBRANCH   3  13
BRANCH  10  23
ATOM     23  O   UNL     1      18.473  31.473  27.918  1.00  0.00    -0.507 OA
ATOM     24  H   UNL     1      19.280  32.043  27.713  1.00  0.00     0.293 HD
ENDBRANCH  10  23
BRANCH  11  25
ATOM     25  O   UNL     1      18.196  26.798  28.957  1.00  0.00    -0.508 OA
ATOM     26  H   UNL     1      19.022  26.271  28.695  1.00  0.00     0.293 HD
ENDBRANCH  11  25
ENDBRANCH   1   2
BRANCH   1  27
ATOM     27  C   UNL     1      16.517  34.155  32.866  1.00  0.00     0.339 C 
ATOM     28  C   UNL     1      16.577  35.527  32.139  1.00  0.00     0.214 C 
ATOM     29  O   UNL     1      16.044  34.298  34.204  1.00  0.00    -0.332 OA
ATOM     30  C   UNL     1      17.332  36.586  32.973  1.00  0.00     0.180 C 
ATOM     31  C   UNL     1      16.894  35.133  34.979  1.00  0.00     0.179 C 
ATOM     32  C   UNL     1      16.867  36.580  34.445  1.00  0.00     0.177 C 
BRANCH  28  33
ATOM     33  O   UNL     1      15.289  35.996  31.799  1.00  0.00    -0.384 OA
ATOM     34  H   UNL     1      15.372  36.622  31.038  1.00  0.00     0.211 HD
ENDBRANCH  28  33
BRANCH  30  35
ATOM     35  O   UNL     1      18.712  36.329  32.899  1.00  0.00    -0.387 OA
ATOM     36  H   UNL     1      18.908  36.058  31.963  1.00  0.00     0.211 HD
ENDBRANCH  30  35
BRANCH  31  37
ATOM     37  C   UNL     1      16.474  35.051  36.450  1.00  0.00     0.191 C 
BRANCH  37  38
ATOM     38  O   UNL     1      15.108  34.735  36.545  1.00  0.00    -0.394 OA
ATOM     39  H   UNL     1      15.006  34.103  37.304  1.00  0.00     0.210 HD
ENDBRANCH  37  38
ENDBRANCH  31  37
BRANCH  32  40
ATOM     40  O   UNL     1      15.572  37.125  34.530  1.00  0.00    -0.387 OA
ATOM     41  H   UNL     1      15.256  36.982  35.459  1.00  0.00     0.211 HD
ENDBRANCH  32  40
ENDBRANCH   1  27
TORSDOF 12
ENDMDL
MODEL 3
REMARK VINA RESULT:    -5.516      3.190      8.944
REMARK INTER + INTRA:          -9.574
REMARK INTER:                  -8.171
REMARK INTRA:                  -1.403
REMARK UNBOUND:                -1.479
REMARK SMILES O=c1c(O[C@H]2O[C@H](CO)[C@H](O)[C@@H](O)[C@@H]2O)c(-c2ccc(O)c(O)c2)oc2cc(O)cc(O)c12
REMARK SMILES IDX 4 1 3 2 16 3 25 4 2 5 26 6 1 7 33 8 27 9 31 10 28 11 30 12
REMARK SMILES IDX 17 13 18 14 19 15 20 16 24 17 22 18 21 19 23 21 32 23 29 25
REMARK SMILES IDX 5 27 14 28 6 29 12 30 7 31 10 32 15 33 13 35 8 37 9 38 11 40
REMARK H PARENT 21 20 23 22 32 24 29 26 15 34 13 36 9 39 11 41
REMARK Flexibility Score: inf
ROOT
ATOM      1  O   UNL     1      19.614  27.462  31.580  1.00  0.00    -0.454 OA
ENDROOT
BRANCH   1   2
ATOM      2  C   UNL     1      20.231  26.694  32.584  1.00  0.00     0.214 A 
ATOM      3  C   UNL     1      20.065  27.099  33.912  1.00  0.00     0.180 A 
ATOM      4  O   UNL     1      20.438  26.309  34.908  1.00  0.00    -0.452 OA
ATOM      5  C   UNL     1      20.918  25.494  32.326  1.00  0.00     0.239 A 
ATOM      6  C   UNL     1      21.009  25.122  34.714  1.00  0.00     0.146 A 
ATOM      7  O   UNL     1      21.237  25.214  31.141  1.00  0.00    -0.285 OA
ATOM      8  C   UNL     1      21.263  24.641  33.403  1.00  0.00     0.111 A 
ATOM      9  C   UNL     1      21.338  24.352  35.834  1.00  0.00     0.094 A 
ATOM     10  C   UNL     1      21.821  23.334  33.255  1.00  0.00     0.134 A 
ATOM     11  C   UNL     1      21.880  23.078  35.678  1.00  0.00     0.123 A 
ATOM     12  C   UNL     1      22.125  22.582  34.394  1.00  0.00     0.093 A 
BRANCH   3  13
ATOM     13  C   UNL     1      19.451  28.402  34.221  1.00  0.00     0.025 A 
ATOM     14  C   UNL     1      20.213  29.576  34.112  1.00  0.00     0.016 A 
ATOM     15  C   UNL     1      19.618  30.821  34.322  1.00  0.00     0.051 A 
ATOM     16  C   UNL     1      18.262  30.903  34.667  1.00  0.00     0.157 A 
ATOM     17  C   UNL     1      18.100  28.482  34.585  1.00  0.00     0.062 A 
ATOM     18  C   UNL     1      17.507  29.732  34.817  1.00  0.00     0.158 A 
BRANCH  16  19
ATOM     19  O   UNL     1      17.649  32.143  34.829  1.00  0.00    -0.504 OA
ATOM     20  H   UNL     1      16.731  32.333  34.457  1.00  0.00     0.293 HD
ENDBRANCH  16  19
BRANCH  18  21
ATOM     21  O   UNL     1      16.156  29.819  35.149  1.00  0.00    -0.504 OA
ATOM     22  H   UNL     1      15.483  30.270  34.542  1.00  0.00     0.293 HD
ENDBRANCH  18  21
ENDBRANCH   3  13
BRANCH  10  23
ATOM     23  O   UNL     1      22.042  22.713  32.021  1.00  0.00    -0.507 OA
ATOM     24  H   UNL     1      22.896  22.244  31.759  1.00  0.00     0.293 HD
ENDBRANCH  10  23
BRANCH  11  25
ATOM     25  O   UNL     1      22.119  22.292  36.800  1.00  0.00    -0.508 OA
ATOM     26  H   UNL     1      22.605  21.405  36.731  1.00  0.00     0.293 HD
ENDBRANCH  11  25
ENDBRANCH   1   2
BRANCH   1  27
ATOM     27  C   UNL     1      20.273  28.073  30.465  1.00  0.00     0.339 C 
ATOM     28  C   UNL     1      20.088  29.615  30.522  1.00  0.00     0.214 C 
ATOM     29  O   UNL     1      19.822  27.541  29.221  1.00  0.00    -0.332 OA
ATOM     30  C   UNL     1      18.653  30.034  30.133  1.00  0.00     0.180 C 
ATOM     31  C   UNL     1      18.440  27.793  29.009  1.00  0.00     0.179 C 
ATOM     32  C   UNL     1      18.180  29.307  28.855  1.00  0.00     0.177 C 
BRANCH  28  33
ATOM     33  O   UNL     1      21.032  30.286  29.715  1.00  0.00    -0.384 OA
ATOM     34  H   UNL     1      21.227  29.724  28.925  1.00  0.00     0.211 HD
ENDBRANCH  28  33
BRANCH  30  35
ATOM     35  O   UNL     1      17.785  29.750  31.202  1.00  0.00    -0.387 OA
ATOM     36  H   UNL     1      16.952  29.377  30.810  1.00  0.00     0.211 HD
ENDBRANCH  30  35
BRANCH  31  37
ATOM     37  C   UNL     1      17.965  26.997  27.789  1.00  0.00     0.191 C 
BRANCH  37  38
ATOM     38  O   UNL     1      16.846  27.621  27.213  1.00  0.00    -0.394 OA
ATOM     39  H   UNL     1      16.253  27.903  27.958  1.00  0.00     0.210 HD
ENDBRANCH  37  38
ENDBRANCH  31  37
BRANCH  32  40
ATOM     40  O   UNL     1      18.865  29.824  27.740  1.00  0.00    -0.387 OA
ATOM     41  H   UNL     1      18.859  29.120  27.042  1.00  0.00     0.211 HD
ENDBRANCH  32  40
ENDBRANCH   1  27
TORSDOF 12
ENDMDL
MODEL 4
REMARK VINA RESULT:    -5.490      2.059      6.277
REMARK INTER + INTRA:          -9.536
REMARK INTER:                  -7.952
REMARK INTRA:                  -1.584
REMARK UNBOUND:                -1.479
REMARK SMILES O=c1c(O[C@H]2O[C@H](CO)[C@H](O)[C@@H](O)[C@@H]2O)c(-c2ccc(O)c(O)c2)oc2cc(O)cc(O)c12
REMARK SMILES IDX 4 1 3 2 16 3 25 4 2 5 26 6 1 7 33 8 27 9 31 10 28 11 30 12
REMARK SMILES IDX 17 13 18 14 19 15 20 16 24 17 22 18 21 19 23 21 32 23 29 25
REMARK SMILES IDX 5 27 14 28 6 29 12 30 7 31 10 32 15 33 13 35 8 37 9 38 11 40
REMARK H PARENT 21 20 23 22 32 24 29 26 15 34 13 36 9 39 11 41
REMARK Flexibility Score: inf
ROOT
ATOM      1  O   UNL     1      19.220  29.720  30.049  1.00  0.00    -0.454 OA
ENDROOT
BRANCH   1   2
ATOM      2  C   UNL     1      18.802  30.488  31.152  1.00  0.00     0.214 A 
ATOM      3  C   UNL     1      18.734  31.875  30.995  1.00  0.00     0.180 A 
ATOM      4  O   UNL     1      18.151  32.629  31.915  1.00  0.00    -0.452 OA
ATOM      5  C   UNL     1      18.359  29.924  32.362  1.00  0.00     0.239 A 
ATOM      6  C   UNL     1      17.634  32.131  33.036  1.00  0.00     0.146 A 
ATOM      7  O   UNL     1      18.586  28.707  32.589  1.00  0.00    -0.285 OA
ATOM      8  C   UNL     1      17.694  30.739  33.310  1.00  0.00     0.111 A 
ATOM      9  C   UNL     1      17.014  33.009  33.930  1.00  0.00     0.094 A 
ATOM     10  C   UNL     1      17.067  30.254  34.499  1.00  0.00     0.134 A 
ATOM     11  C   UNL     1      16.405  32.524  35.085  1.00  0.00     0.123 A 
ATOM     12  C   UNL     1      16.442  31.155  35.366  1.00  0.00     0.093 A 
BRANCH   3  13
ATOM     13  C   UNL     1      19.290  32.515  29.790  1.00  0.00     0.025 A 
ATOM     14  C   UNL     1      20.665  32.424  29.522  1.00  0.00     0.016 A 
ATOM     15  C   UNL     1      21.188  32.955  28.342  1.00  0.00     0.051 A 
ATOM     16  C   UNL     1      20.345  33.605  27.430  1.00  0.00     0.157 A 
ATOM     17  C   UNL     1      18.450  33.181  28.888  1.00  0.00     0.062 A 
ATOM     18  C   UNL     1      18.978  33.735  27.711  1.00  0.00     0.158 A 
BRANCH  16  19
ATOM     19  O   UNL     1      20.850  34.093  26.227  1.00  0.00    -0.504 OA
ATOM     20  H   UNL     1      21.627  33.651  25.760  1.00  0.00     0.293 HD
ENDBRANCH  16  19
BRANCH  18  21
ATOM     21  O   UNL     1      18.142  34.372  26.796  1.00  0.00    -0.504 OA
ATOM     22  H   UNL     1      17.449  33.864  26.260  1.00  0.00     0.293 HD
ENDBRANCH  18  21
ENDBRANCH   3  13
BRANCH  10  23
ATOM     23  O   UNL     1      16.985  28.900  34.842  1.00  0.00    -0.507 OA
ATOM     24  H   UNL     1      16.650  28.171  34.231  1.00  0.00     0.293 HD
ENDBRANCH  10  23
BRANCH  11  25
ATOM     25  O   UNL     1      15.717  33.401  35.918  1.00  0.00    -0.508 OA
ATOM     26  H   UNL     1      14.812  33.776  35.659  1.00  0.00     0.293 HD
ENDBRANCH  11  25
ENDBRANCH   1   2
BRANCH   1  27
ATOM     27  C   UNL     1      18.366  29.151  29.050  1.00  0.00     0.339 C 
ATOM     28  C   UNL     1      18.489  27.602  29.071  1.00  0.00     0.214 C 
ATOM     29  O   UNL     1      18.639  29.677  27.753  1.00  0.00    -0.332 OA
ATOM     30  C   UNL     1      19.824  27.125  28.457  1.00  0.00     0.180 C 
ATOM     31  C   UNL     1      19.958  29.367  27.324  1.00  0.00     0.179 C 
ATOM     32  C   UNL     1      20.122  27.846  27.124  1.00  0.00     0.177 C 
BRANCH  28  33
ATOM     33  O   UNL     1      17.400  26.983  28.419  1.00  0.00    -0.384 OA
ATOM     34  H   UNL     1      16.941  26.391  29.066  1.00  0.00     0.211 HD
ENDBRANCH  28  33
BRANCH  30  35
ATOM     35  O   UNL     1      20.861  27.358  29.377  1.00  0.00    -0.387 OA
ATOM     36  H   UNL     1      21.712  27.346  28.866  1.00  0.00     0.211 HD
ENDBRANCH  30  35
BRANCH  31  37
ATOM     37  C   UNL     1      20.271  30.155  26.048  1.00  0.00     0.191 C 
BRANCH  37  38
ATOM     38  O   UNL     1      21.163  29.431  25.241  1.00  0.00    -0.394 OA
ATOM     39  H   UNL     1      21.456  30.037  24.511  1.00  0.00     0.210 HD
ENDBRANCH  37  38
ENDBRANCH  31  37
BRANCH  32  40
ATOM     40  O   UNL     1      19.247  27.371  26.129  1.00  0.00    -0.387 OA
ATOM     41  H   UNL     1      18.348  27.735  26.335  1.00  0.00     0.211 HD
ENDBRANCH  32  40
ENDBRANCH   1  27
TORSDOF 12
ENDMDL
MODEL 5
REMARK VINA RESULT:    -5.425      3.413      7.074
REMARK INTER + INTRA:          -9.441
REMARK INTER:                  -8.190
REMARK INTRA:                  -1.251
REMARK UNBOUND:                -1.479
REMARK SMILES O=c1c(O[C@H]2O[C@H](CO)[C@H](O)[C@@H](O)[C@@H]2O)c(-c2ccc(O)c(O)c2)oc2cc(O)cc(O)c12
REMARK SMILES IDX 4 1 3 2 16 3 25 4 2 5 26 6 1 7 33 8 27 9 31 10 28 11 30 12
REMARK SMILES IDX 17 13 18 14 19 15 20 16 24 17 22 18 21 19 23 21 32 23 29 25
REMARK SMILES IDX 5 27 14 28 6 29 12 30 7 31 10 32 15 33 13 35 8 37 9 38 11 40
REMARK H PARENT 21 20 23 22 32 24 29 26 15 34 13 36 9 39 11 41
REMARK Flexibility Score: inf
ROOT
ATOM      1  O   UNL     1      17.793  31.317  33.172  1.00  0.00    -0.454 OA
ENDROOT
BRANCH   1   2
ATOM      2  C   UNL     1      17.217  31.799  34.362  1.00  0.00     0.214 A 
ATOM      3  C   UNL     1      17.600  31.197  35.565  1.00  0.00     0.180 A 
ATOM      4  O   UNL     1      17.262  31.738  36.726  1.00  0.00    -0.452 OA
ATOM      5  C   UNL     1      16.358  32.911  34.410  1.00  0.00     0.239 A 
ATOM      6  C   UNL     1      16.527  32.843  36.821  1.00  0.00     0.146 A 
ATOM      7  O   UNL     1      15.858  33.345  33.338  1.00  0.00    -0.285 OA
ATOM      8  C   UNL     1      16.050  33.504  35.659  1.00  0.00     0.111 A 
ATOM      9  C   UNL     1      16.250  33.350  38.095  1.00  0.00     0.094 A 
ATOM     10  C   UNL     1      15.318  34.721  35.820  1.00  0.00     0.134 A 
ATOM     11  C   UNL     1      15.537  34.539  38.240  1.00  0.00     0.123 A 
ATOM     12  C   UNL     1      15.070  35.210  37.106  1.00  0.00     0.093 A 
BRANCH   3  13
ATOM     13  C   UNL     1      18.407  29.965  35.556  1.00  0.00     0.025 A 
ATOM     14  C   UNL     1      18.028  28.888  34.738  1.00  0.00     0.016 A 
ATOM     15  C   UNL     1      18.830  27.749  34.659  1.00  0.00     0.051 A 
ATOM     16  C   UNL     1      20.006  27.664  35.417  1.00  0.00     0.157 A 
ATOM     17  C   UNL     1      19.572  29.873  36.328  1.00  0.00     0.062 A 
ATOM     18  C   UNL     1      20.369  28.719  36.267  1.00  0.00     0.158 A 
BRANCH  16  19
ATOM     19  O   UNL     1      20.839  26.553  35.306  1.00  0.00    -0.504 OA
ATOM     20  H   UNL     1      21.196  26.074  36.118  1.00  0.00     0.293 HD
ENDBRANCH  16  19
BRANCH  18  21
ATOM     21  O   UNL     1      21.545  28.635  37.009  1.00  0.00    -0.504 OA
ATOM     22  H   UNL     1      22.419  29.022  36.675  1.00  0.00     0.293 HD
ENDBRANCH  18  21
ENDBRANCH   3  13
BRANCH  10  23
ATOM     23  O   UNL     1      14.865  35.508  34.757  1.00  0.00    -0.507 OA
ATOM     24  H   UNL     1      14.676  36.497  34.812  1.00  0.00     0.293 HD
ENDBRANCH  10  23
BRANCH  11  25
ATOM     25  O   UNL     1      15.346  35.073  39.510  1.00  0.00    -0.508 OA
ATOM     26  H   UNL     1      16.122  35.215  40.147  1.00  0.00     0.293 HD
ENDBRANCH  11  25
ENDBRANCH   1   2
BRANCH   1  27
ATOM     27  C   UNL     1      18.730  32.019  32.349  1.00  0.00     0.339 C 
ATOM     28  C   UNL     1      18.378  31.808  30.850  1.00  0.00     0.214 C 
ATOM     29  O   UNL     1      20.075  31.636  32.625  1.00  0.00    -0.332 OA
ATOM     30  C   UNL     1      18.748  30.386  30.369  1.00  0.00     0.180 C 
ATOM     31  C   UNL     1      20.301  30.261  32.344  1.00  0.00     0.179 C 
ATOM     32  C   UNL     1      20.165  29.986  30.832  1.00  0.00     0.177 C 
BRANCH  28  33
ATOM     33  O   UNL     1      18.989  32.778  30.027  1.00  0.00    -0.384 OA
ATOM     34  H   UNL     1      19.717  33.211  30.537  1.00  0.00     0.211 HD
ENDBRANCH  28  33
BRANCH  30  35
ATOM     35  O   UNL     1      17.800  29.474  30.865  1.00  0.00    -0.387 OA
ATOM     36  H   UNL     1      18.304  28.745  31.314  1.00  0.00     0.211 HD
ENDBRANCH  30  35
BRANCH  31  37
ATOM     37  C   UNL     1      21.677  29.856  32.885  1.00  0.00     0.191 C 
BRANCH  37  38
ATOM     38  O   UNL     1      22.080  30.750  33.890  1.00  0.00    -0.394 OA
ATOM     39  H   UNL     1      21.529  31.570  33.791  1.00  0.00     0.210 HD
ENDBRANCH  37  38
ENDBRANCH  31  37
BRANCH  32  40
ATOM     40  O   UNL     1      21.121  30.715  30.099  1.00  0.00    -0.387 OA
ATOM     41  H   UNL     1      21.307  30.201  29.272  1.00  0.00     0.211 HD
ENDBRANCH  32  40
ENDBRANCH   1  27
TORSDOF 12
ENDMDL
MODEL 6
REMARK VINA RESULT:    -5.406      1.057      2.018
REMARK INTER + INTRA:          -9.413
REMARK INTER:                  -7.968
REMARK INTRA:                  -1.445
REMARK UNBOUND:                -1.479
REMARK SMILES O=c1c(O[C@H]2O[C@H](CO)[C@H](O)[C@@H](O)[C@@H]2O)c(-c2ccc(O)c(O)c2)oc2cc(O)cc(O)c12
REMARK SMILES IDX 4 1 3 2 16 3 25 4 2 5 26 6 1 7 33 8 27 9 31 10 28 11 30 12
REMARK SMILES IDX 17 13 18 14 19 15 20 16 24 17 22 18 21 19 23 21 32 23 29 25
REMARK SMILES IDX 5 27 14 28 6 29 12 30 7 31 10 32 15 33 13 35 8 37 9 38 11 40
REMARK H PARENT 21 20 23 22 32 24 29 26 15 34 13 36 9 39 11 41
REMARK Flexibility Score: inf
ROOT
ATOM      1  O   UNL     1      18.667  31.063  30.735  1.00  0.00    -0.454 OA
ENDROOT
BRANCH   1   2
ATOM      2  C   UNL     1      18.770  32.096  29.784  1.00  0.00     0.214 A 
ATOM      3  C   UNL     1      18.863  31.736  28.436  1.00  0.00     0.180 A 
ATOM      4  O   UNL     1      18.749  32.653  27.486  1.00  0.00    -0.452 OA
ATOM      5  C   UNL     1      18.686  33.460  30.114  1.00  0.00     0.239 A 
ATOM      6  C   UNL     1      18.576  33.946  27.747  1.00  0.00     0.146 A 
ATOM      7  O   UNL     1      18.791  33.807  31.320  1.00  0.00    -0.285 OA
ATOM      8  C   UNL     1      18.515  34.419  29.085  1.00  0.00     0.111 A 
ATOM      9  C   UNL     1      18.438  34.829  26.671  1.00  0.00     0.094 A 
ATOM     10  C   UNL     1      18.265  35.808  29.304  1.00  0.00     0.134 A 
ATOM     11  C   UNL     1      18.192  36.182  26.898  1.00  0.00     0.123 A 
ATOM     12  C   UNL     1      18.116  36.663  28.208  1.00  0.00     0.093 A 
BRANCH   3  13
ATOM     13  C   UNL     1      19.065  30.328  28.054  1.00  0.00     0.025 A 
ATOM     14  C   UNL     1      20.352  29.770  28.098  1.00  0.00     0.016 A 
ATOM     15  C   UNL     1      20.541  28.416  27.818  1.00  0.00     0.051 A 
ATOM     16  C   UNL     1      19.448  27.612  27.467  1.00  0.00     0.157 A 
ATOM     17  C   UNL     1      17.974  29.529  27.685  1.00  0.00     0.062 A 
ATOM     18  C   UNL     1      18.166  28.173  27.382  1.00  0.00     0.158 A 
BRANCH  16  19
ATOM     19  O   UNL     1      19.620  26.249  27.236  1.00  0.00    -0.504 OA
ATOM     20  H   UNL     1      19.773  25.884  26.309  1.00  0.00     0.293 HD
ENDBRANCH  16  19
BRANCH  18  21
ATOM     21  O   UNL     1      17.080  27.366  27.044  1.00  0.00    -0.504 OA
ATOM     22  H   UNL     1      16.839  27.167  26.081  1.00  0.00     0.293 HD
ENDBRANCH  18  21
ENDBRANCH   3  13
BRANCH  10  23
ATOM     23  O   UNL     1      18.102  36.383  30.569  1.00  0.00    -0.507 OA
ATOM     24  H   UNL     1      18.680  37.120  30.945  1.00  0.00     0.293 HD
ENDBRANCH  10  23
BRANCH  11  25
ATOM     25  O   UNL     1      17.970  37.029  25.817  1.00  0.00    -0.508 OA
ATOM     26  H   UNL     1      18.720  37.579  25.412  1.00  0.00     0.293 HD
ENDBRANCH  11  25
ENDBRANCH   1   2
BRANCH   1  27
ATOM     27  C   UNL     1      19.584  30.812  31.805  1.00  0.00     0.339 C 
ATOM     28  C   UNL     1      20.220  29.405  31.636  1.00  0.00     0.214 C 
ATOM     29  O   UNL     1      18.966  30.954  33.082  1.00  0.00    -0.332 OA
ATOM     30  C   UNL     1      19.222  28.279  31.989  1.00  0.00     0.180 C 
ATOM     31  C   UNL     1      17.921  30.010  33.270  1.00  0.00     0.179 C 
ATOM     32  C   UNL     1      18.485  28.574  33.314  1.00  0.00     0.177 C 
BRANCH  28  33
ATOM     33  O   UNL     1      21.402  29.269  32.397  1.00  0.00    -0.384 OA
ATOM     34  H   UNL     1      21.167  28.886  33.278  1.00  0.00     0.211 HD
ENDBRANCH  28  33
BRANCH  30  35
ATOM     35  O   UNL     1      18.297  28.140  30.940  1.00  0.00    -0.387 OA
ATOM     36  H   UNL     1      17.637  27.453  31.221  1.00  0.00     0.211 HD
ENDBRANCH  30  35
BRANCH  31  37
ATOM     37  C   UNL     1      17.145  30.366  34.543  1.00  0.00     0.191 C 
BRANCH  37  38
ATOM     38  O   UNL     1      16.600  29.204  35.115  1.00  0.00    -0.394 OA
ATOM     39  H   UNL     1      15.777  28.985  34.603  1.00  0.00     0.210 HD
ENDBRANCH  37  38
ENDBRANCH  31  37
BRANCH  32  40
ATOM     40  O   UNL     1      19.376  28.416  34.391  1.00  0.00    -0.387 OA
ATOM     41  H   UNL     1      19.506  29.312  34.796  1.00  0.00     0.211 HD
ENDBRANCH  32  40
ENDBRANCH   1  27
TORSDOF 12
ENDMDL
MODEL 7
REMARK VINA RESULT:    -5.393      2.333      6.131
REMARK INTER + INTRA:          -9.394
REMARK INTER:                  -8.066
REMARK INTRA:                  -1.328
REMARK UNBOUND:                -1.479
REMARK SMILES O=c1c(O[C@H]2O[C@H](CO)[C@H](O)[C@@H](O)[C@@H]2O)c(-c2ccc(O)c(O)c2)oc2cc(O)cc(O)c12
REMARK SMILES IDX 4 1 3 2 16 3 25 4 2 5 26 6 1 7 33 8 27 9 31 10 28 11 30 12
REMARK SMILES IDX 17 13 18 14 19 15 20 16 24 17 22 18 21 19 23 21 32 23 29 25
REMARK SMILES IDX 5 27 14 28 6 29 12 30 7 31 10 32 15 33 13 35 8 37 9 38 11 40
REMARK H PARENT 21 20 23 22 32 24 29 26 15 34 13 36 9 39 11 41
REMARK Flexibility Score: inf
ROOT
ATOM      1  O   UNL     1      19.141  31.866  30.745  1.00  0.00    -0.454 OA
ENDROOT
BRANCH   1   2
ATOM      2  C   UNL     1      18.279  31.744  31.850  1.00  0.00     0.214 A 
ATOM      3  C   UNL     1      18.087  30.470  32.393  1.00  0.00     0.180 A 
ATOM      4  O   UNL     1      17.464  30.319  33.552  1.00  0.00    -0.452 OA
ATOM      5  C   UNL     1      17.683  32.845  32.490  1.00  0.00     0.239 A 
ATOM      6  C   UNL     1      16.963  31.341  34.242  1.00  0.00     0.146 A 
ATOM      7  O   UNL     1      17.689  33.965  31.914  1.00  0.00    -0.285 OA
ATOM      8  C   UNL     1      17.065  32.670  33.753  1.00  0.00     0.111 A 
ATOM      9  C   UNL     1      16.349  31.078  35.470  1.00  0.00     0.094 A 
ATOM     10  C   UNL     1      16.565  33.734  34.565  1.00  0.00     0.134 A 
ATOM     11  C   UNL     1      15.866  32.123  36.255  1.00  0.00     0.123 A 
ATOM     12  C   UNL     1      15.969  33.439  35.795  1.00  0.00     0.093 A 
BRANCH   3  13
ATOM     13  C   UNL     1      18.599  29.279  31.693  1.00  0.00     0.025 A 
ATOM     14  C   UNL     1      19.762  28.643  32.156  1.00  0.00     0.016 A 
ATOM     15  C   UNL     1      20.208  27.467  31.551  1.00  0.00     0.051 A 
ATOM     16  C   UNL     1      19.510  26.929  30.461  1.00  0.00     0.157 A 
ATOM     17  C   UNL     1      17.911  28.752  30.592  1.00  0.00     0.062 A 
ATOM     18  C   UNL     1      18.371  27.582  29.968  1.00  0.00     0.158 A 
BRANCH  16  19
ATOM     19  O   UNL     1      19.919  25.729  29.883  1.00  0.00    -0.504 OA
ATOM     20  H   UNL     1      19.263  24.996  29.663  1.00  0.00     0.293 HD
ENDBRANCH  16  19
BRANCH  18  21
ATOM     21  O   UNL     1      17.673  27.037  28.892  1.00  0.00    -0.504 OA
ATOM     22  H   UNL     1      16.673  26.884  28.924  1.00  0.00     0.293 HD
ENDBRANCH  18  21
ENDBRANCH   3  13
BRANCH  10  23
ATOM     23  O   UNL     1      16.677  35.088  34.236  1.00  0.00    -0.507 OA
ATOM     24  H   UNL     1      17.510  35.525  33.872  1.00  0.00     0.293 HD
ENDBRANCH  10  23
BRANCH  11  25
ATOM     25  O   UNL     1      15.338  31.849  37.512  1.00  0.00    -0.508 OA
ATOM     26  H   UNL     1      14.849  30.982  37.704  1.00  0.00     0.293 HD
ENDBRANCH  11  25
ENDBRANCH   1   2
BRANCH   1  27
ATOM     27  C   UNL     1      18.751  31.828  29.368  1.00  0.00     0.339 C 
ATOM     28  C   UNL     1      19.896  31.220  28.511  1.00  0.00     0.214 C 
ATOM     29  O   UNL     1      18.368  33.114  28.886  1.00  0.00    -0.332 OA
ATOM     30  C   UNL     1      21.069  32.210  28.337  1.00  0.00     0.180 C 
ATOM     31  C   UNL     1      19.447  34.038  28.933  1.00  0.00     0.179 C 
ATOM     32  C   UNL     1      20.565  33.619  27.956  1.00  0.00     0.177 C 
BRANCH  28  33
ATOM     33  O   UNL     1      19.432  30.783  27.251  1.00  0.00    -0.384 OA
ATOM     34  H   UNL     1      18.713  31.393  26.951  1.00  0.00     0.211 HD
ENDBRANCH  28  33
BRANCH  30  35
ATOM     35  O   UNL     1      21.805  32.265  29.533  1.00  0.00    -0.387 OA
ATOM     36  H   UNL     1      21.627  31.419  30.024  1.00  0.00     0.211 HD
ENDBRANCH  30  35
BRANCH  31  37
ATOM     37  C   UNL     1      18.917  35.445  28.638  1.00  0.00     0.191 C 
BRANCH  37  38
ATOM     38  O   UNL     1      17.813  35.726  29.460  1.00  0.00    -0.394 OA
ATOM     39  H   UNL     1      17.241  36.373  28.970  1.00  0.00     0.210 HD
ENDBRANCH  37  38
ENDBRANCH  31  37
BRANCH  32  40
ATOM     40  O   UNL     1      20.096  33.607  26.629  1.00  0.00    -0.387 OA
ATOM     41  H   UNL     1      20.794  34.038  26.070  1.00  0.00     0.211 HD
ENDBRANCH  32  40
ENDBRANCH   1  27
TORSDOF 12
ENDMDL
MODEL 8
REMARK VINA RESULT:    -5.344      2.887      6.457
REMARK INTER + INTRA:          -9.323
REMARK INTER:                  -7.978
REMARK INTRA:                  -1.345
REMARK UNBOUND:                -1.479
REMARK SMILES O=c1c(O[C@H]2O[C@H](CO)[C@H](O)[C@@H](O)[C@@H]2O)c(-c2ccc(O)c(O)c2)oc2cc(O)cc(O)c12
REMARK SMILES IDX 4 1 3 2 16 3 25 4 2 5 26 6 1 7 33 8 27 9 31 10 28 11 30 12
REMARK SMILES IDX 17 13 18 14 19 15 20 16 24 17 22 18 21 19 23 21 32 23 29 25
REMARK SMILES IDX 5 27 14 28 6 29 12 30 7 31 10 32 15 33 13 35 8 37 9 38 11 40
REMARK H PARENT 21 20 23 22 32 24 29 26 15 34 13 36 9 39 11 41
REMARK Flexibility Score: inf
ROOT
ATOM      1  O   UNL     1      19.990  28.882  33.173  1.00  0.00    -0.454 OA
ENDROOT
BRANCH   1   2
ATOM      2  C   UNL     1      19.390  28.366  32.009  1.00  0.00     0.214 A 
ATOM      3  C   UNL     1      18.447  29.162  31.351  1.00  0.00     0.180 A 
ATOM      4  O   UNL     1      18.008  28.828  30.147  1.00  0.00    -0.452 OA
ATOM      5  C   UNL     1      19.762  27.142  31.426  1.00  0.00     0.239 A 
ATOM      6  C   UNL     1      18.400  27.725  29.515  1.00  0.00     0.146 A 
ATOM      7  O   UNL     1      20.461  26.334  32.093  1.00  0.00    -0.285 OA
ATOM      8  C   UNL     1      19.320  26.827  30.117  1.00  0.00     0.111 A 
ATOM      9  C   UNL     1      17.899  27.479  28.233  1.00  0.00     0.094 A 
ATOM     10  C   UNL     1      19.754  25.692  29.366  1.00  0.00     0.134 A 
ATOM     11  C   UNL     1      18.330  26.369  27.509  1.00  0.00     0.123 A 
ATOM     12  C   UNL     1      19.246  25.481  28.081  1.00  0.00     0.093 A 
BRANCH   3  13
ATOM     13  C   UNL     1      17.947  30.396  31.981  1.00  0.00     0.025 A 
ATOM     14  C   UNL     1      16.937  30.326  32.953  1.00  0.00     0.016 A 
ATOM     15  C   UNL     1      16.516  31.480  33.614  1.00  0.00     0.051 A 
ATOM     16  C   UNL     1      17.082  32.721  33.292  1.00  0.00     0.157 A 
ATOM     17  C   UNL     1      18.501  31.639  31.644  1.00  0.00     0.062 A 
ATOM     18  C   UNL     1      18.063  32.804  32.293  1.00  0.00     0.158 A 
BRANCH  16  19
ATOM     19  O   UNL     1      16.704  33.870  33.982  1.00  0.00    -0.504 OA
ATOM     20  H   UNL     1      17.162  34.755  33.830  1.00  0.00     0.293 HD
ENDBRANCH  16  19
BRANCH  18  21
ATOM     21  O   UNL     1      18.632  34.038  31.985  1.00  0.00    -0.504 OA
ATOM     22  H   UNL     1      18.877  34.710  32.702  1.00  0.00     0.293 HD
ENDBRANCH  18  21
ENDBRANCH   3  13
BRANCH  10  23
ATOM     23  O   UNL     1      20.715  24.780  29.813  1.00  0.00    -0.507 OA
ATOM     24  H   UNL     1      21.037  24.703  30.767  1.00  0.00     0.293 HD
ENDBRANCH  10  23
BRANCH  11  25
ATOM     25  O   UNL     1      17.888  26.188  26.202  1.00  0.00    -0.508 OA
ATOM     26  H   UNL     1      16.900  26.149  25.979  1.00  0.00     0.293 HD
ENDBRANCH  11  25
ENDBRANCH   1   2
BRANCH   1  27
ATOM     27  C   UNL     1      19.509  28.713  34.511  1.00  0.00     0.339 C 
ATOM     28  C   UNL     1      19.868  29.962  35.363  1.00  0.00     0.214 C 
ATOM     29  O   UNL     1      20.004  27.517  35.108  1.00  0.00    -0.332 OA
ATOM     30  C   UNL     1      21.371  30.002  35.717  1.00  0.00     0.180 C 
ATOM     31  C   UNL     1      21.420  27.534  35.230  1.00  0.00     0.179 C 
ATOM     32  C   UNL     1      21.868  28.629  36.220  1.00  0.00     0.177 C 
BRANCH  28  33
ATOM     33  O   UNL     1      19.085  30.039  36.535  1.00  0.00    -0.384 OA
ATOM     34  H   UNL     1      18.247  29.535  36.388  1.00  0.00     0.211 HD
ENDBRANCH  28  33
BRANCH  30  35
ATOM     35  O   UNL     1      22.100  30.394  34.581  1.00  0.00    -0.387 OA
ATOM     36  H   UNL     1      21.922  29.721  33.873  1.00  0.00     0.211 HD
ENDBRANCH  30  35
BRANCH  31  37
ATOM     37  C   UNL     1      21.906  26.142  35.647  1.00  0.00     0.191 C 
BRANCH  37  38
ATOM     38  O   UNL     1      21.265  25.158  34.877  1.00  0.00    -0.394 OA
ATOM     39  H   UNL     1      21.773  25.074  34.027  1.00  0.00     0.210 HD
ENDBRANCH  37  38
ENDBRANCH  31  37
BRANCH  32  40
ATOM     40  O   UNL     1      21.351  28.386  37.507  1.00  0.00    -0.387 OA
ATOM     41  H   UNL     1      21.283  27.402  37.612  1.00  0.00     0.211 HD
ENDBRANCH  32  40
ENDBRANCH   1  27
TORSDOF 12
ENDMDL
MODEL 9
REMARK VINA RESULT:    -5.247      2.915      8.418
REMARK INTER + INTRA:          -9.180
REMARK INTER:                  -8.064
REMARK INTRA:                  -1.116
REMARK UNBOUND:                -1.479
REMARK SMILES O=c1c(O[C@H]2O[C@H](CO)[C@H](O)[C@@H](O)[C@@H]2O)c(-c2ccc(O)c(O)c2)oc2cc(O)cc(O)c12
REMARK SMILES IDX 4 1 3 2 16 3 25 4 2 5 26 6 1 7 33 8 27 9 31 10 28 11 30 12
REMARK SMILES IDX 17 13 18 14 19 15 20 16 24 17 22 18 21 19 23 21 32 23 29 25
REMARK SMILES IDX 5 27 14 28 6 29 12 30 7 31 10 32 15 33 13 35 8 37 9 38 11 40
REMARK H PARENT 21 20 23 22 32 24 29 26 15 34 13 36 9 39 11 41
REMARK Flexibility Score: inf
ROOT
ATOM      1  O   UNL     1      19.004  27.900  30.369  1.00  0.00    -0.454 OA
ENDROOT
BRANCH   1   2
ATOM      2  C   UNL     1      19.655  27.385  31.505  1.00  0.00     0.214 A 
ATOM      3  C   UNL     1      19.475  28.052  32.721  1.00  0.00     0.180 A 
ATOM      4  O   UNL     1      19.882  27.504  33.856  1.00  0.00    -0.452 OA
ATOM      5  C   UNL     1      20.391  26.188  31.497  1.00  0.00     0.239 A 
ATOM      6  C   UNL     1      20.503  26.328  33.908  1.00  0.00     0.146 A 
ATOM      7  O   UNL     1      20.719  25.678  30.393  1.00  0.00    -0.285 OA
ATOM      8  C   UNL     1      20.774  25.593  32.724  1.00  0.00     0.111 A 
ATOM      9  C   UNL     1      20.866  25.823  35.161  1.00  0.00     0.094 A 
ATOM     10  C   UNL     1      21.386  24.308  32.847  1.00  0.00     0.134 A 
ATOM     11  C   UNL     1      21.461  24.567  35.268  1.00  0.00     0.123 A 
ATOM     12  C   UNL     1      21.724  23.824  34.114  1.00  0.00     0.093 A 
BRANCH   3  13
ATOM     13  C   UNL     1      18.807  29.365  32.757  1.00  0.00     0.025 A 
ATOM     14  C   UNL     1      17.416  29.436  32.931  1.00  0.00     0.016 A 
ATOM     15  C   UNL     1      16.786  30.675  33.050  1.00  0.00     0.051 A 
ATOM     16  C   UNL     1      17.536  31.856  32.970  1.00  0.00     0.157 A 
ATOM     17  C   UNL     1      19.556  30.545  32.658  1.00  0.00     0.062 A 
ATOM     18  C   UNL     1      18.920  31.793  32.756  1.00  0.00     0.158 A 
BRANCH  16  19
ATOM     19  O   UNL     1      16.922  33.096  33.138  1.00  0.00    -0.504 OA
ATOM     20  H   UNL     1      16.856  33.536  34.043  1.00  0.00     0.293 HD
ENDBRANCH  16  19
BRANCH  18  21
ATOM     21  O   UNL     1      19.664  32.969  32.689  1.00  0.00    -0.504 OA
ATOM     22  H   UNL     1      19.240  33.880  32.819  1.00  0.00     0.293 HD
ENDBRANCH  18  21
ENDBRANCH   3  13
BRANCH  10  23
ATOM     23  O   UNL     1      21.631  23.453  31.768  1.00  0.00    -0.507 OA
ATOM     24  H   UNL     1      21.472  23.687  30.799  1.00  0.00     0.293 HD
ENDBRANCH  10  23
BRANCH  11  25
ATOM     25  O   UNL     1      21.735  24.044  36.528  1.00  0.00    -0.508 OA
ATOM     26  H   UNL     1      21.856  23.048  36.672  1.00  0.00     0.293 HD
ENDBRANCH  11  25
ENDBRANCH   1   2
BRANCH   1  27
ATOM     27  C   UNL     1      19.466  28.984  29.556  1.00  0.00     0.339 C 
ATOM     28  C   UNL     1      18.313  29.491  28.646  1.00  0.00     0.214 C 
ATOM     29  O   UNL     1      20.612  28.624  28.788  1.00  0.00    -0.332 OA
ATOM     30  C   UNL     1      18.022  28.510  27.488  1.00  0.00     0.180 C 
ATOM     31  C   UNL     1      20.326  27.577  27.871  1.00  0.00     0.179 C 
ATOM     32  C   UNL     1      19.325  28.052  26.798  1.00  0.00     0.177 C 
BRANCH  28  33
ATOM     33  O   UNL     1      18.574  30.784  28.141  1.00  0.00    -0.384 OA
ATOM     34  H   UNL     1      17.950  31.421  28.569  1.00  0.00     0.211 HD
ENDBRANCH  28  33
BRANCH  30  35
ATOM     35  O   UNL     1      17.323  27.400  27.993  1.00  0.00    -0.387 OA
ATOM     36  H   UNL     1      17.249  27.523  28.976  1.00  0.00     0.211 HD
ENDBRANCH  30  35
BRANCH  31  37
ATOM     37  C   UNL     1      21.637  27.073  27.257  1.00  0.00     0.191 C 
BRANCH  37  38
ATOM     38  O   UNL     1      21.827  25.718  27.574  1.00  0.00    -0.394 OA
ATOM     39  H   UNL     1      22.454  25.346  26.899  1.00  0.00     0.210 HD
ENDBRANCH  37  38
ENDBRANCH  31  37
BRANCH  32  40
ATOM     40  O   UNL     1      19.857  29.117  26.048  1.00  0.00    -0.387 OA
ATOM     41  H   UNL     1      19.269  29.240  25.259  1.00  0.00     0.211 HD
ENDBRANCH  32  40
ENDBRANCH   1  27
TORSDOF 12
ENDMDL
