MODEL 1
REMARK VINA RESULT:    -2.064      0.000      0.000
REMARK INTER + INTRA:          -2.463
REMARK INTER:                  -2.366
REMARK INTRA:                  -0.098
REMARK UNBOUND:                -0.098
REMARK SMILES COc1cc(C(=O)[O-])ccc1O
REMARK SMILES IDX 5 1 9 2 4 3 10 4 3 5 11 6 6 7 7 8 8 9 2 10 1 11 12 12
REMARK H PARENT 12 13
REMARK Flexibility Score: inf
ROOT
ATOM      1  C   UNL     1     142.176 141.119 116.513  1.00  0.00     0.001 A 
ATOM      2  C   UNL     1     143.321 140.754 115.788  1.00  0.00     0.014 A 
ATOM      3  C   UNL     1     141.436 142.243 116.104  1.00  0.00     0.060 A 
ATOM      4  C   UNL     1     143.720 141.497 114.676  1.00  0.00     0.051 A 
ATOM      5  C   UNL     1     141.834 142.997 114.981  1.00  0.00     0.161 A 
ATOM      6  C   UNL     1     142.985 142.614 114.270  1.00  0.00     0.157 A 
ENDROOT
BRANCH   1   7
ATOM      7  C   UNL     1     141.757 140.327 117.692  1.00  0.00     0.072 C 
ATOM      8  O   UNL     1     142.534 140.177 118.673  1.00  0.00    -0.545 OA
ATOM      9  O   UNL     1     140.500 139.737 117.733  1.00  0.00    -0.545 OA
ENDBRANCH   1   7
BRANCH   5  10
ATOM     10  O   UNL     1     141.116 144.124 114.549  1.00  0.00    -0.493 OA
ATOM     11  C   UNL     1     139.910 144.073 113.793  1.00  0.00     0.278 C 
ENDBRANCH   5  10
BRANCH   6  12
ATOM     12  O   UNL     1     143.415 143.331 113.153  1.00  0.00    -0.504 OA
ATOM     13  H   UNL     1     143.674 142.877 112.285  1.00  0.00     0.293 HD
ENDBRANCH   6  12
TORSDOF 3
ENDMDL
MODEL 2
REMARK VINA RESULT:    -1.978      1.796      3.851
REMARK INTER + INTRA:          -2.364
REMARK INTER:                  -2.265
REMARK INTRA:                  -0.099
REMARK UNBOUND:                -0.098
REMARK SMILES COc1cc(C(=O)[O-])ccc1O
REMARK SMILES IDX 5 1 9 2 4 3 10 4 3 5 11 6 6 7 7 8 8 9 2 10 1 11 12 12
REMARK H PARENT 12 13
REMARK Flexibility Score: inf
ROOT
ATOM      1  C   UNL     1     141.173 142.940 115.545  1.00  0.00     0.001 A 
ATOM      2  C   UNL     1     141.944 143.437 114.482  1.00  0.00     0.014 A 
ATOM      3  C   UNL     1     141.613 141.794 116.233  1.00  0.00     0.060 A 
ATOM      4  C   UNL     1     143.131 142.801 114.112  1.00  0.00     0.051 A 
ATOM      5  C   UNL     1     142.810 141.148 115.863  1.00  0.00     0.161 A 
ATOM      6  C   UNL     1     143.567 141.662 114.795  1.00  0.00     0.157 A 
ENDROOT
BRANCH   1   7
ATOM      7  C   UNL     1     139.916 143.618 115.933  1.00  0.00     0.072 C 
ATOM      8  O   UNL     1     139.648 143.827 117.147  1.00  0.00    -0.545 OA
ATOM      9  O   UNL     1     139.012 144.036 114.964  1.00  0.00    -0.545 OA
ENDBRANCH   1   7
BRANCH   5  10
ATOM     10  O   UNL     1     143.274 140.003 116.531  1.00  0.00    -0.493 OA
ATOM     11  C   UNL     1     144.002 140.019 117.754  1.00  0.00     0.278 C 
ENDBRANCH   5  10
BRANCH   6  12
ATOM     12  O   UNL     1     144.758 141.055 114.396  1.00  0.00    -0.504 OA
ATOM     13  H   UNL     1     144.877 140.049 114.394  1.00  0.00     0.293 HD
ENDBRANCH   6  12
TORSDOF 3
ENDMDL
MODEL 3
REMARK VINA RESULT:    -1.969      1.821      2.917
REMARK INTER + INTRA:          -2.354
REMARK INTER:                  -2.272
REMARK INTRA:                  -0.082
REMARK UNBOUND:                -0.098
REMARK SMILES COc1cc(C(=O)[O-])ccc1O
REMARK SMILES IDX 5 1 9 2 4 3 10 4 3 5 11 6 6 7 7 8 8 9 2 10 1 11 12 12
REMARK H PARENT 12 13
REMARK Flexibility Score: inf
ROOT
ATOM      1  C   UNL     1     141.344 142.596 115.550  1.00  0.00     0.001 A 
ATOM      2  C   UNL     1     142.113 141.612 116.193  1.00  0.00     0.014 A 
ATOM      3  C   UNL     1     141.744 143.057 114.283  1.00  0.00     0.060 A 
ATOM      4  C   UNL     1     143.259 141.100 115.582  1.00  0.00     0.051 A 
ATOM      5  C   UNL     1     142.900 142.543 113.661  1.00  0.00     0.161 A 
ATOM      6  C   UNL     1     143.656 141.558 114.323  1.00  0.00     0.157 A 
ENDROOT
BRANCH   1   7
ATOM      7  C   UNL     1     140.130 143.136 116.202  1.00  0.00     0.072 C 
ATOM      8  O   UNL     1     139.523 144.124 115.710  1.00  0.00    -0.545 OA
ATOM      9  O   UNL     1     139.642 142.560 117.369  1.00  0.00    -0.545 OA
ENDBRANCH   1   7
BRANCH   5  10
ATOM     10  O   UNL     1     143.323 142.983 112.396  1.00  0.00    -0.493 OA
ATOM     11  C   UNL     1     142.465 143.532 111.401  1.00  0.00     0.278 C 
ENDBRANCH   5  10
BRANCH   6  12
ATOM     12  O   UNL     1     144.806 141.022 113.744  1.00  0.00    -0.504 OA
ATOM     13  H   UNL     1     145.245 140.179 114.094  1.00  0.00     0.293 HD
ENDBRANCH   6  12
TORSDOF 3
ENDMDL
MODEL 4
REMARK VINA RESULT:    -1.965      1.436      3.081
REMARK INTER + INTRA:          -2.350
REMARK INTER:                  -2.274
REMARK INTRA:                  -0.076
REMARK UNBOUND:                -0.098
REMARK SMILES COc1cc(C(=O)[O-])ccc1O
REMARK SMILES IDX 5 1 9 2 4 3 10 4 3 5 11 6 6 7 7 8 8 9 2 10 1 11 12 12
REMARK H PARENT 12 13
REMARK Flexibility Score: inf
ROOT
ATOM      1  C   UNL     1     141.067 141.520 116.667  1.00  0.00     0.001 A 
ATOM      2  C   UNL     1     140.690 142.750 116.106  1.00  0.00     0.014 A 
ATOM      3  C   UNL     1     142.278 140.927 116.266  1.00  0.00     0.060 A 
ATOM      4  C   UNL     1     141.505 143.376 115.161  1.00  0.00     0.051 A 
ATOM      5  C   UNL     1     143.105 141.554 115.312  1.00  0.00     0.161 A 
ATOM      6  C   UNL     1     142.708 142.786 114.762  1.00  0.00     0.157 A 
ENDROOT
BRANCH   1   7
ATOM      7  C   UNL     1     140.198 140.861 117.668  1.00  0.00     0.072 C 
ATOM      8  O   UNL     1     139.080 140.386 117.334  1.00  0.00    -0.545 OA
ATOM      9  O   UNL     1     140.604 140.756 118.993  1.00  0.00    -0.545 OA
ENDBRANCH   1   7
BRANCH   5  10
ATOM     10  O   UNL     1     144.319 140.987 114.892  1.00  0.00    -0.493 OA
ATOM     11  C   UNL     1     145.123 140.118 115.684  1.00  0.00     0.278 C 
ENDBRANCH   5  10
BRANCH   6  12
ATOM     12  O   UNL     1     143.496 143.442 113.817  1.00  0.00    -0.504 OA
ATOM     13  H   UNL     1     143.971 142.947 113.071  1.00  0.00     0.293 HD
ENDBRANCH   6  12
TORSDOF 3
ENDMDL
MODEL 5
REMARK VINA RESULT:    -1.951      1.685      2.905
REMARK INTER + INTRA:          -2.334
REMARK INTER:                  -2.246
REMARK INTRA:                  -0.088
REMARK UNBOUND:                -0.098
REMARK SMILES COc1cc(C(=O)[O-])ccc1O
REMARK SMILES IDX 5 1 9 2 4 3 10 4 3 5 11 6 6 7 7 8 8 9 2 10 1 11 12 12
REMARK H PARENT 12 13
REMARK Flexibility Score: inf
ROOT
ATOM      1  C   UNL     1     143.190 141.350 115.497  1.00  0.00     0.001 A 
ATOM      2  C   UNL     1     142.001 141.892 116.011  1.00  0.00     0.014 A 
ATOM      3  C   UNL     1     143.622 141.739 114.216  1.00  0.00     0.060 A 
ATOM      4  C   UNL     1     141.257 142.803 115.259  1.00  0.00     0.051 A 
ATOM      5  C   UNL     1     142.875 142.660 113.453  1.00  0.00     0.161 A 
ATOM      6  C   UNL     1     141.686 143.189 113.987  1.00  0.00     0.157 A 
ENDROOT
BRANCH   1   7
ATOM      7  C   UNL     1     143.975 140.384 116.299  1.00  0.00     0.072 C 
ATOM      8  O   UNL     1     145.096 139.975 115.892  1.00  0.00    -0.545 OA
ATOM      9  O   UNL     1     143.487 139.915 117.512  1.00  0.00    -0.545 OA
ENDBRANCH   1   7
BRANCH   5  10
ATOM     10  O   UNL     1     143.281 143.067 112.172  1.00  0.00    -0.493 OA
ATOM     11  C   UNL     1     143.744 142.187 111.152  1.00  0.00     0.278 C 
ENDBRANCH   5  10
BRANCH   6  12
ATOM     12  O   UNL     1     140.917 144.103 113.266  1.00  0.00    -0.504 OA
ATOM     13  H   UNL     1     141.293 144.981 112.930  1.00  0.00     0.293 HD
ENDBRANCH   6  12
TORSDOF 3
ENDMDL
MODEL 6
REMARK VINA RESULT:    -1.905      2.932      4.133
REMARK INTER + INTRA:          -2.281
REMARK INTER:                  -2.199
REMARK INTRA:                  -0.082
REMARK UNBOUND:                -0.098
REMARK SMILES COc1cc(C(=O)[O-])ccc1O
REMARK SMILES IDX 5 1 9 2 4 3 10 4 3 5 11 6 6 7 7 8 8 9 2 10 1 11 12 12
REMARK H PARENT 12 13
REMARK Flexibility Score: inf
ROOT
ATOM      1  C   UNL     1     143.873 140.426 113.172  1.00  0.00     0.001 A 
ATOM      2  C   UNL     1     143.730 140.670 114.547  1.00  0.00     0.014 A 
ATOM      3  C   UNL     1     143.499 141.427 112.257  1.00  0.00     0.060 A 
ATOM      4  C   UNL     1     143.223 141.890 115.000  1.00  0.00     0.051 A 
ATOM      5  C   UNL     1     142.987 142.661 112.709  1.00  0.00     0.161 A 
ATOM      6  C   UNL     1     142.852 142.884 114.091  1.00  0.00     0.157 A 
ENDROOT
BRANCH   1   7
ATOM      7  C   UNL     1     144.411 139.131 112.698  1.00  0.00     0.072 C 
ATOM      8  O   UNL     1     144.659 138.202 113.513  1.00  0.00    -0.545 OA
ATOM      9  O   UNL     1     144.649 138.920 111.345  1.00  0.00    -0.545 OA
ENDBRANCH   1   7
BRANCH   5  10
ATOM     10  O   UNL     1     142.606 143.678 111.819  1.00  0.00    -0.493 OA
ATOM     11  C   UNL     1     143.069 143.795 110.477  1.00  0.00     0.278 C 
ENDBRANCH   5  10
BRANCH   6  12
ATOM     12  O   UNL     1     142.350 144.089 114.581  1.00  0.00    -0.504 OA
ATOM     13  H   UNL     1     142.826 144.972 114.435  1.00  0.00     0.293 HD
ENDBRANCH   6  12
TORSDOF 3
ENDMDL
MODEL 7
REMARK VINA RESULT:    -1.874      2.266      3.520
REMARK INTER + INTRA:          -2.245
REMARK INTER:                  -2.167
REMARK INTRA:                  -0.078
REMARK UNBOUND:                -0.098
REMARK SMILES COc1cc(C(=O)[O-])ccc1O
REMARK SMILES IDX 5 1 9 2 4 3 10 4 3 5 11 6 6 7 7 8 8 9 2 10 1 11 12 12
REMARK H PARENT 12 13
REMARK Flexibility Score: inf
ROOT
ATOM      1  C   UNL     1     143.631 140.930 114.771  1.00  0.00     0.001 A 
ATOM      2  C   UNL     1     142.902 142.058 115.183  1.00  0.00     0.014 A 
ATOM      3  C   UNL     1     143.991 140.805 113.417  1.00  0.00     0.060 A 
ATOM      4  C   UNL     1     142.540 143.040 114.260  1.00  0.00     0.051 A 
ATOM      5  C   UNL     1     143.628 141.795 112.481  1.00  0.00     0.161 A 
ATOM      6  C   UNL     1     142.897 142.915 112.915  1.00  0.00     0.157 A 
ENDROOT
BRANCH   1   7
ATOM      7  C   UNL     1     144.012 139.891 115.754  1.00  0.00     0.072 C 
ATOM      8  O   UNL     1     144.278 140.203 116.947  1.00  0.00    -0.545 OA
ATOM      9  O   UNL     1     144.083 138.556 115.377  1.00  0.00    -0.545 OA
ENDBRANCH   1   7
BRANCH   5  10
ATOM     10  O   UNL     1     143.974 141.697 111.123  1.00  0.00    -0.493 OA
ATOM     11  C   UNL     1     144.732 140.634 110.556  1.00  0.00     0.278 C 
ENDBRANCH   5  10
BRANCH   6  12
ATOM     12  O   UNL     1     142.518 143.918 112.023  1.00  0.00    -0.504 OA
ATOM     13  H   UNL     1     143.195 144.480 111.521  1.00  0.00     0.293 HD
ENDBRANCH   6  12
TORSDOF 3
ENDMDL
MODEL 8
REMARK VINA RESULT:    -1.859      1.660      2.095
REMARK INTER + INTRA:          -2.228
REMARK INTER:                  -2.131
REMARK INTRA:                  -0.097
REMARK UNBOUND:                -0.098
REMARK SMILES COc1cc(C(=O)[O-])ccc1O
REMARK SMILES IDX 5 1 9 2 4 3 10 4 3 5 11 6 6 7 7 8 8 9 2 10 1 11 12 12
REMARK H PARENT 12 13
REMARK Flexibility Score: inf
ROOT
ATOM      1  C   UNL     1     143.743 140.232 117.205  1.00  0.00     0.001 A 
ATOM      2  C   UNL     1     144.856 139.946 116.398  1.00  0.00     0.014 A 
ATOM      3  C   UNL     1     142.709 141.032 116.686  1.00  0.00     0.060 A 
ATOM      4  C   UNL     1     144.935 140.450 115.098  1.00  0.00     0.051 A 
ATOM      5  C   UNL     1     142.784 141.543 115.374  1.00  0.00     0.161 A 
ATOM      6  C   UNL     1     143.908 141.245 114.583  1.00  0.00     0.157 A 
ENDROOT
BRANCH   1   7
ATOM      7  C   UNL     1     143.665 139.694 118.581  1.00  0.00     0.072 C 
ATOM      8  O   UNL     1     143.189 140.393 119.517  1.00  0.00    -0.545 OA
ATOM      9  O   UNL     1     144.115 138.410 118.864  1.00  0.00    -0.545 OA
ENDBRANCH   1   7
BRANCH   5  10
ATOM     10  O   UNL     1     141.767 142.344 114.829  1.00  0.00    -0.493 OA
ATOM     11  C   UNL     1     141.672 143.755 114.995  1.00  0.00     0.278 C 
ENDBRANCH   5  10
BRANCH   6  12
ATOM     12  O   UNL     1     144.022 141.730 113.280  1.00  0.00    -0.504 OA
ATOM     13  H   UNL     1     143.215 141.891 112.690  1.00  0.00     0.293 HD
ENDBRANCH   6  12
TORSDOF 3
ENDMDL
