MODEL 1
REMARK VINA RESULT:    -4.983      0.000      0.000
REMARK INTER + INTRA:          -5.465
REMARK INTER:                  -5.420
REMARK INTRA:                  -0.045
REMARK UNBOUND:                -0.045
REMARK SMILES COc1cc2ccc(=O)oc2cc1O
REMARK SMILES IDX 3 1 13 2 12 3 11 4 5 5 4 6 6 7 7 8 8 9 9 10 10 11 2 12 1 13
REMARK SMILES IDX 14 14
REMARK H PARENT 14 15
REMARK Flexibility Score: inf
ROOT
ATOM      1  C   UNL     1      24.527 -52.208 149.403  1.00  0.00     0.161 A 
ATOM      2  C   UNL     1      25.514 -51.849 148.471  1.00  0.00     0.161 A 
ATOM      3  C   UNL     1      26.765 -51.391 148.906  1.00  0.00     0.098 A 
ATOM      4  C   UNL     1      27.042 -51.288 150.272  1.00  0.00     0.142 A 
ATOM      5  C   UNL     1      26.056 -51.648 151.215  1.00  0.00     0.022 A 
ATOM      6  C   UNL     1      24.804 -52.105 150.781  1.00  0.00     0.062 A 
ATOM      7  C   UNL     1      26.363 -51.533 152.575  1.00  0.00     0.019 A 
ATOM      8  C   UNL     1      27.623 -51.073 152.957  1.00  0.00     0.094 A 
ATOM      9  C   UNL     1      28.549 -50.735 151.965  1.00  0.00     0.336 A 
ATOM     10  O   UNL     1      29.692 -50.318 152.290  1.00  0.00    -0.246 OA
ATOM     11  O   UNL     1      28.232 -50.853 150.679  1.00  0.00    -0.423 OA
ENDROOT
BRANCH   1  12
ATOM     12  O   UNL     1      23.288 -52.661 148.923  1.00  0.00    -0.493 OA
ATOM     13  C   UNL     1      22.273 -53.244 149.734  1.00  0.00     0.278 C 
ENDBRANCH   1  12
BRANCH   2  14
ATOM     14  O   UNL     1      25.240 -51.951 147.108  1.00  0.00    -0.504 OA
ATOM     15  H   UNL     1      25.413 -51.180 146.473  1.00  0.00     0.293 HD
ENDBRANCH   2  14
TORSDOF 2
ENDMDL
MODEL 2
REMARK VINA RESULT:    -4.948     17.305     17.979
REMARK INTER + INTRA:          -5.428
REMARK INTER:                  -5.380
REMARK INTRA:                  -0.048
REMARK UNBOUND:                -0.045
REMARK SMILES COc1cc2ccc(=O)oc2cc1O
REMARK SMILES IDX 3 1 13 2 12 3 11 4 5 5 4 6 6 7 7 8 8 9 9 10 10 11 2 12 1 13
REMARK SMILES IDX 14 14
REMARK H PARENT 14 15
REMARK Flexibility Score: inf
ROOT
ATOM      1  C   UNL     1      18.950 -36.108 149.470  1.00  0.00     0.161 A 
ATOM      2  C   UNL     1      18.033 -36.178 148.409  1.00  0.00     0.161 A 
ATOM      3  C   UNL     1      16.710 -36.580 148.643  1.00  0.00     0.098 A 
ATOM      4  C   UNL     1      16.293 -36.914 149.934  1.00  0.00     0.142 A 
ATOM      5  C   UNL     1      17.209 -36.847 151.005  1.00  0.00     0.022 A 
ATOM      6  C   UNL     1      18.532 -36.447 150.773  1.00  0.00     0.062 A 
ATOM      7  C   UNL     1      16.762 -37.189 152.285  1.00  0.00     0.019 A 
ATOM      8  C   UNL     1      15.436 -37.582 152.465  1.00  0.00     0.094 A 
ATOM      9  C   UNL     1      14.585 -37.625 151.356  1.00  0.00     0.336 A 
ATOM     10  O   UNL     1      13.385 -37.977 151.498  1.00  0.00    -0.246 OA
ATOM     11  O   UNL     1      15.036 -37.295 150.149  1.00  0.00    -0.423 OA
ENDROOT
BRANCH   1  12
ATOM     12  O   UNL     1      20.265 -35.701 149.190  1.00  0.00    -0.493 OA
ATOM     13  C   UNL     1      21.113 -35.024 150.112  1.00  0.00     0.278 C 
ENDBRANCH   1  12
BRANCH   2  14
ATOM     14  O   UNL     1      18.447 -35.844 147.121  1.00  0.00    -0.504 OA
ATOM     15  H   UNL     1      18.357 -36.495 146.349  1.00  0.00     0.293 HD
ENDBRANCH   2  14
TORSDOF 2
ENDMDL
MODEL 3
REMARK VINA RESULT:    -4.808     17.486     17.858
REMARK INTER + INTRA:          -5.275
REMARK INTER:                  -5.219
REMARK INTRA:                  -0.056
REMARK UNBOUND:                -0.045
REMARK SMILES COc1cc2ccc(=O)oc2cc1O
REMARK SMILES IDX 3 1 13 2 12 3 11 4 5 5 4 6 6 7 7 8 8 9 9 10 10 11 2 12 1 13
REMARK SMILES IDX 14 14
REMARK H PARENT 14 15
REMARK Flexibility Score: inf
ROOT
ATOM      1  C   UNL     1      15.627 -36.885 150.916  1.00  0.00     0.161 A 
ATOM      2  C   UNL     1      16.644 -36.943 151.883  1.00  0.00     0.161 A 
ATOM      3  C   UNL     1      17.960 -36.594 151.548  1.00  0.00     0.098 A 
ATOM      4  C   UNL     1      18.271 -36.184 150.248  1.00  0.00     0.142 A 
ATOM      5  C   UNL     1      17.255 -36.123 149.271  1.00  0.00     0.022 A 
ATOM      6  C   UNL     1      15.940 -36.472 149.605  1.00  0.00     0.062 A 
ATOM      7  C   UNL     1      17.598 -35.709 147.980  1.00  0.00     0.019 A 
ATOM      8  C   UNL     1      18.922 -35.372 147.698  1.00  0.00     0.094 A 
ATOM      9  C   UNL     1      19.875 -35.458 148.717  1.00  0.00     0.336 A 
ATOM     10  O   UNL     1      21.075 -35.157 148.482  1.00  0.00    -0.246 OA
ATOM     11  O   UNL     1      19.522 -35.854 149.937  1.00  0.00    -0.423 OA
ENDROOT
BRANCH   1  12
ATOM     12  O   UNL     1      14.324 -37.244 151.295  1.00  0.00    -0.493 OA
ATOM     13  C   UNL     1      13.762 -38.540 151.121  1.00  0.00     0.278 C 
ENDBRANCH   1  12
BRANCH   2  14
ATOM     14  O   UNL     1      16.335 -37.352 153.179  1.00  0.00    -0.504 OA
ATOM     15  H   UNL     1      15.447 -37.123 153.610  1.00  0.00     0.293 HD
ENDBRANCH   2  14
TORSDOF 2
ENDMDL
MODEL 4
REMARK VINA RESULT:    -4.738      1.383      5.391
REMARK INTER + INTRA:          -5.198
REMARK INTER:                  -5.134
REMARK INTRA:                  -0.064
REMARK UNBOUND:                -0.045
REMARK SMILES COc1cc2ccc(=O)oc2cc1O
REMARK SMILES IDX 3 1 13 2 12 3 11 4 5 5 4 6 6 7 7 8 8 9 9 10 10 11 2 12 1 13
REMARK SMILES IDX 14 14
REMARK H PARENT 14 15
REMARK Flexibility Score: inf
ROOT
ATOM      1  C   UNL     1      27.740 -51.467 151.288  1.00  0.00     0.161 A 
ATOM      2  C   UNL     1      26.811 -51.816 152.280  1.00  0.00     0.161 A 
ATOM      3  C   UNL     1      25.512 -52.209 151.927  1.00  0.00     0.098 A 
ATOM      4  C   UNL     1      25.132 -52.259 150.583  1.00  0.00     0.142 A 
ATOM      5  C   UNL     1      26.061 -51.910 149.579  1.00  0.00     0.022 A 
ATOM      6  C   UNL     1      27.359 -51.516 149.932  1.00  0.00     0.062 A 
ATOM      7  C   UNL     1      25.651 -51.969 148.244  1.00  0.00     0.019 A 
ATOM      8  C   UNL     1      24.348 -52.367 147.944  1.00  0.00     0.094 A 
ATOM      9  C   UNL     1      23.483 -52.697 148.992  1.00  0.00     0.336 A 
ATOM     10  O   UNL     1      22.303 -53.060 148.742  1.00  0.00    -0.246 OA
ATOM     11  O   UNL     1      23.898 -52.633 150.254  1.00  0.00    -0.423 OA
ENDROOT
BRANCH   1  12
ATOM     12  O   UNL     1      29.029 -51.079 151.688  1.00  0.00    -0.493 OA
ATOM     13  C   UNL     1      29.469 -49.728 151.789  1.00  0.00     0.278 C 
ENDBRANCH   1  12
BRANCH   2  14
ATOM     14  O   UNL     1      27.188 -51.768 153.621  1.00  0.00    -0.504 OA
ATOM     15  H   UNL     1      27.785 -51.031 153.978  1.00  0.00     0.293 HD
ENDBRANCH   2  14
TORSDOF 2
ENDMDL
MODEL 5
REMARK VINA RESULT:    -4.548      1.628      2.727
REMARK INTER + INTRA:          -4.992
REMARK INTER:                  -4.931
REMARK INTRA:                  -0.061
REMARK UNBOUND:                -0.045
REMARK SMILES COc1cc2ccc(=O)oc2cc1O
REMARK SMILES IDX 3 1 13 2 12 3 11 4 5 5 4 6 6 7 7 8 8 9 9 10 10 11 2 12 1 13
REMARK SMILES IDX 14 14
REMARK H PARENT 14 15
REMARK Flexibility Score: inf
ROOT
ATOM      1  C   UNL     1      25.507 -51.872 148.062  1.00  0.00     0.161 A 
ATOM      2  C   UNL     1      24.359 -52.200 148.801  1.00  0.00     0.161 A 
ATOM      3  C   UNL     1      24.388 -52.172 150.203  1.00  0.00     0.098 A 
ATOM      4  C   UNL     1      25.560 -51.817 150.876  1.00  0.00     0.142 A 
ATOM      5  C   UNL     1      26.718 -51.487 150.140  1.00  0.00     0.022 A 
ATOM      6  C   UNL     1      26.690 -51.515 148.740  1.00  0.00     0.062 A 
ATOM      7  C   UNL     1      27.875 -51.136 150.843  1.00  0.00     0.019 A 
ATOM      8  C   UNL     1      27.852 -51.123 152.238  1.00  0.00     0.094 A 
ATOM      9  C   UNL     1      26.668 -51.463 152.899  1.00  0.00     0.336 A 
ATOM     10  O   UNL     1      26.627 -51.456 154.158  1.00  0.00    -0.246 OA
ATOM     11  O   UNL     1      25.581 -51.792 152.207  1.00  0.00    -0.423 OA
ENDROOT
BRANCH   1  12
ATOM     12  O   UNL     1      25.432 -51.915 146.660  1.00  0.00    -0.493 OA
ATOM     13  C   UNL     1      25.864 -53.012 145.863  1.00  0.00     0.278 C 
ENDBRANCH   1  12
BRANCH   2  14
ATOM     14  O   UNL     1      23.189 -52.554 148.131  1.00  0.00    -0.504 OA
ATOM     15  H   UNL     1      22.649 -53.368 148.401  1.00  0.00     0.293 HD
ENDBRANCH   2  14
TORSDOF 2
ENDMDL
MODEL 6
REMARK VINA RESULT:    -4.531      2.148      4.452
REMARK INTER + INTRA:          -4.974
REMARK INTER:                  -4.929
REMARK INTRA:                  -0.046
REMARK UNBOUND:                -0.045
REMARK SMILES COc1cc2ccc(=O)oc2cc1O
REMARK SMILES IDX 3 1 13 2 12 3 11 4 5 5 4 6 6 7 7 8 8 9 9 10 10 11 2 12 1 13
REMARK SMILES IDX 14 14
REMARK H PARENT 14 15
REMARK Flexibility Score: inf
ROOT
ATOM      1  C   UNL     1      25.399 -52.504 152.501  1.00  0.00     0.161 A 
ATOM      2  C   UNL     1      26.170 -51.335 152.403  1.00  0.00     0.161 A 
ATOM      3  C   UNL     1      26.343 -50.704 151.163  1.00  0.00     0.098 A 
ATOM      4  C   UNL     1      25.748 -51.232 150.014  1.00  0.00     0.142 A 
ATOM      5  C   UNL     1      24.971 -52.407 150.105  1.00  0.00     0.022 A 
ATOM      6  C   UNL     1      24.799 -53.039 151.343  1.00  0.00     0.062 A 
ATOM      7  C   UNL     1      24.390 -52.912 148.938  1.00  0.00     0.019 A 
ATOM      8  C   UNL     1      24.591 -52.246 147.728  1.00  0.00     0.094 A 
ATOM      9  C   UNL     1      25.373 -51.087 147.716  1.00  0.00     0.336 A 
ATOM     10  O   UNL     1      25.566 -50.471 146.634  1.00  0.00    -0.246 OA
ATOM     11  O   UNL     1      25.915 -50.628 148.840  1.00  0.00    -0.423 OA
ENDROOT
BRANCH   1  12
ATOM     12  O   UNL     1      25.254 -53.104 153.763  1.00  0.00    -0.493 OA
ATOM     13  C   UNL     1      24.296 -54.111 154.071  1.00  0.00     0.278 C 
ENDBRANCH   1  12
BRANCH   2  14
ATOM     14  O   UNL     1      26.764 -50.806 153.547  1.00  0.00    -0.504 OA
ATOM     15  H   UNL     1      27.770 -50.799 153.668  1.00  0.00     0.293 HD
ENDBRANCH   2  14
TORSDOF 2
ENDMDL
MODEL 7
REMARK VINA RESULT:    -4.404     17.717     17.941
REMARK INTER + INTRA:          -4.836
REMARK INTER:                  -4.802
REMARK INTRA:                  -0.034
REMARK UNBOUND:                -0.045
REMARK SMILES COc1cc2ccc(=O)oc2cc1O
REMARK SMILES IDX 3 1 13 2 12 3 11 4 5 5 4 6 6 7 7 8 8 9 9 10 10 11 2 12 1 13
REMARK SMILES IDX 14 14
REMARK H PARENT 14 15
REMARK Flexibility Score: inf
ROOT
ATOM      1  C   UNL     1      16.539 -36.916 150.686  1.00  0.00     0.161 A 
ATOM      2  C   UNL     1      16.179 -36.622 149.361  1.00  0.00     0.161 A 
ATOM      3  C   UNL     1      17.069 -35.937 148.522  1.00  0.00     0.098 A 
ATOM      4  C   UNL     1      18.322 -35.539 148.996  1.00  0.00     0.142 A 
ATOM      5  C   UNL     1      18.690 -35.830 150.327  1.00  0.00     0.022 A 
ATOM      6  C   UNL     1      17.802 -36.515 151.167  1.00  0.00     0.062 A 
ATOM      7  C   UNL     1      19.951 -35.419 150.773  1.00  0.00     0.019 A 
ATOM      8  C   UNL     1      20.799 -34.740 149.898  1.00  0.00     0.094 A 
ATOM      9  C   UNL     1      20.364 -34.487 148.593  1.00  0.00     0.336 A 
ATOM     10  O   UNL     1      21.116 -33.876 147.788  1.00  0.00    -0.246 OA
ATOM     11  O   UNL     1      19.161 -34.889 148.194  1.00  0.00    -0.423 OA
ENDROOT
BRANCH   1  12
ATOM     12  O   UNL     1      15.617 -37.603 151.492  1.00  0.00    -0.493 OA
ATOM     13  C   UNL     1      14.621 -36.976 152.293  1.00  0.00     0.278 C 
ENDBRANCH   1  12
BRANCH   2  14
ATOM     14  O   UNL     1      14.930 -37.018 148.886  1.00  0.00    -0.504 OA
ATOM     15  H   UNL     1      14.162 -36.362 148.804  1.00  0.00     0.293 HD
ENDBRANCH   2  14
TORSDOF 2
ENDMDL
MODEL 8
REMARK VINA RESULT:    -4.352     17.530     17.990
REMARK INTER + INTRA:          -4.779
REMARK INTER:                  -4.727
REMARK INTRA:                  -0.052
REMARK UNBOUND:                -0.045
REMARK SMILES COc1cc2ccc(=O)oc2cc1O
REMARK SMILES IDX 3 1 13 2 12 3 11 4 5 5 4 6 6 7 7 8 8 9 9 10 10 11 2 12 1 13
REMARK SMILES IDX 14 14
REMARK H PARENT 14 15
REMARK Flexibility Score: inf
ROOT
ATOM      1  C   UNL     1      18.391 -35.762 147.871  1.00  0.00     0.161 A 
ATOM      2  C   UNL     1      19.422 -35.806 148.823  1.00  0.00     0.161 A 
ATOM      3  C   UNL     1      19.146 -36.168 150.149  1.00  0.00     0.098 A 
ATOM      4  C   UNL     1      17.842 -36.491 150.535  1.00  0.00     0.142 A 
ATOM      5  C   UNL     1      16.801 -36.449 149.583  1.00  0.00     0.022 A 
ATOM      6  C   UNL     1      17.075 -36.086 148.258  1.00  0.00     0.062 A 
ATOM      7  C   UNL     1      15.506 -36.776 150.000  1.00  0.00     0.019 A 
ATOM      8  C   UNL     1      15.284 -37.131 151.331  1.00  0.00     0.094 A 
ATOM      9  C   UNL     1      16.366 -37.150 152.216  1.00  0.00     0.336 A 
ATOM     10  O   UNL     1      16.185 -37.468 153.422  1.00  0.00    -0.246 OA
ATOM     11  O   UNL     1      17.587 -36.835 151.794  1.00  0.00    -0.423 OA
ENDROOT
BRANCH   1  12
ATOM     12  O   UNL     1      18.713 -35.393 146.555  1.00  0.00    -0.493 OA
ATOM     13  C   UNL     1      17.951 -34.488 145.762  1.00  0.00     0.278 C 
ENDBRANCH   1  12
BRANCH   2  14
ATOM     14  O   UNL     1      20.723 -35.485 148.440  1.00  0.00    -0.504 OA
ATOM     15  H   UNL     1      21.218 -36.025 147.739  1.00  0.00     0.293 HD
ENDBRANCH   2  14
TORSDOF 2
ENDMDL
MODEL 9
REMARK VINA RESULT:    -4.306      1.217      4.966
REMARK INTER + INTRA:          -4.729
REMARK INTER:                  -4.664
REMARK INTRA:                  -0.065
REMARK UNBOUND:                -0.045
REMARK SMILES COc1cc2ccc(=O)oc2cc1O
REMARK SMILES IDX 3 1 13 2 12 3 11 4 5 5 4 6 6 7 7 8 8 9 9 10 10 11 2 12 1 13
REMARK SMILES IDX 14 14
REMARK H PARENT 14 15
REMARK Flexibility Score: inf
ROOT
ATOM      1  C   UNL     1      27.122 -52.198 151.103  1.00  0.00     0.161 A 
ATOM      2  C   UNL     1      27.211 -51.710 149.789  1.00  0.00     0.161 A 
ATOM      3  C   UNL     1      26.116 -51.814 148.920  1.00  0.00     0.098 A 
ATOM      4  C   UNL     1      24.926 -52.405 149.354  1.00  0.00     0.142 A 
ATOM      5  C   UNL     1      24.829 -52.898 150.672  1.00  0.00     0.022 A 
ATOM      6  C   UNL     1      25.923 -52.795 151.541  1.00  0.00     0.062 A 
ATOM      7  C   UNL     1      23.625 -53.484 151.076  1.00  0.00     0.019 A 
ATOM      8  C   UNL     1      22.564 -53.563 150.174  1.00  0.00     0.094 A 
ATOM      9  C   UNL     1      22.734 -53.053 148.883  1.00  0.00     0.336 A 
ATOM     10  O   UNL     1      21.789 -53.114 148.054  1.00  0.00    -0.246 OA
ATOM     11  O   UNL     1      23.890 -52.500 148.524  1.00  0.00    -0.423 OA
ENDROOT
BRANCH   1  12
ATOM     12  O   UNL     1      28.244 -52.073 151.938  1.00  0.00    -0.493 OA
ATOM     13  C   UNL     1      28.365 -51.118 152.987  1.00  0.00     0.278 C 
ENDBRANCH   1  12
BRANCH   2  14
ATOM     14  O   UNL     1      28.397 -51.120 149.355  1.00  0.00    -0.504 OA
ATOM     15  H   UNL     1      29.298 -51.550 149.530  1.00  0.00     0.293 HD
ENDBRANCH   2  14
TORSDOF 2
ENDMDL
