MODEL 1
REMARK VINA RESULT:    -3.912      0.000      0.000
REMARK INTER + INTRA:          -3.912
REMARK INTER:                  -3.912
REMARK INTRA:                   0.000
REMARK UNBOUND:                 0.000
REMARK SMILES c1cc[nH]c1
REMARK SMILES IDX 1 1 5 2 4 3 3 4 2 5
REMARK H PARENT 4 6
REMARK Flexibility Score: inf
ROOT
ATOM      1  C   UNL     1      19.465  29.637  27.620  1.00  0.00     0.019 A 
ATOM      2  C   UNL     1      19.001  30.875  27.225  1.00  0.00     0.082 A 
ATOM      3  N   UNL     1      18.278  30.757  26.097  1.00  0.00    -0.368 N 
ATOM      4  C   UNL     1      18.275  29.454  25.763  1.00  0.00     0.082 A 
ATOM      5  C   UNL     1      19.002  28.730  26.686  1.00  0.00     0.019 A 
ATOM      6  H   UNL     1      17.808  31.531  25.578  1.00  0.00     0.165 HD
ENDROOT
TORSDOF 0
ENDMDL
MODEL 2
REMARK VINA RESULT:    -3.901      0.059      1.624
REMARK INTER + INTRA:          -3.901
REMARK INTER:                  -3.901
REMARK INTRA:                   0.000
REMARK UNBOUND:                 0.000
REMARK SMILES c1cc[nH]c1
REMARK SMILES IDX 1 1 5 2 4 3 3 4 2 5
REMARK H PARENT 4 6
REMARK Flexibility Score: inf
ROOT
ATOM      1  C   UNL     1      18.949  28.751  26.642  1.00  0.00     0.019 A 
ATOM      2  C   UNL     1      18.253  29.502  25.718  1.00  0.00     0.082 A 
ATOM      3  N   UNL     1      18.289  30.802  26.060  1.00  0.00    -0.368 N 
ATOM      4  C   UNL     1      19.002  30.892  27.197  1.00  0.00     0.082 A 
ATOM      5  C   UNL     1      19.427  29.638  27.587  1.00  0.00     0.019 A 
ATOM      6  H   UNL     1      17.847  31.593  25.542  1.00  0.00     0.165 HD
ENDROOT
TORSDOF 0
ENDMDL
MODEL 3
REMARK VINA RESULT:    -3.851      1.411      2.370
REMARK INTER + INTRA:          -3.851
REMARK INTER:                  -3.851
REMARK INTRA:                   0.000
REMARK UNBOUND:                 0.000
REMARK SMILES c1cc[nH]c1
REMARK SMILES IDX 1 1 5 2 4 3 3 4 2 5
REMARK H PARENT 4 6
REMARK Flexibility Score: inf
ROOT
ATOM      1  C   UNL     1      18.662  30.130  26.162  1.00  0.00     0.019 A 
ATOM      2  C   UNL     1      18.800  28.758  26.163  1.00  0.00     0.082 A 
ATOM      3  N   UNL     1      19.441  28.361  27.276  1.00  0.00    -0.368 N 
ATOM      4  C   UNL     1      19.716  29.467  27.990  1.00  0.00     0.082 A 
ATOM      5  C   UNL     1      19.247  30.584  27.328  1.00  0.00     0.019 A 
ATOM      6  H   UNL     1      19.680  27.379  27.538  1.00  0.00     0.165 HD
ENDROOT
TORSDOF 0
ENDMDL
MODEL 4
REMARK VINA RESULT:    -3.467      2.536      3.429
REMARK INTER + INTRA:          -3.467
REMARK INTER:                  -3.467
REMARK INTRA:                   0.000
REMARK UNBOUND:                 0.000
REMARK SMILES c1cc[nH]c1
REMARK SMILES IDX 1 1 5 2 4 3 3 4 2 5
REMARK H PARENT 4 6
REMARK Flexibility Score: inf
ROOT
ATOM      1  C   UNL     1      17.116  31.221  23.955  1.00  0.00     0.019 A 
ATOM      2  C   UNL     1      16.039  30.359  23.961  1.00  0.00     0.082 A 
ATOM      3  N   UNL     1      16.364  29.222  24.602  1.00  0.00    -0.368 N 
ATOM      4  C   UNL     1      17.640  29.347  25.006  1.00  0.00     0.082 A 
ATOM      5  C   UNL     1      18.138  30.575  24.622  1.00  0.00     0.019 A 
ATOM      6  H   UNL     1      15.742  28.397  24.757  1.00  0.00     0.165 HD
ENDROOT
TORSDOF 0
ENDMDL
MODEL 5
REMARK VINA RESULT:    -3.239      2.810      3.606
REMARK INTER + INTRA:          -3.239
REMARK INTER:                  -3.239
REMARK INTRA:                   0.000
REMARK UNBOUND:                 0.000
REMARK SMILES c1cc[nH]c1
REMARK SMILES IDX 1 1 5 2 4 3 3 4 2 5
REMARK H PARENT 4 6
REMARK Flexibility Score: inf
ROOT
ATOM      1  C   UNL     1      16.090  29.799  24.134  1.00  0.00     0.019 A 
ATOM      2  C   UNL     1      16.097  31.019  23.489  1.00  0.00     0.082 A 
ATOM      3  N   UNL     1      17.297  31.609  23.635  1.00  0.00    -0.368 N 
ATOM      4  C   UNL     1      18.060  30.778  24.368  1.00  0.00     0.082 A 
ATOM      5  C   UNL     1      17.343  29.646  24.695  1.00  0.00     0.019 A 
ATOM      6  H   UNL     1      17.583  32.537  23.251  1.00  0.00     0.165 HD
ENDROOT
TORSDOF 0
ENDMDL
MODEL 6
REMARK VINA RESULT:    -3.162     16.171     16.541
REMARK INTER + INTRA:          -3.162
REMARK INTER:                  -3.162
REMARK INTRA:                   0.000
REMARK UNBOUND:                 0.000
REMARK SMILES c1cc[nH]c1
REMARK SMILES IDX 1 1 5 2 4 3 3 4 2 5
REMARK H PARENT 4 6
REMARK Flexibility Score: inf
ROOT
ATOM      1  C   UNL     1       8.100  20.279  32.841  1.00  0.00     0.019 A 
ATOM      2  C   UNL     1       7.480  19.180  33.397  1.00  0.00     0.082 A 
ATOM      3  N   UNL     1       6.578  18.676  32.536  1.00  0.00    -0.368 N 
ATOM      4  C   UNL     1       6.615  19.442  31.431  1.00  0.00     0.082 A 
ATOM      5  C   UNL     1       7.549  20.447  31.586  1.00  0.00     0.019 A 
ATOM      6  H   UNL     1       5.966  17.845  32.695  1.00  0.00     0.165 HD
ENDROOT
TORSDOF 0
ENDMDL
MODEL 7
REMARK VINA RESULT:    -3.047     15.799     16.149
REMARK INTER + INTRA:          -3.047
REMARK INTER:                  -3.047
REMARK INTRA:                   0.000
REMARK UNBOUND:                 0.000
REMARK SMILES c1cc[nH]c1
REMARK SMILES IDX 1 1 5 2 4 3 3 4 2 5
REMARK H PARENT 4 6
REMARK Flexibility Score: inf
ROOT
ATOM      1  C   UNL     1       7.806  20.000  32.900  1.00  0.00     0.019 A 
ATOM      2  C   UNL     1       8.074  20.691  31.737  1.00  0.00     0.082 A 
ATOM      3  N   UNL     1       7.187  20.351  30.785  1.00  0.00    -0.368 N 
ATOM      4  C   UNL     1       6.353  19.446  31.327  1.00  0.00     0.082 A 
ATOM      5  C   UNL     1       6.707  19.205  32.639  1.00  0.00     0.019 A 
ATOM      6  H   UNL     1       7.153  20.719  29.808  1.00  0.00     0.165 HD
ENDROOT
TORSDOF 0
ENDMDL
MODEL 8
REMARK VINA RESULT:    -3.021      9.426     10.042
REMARK INTER + INTRA:          -3.021
REMARK INTER:                  -3.021
REMARK INTRA:                   0.000
REMARK UNBOUND:                 0.000
REMARK SMILES c1cc[nH]c1
REMARK SMILES IDX 1 1 5 2 4 3 3 4 2 5
REMARK H PARENT 4 6
REMARK Flexibility Score: inf
ROOT
ATOM      1  C   UNL     1       9.125  33.725  24.756  1.00  0.00     0.019 A 
ATOM      2  C   UNL     1       8.457  32.733  25.442  1.00  0.00     0.082 A 
ATOM      3  N   UNL     1       9.294  32.124  26.301  1.00  0.00    -0.368 N 
ATOM      4  C   UNL     1      10.494  32.717  26.171  1.00  0.00     0.082 A 
ATOM      5  C   UNL     1      10.426  33.715  25.221  1.00  0.00     0.019 A 
ATOM      6  H   UNL     1       9.057  31.338  26.947  1.00  0.00     0.165 HD
ENDROOT
TORSDOF 0
ENDMDL
MODEL 9
REMARK VINA RESULT:    -2.693      9.360      9.924
REMARK INTER + INTRA:          -2.693
REMARK INTER:                  -2.693
REMARK INTRA:                   0.000
REMARK UNBOUND:                 0.000
REMARK SMILES c1cc[nH]c1
REMARK SMILES IDX 1 1 5 2 4 3 3 4 2 5
REMARK H PARENT 4 6
REMARK Flexibility Score: inf
ROOT
ATOM      1  C   UNL     1       9.199  32.314  25.798  1.00  0.00     0.019 A 
ATOM      2  C   UNL     1      10.513  32.706  25.943  1.00  0.00     0.082 A 
ATOM      3  N   UNL     1      10.719  33.871  25.303  1.00  0.00    -0.368 N 
ATOM      4  C   UNL     1       9.547  34.229  24.748  1.00  0.00     0.082 A 
ATOM      5  C   UNL     1       8.582  33.286  25.035  1.00  0.00     0.019 A 
ATOM      6  H   UNL     1      11.618  34.398  25.247  1.00  0.00     0.165 HD
ENDROOT
TORSDOF 0
ENDMDL
