MODEL 1
REMARK VINA RESULT:    -6.179      0.000      0.000
REMARK INTER + INTRA:          -7.100
REMARK INTER:                  -7.443
REMARK INTRA:                   0.343
REMARK UNBOUND:                 0.343
REMARK SMILES O=c1c(O)c(-c2ccc(O)c(O)c2)oc2cc(O)cc(O)c12
REMARK SMILES IDX 5 1 3 2 2 3 1 4 22 5 20 6 19 7 17 8 16 9 15 10 14 11 6 12
REMARK SMILES IDX 7 13 8 14 9 15 13 16 11 17 10 18 12 20 4 22 21 24 18 26
REMARK H PARENT 10 19 12 21 4 23 21 25 18 27
REMARK Flexibility Score: inf
ROOT
ATOM      1  C   UNL     1     101.771 136.852  59.701  1.00  0.00     0.180 A 
ATOM      2  C   UNL     1     101.028 138.045  59.681  1.00  0.00     0.208 A 
ATOM      3  C   UNL     1      99.626 137.975  59.722  1.00  0.00     0.238 A 
ATOM      4  O   UNL     1      98.966 139.042  59.628  1.00  0.00    -0.285 OA
ATOM      5  C   UNL     1      98.987 136.717  59.839  1.00  0.00     0.111 A 
ATOM      6  C   UNL     1      97.574 136.530  59.934  1.00  0.00     0.134 A 
ATOM      7  C   UNL     1      97.048 135.232  59.939  1.00  0.00     0.093 A 
ATOM      8  C   UNL     1      97.883 134.116  59.918  1.00  0.00     0.123 A 
ATOM      9  C   UNL     1      99.268 134.287  59.881  1.00  0.00     0.094 A 
ATOM     10  C   UNL     1      99.821 135.569  59.835  1.00  0.00     0.146 A 
ATOM     11  O   UNL     1     101.142 135.686  59.779  1.00  0.00    -0.452 OA
ENDROOT
BRANCH   1  12
ATOM     12  C   UNL     1     103.251 136.845  59.648  1.00  0.00     0.025 A 
ATOM     13  C   UNL     1     103.967 137.932  60.173  1.00  0.00     0.016 A 
ATOM     14  C   UNL     1     105.363 137.937  60.154  1.00  0.00     0.051 A 
ATOM     15  C   UNL     1     106.066 136.851  59.624  1.00  0.00     0.157 A 
ATOM     16  C   UNL     1     103.960 135.743  59.135  1.00  0.00     0.062 A 
ATOM     17  C   UNL     1     105.363 135.745  59.116  1.00  0.00     0.158 A 
BRANCH  15  18
ATOM     18  O   UNL     1     107.460 136.884  59.615  1.00  0.00    -0.504 OA
ATOM     19  H   UNL     1     107.979 137.669  59.242  1.00  0.00     0.293 HD
ENDBRANCH  15  18
BRANCH  17  20
ATOM     20  O   UNL     1     106.058 134.652  58.599  1.00  0.00    -0.504 OA
ATOM     21  H   UNL     1     106.965 134.381  58.959  1.00  0.00     0.293 HD
ENDBRANCH  17  20
ENDBRANCH   1  12
BRANCH   2  22
ATOM     22  O   UNL     1     101.681 139.281  59.642  1.00  0.00    -0.502 OA
ATOM     23  H   UNL     1     101.246 140.115  59.266  1.00  0.00     0.293 HD
ENDBRANCH   2  22
BRANCH   6  24
ATOM     24  O   UNL     1      96.652 137.574  60.050  1.00  0.00    -0.507 OA
ATOM     25  H   UNL     1      96.892 138.548  60.153  1.00  0.00     0.293 HD
ENDBRANCH   6  24
BRANCH   8  26
ATOM     26  O   UNL     1      97.325 132.840  59.942  1.00  0.00    -0.508 OA
ATOM     27  H   UNL     1      97.591 132.158  60.644  1.00  0.00     0.293 HD
ENDBRANCH   8  26
TORSDOF 6
ENDMDL
MODEL 2
REMARK VINA RESULT:    -5.976      6.211     10.346
REMARK INTER + INTRA:          -6.855
REMARK INTER:                  -6.527
REMARK INTRA:                  -0.328
REMARK UNBOUND:                 0.343
REMARK SMILES O=c1c(O)c(-c2ccc(O)c(O)c2)oc2cc(O)cc(O)c12
REMARK SMILES IDX 5 1 3 2 2 3 1 4 22 5 20 6 19 7 17 8 16 9 15 10 14 11 6 12
REMARK SMILES IDX 7 13 8 14 9 15 13 16 11 17 10 18 12 20 4 22 21 24 18 26
REMARK H PARENT 10 19 12 21 4 23 21 25 18 27
REMARK Flexibility Score: inf
ROOT
ATOM      1  C   UNL     1     108.491 139.549  56.770  1.00  0.00     0.180 A 
ATOM      2  C   UNL     1     109.777 140.042  57.046  1.00  0.00     0.208 A 
ATOM      3  C   UNL     1     110.313 141.048  56.225  1.00  0.00     0.238 A 
ATOM      4  O   UNL     1     111.493 141.431  56.431  1.00  0.00    -0.285 OA
ATOM      5  C   UNL     1     109.533 141.587  55.173  1.00  0.00     0.111 A 
ATOM      6  C   UNL     1     109.957 142.640  54.306  1.00  0.00     0.134 A 
ATOM      7  C   UNL     1     109.142 143.020  53.232  1.00  0.00     0.093 A 
ATOM      8  C   UNL     1     107.894 142.434  53.031  1.00  0.00     0.123 A 
ATOM      9  C   UNL     1     107.446 141.442  53.905  1.00  0.00     0.094 A 
ATOM     10  C   UNL     1     108.252 141.013  54.962  1.00  0.00     0.146 A 
ATOM     11  O   UNL     1     107.796 140.052  55.756  1.00  0.00    -0.452 OA
ENDROOT
BRANCH   1  12
ATOM     12  C   UNL     1     107.865 138.481  57.582  1.00  0.00     0.025 A 
ATOM     13  C   UNL     1     107.089 138.828  58.700  1.00  0.00     0.016 A 
ATOM     14  C   UNL     1     106.471 137.839  59.467  1.00  0.00     0.051 A 
ATOM     15  C   UNL     1     106.605 136.490  59.123  1.00  0.00     0.157 A 
ATOM     16  C   UNL     1     107.980 137.125  57.225  1.00  0.00     0.062 A 
ATOM     17  C   UNL     1     107.359 136.131  57.993  1.00  0.00     0.158 A 
BRANCH  15  18
ATOM     18  O   UNL     1     105.979 135.524  59.909  1.00  0.00    -0.504 OA
ATOM     19  H   UNL     1     105.363 134.823  59.515  1.00  0.00     0.293 HD
ENDBRANCH  15  18
BRANCH  17  20
ATOM     20  O   UNL     1     107.485 134.788  57.636  1.00  0.00    -0.504 OA
ATOM     21  H   UNL     1     108.271 134.456  57.090  1.00  0.00     0.293 HD
ENDBRANCH  17  20
ENDBRANCH   1  12
BRANCH   2  22
ATOM     22  O   UNL     1     110.501 139.550  58.136  1.00  0.00    -0.502 OA
ATOM     23  H   UNL     1     111.388 139.945  58.424  1.00  0.00     0.293 HD
ENDBRANCH   2  22
BRANCH   6  24
ATOM     24  O   UNL     1     111.146 143.357  54.467  1.00  0.00    -0.507 OA
ATOM     25  H   UNL     1     112.027 142.958  54.753  1.00  0.00     0.293 HD
ENDBRANCH   6  24
BRANCH   8  26
ATOM     26  O   UNL     1     107.103 142.849  51.963  1.00  0.00    -0.508 OA
ATOM     27  H   UNL     1     107.478 142.928  51.025  1.00  0.00     0.293 HD
ENDBRANCH   8  26
TORSDOF 6
ENDMDL
MODEL 3
REMARK VINA RESULT:    -5.916      8.080      9.754
REMARK INTER + INTRA:          -6.784
REMARK INTER:                  -6.451
REMARK INTRA:                  -0.332
REMARK UNBOUND:                 0.343
REMARK SMILES O=c1c(O)c(-c2ccc(O)c(O)c2)oc2cc(O)cc(O)c12
REMARK SMILES IDX 5 1 3 2 2 3 1 4 22 5 20 6 19 7 17 8 16 9 15 10 14 11 6 12
REMARK SMILES IDX 7 13 8 14 9 15 13 16 11 17 10 18 12 20 4 22 21 24 18 26
REMARK H PARENT 10 19 12 21 4 23 21 25 18 27
REMARK Flexibility Score: inf
ROOT
ATOM      1  C   UNL     1     108.287 140.184  55.772  1.00  0.00     0.180 A 
ATOM      2  C   UNL     1     109.169 140.491  54.722  1.00  0.00     0.208 A 
ATOM      3  C   UNL     1     108.723 141.312  53.674  1.00  0.00     0.238 A 
ATOM      4  O   UNL     1     109.493 141.521  52.701  1.00  0.00    -0.285 OA
ATOM      5  C   UNL     1     107.419 141.863  53.717  1.00  0.00     0.111 A 
ATOM      6  C   UNL     1     106.877 142.744  52.733  1.00  0.00     0.134 A 
ATOM      7  C   UNL     1     105.537 143.142  52.825  1.00  0.00     0.093 A 
ATOM      8  C   UNL     1     104.739 142.744  53.897  1.00  0.00     0.123 A 
ATOM      9  C   UNL     1     105.275 141.928  54.894  1.00  0.00     0.094 A 
ATOM     10  C   UNL     1     106.596 141.482  54.809  1.00  0.00     0.146 A 
ATOM     11  O   UNL     1     107.059 140.689  55.768  1.00  0.00    -0.452 OA
ENDROOT
BRANCH   1  12
ATOM     12  C   UNL     1     108.680 139.315  56.903  1.00  0.00     0.025 A 
ATOM     13  C   UNL     1     109.147 139.897  58.093  1.00  0.00     0.016 A 
ATOM     14  C   UNL     1     109.503 139.097  59.181  1.00  0.00     0.051 A 
ATOM     15  C   UNL     1     109.384 137.707  59.105  1.00  0.00     0.157 A 
ATOM     16  C   UNL     1     108.540 137.916  56.837  1.00  0.00     0.062 A 
ATOM     17  C   UNL     1     108.896 137.112  57.929  1.00  0.00     0.158 A 
BRANCH  15  18
ATOM     18  O   UNL     1     109.749 136.933  60.206  1.00  0.00    -0.504 OA
ATOM     19  H   UNL     1     110.595 137.112  60.734  1.00  0.00     0.293 HD
ENDBRANCH  15  18
BRANCH  17  20
ATOM     20  O   UNL     1     108.761 135.726  57.851  1.00  0.00    -0.504 OA
ATOM     21  H   UNL     1     109.293 135.106  58.450  1.00  0.00     0.293 HD
ENDBRANCH  17  20
ENDBRANCH   1  12
BRANCH   2  22
ATOM     22  O   UNL     1     110.478 139.999  54.736  1.00  0.00    -0.502 OA
ATOM     23  H   UNL     1     110.688 139.013  54.833  1.00  0.00     0.293 HD
ENDBRANCH   2  22
BRANCH   6  24
ATOM     24  O   UNL     1     107.609 143.275  51.668  1.00  0.00    -0.507 OA
ATOM     25  H   UNL     1     108.012 144.200  51.648  1.00  0.00     0.293 HD
ENDBRANCH   6  24
BRANCH   8  26
ATOM     26  O   UNL     1     103.416 143.173  53.965  1.00  0.00    -0.508 OA
ATOM     27  H   UNL     1     102.790 143.089  53.172  1.00  0.00     0.293 HD
ENDBRANCH   8  26
TORSDOF 6
ENDMDL
MODEL 4
REMARK VINA RESULT:    -5.817      6.472      9.793
REMARK INTER + INTRA:          -6.664
REMARK INTER:                  -6.553
REMARK INTRA:                  -0.111
REMARK UNBOUND:                 0.343
REMARK SMILES O=c1c(O)c(-c2ccc(O)c(O)c2)oc2cc(O)cc(O)c12
REMARK SMILES IDX 5 1 3 2 2 3 1 4 22 5 20 6 19 7 17 8 16 9 15 10 14 11 6 12
REMARK SMILES IDX 7 13 8 14 9 15 13 16 11 17 10 18 12 20 4 22 21 24 18 26
REMARK H PARENT 10 19 12 21 4 23 21 25 18 27
REMARK Flexibility Score: inf
ROOT
ATOM      1  C   UNL     1     107.607 139.670  56.757  1.00  0.00     0.180 A 
ATOM      2  C   UNL     1     106.734 140.740  56.499  1.00  0.00     0.208 A 
ATOM      3  C   UNL     1     107.010 141.602  55.426  1.00  0.00     0.238 A 
ATOM      4  O   UNL     1     106.266 142.601  55.248  1.00  0.00    -0.285 OA
ATOM      5  C   UNL     1     108.125 141.352  54.590  1.00  0.00     0.111 A 
ATOM      6  C   UNL     1     108.475 142.134  53.448  1.00  0.00     0.134 A 
ATOM      7  C   UNL     1     109.662 141.855  52.758  1.00  0.00     0.093 A 
ATOM      8  C   UNL     1     110.476 140.785  53.127  1.00  0.00     0.123 A 
ATOM      9  C   UNL     1     110.115 139.981  54.208  1.00  0.00     0.094 A 
ATOM     10  C   UNL     1     108.958 140.257  54.941  1.00  0.00     0.146 A 
ATOM     11  O   UNL     1     108.663 139.479  55.975  1.00  0.00    -0.452 OA
ENDROOT
BRANCH   1  12
ATOM     12  C   UNL     1     107.390 138.727  57.878  1.00  0.00     0.025 A 
ATOM     13  C   UNL     1     107.359 139.214  59.194  1.00  0.00     0.016 A 
ATOM     14  C   UNL     1     107.133 138.346  60.265  1.00  0.00     0.051 A 
ATOM     15  C   UNL     1     106.919 136.983  60.038  1.00  0.00     0.157 A 
ATOM     16  C   UNL     1     107.152 137.359  57.649  1.00  0.00     0.062 A 
ATOM     17  C   UNL     1     106.923 136.487  58.723  1.00  0.00     0.158 A 
BRANCH  15  18
ATOM     18  O   UNL     1     106.698 136.140  61.125  1.00  0.00    -0.504 OA
ATOM     19  H   UNL     1     107.457 135.785  61.695  1.00  0.00     0.293 HD
ENDBRANCH  15  18
BRANCH  17  20
ATOM     20  O   UNL     1     106.696 135.131  58.487  1.00  0.00    -0.504 OA
ATOM     21  H   UNL     1     105.879 134.809  57.982  1.00  0.00     0.293 HD
ENDBRANCH  17  20
ENDBRANCH   1  12
BRANCH   2  22
ATOM     22  O   UNL     1     105.595 140.925  57.290  1.00  0.00    -0.502 OA
ATOM     23  H   UNL     1     104.692 140.540  57.042  1.00  0.00     0.293 HD
ENDBRANCH   2  22
BRANCH   6  24
ATOM     24  O   UNL     1     107.689 143.170  52.937  1.00  0.00    -0.507 OA
ATOM     25  H   UNL     1     107.497 144.039  53.413  1.00  0.00     0.293 HD
ENDBRANCH   6  24
BRANCH   8  26
ATOM     26  O   UNL     1     111.640 140.527  52.406  1.00  0.00    -0.508 OA
ATOM     27  H   UNL     1     112.557 140.636  52.824  1.00  0.00     0.293 HD
ENDBRANCH   8  26
TORSDOF 6
ENDMDL
MODEL 5
REMARK VINA RESULT:    -5.774      6.036     10.993
REMARK INTER + INTRA:          -6.613
REMARK INTER:                  -6.308
REMARK INTRA:                  -0.305
REMARK UNBOUND:                 0.343
REMARK SMILES O=c1c(O)c(-c2ccc(O)c(O)c2)oc2cc(O)cc(O)c12
REMARK SMILES IDX 5 1 3 2 2 3 1 4 22 5 20 6 19 7 17 8 16 9 15 10 14 11 6 12
REMARK SMILES IDX 7 13 8 14 9 15 13 16 11 17 10 18 12 20 4 22 21 24 18 26
REMARK H PARENT 10 19 12 21 4 23 21 25 18 27
REMARK Flexibility Score: inf
ROOT
ATOM      1  C   UNL     1     108.866 139.465  57.121  1.00  0.00     0.180 A 
ATOM      2  C   UNL     1     108.380 140.246  56.059  1.00  0.00     0.208 A 
ATOM      3  C   UNL     1     109.206 141.239  55.508  1.00  0.00     0.238 A 
ATOM      4  O   UNL     1     108.738 141.984  54.609  1.00  0.00    -0.285 OA
ATOM      5  C   UNL     1     110.529 141.400  55.988  1.00  0.00     0.111 A 
ATOM      6  C   UNL     1     111.469 142.344  55.475  1.00  0.00     0.134 A 
ATOM      7  C   UNL     1     112.715 142.487  56.099  1.00  0.00     0.093 A 
ATOM      8  C   UNL     1     113.079 141.679  57.175  1.00  0.00     0.123 A 
ATOM      9  C   UNL     1     112.188 140.716  57.651  1.00  0.00     0.094 A 
ATOM     10  C   UNL     1     110.923 140.576  57.074  1.00  0.00     0.146 A 
ATOM     11  O   UNL     1     110.099 139.662  57.572  1.00  0.00    -0.452 OA
ENDROOT
BRANCH   1  12
ATOM     12  C   UNL     1     108.049 138.410  57.762  1.00  0.00     0.025 A 
ATOM     13  C   UNL     1     107.105 138.764  58.739  1.00  0.00     0.016 A 
ATOM     14  C   UNL     1     106.308 137.788  59.340  1.00  0.00     0.051 A 
ATOM     15  C   UNL     1     106.429 136.447  58.966  1.00  0.00     0.157 A 
ATOM     16  C   UNL     1     108.154 137.062  57.370  1.00  0.00     0.062 A 
ATOM     17  C   UNL     1     107.353 136.081  57.972  1.00  0.00     0.158 A 
BRANCH  15  18
ATOM     18  O   UNL     1     105.622 135.493  59.585  1.00  0.00    -0.504 OA
ATOM     19  H   UNL     1     104.973 134.915  59.064  1.00  0.00     0.293 HD
ENDBRANCH  15  18
BRANCH  17  20
ATOM     20  O   UNL     1     107.469 134.747  57.583  1.00  0.00    -0.504 OA
ATOM     21  H   UNL     1     108.268 134.415  57.055  1.00  0.00     0.293 HD
ENDBRANCH  17  20
ENDBRANCH   1  12
BRANCH   2  22
ATOM     22  O   UNL     1     107.098 140.020  55.548  1.00  0.00    -0.502 OA
ATOM     23  H   UNL     1     106.903 139.294  54.869  1.00  0.00     0.293 HD
ENDBRANCH   2  22
BRANCH   6  24
ATOM     24  O   UNL     1     111.245 143.140  54.348  1.00  0.00    -0.507 OA
ATOM     25  H   UNL     1     111.796 143.945  54.091  1.00  0.00     0.293 HD
ENDBRANCH   6  24
BRANCH   8  26
ATOM     26  O   UNL     1     114.333 141.838  57.761  1.00  0.00    -0.508 OA
ATOM     27  H   UNL     1     114.438 142.226  58.691  1.00  0.00     0.293 HD
ENDBRANCH   8  26
TORSDOF 6
ENDMDL
MODEL 6
REMARK VINA RESULT:    -5.738      9.512     12.262
REMARK INTER + INTRA:          -6.569
REMARK INTER:                  -6.247
REMARK INTRA:                  -0.322
REMARK UNBOUND:                 0.343
REMARK SMILES O=c1c(O)c(-c2ccc(O)c(O)c2)oc2cc(O)cc(O)c12
REMARK SMILES IDX 5 1 3 2 2 3 1 4 22 5 20 6 19 7 17 8 16 9 15 10 14 11 6 12
REMARK SMILES IDX 7 13 8 14 9 15 13 16 11 17 10 18 12 20 4 22 21 24 18 26
REMARK H PARENT 10 19 12 21 4 23 21 25 18 27
REMARK Flexibility Score: inf
ROOT
ATOM      1  C   UNL     1     110.030 141.939  52.817  1.00  0.00     0.180 A 
ATOM      2  C   UNL     1     110.514 141.903  54.136  1.00  0.00     0.208 A 
ATOM      3  C   UNL     1     109.610 141.689  55.188  1.00  0.00     0.238 A 
ATOM      4  O   UNL     1     110.040 141.734  56.371  1.00  0.00    -0.285 OA
ATOM      5  C   UNL     1     108.243 141.458  54.906  1.00  0.00     0.111 A 
ATOM      6  C   UNL     1     107.245 141.186  55.891  1.00  0.00     0.134 A 
ATOM      7  C   UNL     1     105.903 141.078  55.504  1.00  0.00     0.093 A 
ATOM      8  C   UNL     1     105.530 141.168  54.163  1.00  0.00     0.123 A 
ATOM      9  C   UNL     1     106.504 141.379  53.186  1.00  0.00     0.094 A 
ATOM     10  C   UNL     1     107.846 141.530  53.545  1.00  0.00     0.146 A 
ATOM     11  O   UNL     1     108.736 141.751  52.586  1.00  0.00    -0.452 OA
ENDROOT
BRANCH   1  12
ATOM     12  C   UNL     1     110.919 142.173  51.657  1.00  0.00     0.025 A 
ATOM     13  C   UNL     1     111.156 143.487  51.221  1.00  0.00     0.016 A 
ATOM     14  C   UNL     1     112.009 143.732  50.143  1.00  0.00     0.051 A 
ATOM     15  C   UNL     1     112.650 142.673  49.493  1.00  0.00     0.157 A 
ATOM     16  C   UNL     1     111.582 141.110  51.015  1.00  0.00     0.062 A 
ATOM     17  C   UNL     1     112.440 141.355  49.933  1.00  0.00     0.158 A 
BRANCH  15  18
ATOM     18  O   UNL     1     113.494 142.948  48.418  1.00  0.00    -0.504 OA
ATOM     19  H   UNL     1     113.224 142.762  47.459  1.00  0.00     0.293 HD
ENDBRANCH  15  18
BRANCH  17  20
ATOM     20  O   UNL     1     113.087 140.295  49.299  1.00  0.00    -0.504 OA
ATOM     21  H   UNL     1     112.699 139.360  49.298  1.00  0.00     0.293 HD
ENDBRANCH  17  20
ENDBRANCH   1  12
BRANCH   2  22
ATOM     22  O   UNL     1     111.881 142.058  54.387  1.00  0.00    -0.502 OA
ATOM     23  H   UNL     1     112.429 142.806  53.979  1.00  0.00     0.293 HD
ENDBRANCH   2  22
BRANCH   6  24
ATOM     24  O   UNL     1     107.517 140.988  57.248  1.00  0.00    -0.507 OA
ATOM     25  H   UNL     1     107.859 140.128  57.649  1.00  0.00     0.293 HD
ENDBRANCH   6  24
BRANCH   8  26
ATOM     26  O   UNL     1     104.189 141.039  53.813  1.00  0.00    -0.508 OA
ATOM     27  H   UNL     1     103.739 141.696  53.186  1.00  0.00     0.293 HD
ENDBRANCH   8  26
TORSDOF 6
ENDMDL
MODEL 7
REMARK VINA RESULT:    -5.695      8.399     11.109
REMARK INTER + INTRA:          -6.518
REMARK INTER:                  -6.217
REMARK INTRA:                  -0.301
REMARK UNBOUND:                 0.343
REMARK SMILES O=c1c(O)c(-c2ccc(O)c(O)c2)oc2cc(O)cc(O)c12
REMARK SMILES IDX 5 1 3 2 2 3 1 4 22 5 20 6 19 7 17 8 16 9 15 10 14 11 6 12
REMARK SMILES IDX 7 13 8 14 9 15 13 16 11 17 10 18 12 20 4 22 21 24 18 26
REMARK H PARENT 10 19 12 21 4 23 21 25 18 27
REMARK Flexibility Score: inf
ROOT
ATOM      1  C   UNL     1     108.911 140.353  55.752  1.00  0.00     0.180 A 
ATOM      2  C   UNL     1     107.634 140.808  55.380  1.00  0.00     0.208 A 
ATOM      3  C   UNL     1     107.512 141.673  54.281  1.00  0.00     0.238 A 
ATOM      4  O   UNL     1     106.376 142.136  54.000  1.00  0.00    -0.285 OA
ATOM      5  C   UNL     1     108.661 142.028  53.533  1.00  0.00     0.111 A 
ATOM      6  C   UNL     1     108.649 142.862  52.374  1.00  0.00     0.134 A 
ATOM      7  C   UNL     1     109.862 143.232  51.777  1.00  0.00     0.093 A 
ATOM      8  C   UNL     1     111.078 142.748  52.256  1.00  0.00     0.123 A 
ATOM      9  C   UNL     1     111.097 141.888  53.355  1.00  0.00     0.094 A 
ATOM     10  C   UNL     1     109.908 141.532  53.996  1.00  0.00     0.146 A 
ATOM     11  O   UNL     1     109.974 140.729  55.051  1.00  0.00    -0.452 OA
ENDROOT
BRANCH   1  12
ATOM     12  C   UNL     1     109.120 139.450  56.906  1.00  0.00     0.025 A 
ATOM     13  C   UNL     1     109.491 139.991  58.148  1.00  0.00     0.016 A 
ATOM     14  C   UNL     1     109.672 139.161  59.256  1.00  0.00     0.051 A 
ATOM     15  C   UNL     1     109.472 137.782  59.147  1.00  0.00     0.157 A 
ATOM     16  C   UNL     1     108.897 138.065  56.803  1.00  0.00     0.062 A 
ATOM     17  C   UNL     1     109.077 137.230  57.916  1.00  0.00     0.158 A 
BRANCH  15  18
ATOM     18  O   UNL     1     109.663 136.977  60.269  1.00  0.00    -0.504 OA
ATOM     19  H   UNL     1     109.794 137.365  61.195  1.00  0.00     0.293 HD
ENDBRANCH  15  18
BRANCH  17  20
ATOM     20  O   UNL     1     108.862 135.857  57.803  1.00  0.00    -0.504 OA
ATOM     21  H   UNL     1     108.889 135.246  58.611  1.00  0.00     0.293 HD
ENDBRANCH  17  20
ENDBRANCH   1  12
BRANCH   2  22
ATOM     22  O   UNL     1     106.503 140.385  56.085  1.00  0.00    -0.502 OA
ATOM     23  H   UNL     1     105.779 139.816  55.662  1.00  0.00     0.293 HD
ENDBRANCH   2  22
BRANCH   6  24
ATOM     24  O   UNL     1     107.486 143.331  51.757  1.00  0.00    -0.507 OA
ATOM     25  H   UNL     1     107.347 143.394  50.760  1.00  0.00     0.293 HD
ENDBRANCH   6  24
BRANCH   8  26
ATOM     26  O   UNL     1     112.263 143.123  51.627  1.00  0.00    -0.508 OA
ATOM     27  H   UNL     1     112.380 143.038  50.623  1.00  0.00     0.293 HD
ENDBRANCH   8  26
TORSDOF 6
ENDMDL
MODEL 8
REMARK VINA RESULT:    -5.623      6.378      9.357
REMARK INTER + INTRA:          -6.431
REMARK INTER:                  -6.102
REMARK INTRA:                  -0.329
REMARK UNBOUND:                 0.343
REMARK SMILES O=c1c(O)c(-c2ccc(O)c(O)c2)oc2cc(O)cc(O)c12
REMARK SMILES IDX 5 1 3 2 2 3 1 4 22 5 20 6 19 7 17 8 16 9 15 10 14 11 6 12
REMARK SMILES IDX 7 13 8 14 9 15 13 16 11 17 10 18 12 20 4 22 21 24 18 26
REMARK H PARENT 10 19 12 21 4 23 21 25 18 27
REMARK Flexibility Score: inf
ROOT
ATOM      1  C   UNL     1     107.784 139.294  57.055  1.00  0.00     0.180 A 
ATOM      2  C   UNL     1     108.922 139.067  56.261  1.00  0.00     0.208 A 
ATOM      3  C   UNL     1     109.054 139.757  55.046  1.00  0.00     0.238 A 
ATOM      4  O   UNL     1     110.037 139.493  54.306  1.00  0.00    -0.285 OA
ATOM      5  C   UNL     1     108.075 140.707  54.665  1.00  0.00     0.111 A 
ATOM      6  C   UNL     1     108.129 141.496  53.476  1.00  0.00     0.134 A 
ATOM      7  C   UNL     1     107.050 142.328  53.150  1.00  0.00     0.093 A 
ATOM      8  C   UNL     1     105.950 142.448  53.997  1.00  0.00     0.123 A 
ATOM      9  C   UNL     1     105.912 141.722  55.189  1.00  0.00     0.094 A 
ATOM     10  C   UNL     1     106.955 140.855  55.523  1.00  0.00     0.146 A 
ATOM     11  O   UNL     1     106.867 140.167  56.656  1.00  0.00    -0.452 OA
ENDROOT
BRANCH   1  12
ATOM     12  C   UNL     1     107.569 138.595  58.342  1.00  0.00     0.025 A 
ATOM     13  C   UNL     1     107.924 139.231  59.542  1.00  0.00     0.016 A 
ATOM     14  C   UNL     1     107.709 138.600  60.769  1.00  0.00     0.051 A 
ATOM     15  C   UNL     1     107.122 137.332  60.818  1.00  0.00     0.157 A 
ATOM     16  C   UNL     1     106.958 137.328  58.395  1.00  0.00     0.062 A 
ATOM     17  C   UNL     1     106.740 136.694  59.626  1.00  0.00     0.158 A 
BRANCH  15  18
ATOM     18  O   UNL     1     106.922 136.725  62.057  1.00  0.00    -0.504 OA
ATOM     19  H   UNL     1     106.315 135.922  62.173  1.00  0.00     0.293 HD
ENDBRANCH  15  18
BRANCH  17  20
ATOM     20  O   UNL     1     106.142 135.435  59.668  1.00  0.00    -0.504 OA
ATOM     21  H   UNL     1     105.150 135.324  59.843  1.00  0.00     0.293 HD
ENDBRANCH  17  20
ENDBRANCH   1  12
BRANCH   2  22
ATOM     22  O   UNL     1     109.915 138.181  56.692  1.00  0.00    -0.502 OA
ATOM     23  H   UNL     1     110.649 137.847  56.079  1.00  0.00     0.293 HD
ENDBRANCH   2  22
BRANCH   6  24
ATOM     24  O   UNL     1     109.220 141.522  52.601  1.00  0.00    -0.507 OA
ATOM     25  H   UNL     1     109.157 141.663  51.604  1.00  0.00     0.293 HD
ENDBRANCH   6  24
BRANCH   8  26
ATOM     26  O   UNL     1     104.903 143.297  53.649  1.00  0.00    -0.508 OA
ATOM     27  H   UNL     1     105.023 144.303  53.624  1.00  0.00     0.293 HD
ENDBRANCH   8  26
TORSDOF 6
ENDMDL
MODEL 9
REMARK VINA RESULT:    -5.604      9.077     12.059
REMARK INTER + INTRA:          -6.408
REMARK INTER:                  -6.076
REMARK INTRA:                  -0.331
REMARK UNBOUND:                 0.343
REMARK SMILES O=c1c(O)c(-c2ccc(O)c(O)c2)oc2cc(O)cc(O)c12
REMARK SMILES IDX 5 1 3 2 2 3 1 4 22 5 20 6 19 7 17 8 16 9 15 10 14 11 6 12
REMARK SMILES IDX 7 13 8 14 9 15 13 16 11 17 10 18 12 20 4 22 21 24 18 26
REMARK H PARENT 10 19 12 21 4 23 21 25 18 27
REMARK Flexibility Score: inf
ROOT
ATOM      1  C   UNL     1     110.389 141.349  53.197  1.00  0.00     0.180 A 
ATOM      2  C   UNL     1     109.163 142.035  53.241  1.00  0.00     0.208 A 
ATOM      3  C   UNL     1     108.192 141.636  54.174  1.00  0.00     0.238 A 
ATOM      4  O   UNL     1     107.070 142.205  54.157  1.00  0.00    -0.285 OA
ATOM      5  C   UNL     1     108.479 140.594  55.088  1.00  0.00     0.111 A 
ATOM      6  C   UNL     1     107.586 140.136  56.104  1.00  0.00     0.134 A 
ATOM      7  C   UNL     1     107.937 139.026  56.882  1.00  0.00     0.093 A 
ATOM      8  C   UNL     1     109.171 138.396  56.726  1.00  0.00     0.123 A 
ATOM      9  C   UNL     1     110.073 138.869  55.772  1.00  0.00     0.094 A 
ATOM     10  C   UNL     1     109.737 139.950  54.954  1.00  0.00     0.146 A 
ATOM     11  O   UNL     1     110.617 140.353  54.045  1.00  0.00    -0.452 OA
ENDROOT
BRANCH   1  12
ATOM     12  C   UNL     1     111.455 141.703  52.233  1.00  0.00     0.025 A 
ATOM     13  C   UNL     1     112.465 142.599  52.619  1.00  0.00     0.016 A 
ATOM     14  C   UNL     1     113.493 142.930  51.734  1.00  0.00     0.051 A 
ATOM     15  C   UNL     1     113.540 142.360  50.458  1.00  0.00     0.157 A 
ATOM     16  C   UNL     1     111.516 141.113  50.957  1.00  0.00     0.062 A 
ATOM     17  C   UNL     1     112.549 141.443  50.068  1.00  0.00     0.158 A 
BRANCH  15  18
ATOM     18  O   UNL     1     114.577 142.711  49.595  1.00  0.00    -0.504 OA
ATOM     19  H   UNL     1     114.542 143.545  49.021  1.00  0.00     0.293 HD
ENDBRANCH  15  18
BRANCH  17  20
ATOM     20  O   UNL     1     112.596 140.860  48.802  1.00  0.00    -0.504 OA
ATOM     21  H   UNL     1     112.732 141.416  47.966  1.00  0.00     0.293 HD
ENDBRANCH  17  20
ENDBRANCH   1  12
BRANCH   2  22
ATOM     22  O   UNL     1     108.928 143.112  52.381  1.00  0.00    -0.502 OA
ATOM     23  H   UNL     1     107.997 143.462  52.188  1.00  0.00     0.293 HD
ENDBRANCH   2  22
BRANCH   6  24
ATOM     24  O   UNL     1     106.366 140.746  56.408  1.00  0.00    -0.507 OA
ATOM     25  H   UNL     1     106.263 141.616  56.907  1.00  0.00     0.293 HD
ENDBRANCH   6  24
BRANCH   8  26
ATOM     26  O   UNL     1     109.492 137.305  57.529  1.00  0.00    -0.508 OA
ATOM     27  H   UNL     1     108.799 136.610  57.782  1.00  0.00     0.293 HD
ENDBRANCH   8  26
TORSDOF 6
ENDMDL
