MODEL 1
REMARK VINA RESULT:    -7.515      0.000      0.000
REMARK INTER + INTRA:          -9.375
REMARK INTER:                  -9.052
REMARK INTRA:                  -0.322
REMARK UNBOUND:                -0.322
REMARK SMILES O=c1c(O)c(-c2ccc(O)c(O)c2)oc2cc(O)cc(O)c12
REMARK SMILES IDX 5 1 3 2 2 3 1 4 22 5 20 6 19 7 17 8 16 9 15 10 14 11 6 12
REMARK SMILES IDX 7 13 8 14 9 15 13 16 11 17 10 18 12 20 4 22 21 24 18 26
REMARK H PARENT 10 19 12 21 4 23 21 25 18 27
REMARK Flexibility Score: inf
ROOT
ATOM      1  C   UNL     1      12.863  21.245  29.332  1.00  0.00     0.180 A 
ATOM      2  C   UNL     1      13.867  20.946  30.270  1.00  0.00     0.208 A 
ATOM      3  C   UNL     1      15.211  20.989  29.866  1.00  0.00     0.238 A 
ATOM      4  O   UNL     1      16.101  20.669  30.696  1.00  0.00    -0.285 OA
ATOM      5  C   UNL     1      15.536  21.344  28.535  1.00  0.00     0.111 A 
ATOM      6  C   UNL     1      16.865  21.459  28.027  1.00  0.00     0.134 A 
ATOM      7  C   UNL     1      17.064  21.689  26.661  1.00  0.00     0.093 A 
ATOM      8  C   UNL     1      15.983  21.875  25.796  1.00  0.00     0.123 A 
ATOM      9  C   UNL     1      14.684  21.824  26.293  1.00  0.00     0.094 A 
ATOM     10  C   UNL     1      14.451  21.560  27.645  1.00  0.00     0.146 A 
ATOM     11  O   UNL     1      13.196  21.510  28.075  1.00  0.00    -0.452 OA
ENDROOT
BRANCH   1  12
ATOM     12  C   UNL     1      11.425  21.244  29.689  1.00  0.00     0.025 A 
ATOM     13  C   UNL     1      10.689  20.053  29.594  1.00  0.00     0.016 A 
ATOM     14  C   UNL     1       9.327  20.036  29.905  1.00  0.00     0.051 A 
ATOM     15  C   UNL     1       8.678  21.212  30.301  1.00  0.00     0.157 A 
ATOM     16  C   UNL     1      10.765  22.428  30.066  1.00  0.00     0.062 A 
ATOM     17  C   UNL     1       9.401  22.415  30.377  1.00  0.00     0.158 A 
BRANCH  15  18
ATOM     18  O   UNL     1       7.319  21.192  30.612  1.00  0.00    -0.504 OA
ATOM     19  H   UNL     1       6.625  21.584  29.986  1.00  0.00     0.293 HD
ENDBRANCH  15  18
BRANCH  17  20
ATOM     20  O   UNL     1       8.780  23.605  30.753  1.00  0.00    -0.504 OA
ATOM     21  H   UNL     1       9.137  24.511  30.476  1.00  0.00     0.293 HD
ENDBRANCH  17  20
ENDBRANCH   1  12
BRANCH   2  22
ATOM     22  O   UNL     1      13.523  20.577  31.573  1.00  0.00    -0.502 OA
ATOM     23  H   UNL     1      14.023  19.860  32.085  1.00  0.00     0.293 HD
ENDBRANCH   2  22
BRANCH   6  24
ATOM     24  O   UNL     1      18.012  21.382  28.822  1.00  0.00    -0.507 OA
ATOM     25  H   UNL     1      18.718  20.666  28.745  1.00  0.00     0.293 HD
ENDBRANCH   6  24
BRANCH   8  26
ATOM     26  O   UNL     1      16.192  22.119  24.440  1.00  0.00    -0.508 OA
ATOM     27  H   UNL     1      16.852  21.572  23.898  1.00  0.00     0.293 HD
ENDBRANCH   8  26
TORSDOF 6
ENDMDL
MODEL 2
REMARK VINA RESULT:    -7.028      0.929      1.498
REMARK INTER + INTRA:          -8.788
REMARK INTER:                  -8.600
REMARK INTRA:                  -0.188
REMARK UNBOUND:                -0.322
REMARK SMILES O=c1c(O)c(-c2ccc(O)c(O)c2)oc2cc(O)cc(O)c12
REMARK SMILES IDX 5 1 3 2 2 3 1 4 22 5 20 6 19 7 17 8 16 9 15 10 14 11 6 12
REMARK SMILES IDX 7 13 8 14 9 15 13 16 11 17 10 18 12 20 4 22 21 24 18 26
REMARK H PARENT 10 19 12 21 4 23 21 25 18 27
REMARK Flexibility Score: inf
ROOT
ATOM      1  C   UNL     1      12.968  21.481  30.016  1.00  0.00     0.180 A 
ATOM      2  C   UNL     1      13.956  20.909  30.836  1.00  0.00     0.208 A 
ATOM      3  C   UNL     1      15.262  20.776  30.338  1.00  0.00     0.238 A 
ATOM      4  O   UNL     1      16.129  20.214  31.057  1.00  0.00    -0.285 OA
ATOM      5  C   UNL     1      15.568  21.230  29.033  1.00  0.00     0.111 A 
ATOM      6  C   UNL     1      16.866  21.182  28.441  1.00  0.00     0.134 A 
ATOM      7  C   UNL     1      17.025  21.540  27.096  1.00  0.00     0.093 A 
ATOM      8  C   UNL     1      15.946  22.006  26.342  1.00  0.00     0.123 A 
ATOM      9  C   UNL     1      14.687  22.112  26.928  1.00  0.00     0.094 A 
ATOM     10  C   UNL     1      14.489  21.729  28.257  1.00  0.00     0.146 A 
ATOM     11  O   UNL     1      13.270  21.837  28.774  1.00  0.00    -0.452 OA
ENDROOT
BRANCH   1  12
ATOM     12  C   UNL     1      11.575  21.677  30.480  1.00  0.00     0.025 A 
ATOM     13  C   UNL     1      11.313  22.584  31.518  1.00  0.00     0.016 A 
ATOM     14  C   UNL     1      10.009  22.768  31.984  1.00  0.00     0.051 A 
ATOM     15  C   UNL     1       8.951  22.037  31.430  1.00  0.00     0.157 A 
ATOM     16  C   UNL     1      10.513  20.929  29.940  1.00  0.00     0.062 A 
ATOM     17  C   UNL     1       9.206  21.109  30.406  1.00  0.00     0.158 A 
BRANCH  15  18
ATOM     18  O   UNL     1       7.650  22.224  31.896  1.00  0.00    -0.504 OA
ATOM     19  H   UNL     1       7.208  21.556  32.519  1.00  0.00     0.293 HD
ENDBRANCH  15  18
BRANCH  17  20
ATOM     20  O   UNL     1       8.176  20.356  29.845  1.00  0.00    -0.504 OA
ATOM     21  H   UNL     1       8.278  19.879  28.957  1.00  0.00     0.293 HD
ENDBRANCH  17  20
ENDBRANCH   1  12
BRANCH   2  22
ATOM     22  O   UNL     1      13.628  20.446  32.113  1.00  0.00    -0.502 OA
ATOM     23  H   UNL     1      12.983  20.937  32.721  1.00  0.00     0.293 HD
ENDBRANCH   2  22
BRANCH   6  24
ATOM     24  O   UNL     1      18.026  20.820  29.132  1.00  0.00    -0.507 OA
ATOM     25  H   UNL     1      18.955  21.139  28.902  1.00  0.00     0.293 HD
ENDBRANCH   6  24
BRANCH   8  26
ATOM     26  O   UNL     1      16.117  22.374  25.009  1.00  0.00    -0.508 OA
ATOM     27  H   UNL     1      15.737  21.816  24.252  1.00  0.00     0.293 HD
ENDBRANCH   8  26
TORSDOF 6
ENDMDL
MODEL 3
REMARK VINA RESULT:    -6.798      2.084      3.336
REMARK INTER + INTRA:          -8.511
REMARK INTER:                  -8.289
REMARK INTRA:                  -0.222
REMARK UNBOUND:                -0.322
REMARK SMILES O=c1c(O)c(-c2ccc(O)c(O)c2)oc2cc(O)cc(O)c12
REMARK SMILES IDX 5 1 3 2 2 3 1 4 22 5 20 6 19 7 17 8 16 9 15 10 14 11 6 12
REMARK SMILES IDX 7 13 8 14 9 15 13 16 11 17 10 18 12 20 4 22 21 24 18 26
REMARK H PARENT 10 19 12 21 4 23 21 25 18 27
REMARK Flexibility Score: inf
ROOT
ATOM      1  C   UNL     1      12.972  22.358  30.314  1.00  0.00     0.180 A 
ATOM      2  C   UNL     1      13.534  23.433  29.604  1.00  0.00     0.208 A 
ATOM      3  C   UNL     1      14.892  23.380  29.250  1.00  0.00     0.238 A 
ATOM      4  O   UNL     1      15.402  24.369  28.662  1.00  0.00    -0.285 OA
ATOM      5  C   UNL     1      15.667  22.247  29.596  1.00  0.00     0.111 A 
ATOM      6  C   UNL     1      17.041  22.069  29.254  1.00  0.00     0.134 A 
ATOM      7  C   UNL     1      17.742  20.968  29.761  1.00  0.00     0.093 A 
ATOM      8  C   UNL     1      17.101  20.005  30.544  1.00  0.00     0.123 A 
ATOM      9  C   UNL     1      15.746  20.139  30.834  1.00  0.00     0.094 A 
ATOM     10  C   UNL     1      15.028  21.245  30.373  1.00  0.00     0.146 A 
ATOM     11  O   UNL     1      13.740  21.339  30.682  1.00  0.00    -0.452 OA
ENDROOT
BRANCH   1  12
ATOM     12  C   UNL     1      11.543  22.330  30.701  1.00  0.00     0.025 A 
ATOM     13  C   UNL     1      11.088  23.171  31.728  1.00  0.00     0.016 A 
ATOM     14  C   UNL     1       9.748  23.145  32.123  1.00  0.00     0.051 A 
ATOM     15  C   UNL     1       8.847  22.267  31.508  1.00  0.00     0.157 A 
ATOM     16  C   UNL     1      10.640  21.434  30.101  1.00  0.00     0.062 A 
ATOM     17  C   UNL     1       9.298  21.403  30.495  1.00  0.00     0.158 A 
BRANCH  15  18
ATOM     18  O   UNL     1       7.510  22.244  31.903  1.00  0.00    -0.504 OA
ATOM     19  H   UNL     1       7.118  21.455  32.406  1.00  0.00     0.293 HD
ENDBRANCH  15  18
BRANCH  17  20
ATOM     20  O   UNL     1       8.428  20.507  29.874  1.00  0.00    -0.504 OA
ATOM     21  H   UNL     1       7.422  20.584  29.962  1.00  0.00     0.293 HD
ENDBRANCH  17  20
ENDBRANCH   1  12
BRANCH   2  22
ATOM     22  O   UNL     1      12.757  24.552  29.292  1.00  0.00    -0.502 OA
ATOM     23  H   UNL     1      11.899  24.486  28.758  1.00  0.00     0.293 HD
ENDBRANCH   2  22
BRANCH   6  24
ATOM     24  O   UNL     1      17.750  22.923  28.404  1.00  0.00    -0.507 OA
ATOM     25  H   UNL     1      17.820  22.810  27.404  1.00  0.00     0.293 HD
ENDBRANCH   6  24
BRANCH   8  26
ATOM     26  O   UNL     1      17.803  18.904  31.032  1.00  0.00    -0.508 OA
ATOM     27  H   UNL     1      17.326  18.111  31.445  1.00  0.00     0.293 HD
ENDBRANCH   8  26
TORSDOF 6
ENDMDL
MODEL 4
REMARK VINA RESULT:    -6.205     21.681     23.129
REMARK INTER + INTRA:          -7.796
REMARK INTER:                  -7.589
REMARK INTRA:                  -0.207
REMARK UNBOUND:                -0.322
REMARK SMILES O=c1c(O)c(-c2ccc(O)c(O)c2)oc2cc(O)cc(O)c12
REMARK SMILES IDX 5 1 3 2 2 3 1 4 22 5 20 6 19 7 17 8 16 9 15 10 14 11 6 12
REMARK SMILES IDX 7 13 8 14 9 15 13 16 11 17 10 18 12 20 4 22 21 24 18 26
REMARK H PARENT 10 19 12 21 4 23 21 25 18 27
REMARK Flexibility Score: inf
ROOT
ATOM      1  C   UNL     1       2.735  36.381  14.545  1.00  0.00     0.180 A 
ATOM      2  C   UNL     1       3.316  37.637  14.302  1.00  0.00     0.208 A 
ATOM      3  C   UNL     1       4.533  37.956  14.925  1.00  0.00     0.238 A 
ATOM      4  O   UNL     1       5.021  39.102  14.747  1.00  0.00    -0.285 OA
ATOM      5  C   UNL     1       5.162  37.010  15.770  1.00  0.00     0.111 A 
ATOM      6  C   UNL     1       6.416  37.210  16.421  1.00  0.00     0.134 A 
ATOM      7  C   UNL     1       6.879  36.257  17.336  1.00  0.00     0.093 A 
ATOM      8  C   UNL     1       6.165  35.080  17.575  1.00  0.00     0.123 A 
ATOM      9  C   UNL     1       4.970  34.849  16.900  1.00  0.00     0.094 A 
ATOM     10  C   UNL     1       4.463  35.797  16.007  1.00  0.00     0.146 A 
ATOM     11  O   UNL     1       3.314  35.540  15.392  1.00  0.00    -0.452 OA
ENDROOT
BRANCH   1  12
ATOM     12  C   UNL     1       1.465  35.963  13.905  1.00  0.00     0.025 A 
ATOM     13  C   UNL     1       1.432  35.730  12.522  1.00  0.00     0.016 A 
ATOM     14  C   UNL     1       0.240  35.355  11.895  1.00  0.00     0.051 A 
ATOM     15  C   UNL     1      -0.938  35.223  12.641  1.00  0.00     0.157 A 
ATOM     16  C   UNL     1       0.275  35.850  14.647  1.00  0.00     0.062 A 
ATOM     17  C   UNL     1      -0.920  35.477  14.022  1.00  0.00     0.158 A 
BRANCH  15  18
ATOM     18  O   UNL     1      -2.125  34.848  12.013  1.00  0.00    -0.504 OA
ATOM     19  H   UNL     1      -2.700  35.521  11.519  1.00  0.00     0.293 HD
ENDBRANCH  15  18
BRANCH  17  20
ATOM     20  O   UNL     1      -2.080  35.368  14.789  1.00  0.00    -0.504 OA
ATOM     21  H   UNL     1      -2.411  36.124  15.376  1.00  0.00     0.293 HD
ENDBRANCH  17  20
ENDBRANCH   1  12
BRANCH   2  22
ATOM     22  O   UNL     1       2.668  38.565  13.483  1.00  0.00    -0.502 OA
ATOM     23  H   UNL     1       3.104  38.964  12.661  1.00  0.00     0.293 HD
ENDBRANCH   2  22
BRANCH   6  24
ATOM     24  O   UNL     1       7.251  38.306  16.184  1.00  0.00    -0.507 OA
ATOM     25  H   UNL     1       7.648  38.543  15.287  1.00  0.00     0.293 HD
ENDBRANCH   6  24
BRANCH   8  26
ATOM     26  O   UNL     1       6.642  34.130  18.476  1.00  0.00    -0.508 OA
ATOM     27  H   UNL     1       7.634  34.010  18.645  1.00  0.00     0.293 HD
ENDBRANCH   8  26
TORSDOF 6
ENDMDL
MODEL 5
REMARK VINA RESULT:    -6.030      1.638      3.306
REMARK INTER + INTRA:          -7.586
REMARK INTER:                  -7.604
REMARK INTRA:                   0.018
REMARK UNBOUND:                -0.322
REMARK SMILES O=c1c(O)c(-c2ccc(O)c(O)c2)oc2cc(O)cc(O)c12
REMARK SMILES IDX 5 1 3 2 2 3 1 4 22 5 20 6 19 7 17 8 16 9 15 10 14 11 6 12
REMARK SMILES IDX 7 13 8 14 9 15 13 16 11 17 10 18 12 20 4 22 21 24 18 26
REMARK H PARENT 10 19 12 21 4 23 21 25 18 27
REMARK Flexibility Score: inf
ROOT
ATOM      1  C   UNL     1      12.585  21.900  29.785  1.00  0.00     0.180 A 
ATOM      2  C   UNL     1      12.875  21.748  28.418  1.00  0.00     0.208 A 
ATOM      3  C   UNL     1      14.216  21.680  28.009  1.00  0.00     0.238 A 
ATOM      4  O   UNL     1      14.470  21.598  26.779  1.00  0.00    -0.285 OA
ATOM      5  C   UNL     1      15.251  21.750  28.972  1.00  0.00     0.111 A 
ATOM      6  C   UNL     1      16.643  21.651  28.676  1.00  0.00     0.134 A 
ATOM      7  C   UNL     1      17.583  21.864  29.692  1.00  0.00     0.093 A 
ATOM      8  C   UNL     1      17.179  22.107  31.007  1.00  0.00     0.123 A 
ATOM      9  C   UNL     1      15.823  22.146  31.317  1.00  0.00     0.094 A 
ATOM     10  C   UNL     1      14.861  21.973  30.319  1.00  0.00     0.146 A 
ATOM     11  O   UNL     1      13.578  22.028  30.657  1.00  0.00    -0.452 OA
ENDROOT
BRANCH   1  12
ATOM     12  C   UNL     1      11.196  21.955  30.296  1.00  0.00     0.025 A 
ATOM     13  C   UNL     1      10.849  22.920  31.254  1.00  0.00     0.016 A 
ATOM     14  C   UNL     1       9.549  22.975  31.764  1.00  0.00     0.051 A 
ATOM     15  C   UNL     1       8.583  22.057  31.336  1.00  0.00     0.157 A 
ATOM     16  C   UNL     1      10.228  21.021  29.883  1.00  0.00     0.062 A 
ATOM     17  C   UNL     1       8.926  21.072  30.394  1.00  0.00     0.158 A 
BRANCH  15  18
ATOM     18  O   UNL     1       7.286  22.115  31.846  1.00  0.00    -0.504 OA
ATOM     19  H   UNL     1       6.486  22.283  31.246  1.00  0.00     0.293 HD
ENDBRANCH  15  18
BRANCH  17  20
ATOM     20  O   UNL     1       7.990  20.135  29.959  1.00  0.00    -0.504 OA
ATOM     21  H   UNL     1       7.269  20.366  29.285  1.00  0.00     0.293 HD
ENDBRANCH  17  20
ENDBRANCH   1  12
BRANCH   2  22
ATOM     22  O   UNL     1      11.839  21.704  27.481  1.00  0.00    -0.502 OA
ATOM     23  H   UNL     1      11.604  20.863  26.969  1.00  0.00     0.293 HD
ENDBRANCH   2  22
BRANCH   6  24
ATOM     24  O   UNL     1      17.151  21.322  27.415  1.00  0.00    -0.507 OA
ATOM     25  H   UNL     1      17.201  20.386  27.043  1.00  0.00     0.293 HD
ENDBRANCH   6  24
BRANCH   8  26
ATOM     26  O   UNL     1      18.122  22.302  32.015  1.00  0.00    -0.508 OA
ATOM     27  H   UNL     1      18.106  21.756  32.869  1.00  0.00     0.293 HD
ENDBRANCH   8  26
TORSDOF 6
ENDMDL
MODEL 6
REMARK VINA RESULT:    -5.904     21.766     24.040
REMARK INTER + INTRA:          -7.434
REMARK INTER:                  -7.844
REMARK INTRA:                   0.410
REMARK UNBOUND:                -0.322
REMARK SMILES O=c1c(O)c(-c2ccc(O)c(O)c2)oc2cc(O)cc(O)c12
REMARK SMILES IDX 5 1 3 2 2 3 1 4 22 5 20 6 19 7 17 8 16 9 15 10 14 11 6 12
REMARK SMILES IDX 7 13 8 14 9 15 13 16 11 17 10 18 12 20 4 22 21 24 18 26
REMARK H PARENT 10 19 12 21 4 23 21 25 18 27
REMARK Flexibility Score: inf
ROOT
ATOM      1  C   UNL     1       2.846  36.753  15.124  1.00  0.00     0.180 A 
ATOM      2  C   UNL     1       2.419  37.339  13.920  1.00  0.00     0.208 A 
ATOM      3  C   UNL     1       1.090  37.151  13.506  1.00  0.00     0.238 A 
ATOM      4  O   UNL     1       0.728  37.633  12.401  1.00  0.00    -0.285 OA
ATOM      5  C   UNL     1       0.202  36.394  14.307  1.00  0.00     0.111 A 
ATOM      6  C   UNL     1      -1.175  36.173  14.004  1.00  0.00     0.134 A 
ATOM      7  C   UNL     1      -1.925  35.299  14.802  1.00  0.00     0.093 A 
ATOM      8  C   UNL     1      -1.366  34.691  15.928  1.00  0.00     0.123 A 
ATOM      9  C   UNL     1      -0.040  34.947  16.264  1.00  0.00     0.094 A 
ATOM     10  C   UNL     1       0.745  35.785  15.469  1.00  0.00     0.146 A 
ATOM     11  O   UNL     1       2.009  35.995  15.821  1.00  0.00    -0.452 OA
ENDROOT
BRANCH   1  12
ATOM     12  C   UNL     1       4.224  36.927  15.640  1.00  0.00     0.025 A 
ATOM     13  C   UNL     1       5.000  38.006  15.190  1.00  0.00     0.016 A 
ATOM     14  C   UNL     1       6.309  38.176  15.647  1.00  0.00     0.051 A 
ATOM     15  C   UNL     1       6.867  37.261  16.549  1.00  0.00     0.157 A 
ATOM     16  C   UNL     1       4.795  35.998  16.529  1.00  0.00     0.062 A 
ATOM     17  C   UNL     1       6.106  36.163  16.987  1.00  0.00     0.158 A 
BRANCH  15  18
ATOM     18  O   UNL     1       8.173  37.434  17.005  1.00  0.00    -0.504 OA
ATOM     19  H   UNL     1       8.468  38.291  17.459  1.00  0.00     0.293 HD
ENDBRANCH  15  18
BRANCH  17  20
ATOM     20  O   UNL     1       6.638  35.228  17.874  1.00  0.00    -0.504 OA
ATOM     21  H   UNL     1       6.718  35.410  18.867  1.00  0.00     0.293 HD
ENDBRANCH  17  20
ENDBRANCH   1  12
BRANCH   2  22
ATOM     22  O   UNL     1       3.317  38.064  13.134  1.00  0.00    -0.502 OA
ATOM     23  H   UNL     1       3.264  38.082  12.123  1.00  0.00     0.293 HD
ENDBRANCH   2  22
BRANCH   6  24
ATOM     24  O   UNL     1      -1.854  36.803  12.958  1.00  0.00    -0.507 OA
ATOM     25  H   UNL     1      -2.848  36.980  12.941  1.00  0.00     0.293 HD
ENDBRANCH   6  24
BRANCH   8  26
ATOM     26  O   UNL     1      -2.125  33.835  16.723  1.00  0.00    -0.508 OA
ATOM     27  H   UNL     1      -2.993  33.432  16.390  1.00  0.00     0.293 HD
ENDBRANCH   8  26
TORSDOF 6
ENDMDL
MODEL 7
REMARK VINA RESULT:    -5.848      1.515      6.676
REMARK INTER + INTRA:          -7.367
REMARK INTER:                  -7.035
REMARK INTRA:                  -0.332
REMARK UNBOUND:                -0.322
REMARK SMILES O=c1c(O)c(-c2ccc(O)c(O)c2)oc2cc(O)cc(O)c12
REMARK SMILES IDX 5 1 3 2 2 3 1 4 22 5 20 6 19 7 17 8 16 9 15 10 14 11 6 12
REMARK SMILES IDX 7 13 8 14 9 15 13 16 11 17 10 18 12 20 4 22 21 24 18 26
REMARK H PARENT 10 19 12 21 4 23 21 25 18 27
REMARK Flexibility Score: inf
ROOT
ATOM      1  C   UNL     1      13.618  21.699  28.737  1.00  0.00     0.180 A 
ATOM      2  C   UNL     1      14.036  20.640  29.561  1.00  0.00     0.208 A 
ATOM      3  C   UNL     1      13.117  20.074  30.460  1.00  0.00     0.238 A 
ATOM      4  O   UNL     1      13.511  19.163  31.233  1.00  0.00    -0.285 OA
ATOM      5  C   UNL     1      11.790  20.564  30.513  1.00  0.00     0.111 A 
ATOM      6  C   UNL     1      10.765  20.040  31.357  1.00  0.00     0.134 A 
ATOM      7  C   UNL     1       9.525  20.687  31.421  1.00  0.00     0.093 A 
ATOM      8  C   UNL     1       9.251  21.800  30.623  1.00  0.00     0.123 A 
ATOM      9  C   UNL     1      10.225  22.283  29.753  1.00  0.00     0.094 A 
ATOM     10  C   UNL     1      11.484  21.681  29.693  1.00  0.00     0.146 A 
ATOM     11  O   UNL     1      12.387  22.180  28.856  1.00  0.00    -0.452 OA
ENDROOT
BRANCH   1  12
ATOM     12  C   UNL     1      14.521  22.331  27.747  1.00  0.00     0.025 A 
ATOM     13  C   UNL     1      15.214  23.502  28.091  1.00  0.00     0.016 A 
ATOM     14  C   UNL     1      16.054  24.125  27.165  1.00  0.00     0.051 A 
ATOM     15  C   UNL     1      16.202  23.595  25.877  1.00  0.00     0.157 A 
ATOM     16  C   UNL     1      14.656  21.814  26.445  1.00  0.00     0.062 A 
ATOM     17  C   UNL     1      15.494  22.437  25.514  1.00  0.00     0.158 A 
BRANCH  15  18
ATOM     18  O   UNL     1      17.042  24.219  24.955  1.00  0.00    -0.504 OA
ATOM     19  H   UNL     1      16.985  24.017  23.963  1.00  0.00     0.293 HD
ENDBRANCH  15  18
BRANCH  17  20
ATOM     20  O   UNL     1      15.609  21.894  24.235  1.00  0.00    -0.504 OA
ATOM     21  H   UNL     1      16.368  21.274  23.979  1.00  0.00     0.293 HD
ENDBRANCH  17  20
ENDBRANCH   1  12
BRANCH   2  22
ATOM     22  O   UNL     1      15.356  20.187  29.508  1.00  0.00    -0.502 OA
ATOM     23  H   UNL     1      15.657  19.333  29.963  1.00  0.00     0.293 HD
ENDBRANCH   2  22
BRANCH   6  24
ATOM     24  O   UNL     1      10.905  18.880  32.125  1.00  0.00    -0.507 OA
ATOM     25  H   UNL     1      11.088  17.961  31.750  1.00  0.00     0.293 HD
ENDBRANCH   6  24
BRANCH   8  26
ATOM     26  O   UNL     1       8.009  22.428  30.682  1.00  0.00    -0.508 OA
ATOM     27  H   UNL     1       7.308  22.155  31.361  1.00  0.00     0.293 HD
ENDBRANCH   8  26
TORSDOF 6
ENDMDL
