MODEL 1
REMARK VINA RESULT:    -3.806      0.000      0.000
REMARK INTER + INTRA:          -9.230
REMARK INTER:                  -6.921
REMARK INTRA:                  -2.309
REMARK UNBOUND:                -2.309
REMARK SMILES CCCCCCCCCCCCCC[C@@H](C)C(=O)[O-]
REMARK SMILES IDX 9 1 10 2 11 3 12 4 13 5 14 6 15 7 16 8 17 9 18 10 19 11 8 12
REMARK SMILES IDX 7 13 6 14 5 15 4 16 3 17 2 18 1 19
REMARK H PARENT
REMARK Flexibility Score: inf
ROOT
ATOM      1  C   UNL     1     -22.333  31.108 -42.266  1.00  0.00     0.000 C 
ENDROOT
BRANCH   1   2
ATOM      2  C   UNL     1     -23.329  31.294 -41.104  1.00  0.00     0.000 C 
BRANCH   2   3
ATOM      3  C   UNL     1     -23.000  30.489 -39.832  1.00  0.00     0.000 C 
BRANCH   3   4
ATOM      4  C   UNL     1     -24.081  30.540 -38.737  1.00  0.00     0.000 C 
BRANCH   4   5
ATOM      5  C   UNL     1     -25.479  30.865 -39.288  1.00  0.00     0.001 C 
BRANCH   5   6
ATOM      6  C   UNL     1     -26.270  29.575 -39.560  1.00  0.00     0.009 C 
BRANCH   6   7
ATOM      7  C   UNL     1     -26.930  29.516 -40.955  1.00  0.00     0.032 C 
ATOM      8  C   UNL     1     -26.946  30.881 -41.661  1.00  0.00     0.014 C 
BRANCH   7   9
ATOM      9  C   UNL     1     -26.313  28.439 -41.812  1.00  0.00     0.044 C 
ATOM     10  O   UNL     1     -25.063  28.304 -41.887  1.00  0.00    -0.550 OA
ATOM     11  O   UNL     1     -27.136  27.535 -42.476  1.00  0.00    -0.550 OA
ENDBRANCH   7   9
ENDBRANCH   6   7
ENDBRANCH   5   6
ENDBRANCH   4   5
ENDBRANCH   3   4
ENDBRANCH   2   3
ENDBRANCH   1   2
BRANCH   1  12
ATOM     12  C   UNL     1     -21.113  30.234 -41.900  1.00  0.00     0.000 C 
BRANCH  12  13
ATOM     13  C   UNL     1     -19.822  30.726 -42.578  1.00  0.00    -0.000 C 
BRANCH  13  14
ATOM     14  C   UNL     1     -19.122  31.848 -41.790  1.00  0.00    -0.000 C 
BRANCH  14  15
ATOM     15  C   UNL     1     -19.311  31.774 -40.263  1.00  0.00    -0.000 C 
BRANCH  15  16
ATOM     16  C   UNL     1     -19.488  33.159 -39.613  1.00  0.00    -0.000 C 
BRANCH  16  17
ATOM     17  C   UNL     1     -20.961  33.623 -39.617  1.00  0.00    -0.000 C 
BRANCH  17  18
ATOM     18  C   UNL     1     -21.603  33.654 -38.220  1.00  0.00    -0.003 C 
ATOM     19  C   UNL     1     -23.030  34.198 -38.226  1.00  0.00     0.004 C 
ENDBRANCH  17  18
ENDBRANCH  16  17
ENDBRANCH  15  16
ENDBRANCH  14  15
ENDBRANCH  13  14
ENDBRANCH  12  13
ENDBRANCH   1  12
TORSDOF 14
ENDMDL
MODEL 2
REMARK VINA RESULT:    -3.723      3.229      6.285
REMARK INTER + INTRA:          -9.079
REMARK INTER:                  -6.608
REMARK INTRA:                  -2.471
REMARK UNBOUND:                -2.309
REMARK SMILES CCCCCCCCCCCCCC[C@@H](C)C(=O)[O-]
REMARK SMILES IDX 9 1 10 2 11 3 12 4 13 5 14 6 15 7 16 8 17 9 18 10 19 11 8 12
REMARK SMILES IDX 7 13 6 14 5 15 4 16 3 17 2 18 1 19
REMARK H PARENT
REMARK Flexibility Score: inf
ROOT
ATOM      1  C   UNL     1     -23.540  33.399 -37.394  1.00  0.00     0.000 C 
ENDROOT
BRANCH   1   2
ATOM      2  C   UNL     1     -22.528  34.349 -38.064  1.00  0.00     0.000 C 
BRANCH   2   3
ATOM      3  C   UNL     1     -21.692  33.716 -39.192  1.00  0.00     0.000 C 
BRANCH   3   4
ATOM      4  C   UNL     1     -20.191  33.571 -38.882  1.00  0.00     0.000 C 
BRANCH   4   5
ATOM      5  C   UNL     1     -19.470  32.612 -39.842  1.00  0.00     0.001 C 
BRANCH   5   6
ATOM      6  C   UNL     1     -20.411  32.163 -40.973  1.00  0.00     0.009 C 
BRANCH   6   7
ATOM      7  C   UNL     1     -20.002  30.839 -41.653  1.00  0.00     0.032 C 
ATOM      8  C   UNL     1     -21.160  30.187 -42.426  1.00  0.00     0.014 C 
BRANCH   7   9
ATOM      9  C   UNL     1     -18.773  31.015 -42.509  1.00  0.00     0.044 C 
ATOM     10  O   UNL     1     -18.723  31.905 -43.398  1.00  0.00    -0.550 OA
ATOM     11  O   UNL     1     -17.651  30.229 -42.269  1.00  0.00    -0.550 OA
ENDBRANCH   7   9
ENDBRANCH   6   7
ENDBRANCH   5   6
ENDBRANCH   4   5
ENDBRANCH   3   4
ENDBRANCH   2   3
ENDBRANCH   1   2
BRANCH   1  12
ATOM     12  C   UNL     1     -24.998  33.903 -37.460  1.00  0.00     0.000 C 
BRANCH  12  13
ATOM     13  C   UNL     1     -25.929  32.898 -38.160  1.00  0.00    -0.000 C 
BRANCH  13  14
ATOM     14  C   UNL     1     -25.171  31.912 -39.068  1.00  0.00    -0.000 C 
BRANCH  14  15
ATOM     15  C   UNL     1     -25.376  30.427 -38.714  1.00  0.00    -0.000 C 
BRANCH  15  16
ATOM     16  C   UNL     1     -24.091  29.751 -38.200  1.00  0.00    -0.000 C 
BRANCH  16  17
ATOM     17  C   UNL     1     -22.856  30.120 -39.052  1.00  0.00    -0.000 C 
BRANCH  17  18
ATOM     18  C   UNL     1     -21.521  29.684 -38.425  1.00  0.00    -0.003 C 
ATOM     19  C   UNL     1     -21.163  30.473 -37.166  1.00  0.00     0.004 C 
ENDBRANCH  17  18
ENDBRANCH  16  17
ENDBRANCH  15  16
ENDBRANCH  14  15
ENDBRANCH  13  14
ENDBRANCH  12  13
ENDBRANCH   1  12
TORSDOF 14
ENDMDL
MODEL 3
REMARK VINA RESULT:    -3.683      1.463      3.654
REMARK INTER + INTRA:          -9.006
REMARK INTER:                  -6.812
REMARK INTRA:                  -2.194
REMARK UNBOUND:                -2.309
REMARK SMILES CCCCCCCCCCCCCC[C@@H](C)C(=O)[O-]
REMARK SMILES IDX 9 1 10 2 11 3 12 4 13 5 14 6 15 7 16 8 17 9 18 10 19 11 8 12
REMARK SMILES IDX 7 13 6 14 5 15 4 16 3 17 2 18 1 19
REMARK H PARENT
REMARK Flexibility Score: inf
ROOT
ATOM      1  C   UNL     1     -23.548  32.299 -38.364  1.00  0.00     0.000 C 
ENDROOT
BRANCH   1   2
ATOM      2  C   UNL     1     -24.341  31.861 -39.611  1.00  0.00     0.000 C 
BRANCH   2   3
ATOM      3  C   UNL     1     -23.541  31.879 -40.928  1.00  0.00     0.000 C 
BRANCH   3   4
ATOM      4  C   UNL     1     -23.707  30.623 -41.803  1.00  0.00     0.000 C 
BRANCH   4   5
ATOM      5  C   UNL     1     -24.034  29.362 -40.986  1.00  0.00     0.001 C 
BRANCH   5   6
ATOM      6  C   UNL     1     -25.186  28.577 -41.634  1.00  0.00     0.009 C 
BRANCH   6   7
ATOM      7  C   UNL     1     -26.472  28.516 -40.781  1.00  0.00     0.032 C 
ATOM      8  C   UNL     1     -26.217  28.837 -39.300  1.00  0.00     0.014 C 
BRANCH   7   9
ATOM      9  C   UNL     1     -27.566  29.372 -41.370  1.00  0.00     0.044 C 
ATOM     10  O   UNL     1     -28.777  29.148 -41.109  1.00  0.00    -0.550 OA
ATOM     11  O   UNL     1     -27.230  30.468 -42.158  1.00  0.00    -0.550 OA
ENDBRANCH   7   9
ENDBRANCH   6   7
ENDBRANCH   5   6
ENDBRANCH   4   5
ENDBRANCH   3   4
ENDBRANCH   2   3
ENDBRANCH   1   2
BRANCH   1  12
ATOM     12  C   UNL     1     -23.515  33.829 -38.158  1.00  0.00     0.000 C 
BRANCH  12  13
ATOM     13  C   UNL     1     -22.087  34.354 -37.930  1.00  0.00    -0.000 C 
BRANCH  13  14
ATOM     14  C   UNL     1     -21.013  33.266 -38.112  1.00  0.00    -0.000 C 
BRANCH  14  15
ATOM     15  C   UNL     1     -19.990  33.555 -39.228  1.00  0.00    -0.000 C 
BRANCH  15  16
ATOM     16  C   UNL     1     -20.092  32.567 -40.404  1.00  0.00    -0.000 C 
BRANCH  16  17
ATOM     17  C   UNL     1     -20.091  31.096 -39.933  1.00  0.00    -0.000 C 
BRANCH  17  18
ATOM     18  C   UNL     1     -20.155  30.078 -41.086  1.00  0.00    -0.003 C 
ATOM     19  C   UNL     1     -19.993  30.720 -42.462  1.00  0.00     0.004 C 
ENDBRANCH  17  18
ENDBRANCH  16  17
ENDBRANCH  15  16
ENDBRANCH  14  15
ENDBRANCH  13  14
ENDBRANCH  12  13
ENDBRANCH   1  12
TORSDOF 14
ENDMDL
MODEL 4
REMARK VINA RESULT:    -3.643      1.071      2.157
REMARK INTER + INTRA:          -8.933
REMARK INTER:                  -6.659
REMARK INTRA:                  -2.274
REMARK UNBOUND:                -2.309
REMARK SMILES CCCCCCCCCCCCCC[C@@H](C)C(=O)[O-]
REMARK SMILES IDX 9 1 10 2 11 3 12 4 13 5 14 6 15 7 16 8 17 9 18 10 19 11 8 12
REMARK SMILES IDX 7 13 6 14 5 15 4 16 3 17 2 18 1 19
REMARK H PARENT
REMARK Flexibility Score: inf
ROOT
ATOM      1  C   UNL     1     -20.148  29.960 -41.923  1.00  0.00     0.000 C 
ENDROOT
BRANCH   1   2
ATOM      2  C   UNL     1     -21.686  29.857 -41.919  1.00  0.00     0.000 C 
BRANCH   2   3
ATOM      3  C   UNL     1     -22.424  31.158 -42.287  1.00  0.00     0.000 C 
BRANCH   3   4
ATOM      4  C   UNL     1     -23.212  31.803 -41.132  1.00  0.00     0.000 C 
BRANCH   4   5
ATOM      5  C   UNL     1     -23.422  30.852 -39.944  1.00  0.00     0.001 C 
BRANCH   5   6
ATOM      6  C   UNL     1     -24.920  30.671 -39.648  1.00  0.00     0.009 C 
BRANCH   6   7
ATOM      7  C   UNL     1     -25.456  29.250 -39.925  1.00  0.00     0.032 C 
ATOM      8  C   UNL     1     -26.604  28.855 -38.982  1.00  0.00     0.014 C 
BRANCH   7   9
ATOM      9  C   UNL     1     -25.826  29.074 -41.377  1.00  0.00     0.044 C 
ATOM     10  O   UNL     1     -26.685  29.814 -41.923  1.00  0.00    -0.550 OA
ATOM     11  O   UNL     1     -25.158  28.125 -42.145  1.00  0.00    -0.550 OA
ENDBRANCH   7   9
ENDBRANCH   6   7
ENDBRANCH   5   6
ENDBRANCH   4   5
ENDBRANCH   3   4
ENDBRANCH   2   3
ENDBRANCH   1   2
BRANCH   1  12
ATOM     12  C   UNL     1     -19.622  31.337 -42.381  1.00  0.00     0.000 C 
BRANCH  12  13
ATOM     13  C   UNL     1     -18.861  32.069 -41.262  1.00  0.00    -0.000 C 
BRANCH  13  14
ATOM     14  C   UNL     1     -19.770  32.976 -40.412  1.00  0.00    -0.000 C 
BRANCH  14  15
ATOM     15  C   UNL     1     -20.149  32.396 -39.036  1.00  0.00    -0.000 C 
BRANCH  15  16
ATOM     16  C   UNL     1     -20.654  33.469 -38.053  1.00  0.00    -0.000 C 
BRANCH  16  17
ATOM     17  C   UNL     1     -22.089  33.180 -37.560  1.00  0.00    -0.000 C 
BRANCH  17  18
ATOM     18  C   UNL     1     -23.144  34.142 -38.134  1.00  0.00    -0.003 C 
ATOM     19  C   UNL     1     -24.555  33.862 -37.620  1.00  0.00     0.004 C 
ENDBRANCH  17  18
ENDBRANCH  16  17
ENDBRANCH  15  16
ENDBRANCH  14  15
ENDBRANCH  13  14
ENDBRANCH  12  13
ENDBRANCH   1  12
TORSDOF 14
ENDMDL
MODEL 5
REMARK VINA RESULT:    -3.635      1.470      2.865
REMARK INTER + INTRA:          -8.919
REMARK INTER:                  -6.962
REMARK INTRA:                  -1.957
REMARK UNBOUND:                -2.309
REMARK SMILES CCCCCCCCCCCCCC[C@@H](C)C(=O)[O-]
REMARK SMILES IDX 9 1 10 2 11 3 12 4 13 5 14 6 15 7 16 8 17 9 18 10 19 11 8 12
REMARK SMILES IDX 7 13 6 14 5 15 4 16 3 17 2 18 1 19
REMARK H PARENT
REMARK Flexibility Score: inf
ROOT
ATOM      1  C   UNL     1     -19.451  31.597 -42.499  1.00  0.00     0.000 C 
ENDROOT
BRANCH   1   2
ATOM      2  C   UNL     1     -20.212  30.260 -42.405  1.00  0.00     0.000 C 
BRANCH   2   3
ATOM      3  C   UNL     1     -21.735  30.363 -42.617  1.00  0.00     0.000 C 
BRANCH   3   4
ATOM      4  C   UNL     1     -22.561  30.477 -41.323  1.00  0.00     0.000 C 
BRANCH   4   5
ATOM      5  C   UNL     1     -23.744  31.450 -41.451  1.00  0.00     0.001 C 
BRANCH   5   6
ATOM      6  C   UNL     1     -25.018  30.842 -40.840  1.00  0.00     0.009 C 
BRANCH   6   7
ATOM      7  C   UNL     1     -25.804  29.919 -41.797  1.00  0.00     0.032 C 
ATOM      8  C   UNL     1     -25.633  28.430 -41.456  1.00  0.00     0.014 C 
BRANCH   7   9
ATOM      9  C   UNL     1     -27.255  30.321 -41.883  1.00  0.00     0.044 C 
ATOM     10  O   UNL     1     -27.602  31.527 -41.785  1.00  0.00    -0.550 OA
ATOM     11  O   UNL     1     -28.220  29.354 -42.144  1.00  0.00    -0.550 OA
ENDBRANCH   7   9
ENDBRANCH   6   7
ENDBRANCH   5   6
ENDBRANCH   4   5
ENDBRANCH   3   4
ENDBRANCH   2   3
ENDBRANCH   1   2
BRANCH   1  12
ATOM     12  C   UNL     1     -18.576  31.898 -41.263  1.00  0.00     0.000 C 
BRANCH  12  13
ATOM     13  C   UNL     1     -19.405  31.974 -39.969  1.00  0.00    -0.000 C 
BRANCH  13  14
ATOM     14  C   UNL     1     -19.816  33.412 -39.604  1.00  0.00    -0.000 C 
BRANCH  14  15
ATOM     15  C   UNL     1     -21.336  33.642 -39.511  1.00  0.00    -0.000 C 
BRANCH  15  16
ATOM     16  C   UNL     1     -21.767  34.263 -38.169  1.00  0.00    -0.000 C 
BRANCH  16  17
ATOM     17  C   UNL     1     -22.258  33.198 -37.163  1.00  0.00    -0.000 C 
BRANCH  17  18
ATOM     18  C   UNL     1     -23.253  32.192 -37.766  1.00  0.00    -0.003 C 
ATOM     19  C   UNL     1     -22.804  30.740 -37.616  1.00  0.00     0.004 C 
ENDBRANCH  17  18
ENDBRANCH  16  17
ENDBRANCH  15  16
ENDBRANCH  14  15
ENDBRANCH  13  14
ENDBRANCH  12  13
ENDBRANCH   1  12
TORSDOF 14
ENDMDL
MODEL 6
REMARK VINA RESULT:    -3.631      1.633      2.982
REMARK INTER + INTRA:          -8.911
REMARK INTER:                  -6.262
REMARK INTRA:                  -2.649
REMARK UNBOUND:                -2.309
REMARK SMILES CCCCCCCCCCCCCC[C@@H](C)C(=O)[O-]
REMARK SMILES IDX 9 1 10 2 11 3 12 4 13 5 14 6 15 7 16 8 17 9 18 10 19 11 8 12
REMARK SMILES IDX 7 13 6 14 5 15 4 16 3 17 2 18 1 19
REMARK H PARENT
REMARK Flexibility Score: inf
ROOT
ATOM      1  C   UNL     1     -20.339  30.357 -41.719  1.00  0.00     0.000 C 
ENDROOT
BRANCH   1   2
ATOM      2  C   UNL     1     -21.508  31.342 -41.523  1.00  0.00     0.000 C 
BRANCH   2   3
ATOM      3  C   UNL     1     -22.886  30.811 -41.964  1.00  0.00     0.000 C 
BRANCH   3   4
ATOM      4  C   UNL     1     -22.883  29.362 -42.487  1.00  0.00     0.000 C 
BRANCH   4   5
ATOM      5  C   UNL     1     -23.979  28.493 -41.850  1.00  0.00     0.001 C 
BRANCH   5   6
ATOM      6  C   UNL     1     -25.153  29.362 -41.369  1.00  0.00     0.009 C 
BRANCH   6   7
ATOM      7  C   UNL     1     -26.292  28.572 -40.689  1.00  0.00     0.032 C 
ATOM      8  C   UNL     1     -26.740  29.203 -39.361  1.00  0.00     0.014 C 
BRANCH   7   9
ATOM      9  C   UNL     1     -27.448  28.350 -41.632  1.00  0.00     0.044 C 
ATOM     10  O   UNL     1     -27.394  27.469 -42.530  1.00  0.00    -0.550 OA
ATOM     11  O   UNL     1     -28.620  29.080 -41.465  1.00  0.00    -0.550 OA
ENDBRANCH   7   9
ENDBRANCH   6   7
ENDBRANCH   5   6
ENDBRANCH   4   5
ENDBRANCH   3   4
ENDBRANCH   2   3
ENDBRANCH   1   2
BRANCH   1  12
ATOM     12  C   UNL     1     -19.709  29.873 -40.395  1.00  0.00     0.000 C 
BRANCH  12  13
ATOM     13  C   UNL     1     -20.539  28.762 -39.729  1.00  0.00    -0.000 C 
BRANCH  13  14
ATOM     14  C   UNL     1     -21.205  29.216 -38.417  1.00  0.00    -0.000 C 
BRANCH  14  15
ATOM     15  C   UNL     1     -22.745  29.183 -38.434  1.00  0.00    -0.000 C 
BRANCH  15  16
ATOM     16  C   UNL     1     -23.376  30.584 -38.330  1.00  0.00    -0.000 C 
BRANCH  16  17
ATOM     17  C   UNL     1     -22.338  31.666 -37.957  1.00  0.00    -0.000 C 
BRANCH  17  18
ATOM     18  C   UNL     1     -22.780  33.095 -38.314  1.00  0.00    -0.003 C 
ATOM     19  C   UNL     1     -21.607  34.043 -38.556  1.00  0.00     0.004 C 
ENDBRANCH  17  18
ENDBRANCH  16  17
ENDBRANCH  15  16
ENDBRANCH  14  15
ENDBRANCH  13  14
ENDBRANCH  12  13
ENDBRANCH   1  12
TORSDOF 14
ENDMDL
MODEL 7
REMARK VINA RESULT:    -3.616      1.851      4.101
REMARK INTER + INTRA:          -8.884
REMARK INTER:                  -6.145
REMARK INTRA:                  -2.738
REMARK UNBOUND:                -2.309
REMARK SMILES CCCCCCCCCCCCCC[C@@H](C)C(=O)[O-]
REMARK SMILES IDX 9 1 10 2 11 3 12 4 13 5 14 6 15 7 16 8 17 9 18 10 19 11 8 12
REMARK SMILES IDX 7 13 6 14 5 15 4 16 3 17 2 18 1 19
REMARK H PARENT
REMARK Flexibility Score: inf
ROOT
ATOM      1  C   UNL     1     -18.332  32.418 -40.520  1.00  0.00     0.000 C 
ENDROOT
BRANCH   1   2
ATOM      2  C   UNL     1     -19.095  31.867 -41.740  1.00  0.00     0.000 C 
BRANCH   2   3
ATOM      3  C   UNL     1     -19.282  30.337 -41.752  1.00  0.00     0.000 C 
BRANCH   3   4
ATOM      4  C   UNL     1     -19.373  29.686 -40.360  1.00  0.00     0.000 C 
BRANCH   4   5
ATOM      5  C   UNL     1     -20.817  29.558 -39.850  1.00  0.00     0.001 C 
BRANCH   5   6
ATOM      6  C   UNL     1     -21.797  29.405 -41.026  1.00  0.00     0.009 C 
BRANCH   6   7
ATOM      7  C   UNL     1     -23.116  30.190 -40.859  1.00  0.00     0.032 C 
ATOM      8  C   UNL     1     -23.198  31.414 -41.786  1.00  0.00     0.014 C 
BRANCH   7   9
ATOM      9  C   UNL     1     -24.317  29.288 -40.999  1.00  0.00     0.044 C 
ATOM     10  O   UNL     1     -25.239  29.295 -40.141  1.00  0.00    -0.550 OA
ATOM     11  O   UNL     1     -24.444  28.486 -42.129  1.00  0.00    -0.550 OA
ENDBRANCH   7   9
ENDBRANCH   6   7
ENDBRANCH   5   6
ENDBRANCH   4   5
ENDBRANCH   3   4
ENDBRANCH   2   3
ENDBRANCH   1   2
BRANCH   1  12
ATOM     12  C   UNL     1     -19.160  33.405 -39.667  1.00  0.00     0.000 C 
BRANCH  12  13
ATOM     13  C   UNL     1     -20.658  33.356 -40.014  1.00  0.00    -0.000 C 
BRANCH  13  14
ATOM     14  C   UNL     1     -21.555  33.849 -38.864  1.00  0.00    -0.000 C 
BRANCH  14  15
ATOM     15  C   UNL     1     -22.307  32.733 -38.114  1.00  0.00    -0.000 C 
BRANCH  15  16
ATOM     16  C   UNL     1     -21.789  32.522 -36.678  1.00  0.00    -0.000 C 
BRANCH  16  17
ATOM     17  C   UNL     1     -20.874  31.283 -36.563  1.00  0.00    -0.000 C 
BRANCH  17  18
ATOM     18  C   UNL     1     -19.376  31.608 -36.694  1.00  0.00    -0.003 C 
ATOM     19  C   UNL     1     -18.496  30.362 -36.763  1.00  0.00     0.004 C 
ENDBRANCH  17  18
ENDBRANCH  16  17
ENDBRANCH  15  16
ENDBRANCH  14  15
ENDBRANCH  13  14
ENDBRANCH  12  13
ENDBRANCH   1  12
TORSDOF 14
ENDMDL
MODEL 8
REMARK VINA RESULT:    -3.611      1.923      4.913
REMARK INTER + INTRA:          -8.875
REMARK INTER:                  -6.389
REMARK INTRA:                  -2.485
REMARK UNBOUND:                -2.309
REMARK SMILES CCCCCCCCCCCCCC[C@@H](C)C(=O)[O-]
REMARK SMILES IDX 9 1 10 2 11 3 12 4 13 5 14 6 15 7 16 8 17 9 18 10 19 11 8 12
REMARK SMILES IDX 7 13 6 14 5 15 4 16 3 17 2 18 1 19
REMARK H PARENT
REMARK Flexibility Score: inf
ROOT
ATOM      1  C   UNL     1     -19.435  31.719 -39.717  1.00  0.00     0.000 C 
ENDROOT
BRANCH   1   2
ATOM      2  C   UNL     1     -19.768  33.092 -39.103  1.00  0.00     0.000 C 
BRANCH   2   3
ATOM      3  C   UNL     1     -21.084  33.723 -39.597  1.00  0.00     0.000 C 
BRANCH   3   4
ATOM      4  C   UNL     1     -22.074  34.110 -38.484  1.00  0.00     0.000 C 
BRANCH   4   5
ATOM      5  C   UNL     1     -22.406  32.940 -37.543  1.00  0.00     0.001 C 
BRANCH   5   6
ATOM      6  C   UNL     1     -23.343  31.935 -38.233  1.00  0.00     0.009 C 
BRANCH   6   7
ATOM      7  C   UNL     1     -22.881  30.465 -38.138  1.00  0.00     0.032 C 
ATOM      8  C   UNL     1     -21.734  30.269 -37.132  1.00  0.00     0.014 C 
BRANCH   7   9
ATOM      9  C   UNL     1     -24.040  29.539 -37.868  1.00  0.00     0.044 C 
ATOM     10  O   UNL     1     -23.864  28.423 -37.309  1.00  0.00    -0.550 OA
ATOM     11  O   UNL     1     -25.333  29.949 -38.176  1.00  0.00    -0.550 OA
ENDBRANCH   7   9
ENDBRANCH   6   7
ENDBRANCH   5   6
ENDBRANCH   4   5
ENDBRANCH   3   4
ENDBRANCH   2   3
ENDBRANCH   1   2
BRANCH   1  12
ATOM     12  C   UNL     1     -20.020  31.516 -41.132  1.00  0.00     0.000 C 
BRANCH  12  13
ATOM     13  C   UNL     1     -20.742  30.165 -41.273  1.00  0.00    -0.000 C 
BRANCH  13  14
ATOM     14  C   UNL     1     -21.906  30.210 -42.279  1.00  0.00    -0.000 C 
BRANCH  14  15
ATOM     15  C   UNL     1     -23.037  31.188 -41.910  1.00  0.00    -0.000 C 
BRANCH  15  16
ATOM     16  C   UNL     1     -24.355  30.475 -41.555  1.00  0.00    -0.000 C 
BRANCH  16  17
ATOM     17  C   UNL     1     -24.315  28.969 -41.899  1.00  0.00    -0.000 C 
BRANCH  17  18
ATOM     18  C   UNL     1     -25.692  28.287 -41.844  1.00  0.00    -0.003 C 
ATOM     19  C   UNL     1     -26.816  29.236 -41.433  1.00  0.00     0.004 C 
ENDBRANCH  17  18
ENDBRANCH  16  17
ENDBRANCH  15  16
ENDBRANCH  14  15
ENDBRANCH  13  14
ENDBRANCH  12  13
ENDBRANCH   1  12
TORSDOF 14
ENDMDL
MODEL 9
REMARK VINA RESULT:    -3.576      1.405      2.831
REMARK INTER + INTRA:          -8.811
REMARK INTER:                  -6.024
REMARK INTRA:                  -2.787
REMARK UNBOUND:                -2.309
REMARK SMILES CCCCCCCCCCCCCC[C@@H](C)C(=O)[O-]
REMARK SMILES IDX 9 1 10 2 11 3 12 4 13 5 14 6 15 7 16 8 17 9 18 10 19 11 8 12
REMARK SMILES IDX 7 13 6 14 5 15 4 16 3 17 2 18 1 19
REMARK H PARENT
REMARK Flexibility Score: inf
ROOT
ATOM      1  C   UNL     1     -21.675  30.308 -41.022  1.00  0.00     0.000 C 
ENDROOT
BRANCH   1   2
ATOM      2  C   UNL     1     -22.804  31.032 -41.782  1.00  0.00     0.000 C 
BRANCH   2   3
ATOM      3  C   UNL     1     -24.210  30.438 -41.575  1.00  0.00     0.000 C 
BRANCH   3   4
ATOM      4  C   UNL     1     -25.257  31.428 -41.032  1.00  0.00     0.000 C 
BRANCH   4   5
ATOM      5  C   UNL     1     -26.122  30.830 -39.910  1.00  0.00     0.001 C 
BRANCH   5   6
ATOM      6  C   UNL     1     -25.927  29.307 -39.824  1.00  0.00     0.009 C 
BRANCH   6   7
ATOM      7  C   UNL     1     -27.196  28.485 -40.137  1.00  0.00     0.032 C 
ATOM      8  C   UNL     1     -28.407  28.922 -39.296  1.00  0.00     0.014 C 
BRANCH   7   9
ATOM      9  C   UNL     1     -27.500  28.481 -41.614  1.00  0.00     0.044 C 
ATOM     10  O   UNL     1     -26.900  27.701 -42.400  1.00  0.00    -0.550 OA
ATOM     11  O   UNL     1     -28.508  29.303 -42.110  1.00  0.00    -0.550 OA
ENDBRANCH   7   9
ENDBRANCH   6   7
ENDBRANCH   5   6
ENDBRANCH   4   5
ENDBRANCH   3   4
ENDBRANCH   2   3
ENDBRANCH   1   2
BRANCH   1  12
ATOM     12  C   UNL     1     -22.185  29.289 -39.980  1.00  0.00     0.000 C 
BRANCH  12  13
ATOM     13  C   UNL     1     -21.855  29.716 -38.540  1.00  0.00    -0.000 C 
BRANCH  13  14
ATOM     14  C   UNL     1     -23.023  30.442 -37.848  1.00  0.00    -0.000 C 
BRANCH  14  15
ATOM     15  C   UNL     1     -22.718  31.892 -37.425  1.00  0.00    -0.000 C 
BRANCH  15  16
ATOM     16  C   UNL     1     -23.184  32.929 -38.463  1.00  0.00    -0.000 C 
BRANCH  16  17
ATOM     17  C   UNL     1     -22.021  33.809 -38.974  1.00  0.00    -0.000 C 
BRANCH  17  18
ATOM     18  C   UNL     1     -20.635  33.327 -38.513  1.00  0.00    -0.003 C 
ATOM     19  C   UNL     1     -19.645  33.157 -39.664  1.00  0.00     0.004 C 
ENDBRANCH  17  18
ENDBRANCH  16  17
ENDBRANCH  15  16
ENDBRANCH  14  15
ENDBRANCH  13  14
ENDBRANCH  12  13
ENDBRANCH   1  12
TORSDOF 14
ENDMDL
