MODEL 1
REMARK VINA RESULT:     4.638      0.000      0.000
REMARK INTER + INTRA:          10.251
REMARK INTER:                   7.621
REMARK INTRA:                   2.630
REMARK UNBOUND:                 2.630
REMARK SMILES C[C@H]1O[C@@H](OC[C@H]2O[C@H](Oc3c(-c4ccc(O)c(O)c4)oc4cc(O)cc(O)c4c3=O)[C@@H](O)[C@H](O)[C@@H]2O)[C@H](O)[C@@H](O)[C@H]1O
REMARK SMILES IDX 7 1 36 2 34 3 32 4 9 5 8 6 6 7 5 8 4 9 1 10 2 11 42 12 3 13
REMARK SMILES IDX 40 14 38 15 43 16 41 18 39 20 37 22 35 24 10 26 11 27 12 28
REMARK SMILES IDX 30 29 21 30 29 31 31 32 22 33 27 34 23 35 26 36 24 37 13 38
REMARK SMILES IDX 20 39 14 40 18 41 15 42 16 43 19 44 17 46 28 48 25 50 33 52
REMARK H PARENT 43 17 41 19 39 21 37 23 35 25 19 45 17 47 28 49 25 51 33 53
REMARK Flexibility Score: inf
ROOT
ATOM      1  C   UNL     1     -12.255   6.655   6.719  1.00  0.00     0.180 C 
ATOM      2  C   UNL     1     -13.276   5.510   6.614  1.00  0.00     0.177 C 
ATOM      3  C   UNL     1     -12.506   4.182   6.551  1.00  0.00     0.180 C 
ATOM      4  C   UNL     1     -11.553   4.048   7.758  1.00  0.00     0.214 C 
ATOM      5  C   UNL     1     -10.809   5.366   8.131  1.00  0.00     0.339 C 
ATOM      6  O   UNL     1     -11.534   6.577   7.938  1.00  0.00    -0.332 OA
ENDROOT
BRANCH   1   7
ATOM      7  C   UNL     1     -12.917   8.033   6.662  1.00  0.00     0.198 C 
BRANCH   7   8
ATOM      8  O   UNL     1     -12.155   8.899   5.856  1.00  0.00    -0.347 OA
BRANCH   8   9
ATOM      9  C   UNL     1     -12.242  10.231   6.324  1.00  0.00     0.281 C 
ATOM     10  C   UNL     1     -13.316  10.067   3.364  1.00  0.00     0.041 C 
ATOM     11  C   UNL     1     -13.041  11.256   4.302  1.00  0.00     0.150 C 
ATOM     12  C   UNL     1     -11.669  11.956   4.074  1.00  0.00     0.174 C 
ATOM     13  O   UNL     1     -13.288  10.947   5.671  1.00  0.00    -0.344 OA
ATOM     14  C   UNL     1     -10.526  11.186   4.729  1.00  0.00     0.179 C 
ATOM     15  C   UNL     1     -10.870  10.917   6.205  1.00  0.00     0.202 C 
BRANCH  12  16
ATOM     16  O   UNL     1     -11.396  12.125   2.706  1.00  0.00    -0.388 OA
ATOM     17  H   UNL     1     -10.445  11.871   2.568  1.00  0.00     0.211 HD
ENDBRANCH  12  16
BRANCH  14  18
ATOM     18  O   UNL     1     -10.294   9.985   4.041  1.00  0.00    -0.387 OA
ATOM     19  H   UNL     1      -9.733  10.201   3.248  1.00  0.00     0.211 HD
ENDBRANCH  14  18
BRANCH  15  20
ATOM     20  O   UNL     1     -10.897  12.125   6.927  1.00  0.00    -0.385 OA
ATOM     21  H   UNL     1     -11.230  12.822   6.309  1.00  0.00     0.211 HD
ENDBRANCH  15  20
ENDBRANCH   8   9
ENDBRANCH   7   8
ENDBRANCH   1   7
BRANCH   2  22
ATOM     22  O   UNL     1     -14.076   5.671   5.470  1.00  0.00    -0.387 OA
ATOM     23  H   UNL     1     -14.230   4.760   5.107  1.00  0.00     0.211 HD
ENDBRANCH   2  22
BRANCH   3  24
ATOM     24  O   UNL     1     -11.767   4.099   5.359  1.00  0.00    -0.387 OA
ATOM     25  H   UNL     1     -12.420   3.965   4.614  1.00  0.00     0.211 HD
ENDBRANCH   3  24
BRANCH   5  26
ATOM     26  O   UNL     1      -9.479   5.428   7.595  1.00  0.00    -0.454 OA
BRANCH  26  27
ATOM     27  C   UNL     1      -9.008   6.426   6.745  1.00  0.00     0.214 A 
ATOM     28  C   UNL     1      -8.780   6.215   5.360  1.00  0.00     0.180 A 
ATOM     29  C   UNL     1      -8.748   7.689   7.293  1.00  0.00     0.239 A 
ATOM     30  O   UNL     1      -8.232   7.200   4.653  1.00  0.00    -0.452 OA
ATOM     31  C   UNL     1      -8.093   8.676   6.523  1.00  0.00     0.111 A 
ATOM     32  O   UNL     1      -9.110   7.910   8.476  1.00  0.00    -0.285 OA
ATOM     33  C   UNL     1      -7.872   8.371   5.154  1.00  0.00     0.146 A 
ATOM     34  C   UNL     1      -7.632   9.930   7.034  1.00  0.00     0.134 A 
ATOM     35  C   UNL     1      -7.267   9.305   4.313  1.00  0.00     0.094 A 
ATOM     36  C   UNL     1      -7.021  10.838   6.164  1.00  0.00     0.093 A 
ATOM     37  C   UNL     1      -6.827  10.528   4.814  1.00  0.00     0.123 A 
BRANCH  28  38
ATOM     38  C   UNL     1      -9.078   4.949   4.616  1.00  0.00     0.025 A 
ATOM     39  C   UNL     1      -9.751   3.844   5.187  1.00  0.00     0.062 A 
ATOM     40  C   UNL     1      -8.720   4.868   3.252  1.00  0.00     0.016 A 
ATOM     41  C   UNL     1      -9.957   2.671   4.449  1.00  0.00     0.158 A 
ATOM     42  C   UNL     1      -8.978   3.721   2.499  1.00  0.00     0.051 A 
ATOM     43  C   UNL     1      -9.585   2.610   3.099  1.00  0.00     0.157 A 
BRANCH  41  44
ATOM     44  O   UNL     1     -10.535   1.569   5.077  1.00  0.00    -0.504 OA
ATOM     45  H   UNL     1     -11.285   1.655   5.750  1.00  0.00     0.293 HD
ENDBRANCH  41  44
BRANCH  43  46
ATOM     46  O   UNL     1      -9.831   1.461   2.355  1.00  0.00    -0.504 OA
ATOM     47  H   UNL     1     -10.020   0.570   2.803  1.00  0.00     0.293 HD
ENDBRANCH  43  46
ENDBRANCH  28  38
BRANCH  34  48
ATOM     48  O   UNL     1      -7.705  10.305   8.382  1.00  0.00    -0.507 OA
ATOM     49  H   UNL     1      -8.431  10.028   9.023  1.00  0.00     0.293 HD
ENDBRANCH  34  48
BRANCH  37  50
ATOM     50  O   UNL     1      -6.183  11.425   3.970  1.00  0.00    -0.508 OA
ATOM     51  H   UNL     1      -6.678  12.200   3.542  1.00  0.00     0.293 HD
ENDBRANCH  37  50
ENDBRANCH  26  27
ENDBRANCH   5  26
BRANCH   4  52
ATOM     52  O   UNL     1     -12.286   3.612   8.881  1.00  0.00    -0.384 OA
ATOM     53  H   UNL     1     -12.655   4.428   9.309  1.00  0.00     0.211 HD
ENDBRANCH   4  52
TORSDOF 16
ENDMDL
MODEL 2
REMARK VINA RESULT:     4.781      1.641      6.708
REMARK INTER + INTRA:          10.485
REMARK INTER:                   6.997
REMARK INTRA:                   3.488
REMARK UNBOUND:                 2.630
REMARK SMILES C[C@H]1O[C@@H](OC[C@H]2O[C@H](Oc3c(-c4ccc(O)c(O)c4)oc4cc(O)cc(O)c4c3=O)[C@@H](O)[C@H](O)[C@@H]2O)[C@H](O)[C@@H](O)[C@H]1O
REMARK SMILES IDX 7 1 36 2 34 3 32 4 9 5 8 6 6 7 5 8 4 9 1 10 2 11 42 12 3 13
REMARK SMILES IDX 40 14 38 15 43 16 41 18 39 20 37 22 35 24 10 26 11 27 12 28
REMARK SMILES IDX 30 29 21 30 29 31 31 32 22 33 27 34 23 35 26 36 24 37 13 38
REMARK SMILES IDX 20 39 14 40 18 41 15 42 16 43 19 44 17 46 28 48 25 50 33 52
REMARK H PARENT 43 17 41 19 39 21 37 23 35 25 19 45 17 47 28 49 25 51 33 53
REMARK Flexibility Score: inf
ROOT
ATOM      1  C   UNL     1      -9.540   6.718   7.276  1.00  0.00     0.180 C 
ATOM      2  C   UNL     1      -8.333   6.352   6.396  1.00  0.00     0.177 C 
ATOM      3  C   UNL     1      -7.883   7.614   5.646  1.00  0.00     0.180 C 
ATOM      4  C   UNL     1      -7.597   8.763   6.638  1.00  0.00     0.214 C 
ATOM      5  C   UNL     1      -8.628   8.870   7.802  1.00  0.00     0.339 C 
ATOM      6  O   UNL     1      -9.168   7.643   8.283  1.00  0.00    -0.332 OA
ENDROOT
BRANCH   1   7
ATOM      7  C   UNL     1     -10.145   5.497   7.972  1.00  0.00     0.198 C 
BRANCH   7   8
ATOM      8  O   UNL     1     -10.247   4.427   7.063  1.00  0.00    -0.347 OA
BRANCH   8   9
ATOM      9  C   UNL     1     -11.551   3.877   7.076  1.00  0.00     0.281 C 
ATOM     10  C   UNL     1     -10.564   4.213   4.100  1.00  0.00     0.041 C 
ATOM     11  C   UNL     1     -11.924   3.813   4.703  1.00  0.00     0.150 C 
ATOM     12  C   UNL     1     -12.955   4.975   4.800  1.00  0.00     0.174 C 
ATOM     13  O   UNL     1     -11.794   3.081   5.918  1.00  0.00    -0.344 OA
ATOM     14  C   UNL     1     -12.692   5.867   6.009  1.00  0.00     0.179 C 
ATOM     15  C   UNL     1     -12.588   4.995   7.273  1.00  0.00     0.202 C 
BRANCH  12  16
ATOM     16  O   UNL     1     -12.962   5.759   3.633  1.00  0.00    -0.388 OA
ATOM     17  H   UNL     1     -13.913   5.938   3.411  1.00  0.00     0.211 HD
ENDBRANCH  12  16
BRANCH  14  18
ATOM     18  O   UNL     1     -11.517   6.610   5.815  1.00  0.00    -0.387 OA
ATOM     19  H   UNL     1     -11.496   6.887   4.859  1.00  0.00     0.211 HD
ENDBRANCH  14  18
BRANCH  15  20
ATOM     20  O   UNL     1     -13.837   4.416   7.570  1.00  0.00    -0.385 OA
ATOM     21  H   UNL     1     -14.069   3.830   6.808  1.00  0.00     0.211 HD
ENDBRANCH  15  20
ENDBRANCH   8   9
ENDBRANCH   7   8
ENDBRANCH   1   7
BRANCH   2  22
ATOM     22  O   UNL     1      -8.679   5.335   5.489  1.00  0.00    -0.387 OA
ATOM     23  H   UNL     1      -9.193   4.663   6.007  1.00  0.00     0.211 HD
ENDBRANCH   2  22
BRANCH   3  24
ATOM     24  O   UNL     1      -8.869   8.020   4.731  1.00  0.00    -0.387 OA
ATOM     25  H   UNL     1      -9.741   7.652   5.053  1.00  0.00     0.211 HD
ENDBRANCH   3  24
BRANCH   5  26
ATOM     26  O   UNL     1      -9.639   9.861   7.563  1.00  0.00    -0.454 OA
BRANCH  26  27
ATOM     27  C   UNL     1     -10.106  10.236   6.306  1.00  0.00     0.214 A 
ATOM     28  C   UNL     1      -9.293  10.894   5.345  1.00  0.00     0.180 A 
ATOM     29  C   UNL     1     -11.440   9.949   5.987  1.00  0.00     0.239 A 
ATOM     30  O   UNL     1      -9.859  11.303   4.213  1.00  0.00    -0.452 OA
ATOM     31  C   UNL     1     -12.016  10.474   4.809  1.00  0.00     0.111 A 
ATOM     32  O   UNL     1     -12.097   9.223   6.774  1.00  0.00    -0.285 OA
ATOM     33  C   UNL     1     -11.140  11.148   3.918  1.00  0.00     0.146 A 
ATOM     34  C   UNL     1     -13.404  10.383   4.474  1.00  0.00     0.134 A 
ATOM     35  C   UNL     1     -11.618  11.661   2.711  1.00  0.00     0.094 A 
ATOM     36  C   UNL     1     -13.851  10.918   3.262  1.00  0.00     0.093 A 
ATOM     37  C   UNL     1     -12.970  11.564   2.388  1.00  0.00     0.123 A 
BRANCH  28  38
ATOM     38  C   UNL     1      -7.835  11.201   5.510  1.00  0.00     0.025 A 
ATOM     39  C   UNL     1      -6.883  11.064   4.474  1.00  0.00     0.062 A 
ATOM     40  C   UNL     1      -7.390  11.711   6.750  1.00  0.00     0.016 A 
ATOM     41  C   UNL     1      -5.527  11.325   4.710  1.00  0.00     0.158 A 
ATOM     42  C   UNL     1      -6.048  12.026   6.967  1.00  0.00     0.051 A 
ATOM     43  C   UNL     1      -5.106  11.821   5.951  1.00  0.00     0.157 A 
BRANCH  41  44
ATOM     44  O   UNL     1      -4.604  11.083   3.693  1.00  0.00    -0.504 OA
ATOM     45  H   UNL     1      -4.002  11.804   3.318  1.00  0.00     0.293 HD
ENDBRANCH  41  44
BRANCH  43  46
ATOM     46  O   UNL     1      -3.766  12.123   6.169  1.00  0.00    -0.504 OA
ATOM     47  H   UNL     1      -3.367  12.119   7.103  1.00  0.00     0.293 HD
ENDBRANCH  43  46
ENDBRANCH  28  38
BRANCH  34  48
ATOM     48  O   UNL     1     -14.380   9.830   5.313  1.00  0.00    -0.507 OA
ATOM     49  H   UNL     1     -14.209   9.141   6.028  1.00  0.00     0.293 HD
ENDBRANCH  34  48
BRANCH  37  50
ATOM     50  O   UNL     1     -13.435  12.125   1.205  1.00  0.00    -0.508 OA
ATOM     51  H   UNL     1     -14.101  11.639   0.614  1.00  0.00     0.293 HD
ENDBRANCH  37  50
ENDBRANCH  26  27
ENDBRANCH   5  26
BRANCH   4  52
ATOM     52  O   UNL     1      -6.312   8.588   7.191  1.00  0.00    -0.384 OA
ATOM     53  H   UNL     1      -6.346   7.749   7.719  1.00  0.00     0.211 HD
ENDBRANCH   4  52
TORSDOF 16
ENDMDL
MODEL 3
REMARK VINA RESULT:     5.071      2.083      5.203
REMARK INTER + INTRA:          10.961
REMARK INTER:                   9.009
REMARK INTRA:                   1.952
REMARK UNBOUND:                 2.630
REMARK SMILES C[C@H]1O[C@@H](OC[C@H]2O[C@H](Oc3c(-c4ccc(O)c(O)c4)oc4cc(O)cc(O)c4c3=O)[C@@H](O)[C@H](O)[C@@H]2O)[C@H](O)[C@@H](O)[C@H]1O
REMARK SMILES IDX 7 1 36 2 34 3 32 4 9 5 8 6 6 7 5 8 4 9 1 10 2 11 42 12 3 13
REMARK SMILES IDX 40 14 38 15 43 16 41 18 39 20 37 22 35 24 10 26 11 27 12 28
REMARK SMILES IDX 30 29 21 30 29 31 31 32 22 33 27 34 23 35 26 36 24 37 13 38
REMARK SMILES IDX 20 39 14 40 18 41 15 42 16 43 19 44 17 46 28 48 25 50 33 52
REMARK H PARENT 43 17 41 19 39 21 37 23 35 25 19 45 17 47 28 49 25 51 33 53
REMARK Flexibility Score: inf
ROOT
ATOM      1  C   UNL     1     -11.494   6.262   6.458  1.00  0.00     0.180 C 
ATOM      2  C   UNL     1     -10.323   5.272   6.340  1.00  0.00     0.177 C 
ATOM      3  C   UNL     1      -9.037   6.073   6.085  1.00  0.00     0.180 C 
ATOM      4  C   UNL     1      -8.834   7.138   7.185  1.00  0.00     0.214 C 
ATOM      5  C   UNL     1     -10.142   7.872   7.609  1.00  0.00     0.339 C 
ATOM      6  O   UNL     1     -11.336   7.096   7.594  1.00  0.00    -0.332 OA
ENDROOT
BRANCH   1   7
ATOM      7  C   UNL     1     -12.844   5.556   6.589  1.00  0.00     0.198 C 
BRANCH   7   8
ATOM      8  O   UNL     1     -13.427   5.395   5.317  1.00  0.00    -0.347 OA
BRANCH   8   9
ATOM      9  C   UNL     1     -14.498   6.302   5.135  1.00  0.00     0.281 C 
ATOM     10  C   UNL     1     -13.292   5.494   2.335  1.00  0.00     0.041 C 
ATOM     11  C   UNL     1     -14.347   6.536   2.747  1.00  0.00     0.150 C 
ATOM     12  C   UNL     1     -13.803   7.988   2.890  1.00  0.00     0.174 C 
ATOM     13  O   UNL     1     -15.125   6.121   3.867  1.00  0.00    -0.344 OA
ATOM     14  C   UNL     1     -13.090   8.196   4.223  1.00  0.00     0.179 C 
ATOM     15  C   UNL     1     -14.009   7.741   5.371  1.00  0.00     0.202 C 
BRANCH  12  16
ATOM     16  O   UNL     1     -12.933   8.319   1.838  1.00  0.00    -0.388 OA
ATOM     17  H   UNL     1     -12.569   9.222   2.037  1.00  0.00     0.211 HD
ENDBRANCH  12  16
BRANCH  14  18
ATOM     18  O   UNL     1     -11.878   7.487   4.239  1.00  0.00    -0.387 OA
ATOM     19  H   UNL     1     -11.481   7.557   3.330  1.00  0.00     0.211 HD
ENDBRANCH  14  18
BRANCH  15  20
ATOM     20  O   UNL     1     -15.124   8.594   5.469  1.00  0.00    -0.385 OA
ATOM     21  H   UNL     1     -15.869   8.051   5.830  1.00  0.00     0.211 HD
ENDBRANCH  15  20
ENDBRANCH   8   9
ENDBRANCH   7   8
ENDBRANCH   1   7
BRANCH   2  22
ATOM     22  O   UNL     1     -10.555   4.363   5.292  1.00  0.00    -0.387 OA
ATOM     23  H   UNL     1      -9.926   4.612   4.565  1.00  0.00     0.211 HD
ENDBRANCH   2  22
BRANCH   3  24
ATOM     24  O   UNL     1      -9.090   6.700   4.829  1.00  0.00    -0.387 OA
ATOM     25  H   UNL     1      -8.875   6.006   4.142  1.00  0.00     0.211 HD
ENDBRANCH   3  24
BRANCH   5  26
ATOM     26  O   UNL     1     -10.304   9.144   6.963  1.00  0.00    -0.454 OA
BRANCH  26  27
ATOM     27  C   UNL     1      -9.280   9.862   6.350  1.00  0.00     0.214 A 
ATOM     28  C   UNL     1      -9.505  10.764   5.277  1.00  0.00     0.180 A 
ATOM     29  C   UNL     1      -7.973   9.675   6.819  1.00  0.00     0.239 A 
ATOM     30  O   UNL     1      -8.451  11.324   4.690  1.00  0.00    -0.452 OA
ATOM     31  C   UNL     1      -6.880  10.227   6.113  1.00  0.00     0.111 A 
ATOM     32  O   UNL     1      -7.807   9.008   7.870  1.00  0.00    -0.285 OA
ATOM     33  C   UNL     1      -7.193  11.091   5.031  1.00  0.00     0.146 A 
ATOM     34  C   UNL     1      -5.506   9.959   6.407  1.00  0.00     0.134 A 
ATOM     35  C   UNL     1      -6.175  11.712   4.307  1.00  0.00     0.094 A 
ATOM     36  C   UNL     1      -4.511  10.590   5.654  1.00  0.00     0.093 A 
ATOM     37  C   UNL     1      -4.838  11.453   4.602  1.00  0.00     0.123 A 
BRANCH  28  38
ATOM     38  C   UNL     1     -10.848  11.124   4.716  1.00  0.00     0.025 A 
ATOM     39  C   UNL     1     -11.087  11.358   3.343  1.00  0.00     0.062 A 
ATOM     40  C   UNL     1     -11.952  11.177   5.596  1.00  0.00     0.016 A 
ATOM     41  C   UNL     1     -12.359  11.736   2.893  1.00  0.00     0.158 A 
ATOM     42  C   UNL     1     -13.232  11.497   5.138  1.00  0.00     0.051 A 
ATOM     43  C   UNL     1     -13.439  11.792   3.784  1.00  0.00     0.157 A 
BRANCH  41  44
ATOM     44  O   UNL     1     -12.533  12.056   1.546  1.00  0.00    -0.504 OA
ATOM     45  H   UNL     1     -11.757  12.246   0.926  1.00  0.00     0.293 HD
ENDBRANCH  41  44
BRANCH  43  46
ATOM     46  O   UNL     1     -14.710  12.124   3.327  1.00  0.00    -0.504 OA
ATOM     47  H   UNL     1     -15.048  13.081   3.348  1.00  0.00     0.293 HD
ENDBRANCH  43  46
ENDBRANCH  28  38
BRANCH  34  48
ATOM     48  O   UNL     1      -5.073   9.053   7.384  1.00  0.00    -0.507 OA
ATOM     49  H   UNL     1      -4.431   8.293   7.228  1.00  0.00     0.293 HD
ENDBRANCH  34  48
BRANCH  37  50
ATOM     50  O   UNL     1      -3.839  12.041   3.836  1.00  0.00    -0.508 OA
ATOM     51  H   UNL     1      -3.614  11.703   2.908  1.00  0.00     0.293 HD
ENDBRANCH  37  50
ENDBRANCH  26  27
ENDBRANCH   5  26
BRANCH   4  52
ATOM     52  O   UNL     1      -8.271   6.527   8.323  1.00  0.00    -0.384 OA
ATOM     53  H   UNL     1      -7.478   6.021   8.007  1.00  0.00     0.211 HD
ENDBRANCH   4  52
TORSDOF 16
ENDMDL
MODEL 4
REMARK VINA RESULT:     5.220      1.138      2.055
REMARK INTER + INTRA:          11.207
REMARK INTER:                   9.723
REMARK INTRA:                   1.484
REMARK UNBOUND:                 2.630
REMARK SMILES C[C@H]1O[C@@H](OC[C@H]2O[C@H](Oc3c(-c4ccc(O)c(O)c4)oc4cc(O)cc(O)c4c3=O)[C@@H](O)[C@H](O)[C@@H]2O)[C@H](O)[C@@H](O)[C@H]1O
REMARK SMILES IDX 7 1 36 2 34 3 32 4 9 5 8 6 6 7 5 8 4 9 1 10 2 11 42 12 3 13
REMARK SMILES IDX 40 14 38 15 43 16 41 18 39 20 37 22 35 24 10 26 11 27 12 28
REMARK SMILES IDX 30 29 21 30 29 31 31 32 22 33 27 34 23 35 26 36 24 37 13 38
REMARK SMILES IDX 20 39 14 40 18 41 15 42 16 43 19 44 17 46 28 48 25 50 33 52
REMARK H PARENT 43 17 41 19 39 21 37 23 35 25 19 45 17 47 28 49 25 51 33 53
REMARK Flexibility Score: inf
ROOT
ATOM      1  C   UNL     1     -12.354   6.359   5.764  1.00  0.00     0.180 C 
ATOM      2  C   UNL     1     -13.285   5.202   6.162  1.00  0.00     0.177 C 
ATOM      3  C   UNL     1     -12.433   4.096   6.803  1.00  0.00     0.180 C 
ATOM      4  C   UNL     1     -11.610   4.658   7.982  1.00  0.00     0.214 C 
ATOM      5  C   UNL     1     -10.994   6.065   7.715  1.00  0.00     0.339 C 
ATOM      6  O   UNL     1     -11.766   6.951   6.910  1.00  0.00    -0.332 OA
ENDROOT
BRANCH   1   7
ATOM      7  C   UNL     1     -13.090   7.463   5.002  1.00  0.00     0.198 C 
BRANCH   7   8
ATOM      8  O   UNL     1     -12.363   8.666   5.079  1.00  0.00    -0.347 OA
BRANCH   8   9
ATOM      9  C   UNL     1     -13.233   9.782   5.058  1.00  0.00     0.281 C 
ATOM     10  C   UNL     1     -10.258  10.753   5.445  1.00  0.00     0.041 C 
ATOM     11  C   UNL     1     -11.605  11.496   5.495  1.00  0.00     0.150 C 
ATOM     12  C   UNL     1     -12.171  11.715   6.928  1.00  0.00     0.174 C 
ATOM     13  O   UNL     1     -12.567  10.954   4.594  1.00  0.00    -0.344 OA
ATOM     14  C   UNL     1     -12.853  10.461   7.466  1.00  0.00     0.179 C 
ATOM     15  C   UNL     1     -13.886   9.961   6.440  1.00  0.00     0.202 C 
BRANCH  12  16
ATOM     16  O   UNL     1     -11.167  12.121   7.824  1.00  0.00    -0.388 OA
ATOM     17  H   UNL     1     -11.303  11.607   8.662  1.00  0.00     0.211 HD
ENDBRANCH  12  16
BRANCH  14  18
ATOM     18  O   UNL     1     -11.897   9.470   7.739  1.00  0.00    -0.387 OA
ATOM     19  H   UNL     1     -12.388   8.663   8.051  1.00  0.00     0.211 HD
ENDBRANCH  14  18
BRANCH  15  20
ATOM     20  O   UNL     1     -14.947  10.879   6.329  1.00  0.00    -0.385 OA
ATOM     21  H   UNL     1     -15.098  11.029   5.363  1.00  0.00     0.211 HD
ENDBRANCH  15  20
ENDBRANCH   8   9
ENDBRANCH   7   8
ENDBRANCH   1   7
BRANCH   2  22
ATOM     22  O   UNL     1     -13.965   4.710   5.034  1.00  0.00    -0.387 OA
ATOM     23  H   UNL     1     -14.841   5.176   5.013  1.00  0.00     0.211 HD
ENDBRANCH   2  22
BRANCH   3  24
ATOM     24  O   UNL     1     -11.565   3.532   5.852  1.00  0.00    -0.387 OA
ATOM     25  H   UNL     1     -10.739   3.246   6.338  1.00  0.00     0.211 HD
ENDBRANCH   3  24
BRANCH   5  26
ATOM     26  O   UNL     1      -9.619   6.004   7.304  1.00  0.00    -0.454 OA
BRANCH  26  27
ATOM     27  C   UNL     1      -8.962   6.990   6.572  1.00  0.00     0.214 A 
ATOM     28  C   UNL     1      -8.590   6.822   5.212  1.00  0.00     0.180 A 
ATOM     29  C   UNL     1      -8.657   8.196   7.217  1.00  0.00     0.239 A 
ATOM     30  O   UNL     1      -7.875   7.781   4.630  1.00  0.00    -0.452 OA
ATOM     31  C   UNL     1      -7.828   9.149   6.585  1.00  0.00     0.111 A 
ATOM     32  O   UNL     1      -9.136   8.397   8.361  1.00  0.00    -0.285 OA
ATOM     33  C   UNL     1      -7.473   8.887   5.235  1.00  0.00     0.146 A 
ATOM     34  C   UNL     1      -7.321  10.329   7.215  1.00  0.00     0.134 A 
ATOM     35  C   UNL     1      -6.691   9.797   4.523  1.00  0.00     0.094 A 
ATOM     36  C   UNL     1      -6.531  11.213   6.474  1.00  0.00     0.093 A 
ATOM     37  C   UNL     1      -6.206  10.948   5.140  1.00  0.00     0.123 A 
BRANCH  28  38
ATOM     38  C   UNL     1      -8.910   5.625   4.369  1.00  0.00     0.025 A 
ATOM     39  C   UNL     1      -8.024   5.082   3.410  1.00  0.00     0.062 A 
ATOM     40  C   UNL     1     -10.141   4.963   4.578  1.00  0.00     0.016 A 
ATOM     41  C   UNL     1      -8.406   3.988   2.623  1.00  0.00     0.158 A 
ATOM     42  C   UNL     1     -10.497   3.838   3.834  1.00  0.00     0.051 A 
ATOM     43  C   UNL     1      -9.636   3.352   2.841  1.00  0.00     0.157 A 
BRANCH  41  44
ATOM     44  O   UNL     1      -7.545   3.543   1.620  1.00  0.00    -0.504 OA
ATOM     45  H   UNL     1      -7.834   3.445   0.656  1.00  0.00     0.293 HD
ENDBRANCH  41  44
BRANCH  43  46
ATOM     46  O   UNL     1      -9.994   2.238   2.089  1.00  0.00    -0.504 OA
ATOM     47  H   UNL     1     -10.410   2.332   1.168  1.00  0.00     0.293 HD
ENDBRANCH  43  46
ENDBRANCH  28  38
BRANCH  34  48
ATOM     48  O   UNL     1      -7.521  10.647   8.565  1.00  0.00    -0.507 OA
ATOM     49  H   UNL     1      -8.340  10.411   9.103  1.00  0.00     0.293 HD
ENDBRANCH  34  48
BRANCH  37  50
ATOM     50  O   UNL     1      -5.387  11.816   4.428  1.00  0.00    -0.508 OA
ATOM     51  H   UNL     1      -4.958  12.622   4.869  1.00  0.00     0.293 HD
ENDBRANCH  37  50
ENDBRANCH  26  27
ENDBRANCH   5  26
BRANCH   4  52
ATOM     52  O   UNL     1     -12.432   4.737   9.125  1.00  0.00    -0.384 OA
ATOM     53  H   UNL     1     -13.368   4.733   8.796  1.00  0.00     0.211 HD
ENDBRANCH   4  52
TORSDOF 16
ENDMDL
MODEL 5
REMARK VINA RESULT:     5.912      1.998      6.250
REMARK INTER + INTRA:          12.343
REMARK INTER:                   9.666
REMARK INTRA:                   2.676
REMARK UNBOUND:                 2.630
REMARK SMILES C[C@H]1O[C@@H](OC[C@H]2O[C@H](Oc3c(-c4ccc(O)c(O)c4)oc4cc(O)cc(O)c4c3=O)[C@@H](O)[C@H](O)[C@@H]2O)[C@H](O)[C@@H](O)[C@H]1O
REMARK SMILES IDX 7 1 36 2 34 3 32 4 9 5 8 6 6 7 5 8 4 9 1 10 2 11 42 12 3 13
REMARK SMILES IDX 40 14 38 15 43 16 41 18 39 20 37 22 35 24 10 26 11 27 12 28
REMARK SMILES IDX 30 29 21 30 29 31 31 32 22 33 27 34 23 35 26 36 24 37 13 38
REMARK SMILES IDX 20 39 14 40 18 41 15 42 16 43 19 44 17 46 28 48 25 50 33 52
REMARK H PARENT 43 17 41 19 39 21 37 23 35 25 19 45 17 47 28 49 25 51 33 53
REMARK Flexibility Score: inf
ROOT
ATOM      1  C   UNL     1     -10.400   8.352   5.875  1.00  0.00     0.180 C 
ATOM      2  C   UNL     1      -9.421   7.168   5.937  1.00  0.00     0.177 C 
ATOM      3  C   UNL     1      -8.027   7.711   6.282  1.00  0.00     0.180 C 
ATOM      4  C   UNL     1      -8.074   8.540   7.585  1.00  0.00     0.214 C 
ATOM      5  C   UNL     1      -9.326   9.460   7.709  1.00  0.00     0.339 C 
ATOM      6  O   UNL     1     -10.536   8.960   7.149  1.00  0.00    -0.332 OA
ENDROOT
BRANCH   1   7
ATOM      7  C   UNL     1     -11.796   7.932   5.414  1.00  0.00     0.198 C 
BRANCH   7   8
ATOM      8  O   UNL     1     -12.314   6.953   6.283  1.00  0.00    -0.347 OA
BRANCH   8   9
ATOM      9  C   UNL     1     -13.198   6.086   5.597  1.00  0.00     0.281 C 
ATOM     10  C   UNL     1     -11.970   4.602   8.093  1.00  0.00     0.041 C 
ATOM     11  C   UNL     1     -12.854   4.116   6.930  1.00  0.00     0.150 C 
ATOM     12  C   UNL     1     -12.077   3.426   5.771  1.00  0.00     0.174 C 
ATOM     13  O   UNL     1     -13.763   5.115   6.474  1.00  0.00    -0.344 OA
ATOM     14  C   UNL     1     -11.428   4.445   4.839  1.00  0.00     0.179 C 
ATOM     15  C   UNL     1     -12.485   5.467   4.383  1.00  0.00     0.202 C 
BRANCH  12  16
ATOM     16  O   UNL     1     -11.096   2.546   6.258  1.00  0.00    -0.388 OA
ATOM     17  H   UNL     1     -10.727   2.063   5.473  1.00  0.00     0.211 HD
ENDBRANCH  12  16
BRANCH  14  18
ATOM     18  O   UNL     1     -10.361   5.084   5.491  1.00  0.00    -0.387 OA
ATOM     19  H   UNL     1      -9.622   5.176   4.830  1.00  0.00     0.211 HD
ENDBRANCH  14  18
BRANCH  15  20
ATOM     20  O   UNL     1     -13.440   4.844   3.558  1.00  0.00    -0.385 OA
ATOM     21  H   UNL     1     -13.378   3.872   3.730  1.00  0.00     0.211 HD
ENDBRANCH  15  20
ENDBRANCH   8   9
ENDBRANCH   7   8
ENDBRANCH   1   7
BRANCH   2  22
ATOM     22  O   UNL     1      -9.396   6.490   4.705  1.00  0.00    -0.387 OA
ATOM     23  H   UNL     1      -9.655   5.552   4.899  1.00  0.00     0.211 HD
ENDBRANCH   2  22
BRANCH   3  24
ATOM     24  O   UNL     1      -7.538   8.512   5.236  1.00  0.00    -0.387 OA
ATOM     25  H   UNL     1      -7.440   9.440   5.594  1.00  0.00     0.211 HD
ENDBRANCH   3  24
BRANCH   5  26
ATOM     26  O   UNL     1      -9.060  10.818   7.326  1.00  0.00    -0.454 OA
BRANCH  26  27
ATOM     27  C   UNL     1      -8.063  11.215   6.438  1.00  0.00     0.214 A 
ATOM     28  C   UNL     1      -8.333  11.616   5.103  1.00  0.00     0.180 A 
ATOM     29  C   UNL     1      -6.738  11.212   6.893  1.00  0.00     0.239 A 
ATOM     30  O   UNL     1      -7.305  11.878   4.301  1.00  0.00    -0.452 OA
ATOM     31  C   UNL     1      -5.676  11.419   5.984  1.00  0.00     0.111 A 
ATOM     32  O   UNL     1      -6.529  11.018   8.116  1.00  0.00    -0.285 OA
ATOM     33  C   UNL     1      -6.034  11.783   4.659  1.00  0.00     0.146 A 
ATOM     34  C   UNL     1      -4.291  11.270   6.308  1.00  0.00     0.134 A 
ATOM     35  C   UNL     1      -5.047  12.046   3.709  1.00  0.00     0.094 A 
ATOM     36  C   UNL     1      -3.328  11.532   5.328  1.00  0.00     0.093 A 
ATOM     37  C   UNL     1      -3.699  11.906   4.032  1.00  0.00     0.123 A 
BRANCH  28  38
ATOM     38  C   UNL     1      -9.698  11.741   4.497  1.00  0.00     0.025 A 
ATOM     39  C   UNL     1      -9.957  11.610   3.113  1.00  0.00     0.062 A 
ATOM     40  C   UNL     1     -10.801  11.946   5.356  1.00  0.00     0.016 A 
ATOM     41  C   UNL     1     -11.252  11.785   2.607  1.00  0.00     0.158 A 
ATOM     42  C   UNL     1     -12.100  12.063   4.858  1.00  0.00     0.051 A 
ATOM     43  C   UNL     1     -12.330  11.997   3.478  1.00  0.00     0.157 A 
BRANCH  41  44
ATOM     44  O   UNL     1     -11.451  11.746   1.228  1.00  0.00    -0.504 OA
ATOM     45  H   UNL     1     -12.086  11.095   0.785  1.00  0.00     0.293 HD
ENDBRANCH  41  44
BRANCH  43  46
ATOM     46  O   UNL     1     -13.621  12.125   2.977  1.00  0.00    -0.504 OA
ATOM     47  H   UNL     1     -14.422  11.748   3.475  1.00  0.00     0.293 HD
ENDBRANCH  43  46
ENDBRANCH  28  38
BRANCH  34  48
ATOM     48  O   UNL     1      -3.817  10.824   7.549  1.00  0.00    -0.507 OA
ATOM     49  H   UNL     1      -3.121  10.108   7.682  1.00  0.00     0.293 HD
ENDBRANCH  34  48
BRANCH  37  50
ATOM     50  O   UNL     1      -2.732  12.125   3.058  1.00  0.00    -0.508 OA
ATOM     51  H   UNL     1      -2.939  12.646   2.213  1.00  0.00     0.293 HD
ENDBRANCH  37  50
ENDBRANCH  26  27
ENDBRANCH   5  26
BRANCH   4  52
ATOM     52  O   UNL     1      -8.047   7.665   8.691  1.00  0.00    -0.384 OA
ATOM     53  H   UNL     1      -8.480   6.823   8.392  1.00  0.00     0.211 HD
ENDBRANCH   4  52
TORSDOF 16
ENDMDL
MODEL 6
REMARK VINA RESULT:     5.982     15.020     18.436
REMARK INTER + INTRA:          12.459
REMARK INTER:                  10.262
REMARK INTRA:                   2.197
REMARK UNBOUND:                 2.630
REMARK SMILES C[C@H]1O[C@@H](OC[C@H]2O[C@H](Oc3c(-c4ccc(O)c(O)c4)oc4cc(O)cc(O)c4c3=O)[C@@H](O)[C@H](O)[C@@H]2O)[C@H](O)[C@@H](O)[C@H]1O
REMARK SMILES IDX 7 1 36 2 34 3 32 4 9 5 8 6 6 7 5 8 4 9 1 10 2 11 42 12 3 13
REMARK SMILES IDX 40 14 38 15 43 16 41 18 39 20 37 22 35 24 10 26 11 27 12 28
REMARK SMILES IDX 30 29 21 30 29 31 31 32 22 33 27 34 23 35 26 36 24 37 13 38
REMARK SMILES IDX 20 39 14 40 18 41 15 42 16 43 19 44 17 46 28 48 25 50 33 52
REMARK H PARENT 43 17 41 19 39 21 37 23 35 25 19 45 17 47 28 49 25 51 33 53
REMARK Flexibility Score: inf
ROOT
ATOM      1  C   UNL     1      -9.235  -3.907  -9.102  1.00  0.00     0.180 C 
ATOM      2  C   UNL     1      -8.205  -4.005  -7.965  1.00  0.00     0.177 C 
ATOM      3  C   UNL     1      -7.785  -2.581  -7.569  1.00  0.00     0.180 C 
ATOM      4  C   UNL     1      -9.023  -1.731  -7.208  1.00  0.00     0.214 C 
ATOM      5  C   UNL     1     -10.246  -1.954  -8.148  1.00  0.00     0.339 C 
ATOM      6  O   UNL     1     -10.422  -3.274  -8.654  1.00  0.00    -0.332 OA
ENDROOT
BRANCH   1   7
ATOM      7  C   UNL     1      -9.625  -5.279  -9.655  1.00  0.00     0.198 C 
BRANCH   7   8
ATOM      8  O   UNL     1      -9.938  -6.152  -8.597  1.00  0.00    -0.347 OA
BRANCH   8   9
ATOM      9  C   UNL     1     -11.339  -6.274  -8.440  1.00  0.00     0.281 C 
ATOM     10  C   UNL     1     -10.062  -5.139  -5.790  1.00  0.00     0.041 C 
ATOM     11  C   UNL     1     -11.488  -5.605  -6.136  1.00  0.00     0.150 C 
ATOM     12  C   UNL     1     -11.817  -7.063  -5.699  1.00  0.00     0.174 C 
ATOM     13  O   UNL     1     -11.842  -5.337  -7.490  1.00  0.00    -0.344 OA
ATOM     14  C   UNL     1     -11.253  -8.088  -6.679  1.00  0.00     0.179 C 
ATOM     15  C   UNL     1     -11.702  -7.731  -8.107  1.00  0.00     0.202 C 
BRANCH  12  16
ATOM     16  O   UNL     1     -11.335  -7.336  -4.408  1.00  0.00    -0.388 OA
ATOM     17  H   UNL     1     -11.373  -6.484  -3.899  1.00  0.00     0.211 HD
ENDBRANCH  12  16
BRANCH  14  18
ATOM     18  O   UNL     1      -9.853  -8.125  -6.588  1.00  0.00    -0.387 OA
ATOM     19  H   UNL     1      -9.587  -9.079  -6.493  1.00  0.00     0.211 HD
ENDBRANCH  14  18
BRANCH  15  20
ATOM     20  O   UNL     1     -13.094  -7.898  -8.236  1.00  0.00    -0.385 OA
ATOM     21  H   UNL     1     -13.335  -7.600  -9.149  1.00  0.00     0.211 HD
ENDBRANCH  15  20
ENDBRANCH   8   9
ENDBRANCH   7   8
ENDBRANCH   1   7
BRANCH   2  22
ATOM     22  O   UNL     1      -7.088  -4.752  -8.380  1.00  0.00    -0.387 OA
ATOM     23  H   UNL     1      -7.268  -5.691  -8.115  1.00  0.00     0.211 HD
ENDBRANCH   2  22
BRANCH   3  24
ATOM     24  O   UNL     1      -7.085  -1.966  -8.621  1.00  0.00    -0.387 OA
ATOM     25  H   UNL     1      -6.141  -2.291  -8.578  1.00  0.00     0.211 HD
ENDBRANCH   3  24
BRANCH   5  26
ATOM     26  O   UNL     1     -10.352  -0.953  -9.172  1.00  0.00    -0.454 OA
BRANCH  26  27
ATOM     27  C   UNL     1     -11.303   0.064  -9.196  1.00  0.00     0.214 A 
ATOM     28  C   UNL     1     -12.647  -0.144  -9.603  1.00  0.00     0.180 A 
ATOM     29  C   UNL     1     -10.903   1.348  -8.801  1.00  0.00     0.239 A 
ATOM     30  O   UNL     1     -13.452   0.911  -9.690  1.00  0.00    -0.452 OA
ATOM     31  C   UNL     1     -11.768   2.449  -8.987  1.00  0.00     0.111 A 
ATOM     32  O   UNL     1      -9.765   1.485  -8.287  1.00  0.00    -0.285 OA
ATOM     33  C   UNL     1     -13.085   2.156  -9.430  1.00  0.00     0.146 A 
ATOM     34  C   UNL     1     -11.400   3.815  -8.776  1.00  0.00     0.134 A 
ATOM     35  C   UNL     1     -14.016   3.181  -9.600  1.00  0.00     0.094 A 
ATOM     36  C   UNL     1     -12.355   4.817  -8.966  1.00  0.00     0.093 A 
ATOM     37  C   UNL     1     -13.654   4.509  -9.386  1.00  0.00     0.123 A 
BRANCH  28  38
ATOM     38  C   UNL     1     -13.241  -1.468  -9.981  1.00  0.00     0.025 A 
ATOM     39  C   UNL     1     -12.628  -2.711  -9.703  1.00  0.00     0.062 A 
ATOM     40  C   UNL     1     -14.511  -1.484 -10.600  1.00  0.00     0.016 A 
ATOM     41  C   UNL     1     -13.217  -3.910 -10.127  1.00  0.00     0.158 A 
ATOM     42  C   UNL     1     -15.125  -2.682 -10.969  1.00  0.00     0.051 A 
ATOM     43  C   UNL     1     -14.473  -3.901 -10.746  1.00  0.00     0.157 A 
BRANCH  41  44
ATOM     44  O   UNL     1     -12.533  -5.108  -9.922  1.00  0.00    -0.504 OA
ATOM     45  H   UNL     1     -13.002  -6.002  -9.869  1.00  0.00     0.293 HD
ENDBRANCH  41  44
BRANCH  43  46
ATOM     46  O   UNL     1     -15.077  -5.096 -11.125  1.00  0.00    -0.504 OA
ATOM     47  H   UNL     1     -14.748  -5.625 -11.927  1.00  0.00     0.293 HD
ENDBRANCH  43  46
ENDBRANCH  28  38
BRANCH  34  48
ATOM     48  O   UNL     1     -10.108   4.237  -8.433  1.00  0.00    -0.507 OA
ATOM     49  H   UNL     1      -9.880   5.121  -8.007  1.00  0.00     0.293 HD
ENDBRANCH  34  48
BRANCH  37  50
ATOM     50  O   UNL     1     -14.582   5.519  -9.609  1.00  0.00    -0.508 OA
ATOM     51  H   UNL     1     -15.323   5.714  -8.946  1.00  0.00     0.293 HD
ENDBRANCH  37  50
ENDBRANCH  26  27
ENDBRANCH   5  26
BRANCH   4  52
ATOM     52  O   UNL     1      -9.414  -2.022  -5.885  1.00  0.00    -0.384 OA
ATOM     53  H   UNL     1     -10.199  -2.626  -5.952  1.00  0.00     0.211 HD
ENDBRANCH   4  52
TORSDOF 16
ENDMDL
MODEL 7
REMARK VINA RESULT:     6.046      1.836      6.632
REMARK INTER + INTRA:          12.564
REMARK INTER:                   8.142
REMARK INTRA:                   4.422
REMARK UNBOUND:                 2.630
REMARK SMILES C[C@H]1O[C@@H](OC[C@H]2O[C@H](Oc3c(-c4ccc(O)c(O)c4)oc4cc(O)cc(O)c4c3=O)[C@@H](O)[C@H](O)[C@@H]2O)[C@H](O)[C@@H](O)[C@H]1O
REMARK SMILES IDX 7 1 36 2 34 3 32 4 9 5 8 6 6 7 5 8 4 9 1 10 2 11 42 12 3 13
REMARK SMILES IDX 40 14 38 15 43 16 41 18 39 20 37 22 35 24 10 26 11 27 12 28
REMARK SMILES IDX 30 29 21 30 29 31 31 32 22 33 27 34 23 35 26 36 24 37 13 38
REMARK SMILES IDX 20 39 14 40 18 41 15 42 16 43 19 44 17 46 28 48 25 50 33 52
REMARK H PARENT 43 17 41 19 39 21 37 23 35 25 19 45 17 47 28 49 25 51 33 53
REMARK Flexibility Score: inf
ROOT
ATOM      1  C   UNL     1      -9.198   7.224   7.523  1.00  0.00     0.180 C 
ATOM      2  C   UNL     1      -8.044   6.659   6.678  1.00  0.00     0.177 C 
ATOM      3  C   UNL     1      -7.451   7.805   5.844  1.00  0.00     0.180 C 
ATOM      4  C   UNL     1      -7.030   8.979   6.756  1.00  0.00     0.214 C 
ATOM      5  C   UNL     1      -8.038   9.287   7.904  1.00  0.00     0.339 C 
ATOM      6  O   UNL     1      -8.717   8.168   8.466  1.00  0.00    -0.332 OA
ENDROOT
BRANCH   1   7
ATOM      7  C   UNL     1      -9.939   6.134   8.300  1.00  0.00     0.198 C 
BRANCH   7   8
ATOM      8  O   UNL     1     -11.019   5.652   7.536  1.00  0.00    -0.347 OA
BRANCH   8   9
ATOM      9  C   UNL     1     -10.646   5.488   6.181  1.00  0.00     0.281 C 
ATOM     10  C   UNL     1     -13.076   7.487   6.386  1.00  0.00     0.041 C 
ATOM     11  C   UNL     1     -12.367   6.837   5.184  1.00  0.00     0.150 C 
ATOM     12  C   UNL     1     -13.078   5.573   4.619  1.00  0.00     0.174 C 
ATOM     13  O   UNL     1     -10.974   6.640   5.407  1.00  0.00    -0.344 OA
ATOM     14  C   UNL     1     -12.776   4.333   5.456  1.00  0.00     0.179 C 
ATOM     15  C   UNL     1     -11.253   4.189   5.625  1.00  0.00     0.202 C 
BRANCH  12  16
ATOM     16  O   UNL     1     -14.469   5.755   4.538  1.00  0.00    -0.388 OA
ATOM     17  H   UNL     1     -14.878   4.850   4.513  1.00  0.00     0.211 HD
ENDBRANCH  12  16
BRANCH  14  18
ATOM     18  O   UNL     1     -13.413   4.424   6.703  1.00  0.00    -0.387 OA
ATOM     19  H   UNL     1     -13.029   3.715   7.285  1.00  0.00     0.211 HD
ENDBRANCH  14  18
BRANCH  15  20
ATOM     20  O   UNL     1     -10.651   3.894   4.388  1.00  0.00    -0.385 OA
ATOM     21  H   UNL     1     -11.327   3.416   3.846  1.00  0.00     0.211 HD
ENDBRANCH  15  20
ENDBRANCH   8   9
ENDBRANCH   7   8
ENDBRANCH   1   7
BRANCH   2  22
ATOM     22  O   UNL     1      -8.510   5.630   5.841  1.00  0.00    -0.387 OA
ATOM     23  H   UNL     1      -8.508   4.803   6.391  1.00  0.00     0.211 HD
ENDBRANCH   2  22
BRANCH   3  24
ATOM     24  O   UNL     1      -8.386   8.259   4.898  1.00  0.00    -0.387 OA
ATOM     25  H   UNL     1      -8.930   8.973   5.338  1.00  0.00     0.211 HD
ENDBRANCH   3  24
BRANCH   5  26
ATOM     26  O   UNL     1      -8.926  10.370   7.591  1.00  0.00    -0.454 OA
BRANCH  26  27
ATOM     27  C   UNL     1      -9.461  10.624   6.330  1.00  0.00     0.214 A 
ATOM     28  C   UNL     1      -8.682  11.097   5.242  1.00  0.00     0.180 A 
ATOM     29  C   UNL     1     -10.832  10.401   6.140  1.00  0.00     0.239 A 
ATOM     30  O   UNL     1      -9.303  11.407   4.108  1.00  0.00    -0.452 OA
ATOM     31  C   UNL     1     -11.459  10.821   4.946  1.00  0.00     0.111 A 
ATOM     32  O   UNL     1     -11.474   9.828   7.055  1.00  0.00    -0.285 OA
ATOM     33  C   UNL     1     -10.610  11.314   3.921  1.00  0.00     0.146 A 
ATOM     34  C   UNL     1     -12.871  10.796   4.720  1.00  0.00     0.134 A 
ATOM     35  C   UNL     1     -11.144  11.712   2.694  1.00  0.00     0.094 A 
ATOM     36  C   UNL     1     -13.372  11.211   3.483  1.00  0.00     0.093 A 
ATOM     37  C   UNL     1     -12.519  11.678   2.477  1.00  0.00     0.123 A 
BRANCH  28  38
ATOM     38  C   UNL     1      -7.199  11.312   5.269  1.00  0.00     0.025 A 
ATOM     39  C   UNL     1      -6.462  11.554   6.451  1.00  0.00     0.062 A 
ATOM     40  C   UNL     1      -6.482  11.212   4.056  1.00  0.00     0.016 A 
ATOM     41  C   UNL     1      -5.082  11.792   6.399  1.00  0.00     0.158 A 
ATOM     42  C   UNL     1      -5.098  11.391   4.012  1.00  0.00     0.051 A 
ATOM     43  C   UNL     1      -4.393  11.697   5.183  1.00  0.00     0.157 A 
BRANCH  41  44
ATOM     44  O   UNL     1      -4.409  12.125   7.574  1.00  0.00    -0.504 OA
ATOM     45  H   UNL     1      -4.283  13.081   7.879  1.00  0.00     0.293 HD
ENDBRANCH  41  44
BRANCH  43  46
ATOM     46  O   UNL     1      -3.016  11.889   5.140  1.00  0.00    -0.504 OA
ATOM     47  H   UNL     1      -2.463  11.951   5.989  1.00  0.00     0.293 HD
ENDBRANCH  43  46
ENDBRANCH  28  38
BRANCH  34  48
ATOM     48  O   UNL     1     -13.816  10.423   5.685  1.00  0.00    -0.507 OA
ATOM     49  H   UNL     1     -14.780  10.200   5.499  1.00  0.00     0.293 HD
ENDBRANCH  34  48
BRANCH  37  50
ATOM     50  O   UNL     1     -13.035  12.125   1.266  1.00  0.00    -0.508 OA
ATOM     51  H   UNL     1     -13.391  11.479   0.571  1.00  0.00     0.293 HD
ENDBRANCH  37  50
ENDBRANCH  26  27
ENDBRANCH   5  26
BRANCH   4  52
ATOM     52  O   UNL     1      -5.772   8.694   7.325  1.00  0.00    -0.384 OA
ATOM     53  H   UNL     1      -5.107   9.228   6.818  1.00  0.00     0.211 HD
ENDBRANCH   4  52
TORSDOF 16
ENDMDL
MODEL 8
REMARK VINA RESULT:     6.509      2.268      6.339
REMARK INTER + INTRA:          13.324
REMARK INTER:                   8.661
REMARK INTRA:                   4.664
REMARK UNBOUND:                 2.630
REMARK SMILES C[C@H]1O[C@@H](OC[C@H]2O[C@H](Oc3c(-c4ccc(O)c(O)c4)oc4cc(O)cc(O)c4c3=O)[C@@H](O)[C@H](O)[C@@H]2O)[C@H](O)[C@@H](O)[C@H]1O
REMARK SMILES IDX 7 1 36 2 34 3 32 4 9 5 8 6 6 7 5 8 4 9 1 10 2 11 42 12 3 13
REMARK SMILES IDX 40 14 38 15 43 16 41 18 39 20 37 22 35 24 10 26 11 27 12 28
REMARK SMILES IDX 30 29 21 30 29 31 31 32 22 33 27 34 23 35 26 36 24 37 13 38
REMARK SMILES IDX 20 39 14 40 18 41 15 42 16 43 19 44 17 46 28 48 25 50 33 52
REMARK H PARENT 43 17 41 19 39 21 37 23 35 25 19 45 17 47 28 49 25 51 33 53
REMARK Flexibility Score: inf
ROOT
ATOM      1  C   UNL     1      -9.738   9.921   5.503  1.00  0.00     0.180 C 
ATOM      2  C   UNL     1      -9.477  11.435   5.569  1.00  0.00     0.177 C 
ATOM      3  C   UNL     1     -10.757  12.124   6.067  1.00  0.00     0.180 C 
ATOM      4  C   UNL     1     -11.212  11.518   7.412  1.00  0.00     0.214 C 
ATOM      5  C   UNL     1     -11.078   9.967   7.490  1.00  0.00     0.339 C 
ATOM      6  O   UNL     1      -9.973   9.393   6.798  1.00  0.00    -0.332 OA
ENDROOT
BRANCH   1   7
ATOM      7  C   UNL     1      -8.562   9.152   4.899  1.00  0.00     0.198 C 
BRANCH   7   8
ATOM      8  O   UNL     1      -7.349   9.655   5.406  1.00  0.00    -0.347 OA
BRANCH   8   9
ATOM      9  C   UNL     1      -7.584  10.652   6.382  1.00  0.00     0.281 C 
ATOM     10  C   UNL     1      -5.128  11.475   4.584  1.00  0.00     0.041 C 
ATOM     11  C   UNL     1      -5.728  12.088   5.863  1.00  0.00     0.150 C 
ATOM     12  C   UNL     1      -5.002  11.681   7.178  1.00  0.00     0.174 C 
ATOM     13  O   UNL     1      -7.142  11.933   5.937  1.00  0.00    -0.344 OA
ATOM     14  C   UNL     1      -5.426  10.295   7.654  1.00  0.00     0.179 C 
ATOM     15  C   UNL     1      -6.963  10.228   7.724  1.00  0.00     0.202 C 
BRANCH  12  16
ATOM     16  O   UNL     1      -3.605  11.717   7.030  1.00  0.00    -0.388 OA
ATOM     17  H   UNL     1      -3.238  12.140   7.849  1.00  0.00     0.211 HD
ENDBRANCH  12  16
BRANCH  14  18
ATOM     18  O   UNL     1      -4.920   9.311   6.791  1.00  0.00    -0.387 OA
ATOM     19  H   UNL     1      -3.975   9.552   6.589  1.00  0.00     0.211 HD
ENDBRANCH  14  18
BRANCH  15  20
ATOM     20  O   UNL     1      -7.443  11.075   8.740  1.00  0.00    -0.385 OA
ATOM     21  H   UNL     1      -7.071  11.975   8.563  1.00  0.00     0.211 HD
ENDBRANCH  15  20
ENDBRANCH   8   9
ENDBRANCH   7   8
ENDBRANCH   1   7
BRANCH   2  22
ATOM     22  O   UNL     1      -9.113  11.924   4.303  1.00  0.00    -0.387 OA
ATOM     23  H   UNL     1      -8.604  11.196   3.860  1.00  0.00     0.211 HD
ENDBRANCH   2  22
BRANCH   3  24
ATOM     24  O   UNL     1     -11.786  11.990   5.120  1.00  0.00    -0.387 OA
ATOM     25  H   UNL     1     -12.253  12.872   5.062  1.00  0.00     0.211 HD
ENDBRANCH   3  24
BRANCH   5  26
ATOM     26  O   UNL     1     -12.312   9.286   7.220  1.00  0.00    -0.454 OA
BRANCH  26  27
ATOM     27  C   UNL     1     -12.716   8.836   5.965  1.00  0.00     0.214 A 
ATOM     28  C   UNL     1     -12.575   7.486   5.547  1.00  0.00     0.180 A 
ATOM     29  C   UNL     1     -13.284   9.766   5.084  1.00  0.00     0.239 A 
ATOM     30  O   UNL     1     -12.895   7.177   4.294  1.00  0.00    -0.452 OA
ATOM     31  C   UNL     1     -13.533   9.409   3.740  1.00  0.00     0.111 A 
ATOM     32  O   UNL     1     -13.556  10.911   5.522  1.00  0.00    -0.285 OA
ATOM     33  C   UNL     1     -13.333   8.046   3.396  1.00  0.00     0.146 A 
ATOM     34  C   UNL     1     -13.949  10.323   2.722  1.00  0.00     0.134 A 
ATOM     35  C   UNL     1     -13.595   7.600   2.101  1.00  0.00     0.094 A 
ATOM     36  C   UNL     1     -14.192   9.844   1.432  1.00  0.00     0.093 A 
ATOM     37  C   UNL     1     -14.007   8.493   1.115  1.00  0.00     0.123 A 
BRANCH  28  38
ATOM     38  C   UNL     1     -12.057   6.366   6.398  1.00  0.00     0.025 A 
ATOM     39  C   UNL     1     -11.831   5.056   5.918  1.00  0.00     0.062 A 
ATOM     40  C   UNL     1     -11.720   6.642   7.742  1.00  0.00     0.016 A 
ATOM     41  C   UNL     1     -11.390   4.044   6.780  1.00  0.00     0.158 A 
ATOM     42  C   UNL     1     -11.224   5.647   8.586  1.00  0.00     0.051 A 
ATOM     43  C   UNL     1     -11.070   4.338   8.112  1.00  0.00     0.157 A 
BRANCH  41  44
ATOM     44  O   UNL     1     -11.274   2.743   6.292  1.00  0.00    -0.504 OA
ATOM     45  H   UNL     1     -10.747   2.516   5.459  1.00  0.00     0.293 HD
ENDBRANCH  41  44
BRANCH  43  46
ATOM     46  O   UNL     1     -10.588   3.341   8.954  1.00  0.00    -0.504 OA
ATOM     47  H   UNL     1     -11.215   2.701   9.431  1.00  0.00     0.293 HD
ENDBRANCH  43  46
ENDBRANCH  28  38
BRANCH  34  48
ATOM     48  O   UNL     1     -14.087  11.704   2.914  1.00  0.00    -0.507 OA
ATOM     49  H   UNL     1     -14.962  12.204   2.934  1.00  0.00     0.293 HD
ENDBRANCH  34  48
BRANCH  37  50
ATOM     50  O   UNL     1     -14.215   8.039  -0.182  1.00  0.00    -0.508 OA
ATOM     51  H   UNL     1     -14.036   8.630  -0.986  1.00  0.00     0.293 HD
ENDBRANCH  37  50
ENDBRANCH  26  27
ENDBRANCH   5  26
BRANCH   4  52
ATOM     52  O   UNL     1     -10.456  12.089   8.456  1.00  0.00    -0.384 OA
ATOM     53  H   UNL     1      -9.815  12.714   8.029  1.00  0.00     0.211 HD
ENDBRANCH   4  52
TORSDOF 16
ENDMDL
