MODEL 1
REMARK VINA RESULT:    -5.083      0.000      0.000
REMARK INTER + INTRA:          -6.108
REMARK INTER:                  -5.975
REMARK INTRA:                  -0.133
REMARK UNBOUND:                -0.133
REMARK SMILES O=C([O-])C=Cc1ccc(O)c(O)c1
REMARK SMILES IDX 6 1 13 2 7 3 11 4 8 5 9 6 5 7 4 8 2 9 1 10 3 11 12 12 10 14
REMARK H PARENT 12 13 10 15
REMARK Flexibility Score: inf
ROOT
ATOM      1  C   UNL     1      -5.232 -17.399 -22.440  1.00  0.00    -0.022 A 
ATOM      2  C   UNL     1      -5.293 -16.140 -21.819  1.00  0.00     0.058 A 
ATOM      3  C   UNL     1      -6.382 -17.896 -23.084  1.00  0.00     0.012 A 
ATOM      4  C   UNL     1      -6.469 -15.376 -21.861  1.00  0.00     0.157 A 
ATOM      5  C   UNL     1      -7.554 -17.135 -23.125  1.00  0.00     0.051 A 
ATOM      6  C   UNL     1      -7.601 -15.875 -22.516  1.00  0.00     0.157 A 
ENDROOT
BRANCH   1   7
ATOM      7  C   UNL     1      -3.966 -18.170 -22.358  1.00  0.00     0.010 C 
ATOM      8  C   UNL     1      -3.201 -18.230 -21.259  1.00  0.00     0.025 C 
BRANCH   8   9
ATOM      9  C   UNL     1      -1.959 -19.017 -21.219  1.00  0.00     0.064 C 
ATOM     10  O   UNL     1      -1.596 -19.659 -22.239  1.00  0.00    -0.545 OA
ATOM     11  O   UNL     1      -1.176 -19.065 -20.070  1.00  0.00    -0.545 OA
ENDBRANCH   8   9
ENDBRANCH   1   7
BRANCH   4  12
ATOM     12  O   UNL     1      -6.520 -14.124 -21.253  1.00  0.00    -0.504 OA
ATOM     13  H   UNL     1      -6.892 -13.314 -21.735  1.00  0.00     0.293 HD
ENDBRANCH   4  12
BRANCH   6  14
ATOM     14  O   UNL     1      -8.768 -15.114 -22.557  1.00  0.00    -0.504 OA
ATOM     15  H   UNL     1      -8.752 -14.111 -22.411  1.00  0.00     0.293 HD
ENDBRANCH   6  14
TORSDOF 4
ENDMDL
MODEL 2
REMARK VINA RESULT:    -4.366      1.064      5.963
REMARK INTER + INTRA:          -5.264
REMARK INTER:                  -5.136
REMARK INTRA:                  -0.128
REMARK UNBOUND:                -0.133
REMARK SMILES O=C([O-])C=Cc1ccc(O)c(O)c1
REMARK SMILES IDX 6 1 13 2 7 3 11 4 8 5 9 6 5 7 4 8 2 9 1 10 3 11 12 12 10 14
REMARK H PARENT 12 13 10 15
REMARK Flexibility Score: inf
ROOT
ATOM      1  C   UNL     1      -3.859 -18.254 -21.943  1.00  0.00    -0.022 A 
ATOM      2  C   UNL     1      -3.071 -18.279 -20.780  1.00  0.00     0.058 A 
ATOM      3  C   UNL     1      -3.348 -18.830 -23.123  1.00  0.00     0.012 A 
ATOM      4  C   UNL     1      -1.809 -18.890 -20.782  1.00  0.00     0.157 A 
ATOM      5  C   UNL     1      -2.090 -19.439 -23.125  1.00  0.00     0.051 A 
ATOM      6  C   UNL     1      -1.318 -19.472 -21.957  1.00  0.00     0.157 A 
ENDROOT
BRANCH   1   7
ATOM      7  C   UNL     1      -5.184 -17.586 -21.890  1.00  0.00     0.010 C 
ATOM      8  C   UNL     1      -5.391 -16.312 -22.251  1.00  0.00     0.025 C 
BRANCH   8   9
ATOM      9  C   UNL     1      -6.724 -15.694 -22.192  1.00  0.00     0.064 C 
ATOM     10  O   UNL     1      -6.867 -14.575 -21.635  1.00  0.00    -0.545 OA
ATOM     11  O   UNL     1      -7.834 -16.327 -22.742  1.00  0.00    -0.545 OA
ENDBRANCH   8   9
ENDBRANCH   1   7
BRANCH   4  12
ATOM     12  O   UNL     1      -1.038 -18.920 -19.622  1.00  0.00    -0.504 OA
ATOM     13  H   UNL     1      -0.053 -18.682 -19.634  1.00  0.00     0.293 HD
ENDBRANCH   4  12
BRANCH   6  14
ATOM     14  O   UNL     1      -0.063 -20.078 -21.956  1.00  0.00    -0.504 OA
ATOM     15  H   UNL     1       0.766 -19.581 -22.258  1.00  0.00     0.293 HD
ENDBRANCH   6  14
TORSDOF 4
ENDMDL
MODEL 3
REMARK VINA RESULT:    -4.160     15.345     15.809
REMARK INTER + INTRA:          -5.022
REMARK INTER:                  -4.896
REMARK INTRA:                  -0.126
REMARK UNBOUND:                -0.133
REMARK SMILES O=C([O-])C=Cc1ccc(O)c(O)c1
REMARK SMILES IDX 6 1 13 2 7 3 11 4 8 5 9 6 5 7 4 8 2 9 1 10 3 11 12 12 10 14
REMARK H PARENT 12 13 10 15
REMARK Flexibility Score: inf
ROOT
ATOM      1  C   UNL     1      10.324 -15.995 -19.467  1.00  0.00    -0.022 A 
ATOM      2  C   UNL     1      10.641 -16.579 -20.706  1.00  0.00     0.058 A 
ATOM      3  C   UNL     1       9.879 -14.659 -19.440  1.00  0.00     0.012 A 
ATOM      4  C   UNL     1      10.491 -15.856 -21.898  1.00  0.00     0.157 A 
ATOM      5  C   UNL     1       9.731 -13.938 -20.628  1.00  0.00     0.051 A 
ATOM      6  C   UNL     1      10.034 -14.534 -21.859  1.00  0.00     0.157 A 
ENDROOT
BRANCH   1   7
ATOM      7  C   UNL     1      10.510 -16.801 -18.235  1.00  0.00     0.010 C 
ATOM      8  C   UNL     1       9.558 -17.583 -17.706  1.00  0.00     0.025 C 
BRANCH   8   9
ATOM      9  C   UNL     1       9.789 -18.373 -16.487  1.00  0.00     0.064 C 
ATOM     10  O   UNL     1      10.953 -18.761 -16.209  1.00  0.00    -0.545 OA
ATOM     11  O   UNL     1       8.740 -18.703 -15.635  1.00  0.00    -0.545 OA
ENDBRANCH   8   9
ENDBRANCH   1   7
BRANCH   4  12
ATOM     12  O   UNL     1      10.797 -16.445 -23.123  1.00  0.00    -0.504 OA
ATOM     13  H   UNL     1      10.630 -17.430 -23.295  1.00  0.00     0.293 HD
ENDBRANCH   4  12
BRANCH   6  14
ATOM     14  O   UNL     1       9.887 -13.818 -23.046  1.00  0.00    -0.504 OA
ATOM     15  H   UNL     1       9.878 -14.281 -23.947  1.00  0.00     0.293 HD
ENDBRANCH   6  14
TORSDOF 4
ENDMDL
MODEL 4
REMARK VINA RESULT:    -4.062     15.135     16.013
REMARK INTER + INTRA:          -4.908
REMARK INTER:                  -4.767
REMARK INTRA:                  -0.141
REMARK UNBOUND:                -0.133
REMARK SMILES O=C([O-])C=Cc1ccc(O)c(O)c1
REMARK SMILES IDX 6 1 13 2 7 3 11 4 8 5 9 6 5 7 4 8 2 9 1 10 3 11 12 12 10 14
REMARK H PARENT 12 13 10 15
REMARK Flexibility Score: inf
ROOT
ATOM      1  C   UNL     1      -4.863 -16.639  -6.367  1.00  0.00    -0.022 A 
ATOM      2  C   UNL     1      -3.932 -15.932  -5.588  1.00  0.00     0.058 A 
ATOM      3  C   UNL     1      -6.220 -16.622  -5.987  1.00  0.00     0.012 A 
ATOM      4  C   UNL     1      -4.345 -15.197  -4.467  1.00  0.00     0.157 A 
ATOM      5  C   UNL     1      -6.631 -15.890  -4.869  1.00  0.00     0.051 A 
ATOM      6  C   UNL     1      -5.698 -15.175  -4.108  1.00  0.00     0.157 A 
ENDROOT
BRANCH   1   7
ATOM      7  C   UNL     1      -4.372 -17.408  -7.537  1.00  0.00     0.010 C 
ATOM      8  C   UNL     1      -5.109 -18.314  -8.196  1.00  0.00     0.025 C 
BRANCH   8   9
ATOM      9  C   UNL     1      -4.585 -19.045  -9.359  1.00  0.00     0.064 C 
ATOM     10  O   UNL     1      -3.348 -19.257  -9.456  1.00  0.00    -0.545 OA
ATOM     11  O   UNL     1      -5.435 -19.508 -10.359  1.00  0.00    -0.545 OA
ENDBRANCH   8   9
ENDBRANCH   1   7
BRANCH   4  12
ATOM     12  O   UNL     1      -3.417 -14.490  -3.706  1.00  0.00    -0.504 OA
ATOM     13  H   UNL     1      -2.982 -13.643  -4.053  1.00  0.00     0.293 HD
ENDBRANCH   4  12
BRANCH   6  14
ATOM     14  O   UNL     1      -6.105 -14.445  -2.994  1.00  0.00    -0.504 OA
ATOM     15  H   UNL     1      -5.847 -14.722  -2.054  1.00  0.00     0.293 HD
ENDBRANCH   6  14
TORSDOF 4
ENDMDL
MODEL 5
REMARK VINA RESULT:    -4.051     13.147     13.949
REMARK INTER + INTRA:          -4.894
REMARK INTER:                  -4.760
REMARK INTRA:                  -0.134
REMARK UNBOUND:                -0.133
REMARK SMILES O=C([O-])C=Cc1ccc(O)c(O)c1
REMARK SMILES IDX 6 1 13 2 7 3 11 4 8 5 9 6 5 7 4 8 2 9 1 10 3 11 12 12 10 14
REMARK H PARENT 12 13 10 15
REMARK Flexibility Score: inf
ROOT
ATOM      1  C   UNL     1      -5.384 -18.478  -8.658  1.00  0.00    -0.022 A 
ATOM      2  C   UNL     1      -6.683 -17.960  -8.789  1.00  0.00     0.058 A 
ATOM      3  C   UNL     1      -4.904 -19.365  -9.642  1.00  0.00     0.012 A 
ATOM      4  C   UNL     1      -7.482 -18.295  -9.892  1.00  0.00     0.157 A 
ATOM      5  C   UNL     1      -5.699 -19.700 -10.741  1.00  0.00     0.051 A 
ATOM      6  C   UNL     1      -6.988 -19.166 -10.871  1.00  0.00     0.157 A 
ENDROOT
BRANCH   1   7
ATOM      7  C   UNL     1      -4.585 -18.099  -7.466  1.00  0.00     0.010 C 
ATOM      8  C   UNL     1      -4.758 -16.957  -6.786  1.00  0.00     0.025 C 
BRANCH   8   9
ATOM      9  C   UNL     1      -3.949 -16.627  -5.602  1.00  0.00     0.064 C 
ATOM     10  O   UNL     1      -3.225 -17.512  -5.077  1.00  0.00    -0.545 OA
ATOM     11  O   UNL     1      -3.972 -15.350  -5.050  1.00  0.00    -0.545 OA
ENDBRANCH   8   9
ENDBRANCH   1   7
BRANCH   4  12
ATOM     12  O   UNL     1      -8.765 -17.769 -10.020  1.00  0.00    -0.504 OA
ATOM     13  H   UNL     1      -9.485 -18.250 -10.546  1.00  0.00     0.293 HD
ENDBRANCH   4  12
BRANCH   6  14
ATOM     14  O   UNL     1      -7.783 -19.497 -11.966  1.00  0.00    -0.504 OA
ATOM     15  H   UNL     1      -8.748 -19.195 -12.031  1.00  0.00     0.293 HD
ENDBRANCH   6  14
TORSDOF 4
ENDMDL
MODEL 6
REMARK VINA RESULT:    -3.899     14.255     15.422
REMARK INTER + INTRA:          -4.716
REMARK INTER:                  -4.580
REMARK INTRA:                  -0.136
REMARK UNBOUND:                -0.133
REMARK SMILES O=C([O-])C=Cc1ccc(O)c(O)c1
REMARK SMILES IDX 6 1 13 2 7 3 11 4 8 5 9 6 5 7 4 8 2 9 1 10 3 11 12 12 10 14
REMARK H PARENT 12 13 10 15
REMARK Flexibility Score: inf
ROOT
ATOM      1  C   UNL     1      -5.376 -17.309  -7.266  1.00  0.00    -0.022 A 
ATOM      2  C   UNL     1      -4.176 -17.901  -7.693  1.00  0.00     0.058 A 
ATOM      3  C   UNL     1      -6.551 -17.539  -8.009  1.00  0.00     0.012 A 
ATOM      4  C   UNL     1      -4.148 -18.730  -8.824  1.00  0.00     0.157 A 
ATOM      5  C   UNL     1      -6.523 -18.365  -9.137  1.00  0.00     0.051 A 
ATOM      6  C   UNL     1      -5.324 -18.963  -9.546  1.00  0.00     0.157 A 
ENDROOT
BRANCH   1   7
ATOM      7  C   UNL     1      -5.348 -16.432  -6.068  1.00  0.00     0.010 C 
ATOM      8  C   UNL     1      -4.223 -16.062  -5.442  1.00  0.00     0.025 C 
BRANCH   8   9
ATOM      9  C   UNL     1      -4.242 -15.182  -4.263  1.00  0.00     0.064 C 
ATOM     10  O   UNL     1      -5.302 -15.058  -3.597  1.00  0.00    -0.545 OA
ATOM     11  O   UNL     1      -3.105 -14.481  -3.873  1.00  0.00    -0.545 OA
ENDBRANCH   8   9
ENDBRANCH   1   7
BRANCH   4  12
ATOM     12  O   UNL     1      -2.956 -19.322  -9.236  1.00  0.00    -0.504 OA
ATOM     13  H   UNL     1      -2.796 -19.574 -10.205  1.00  0.00     0.293 HD
ENDBRANCH   4  12
BRANCH   6  14
ATOM     14  O   UNL     1      -5.294 -19.787 -10.669  1.00  0.00    -0.504 OA
ATOM     15  H   UNL     1      -5.499 -19.429 -11.595  1.00  0.00     0.293 HD
ENDBRANCH   6  14
TORSDOF 4
ENDMDL
MODEL 7
REMARK VINA RESULT:    -3.884     21.239     22.057
REMARK INTER + INTRA:          -4.698
REMARK INTER:                  -4.572
REMARK INTRA:                  -0.126
REMARK UNBOUND:                -0.133
REMARK SMILES O=C([O-])C=Cc1ccc(O)c(O)c1
REMARK SMILES IDX 6 1 13 2 7 3 11 4 8 5 9 6 5 7 4 8 2 9 1 10 3 11 12 12 10 14
REMARK H PARENT 12 13 10 15
REMARK Flexibility Score: inf
ROOT
ATOM      1  C   UNL     1      -5.637  -2.886  -5.750  1.00  0.00    -0.022 A 
ATOM      2  C   UNL     1      -5.313  -3.930  -4.868  1.00  0.00     0.058 A 
ATOM      3  C   UNL     1      -6.918  -2.304  -5.673  1.00  0.00     0.012 A 
ATOM      4  C   UNL     1      -6.235  -4.370  -3.908  1.00  0.00     0.157 A 
ATOM      5  C   UNL     1      -7.837  -2.743  -4.716  1.00  0.00     0.051 A 
ATOM      6  C   UNL     1      -7.499  -3.774  -3.831  1.00  0.00     0.157 A 
ENDROOT
BRANCH   1   7
ATOM      7  C   UNL     1      -4.628  -2.466  -6.755  1.00  0.00     0.010 C 
ATOM      8  C   UNL     1      -3.373  -2.111  -6.446  1.00  0.00     0.025 C 
BRANCH   8   9
ATOM      9  C   UNL     1      -2.402  -1.712  -7.476  1.00  0.00     0.064 C 
ATOM     10  O   UNL     1      -1.452  -2.483  -7.768  1.00  0.00    -0.545 OA
ATOM     11  O   UNL     1      -2.515  -0.491  -8.134  1.00  0.00    -0.545 OA
ENDBRANCH   8   9
ENDBRANCH   1   7
BRANCH   4  12
ATOM     12  O   UNL     1      -5.903  -5.399  -3.029  1.00  0.00    -0.504 OA
ATOM     13  H   UNL     1      -5.060  -5.366  -2.467  1.00  0.00     0.293 HD
ENDBRANCH   4  12
BRANCH   6  14
ATOM     14  O   UNL     1      -8.414  -4.213  -2.875  1.00  0.00    -0.504 OA
ATOM     15  H   UNL     1      -9.411  -4.210  -3.055  1.00  0.00     0.293 HD
ENDBRANCH   6  14
TORSDOF 4
ENDMDL
MODEL 8
REMARK VINA RESULT:    -3.783     20.233     22.324
REMARK INTER + INTRA:          -4.579
REMARK INTER:                  -4.448
REMARK INTRA:                  -0.131
REMARK UNBOUND:                -0.133
REMARK SMILES O=C([O-])C=Cc1ccc(O)c(O)c1
REMARK SMILES IDX 6 1 13 2 7 3 11 4 8 5 9 6 5 7 4 8 2 9 1 10 3 11 12 12 10 14
REMARK H PARENT 12 13 10 15
REMARK Flexibility Score: inf
ROOT
ATOM      1  C   UNL     1      -5.758  -2.733  -5.499  1.00  0.00    -0.022 A 
ATOM      2  C   UNL     1      -5.739  -3.920  -4.748  1.00  0.00     0.058 A 
ATOM      3  C   UNL     1      -4.702  -1.813  -5.343  1.00  0.00     0.012 A 
ATOM      4  C   UNL     1      -4.677  -4.201  -3.877  1.00  0.00     0.157 A 
ATOM      5  C   UNL     1      -3.643  -2.093  -4.474  1.00  0.00     0.051 A 
ATOM      6  C   UNL     1      -3.626  -3.286  -3.741  1.00  0.00     0.157 A 
ENDROOT
BRANCH   1   7
ATOM      7  C   UNL     1      -6.910  -2.479  -6.399  1.00  0.00     0.010 C 
ATOM      8  C   UNL     1      -6.834  -2.520  -7.737  1.00  0.00     0.025 C 
BRANCH   8   9
ATOM      9  C   UNL     1      -8.006  -2.273  -8.590  1.00  0.00     0.064 C 
ATOM     10  O   UNL     1      -8.842  -1.392  -8.260  1.00  0.00    -0.545 OA
ATOM     11  O   UNL     1      -8.209  -2.999  -9.759  1.00  0.00    -0.545 OA
ENDBRANCH   8   9
ENDBRANCH   1   7
BRANCH   4  12
ATOM     12  O   UNL     1      -4.660  -5.385  -3.143  1.00  0.00    -0.504 OA
ATOM     13  H   UNL     1      -5.472  -5.989  -3.092  1.00  0.00     0.293 HD
ENDBRANCH   4  12
BRANCH   6  14
ATOM     14  O   UNL     1      -2.571  -3.569  -2.875  1.00  0.00    -0.504 OA
ATOM     15  H   UNL     1      -1.639  -3.206  -3.039  1.00  0.00     0.293 HD
ENDBRANCH   6  14
TORSDOF 4
ENDMDL
MODEL 9
REMARK VINA RESULT:    -3.768     14.659     16.100
REMARK INTER + INTRA:          -4.561
REMARK INTER:                  -4.429
REMARK INTRA:                  -0.133
REMARK UNBOUND:                -0.133
REMARK SMILES O=C([O-])C=Cc1ccc(O)c(O)c1
REMARK SMILES IDX 6 1 13 2 7 3 11 4 8 5 9 6 5 7 4 8 2 9 1 10 3 11 12 12 10 14
REMARK H PARENT 12 13 10 15
REMARK Flexibility Score: inf
ROOT
ATOM      1  C   UNL     1      -4.622 -17.046  -6.737  1.00  0.00    -0.022 A 
ATOM      2  C   UNL     1      -3.875 -18.133  -6.254  1.00  0.00     0.058 A 
ATOM      3  C   UNL     1      -4.641 -15.849  -5.994  1.00  0.00     0.012 A 
ATOM      4  C   UNL     1      -3.137 -18.024  -5.066  1.00  0.00     0.157 A 
ATOM      5  C   UNL     1      -3.906 -15.741  -4.810  1.00  0.00     0.051 A 
ATOM      6  C   UNL     1      -3.151 -16.826  -4.344  1.00  0.00     0.157 A 
ENDROOT
BRANCH   1   7
ATOM      7  C   UNL     1      -5.392 -17.216  -7.994  1.00  0.00     0.010 C 
ATOM      8  C   UNL     1      -5.758 -18.408  -8.488  1.00  0.00     0.025 C 
BRANCH   8   9
ATOM      9  C   UNL     1      -6.532 -18.530  -9.733  1.00  0.00     0.064 C 
ATOM     10  O   UNL     1      -7.591 -17.866  -9.874  1.00  0.00    -0.545 OA
ATOM     11  O   UNL     1      -6.113 -19.370 -10.760  1.00  0.00    -0.545 OA
ENDBRANCH   8   9
ENDBRANCH   1   7
BRANCH   4  12
ATOM     12  O   UNL     1      -2.390 -19.103  -4.598  1.00  0.00    -0.504 OA
ATOM     13  H   UNL     1      -2.826 -19.983  -4.351  1.00  0.00     0.293 HD
ENDBRANCH   4  12
BRANCH   6  14
ATOM     14  O   UNL     1      -2.417 -16.720  -3.164  1.00  0.00    -0.504 OA
ATOM     15  H   UNL     1      -1.424 -16.920  -3.138  1.00  0.00     0.293 HD
ENDBRANCH   6  14
TORSDOF 4
ENDMDL
