MODEL 1
REMARK VINA RESULT:    -4.135      0.000      0.000
REMARK INTER + INTRA:          -5.180
REMARK INTER:                  -5.101
REMARK INTRA:                  -0.078
REMARK UNBOUND:                -0.078
REMARK SMILES CCCCCC(=O)[O-]
REMARK SMILES IDX 4 1 5 2 6 3 7 4 8 5 3 6 2 7 1 8
REMARK H PARENT
REMARK Flexibility Score: inf
ROOT
ATOM      1  C   UNL     1      20.884  -0.740  27.861  1.00  0.00     0.006 C 
ENDROOT
BRANCH   1   2
ATOM      2  C   UNL     1      21.617  -1.149  26.577  1.00  0.00     0.053 C 
BRANCH   2   3
ATOM      3  C   UNL     1      22.510  -0.055  26.076  1.00  0.00     0.041 C 
ATOM      4  O   UNL     1      22.049   1.097  25.871  1.00  0.00    -0.550 OA
ATOM      5  O   UNL     1      23.862  -0.303  25.867  1.00  0.00    -0.550 OA
ENDBRANCH   2   3
ENDBRANCH   1   2
BRANCH   1   6
ATOM      6  C   UNL     1      20.972  -1.824  28.950  1.00  0.00     0.000 C 
BRANCH   6   7
ATOM      7  C   UNL     1      22.065  -1.528  29.989  1.00  0.00    -0.003 C 
ATOM      8  C   UNL     1      22.607  -2.794  30.651  1.00  0.00     0.004 C 
ENDBRANCH   6   7
ENDBRANCH   1   6
TORSDOF 4
ENDMDL
MODEL 2
REMARK VINA RESULT:    -4.133     12.709     13.514
REMARK INTER + INTRA:          -5.178
REMARK INTER:                  -5.100
REMARK INTRA:                  -0.078
REMARK UNBOUND:                -0.078
REMARK SMILES CCCCCC(=O)[O-]
REMARK SMILES IDX 4 1 5 2 6 3 7 4 8 5 3 6 2 7 1 8
REMARK H PARENT
REMARK Flexibility Score: inf
ROOT
ATOM      1  C   UNL     1      35.468   0.007  32.375  1.00  0.00     0.006 C 
ENDROOT
BRANCH   1   2
ATOM      2  C   UNL     1      35.621  -1.287  31.566  1.00  0.00     0.053 C 
BRANCH   2   3
ATOM      3  C   UNL     1      34.561  -1.413  30.514  1.00  0.00     0.041 C 
ATOM      4  O   UNL     1      33.870  -0.413  30.187  1.00  0.00    -0.550 OA
ATOM      5  O   UNL     1      34.360  -2.629  29.872  1.00  0.00    -0.550 OA
ENDBRANCH   2   3
ENDBRANCH   1   2
BRANCH   1   6
ATOM      6  C   UNL     1      35.220  -0.268  33.869  1.00  0.00     0.000 C 
BRANCH   6   7
ATOM      7  C   UNL     1      34.487   0.887  34.568  1.00  0.00    -0.003 C 
ATOM      8  C   UNL     1      33.001   0.601  34.781  1.00  0.00     0.004 C 
ENDBRANCH   6   7
ENDBRANCH   1   6
TORSDOF 4
ENDMDL
MODEL 3
REMARK VINA RESULT:    -3.941      2.766      4.302
REMARK INTER + INTRA:          -4.941
REMARK INTER:                  -4.860
REMARK INTRA:                  -0.080
REMARK UNBOUND:                -0.078
REMARK SMILES CCCCCC(=O)[O-]
REMARK SMILES IDX 4 1 5 2 6 3 7 4 8 5 3 6 2 7 1 8
REMARK H PARENT
REMARK Flexibility Score: inf
ROOT
ATOM      1  C   UNL     1      21.222  -1.920  28.135  1.00  0.00     0.006 C 
ENDROOT
BRANCH   1   2
ATOM      2  C   UNL     1      21.186  -1.629  29.640  1.00  0.00     0.053 C 
BRANCH   2   3
ATOM      3  C   UNL     1      22.450  -2.058  30.319  1.00  0.00     0.041 C 
ATOM      4  O   UNL     1      23.388  -1.237  30.492  1.00  0.00    -0.550 OA
ATOM      5  O   UNL     1      22.578  -3.358  30.793  1.00  0.00    -0.550 OA
ENDBRANCH   2   3
ENDBRANCH   1   2
BRANCH   1   6
ATOM      6  C   UNL     1      21.165  -0.633  27.292  1.00  0.00     0.000 C 
BRANCH   6   7
ATOM      7  C   UNL     1      21.916  -0.768  25.959  1.00  0.00    -0.003 C 
ATOM      8  C   UNL     1      23.275  -0.070  25.973  1.00  0.00     0.004 C 
ENDBRANCH   6   7
ENDBRANCH   1   6
TORSDOF 4
ENDMDL
MODEL 4
REMARK VINA RESULT:    -3.926     12.860     14.077
REMARK INTER + INTRA:          -4.922
REMARK INTER:                  -4.854
REMARK INTRA:                  -0.068
REMARK UNBOUND:                -0.078
REMARK SMILES CCCCCC(=O)[O-]
REMARK SMILES IDX 4 1 5 2 6 3 7 4 8 5 3 6 2 7 1 8
REMARK H PARENT
REMARK Flexibility Score: inf
ROOT
ATOM      1  C   UNL     1      35.494   0.423  32.634  1.00  0.00     0.006 C 
ENDROOT
BRANCH   1   2
ATOM      2  C   UNL     1      34.999  -0.112  33.983  1.00  0.00     0.053 C 
BRANCH   2   3
ATOM      3  C   UNL     1      33.971   0.790  34.595  1.00  0.00     0.041 C 
ATOM      4  O   UNL     1      34.273   1.968  34.919  1.00  0.00    -0.550 OA
ATOM      5  O   UNL     1      32.670   0.338  34.775  1.00  0.00    -0.550 OA
ENDBRANCH   2   3
ENDBRANCH   1   2
BRANCH   1   6
ATOM      6  C   UNL     1      35.677  -0.699  31.596  1.00  0.00     0.000 C 
BRANCH   6   7
ATOM      7  C   UNL     1      34.621  -0.649  30.481  1.00  0.00    -0.003 C 
ATOM      8  C   UNL     1      34.204  -2.037  29.999  1.00  0.00     0.004 C 
ENDBRANCH   6   7
ENDBRANCH   1   6
TORSDOF 4
ENDMDL
MODEL 5
REMARK VINA RESULT:    -3.869      1.324      2.192
REMARK INTER + INTRA:          -4.852
REMARK INTER:                  -4.777
REMARK INTRA:                  -0.075
REMARK UNBOUND:                -0.078
REMARK SMILES CCCCCC(=O)[O-]
REMARK SMILES IDX 4 1 5 2 6 3 7 4 8 5 3 6 2 7 1 8
REMARK H PARENT
REMARK Flexibility Score: inf
ROOT
ATOM      1  C   UNL     1      22.053  -0.673  26.278  1.00  0.00     0.006 C 
ENDROOT
BRANCH   1   2
ATOM      2  C   UNL     1      22.511   0.738  25.888  1.00  0.00     0.053 C 
BRANCH   2   3
ATOM      3  C   UNL     1      24.005   0.851  25.869  1.00  0.00     0.041 C 
ATOM      4  O   UNL     1      24.721  -0.180  25.961  1.00  0.00    -0.550 OA
ATOM      5  O   UNL     1      24.606   2.094  25.713  1.00  0.00    -0.550 OA
ENDBRANCH   2   3
ENDBRANCH   1   2
BRANCH   1   6
ATOM      6  C   UNL     1      20.959  -0.650  27.361  1.00  0.00     0.000 C 
BRANCH   6   7
ATOM      7  C   UNL     1      21.030  -1.868  28.295  1.00  0.00    -0.003 C 
ATOM      8  C   UNL     1      21.613  -1.527  29.665  1.00  0.00     0.004 C 
ENDBRANCH   6   7
ENDBRANCH   1   6
TORSDOF 4
ENDMDL
MODEL 6
REMARK VINA RESULT:    -3.734      9.349     10.200
REMARK INTER + INTRA:          -4.686
REMARK INTER:                  -4.584
REMARK INTRA:                  -0.102
REMARK UNBOUND:                -0.078
REMARK SMILES CCCCCC(=O)[O-]
REMARK SMILES IDX 4 1 5 2 6 3 7 4 8 5 3 6 2 7 1 8
REMARK H PARENT
REMARK Flexibility Score: inf
ROOT
ATOM      1  C   UNL     1      28.422   6.748  30.052  1.00  0.00     0.006 C 
ENDROOT
BRANCH   1   2
ATOM      2  C   UNL     1      27.313   5.753  30.415  1.00  0.00     0.053 C 
BRANCH   2   3
ATOM      3  C   UNL     1      27.805   4.338  30.388  1.00  0.00     0.041 C 
ATOM      4  O   UNL     1      28.292   3.816  31.424  1.00  0.00    -0.550 OA
ATOM      5  O   UNL     1      27.694   3.586  29.225  1.00  0.00    -0.550 OA
ENDBRANCH   2   3
ENDBRANCH   1   2
BRANCH   1   6
ATOM      6  C   UNL     1      27.973   8.209  30.233  1.00  0.00     0.000 C 
BRANCH   6   7
ATOM      7  C   UNL     1      26.593   8.324  30.897  1.00  0.00    -0.003 C 
ATOM      8  C   UNL     1      25.907   9.659  30.607  1.00  0.00     0.004 C 
ENDBRANCH   6   7
ENDBRANCH   1   6
TORSDOF 4
ENDMDL
MODEL 7
REMARK VINA RESULT:    -3.694      8.184      9.797
REMARK INTER + INTRA:          -4.636
REMARK INTER:                  -4.399
REMARK INTRA:                  -0.237
REMARK UNBOUND:                -0.078
REMARK SMILES CCCCCC(=O)[O-]
REMARK SMILES IDX 4 1 5 2 6 3 7 4 8 5 3 6 2 7 1 8
REMARK H PARENT
REMARK Flexibility Score: inf
ROOT
ATOM      1  C   UNL     1      28.769  -7.660  31.442  1.00  0.00     0.006 C 
ENDROOT
BRANCH   1   2
ATOM      2  C   UNL     1      29.271  -6.291  30.968  1.00  0.00     0.053 C 
BRANCH   2   3
ATOM      3  C   UNL     1      28.170  -5.476  30.360  1.00  0.00     0.041 C 
ATOM      4  O   UNL     1      27.203  -6.042  29.789  1.00  0.00    -0.550 OA
ATOM      5  O   UNL     1      28.197  -4.090  30.457  1.00  0.00    -0.550 OA
ENDBRANCH   2   3
ENDBRANCH   1   2
BRANCH   1   6
ATOM      6  C   UNL     1      29.445  -8.820  30.687  1.00  0.00     0.000 C 
BRANCH   6   7
ATOM      7  C   UNL     1      28.633  -9.282  29.468  1.00  0.00    -0.003 C 
ATOM      8  C   UNL     1      29.238  -8.816  28.145  1.00  0.00     0.004 C 
ENDBRANCH   6   7
ENDBRANCH   1   6
TORSDOF 4
ENDMDL
MODEL 8
REMARK VINA RESULT:    -3.682      8.435      9.750
REMARK INTER + INTRA:          -4.621
REMARK INTER:                  -4.396
REMARK INTRA:                  -0.225
REMARK UNBOUND:                -0.078
REMARK SMILES CCCCCC(=O)[O-]
REMARK SMILES IDX 4 1 5 2 6 3 7 4 8 5 3 6 2 7 1 8
REMARK H PARENT
REMARK Flexibility Score: inf
ROOT
ATOM      1  C   UNL     1      28.881  -7.549  29.074  1.00  0.00     0.006 C 
ENDROOT
BRANCH   1   2
ATOM      2  C   UNL     1      28.026  -6.424  29.670  1.00  0.00     0.053 C 
BRANCH   2   3
ATOM      3  C   UNL     1      28.871  -5.356  30.294  1.00  0.00     0.041 C 
ATOM      4  O   UNL     1      28.431  -4.182  30.404  1.00  0.00    -0.550 OA
ATOM      5  O   UNL     1      30.133  -5.667  30.786  1.00  0.00    -0.550 OA
ENDBRANCH   2   3
ENDBRANCH   1   2
BRANCH   1   6
ATOM      6  C   UNL     1      28.605  -8.907  29.745  1.00  0.00     0.000 C 
BRANCH   6   7
ATOM      7  C   UNL     1      29.500  -9.152  30.969  1.00  0.00    -0.003 C 
ATOM      8  C   UNL     1      28.745  -9.015  32.290  1.00  0.00     0.004 C 
ENDBRANCH   6   7
ENDBRANCH   1   6
TORSDOF 4
ENDMDL
MODEL 9
REMARK VINA RESULT:    -3.612      9.480     10.453
REMARK INTER + INTRA:          -4.534
REMARK INTER:                  -4.362
REMARK INTRA:                  -0.173
REMARK UNBOUND:                -0.078
REMARK SMILES CCCCCC(=O)[O-]
REMARK SMILES IDX 4 1 5 2 6 3 7 4 8 5 3 6 2 7 1 8
REMARK H PARENT
REMARK Flexibility Score: inf
ROOT
ATOM      1  C   UNL     1      28.722  -7.859  31.482  1.00  0.00     0.006 C 
ENDROOT
BRANCH   1   2
ATOM      2  C   UNL     1      29.617  -8.621  30.497  1.00  0.00     0.053 C 
BRANCH   2   3
ATOM      3  C   UNL     1      28.865  -9.031  29.268  1.00  0.00     0.041 C 
ATOM      4  O   UNL     1      27.860  -9.783  29.360  1.00  0.00    -0.550 OA
ATOM      5  O   UNL     1      29.256  -8.554  28.023  1.00  0.00    -0.550 OA
ENDBRANCH   2   3
ENDBRANCH   1   2
BRANCH   1   6
ATOM      6  C   UNL     1      28.576  -6.373  31.106  1.00  0.00     0.000 C 
BRANCH   6   7
ATOM      7  C   UNL     1      29.903  -5.748  30.649  1.00  0.00    -0.003 C 
ATOM      8  C   UNL     1      29.711  -4.406  29.944  1.00  0.00     0.004 C 
ENDBRANCH   6   7
ENDBRANCH   1   6
TORSDOF 4
ENDMDL
