MODEL 1
REMARK VINA RESULT:    -4.094      0.000      0.000
REMARK INTER + INTRA:          -5.436
REMARK INTER:                  -5.291
REMARK INTRA:                  -0.146
REMARK UNBOUND:                -0.146
REMARK SMILES CCCCCCC(C)=O
REMARK SMILES IDX 4 1 3 2 2 3 1 4 5 5 6 6 7 7 9 8 8 9
REMARK H PARENT
REMARK Flexibility Score: inf
ROOT
ATOM      1  C   UNL     1      26.576  58.502  -9.161  1.00  0.00     0.000 C 
ENDROOT
BRANCH   1   2
ATOM      2  C   UNL     1      26.827  59.973  -8.792  1.00  0.00    -0.000 C 
BRANCH   2   3
ATOM      3  C   UNL     1      28.286  60.362  -9.059  1.00  0.00    -0.003 C 
ATOM      4  C   UNL     1      28.877  59.536 -10.199  1.00  0.00     0.004 C 
ENDBRANCH   2   3
ENDBRANCH   1   2
BRANCH   1   5
ATOM      5  C   UNL     1      25.371  57.903  -8.418  1.00  0.00     0.008 C 
BRANCH   5   6
ATOM      6  C   UNL     1      24.976  56.518  -8.951  1.00  0.00     0.075 C 
BRANCH   6   7
ATOM      7  C   UNL     1      24.849  55.530  -7.821  1.00  0.00     0.129 C 
ATOM      8  O   UNL     1      25.849  54.976  -7.391  1.00  0.00    -0.300 OA
ATOM      9  C   UNL     1      23.516  55.199  -7.217  1.00  0.00     0.087 C 
ENDBRANCH   6   7
ENDBRANCH   5   6
ENDBRANCH   1   5
TORSDOF 5
ENDMDL
MODEL 2
REMARK VINA RESULT:    -3.917      2.230      5.473
REMARK INTER + INTRA:          -5.208
REMARK INTER:                  -5.105
REMARK INTRA:                  -0.103
REMARK UNBOUND:                -0.146
REMARK SMILES CCCCCCC(C)=O
REMARK SMILES IDX 4 1 3 2 2 3 1 4 5 5 6 6 7 7 9 8 8 9
REMARK H PARENT
REMARK Flexibility Score: inf
ROOT
ATOM      1  C   UNL     1      25.469  57.987  -8.470  1.00  0.00     0.000 C 
ENDROOT
BRANCH   1   2
ATOM      2  C   UNL     1      25.113  56.510  -8.700  1.00  0.00    -0.000 C 
BRANCH   2   3
ATOM      3  C   UNL     1      24.988  55.762  -7.368  1.00  0.00    -0.003 C 
ATOM      4  C   UNL     1      23.629  55.080  -7.244  1.00  0.00     0.004 C 
ENDBRANCH   2   3
ENDBRANCH   1   2
BRANCH   1   5
ATOM      5  C   UNL     1      26.654  58.453  -9.330  1.00  0.00     0.008 C 
BRANCH   5   6
ATOM      6  C   UNL     1      27.047  59.912  -9.057  1.00  0.00     0.075 C 
BRANCH   6   7
ATOM      7  C   UNL     1      28.537  60.094  -9.185  1.00  0.00     0.129 C 
ATOM      8  O   UNL     1      29.154  60.644  -8.285  1.00  0.00    -0.300 OA
ATOM      9  C   UNL     1      29.281  59.626 -10.400  1.00  0.00     0.087 C 
ENDBRANCH   6   7
ENDBRANCH   5   6
ENDBRANCH   1   5
TORSDOF 5
ENDMDL
MODEL 3
REMARK VINA RESULT:    -3.769      2.166      5.348
REMARK INTER + INTRA:          -5.016
REMARK INTER:                  -4.861
REMARK INTRA:                  -0.155
REMARK UNBOUND:                -0.146
REMARK SMILES CCCCCCC(C)=O
REMARK SMILES IDX 4 1 3 2 2 3 1 4 5 5 6 6 7 7 9 8 8 9
REMARK H PARENT
REMARK Flexibility Score: inf
ROOT
ATOM      1  C   UNL     1      26.642  58.468  -9.344  1.00  0.00     0.000 C 
ENDROOT
BRANCH   1   2
ATOM      2  C   UNL     1      25.511  57.929  -8.453  1.00  0.00    -0.000 C 
BRANCH   2   3
ATOM      3  C   UNL     1      25.241  56.449  -8.747  1.00  0.00    -0.003 C 
ATOM      4  C   UNL     1      24.992  55.668  -7.459  1.00  0.00     0.004 C 
ENDBRANCH   2   3
ENDBRANCH   1   2
BRANCH   1   5
ATOM      5  C   UNL     1      27.103  59.874  -8.931  1.00  0.00     0.008 C 
BRANCH   5   6
ATOM      6  C   UNL     1      28.153  60.459  -9.888  1.00  0.00     0.075 C 
BRANCH   6   7
ATOM      7  C   UNL     1      29.443  59.687  -9.797  1.00  0.00     0.129 C 
ATOM      8  O   UNL     1      29.915  59.433  -8.699  1.00  0.00    -0.300 OA
ATOM      9  C   UNL     1      30.171  59.232 -11.027  1.00  0.00     0.087 C 
ENDBRANCH   6   7
ENDBRANCH   5   6
ENDBRANCH   1   5
TORSDOF 5
ENDMDL
MODEL 4
REMARK VINA RESULT:    -3.766     16.841     19.102
REMARK INTER + INTRA:          -5.013
REMARK INTER:                  -4.467
REMARK INTRA:                  -0.546
REMARK UNBOUND:                -0.146
REMARK SMILES CCCCCCC(C)=O
REMARK SMILES IDX 4 1 3 2 2 3 1 4 5 5 6 6 7 7 9 8 8 9
REMARK H PARENT
REMARK Flexibility Score: inf
ROOT
ATOM      1  C   UNL     1      17.407  42.189   1.332  1.00  0.00     0.000 C 
ENDROOT
BRANCH   1   2
ATOM      2  C   UNL     1      16.096  42.919   1.000  1.00  0.00    -0.000 C 
BRANCH   2   3
ATOM      3  C   UNL     1      16.086  44.327   1.606  1.00  0.00    -0.003 C 
ATOM      4  C   UNL     1      15.713  45.374   0.560  1.00  0.00     0.004 C 
ENDBRANCH   2   3
ENDBRANCH   1   2
BRANCH   1   5
ATOM      5  C   UNL     1      18.471  42.354   0.234  1.00  0.00     0.008 C 
BRANCH   5   6
ATOM      6  C   UNL     1      19.823  42.827   0.787  1.00  0.00     0.075 C 
BRANCH   6   7
ATOM      7  C   UNL     1      19.757  44.278   1.184  1.00  0.00     0.129 C 
ATOM      8  O   UNL     1      19.937  44.591   2.351  1.00  0.00    -0.300 OA
ATOM      9  C   UNL     1      19.462  45.352   0.179  1.00  0.00     0.087 C 
ENDBRANCH   6   7
ENDBRANCH   5   6
ENDBRANCH   1   5
TORSDOF 5
ENDMDL
MODEL 5
REMARK VINA RESULT:    -3.673     16.969     18.745
REMARK INTER + INTRA:          -4.893
REMARK INTER:                  -4.418
REMARK INTRA:                  -0.475
REMARK UNBOUND:                -0.146
REMARK SMILES CCCCCCC(C)=O
REMARK SMILES IDX 4 1 3 2 2 3 1 4 5 5 6 6 7 7 9 8 8 9
REMARK H PARENT
REMARK Flexibility Score: inf
ROOT
ATOM      1  C   UNL     1      17.857  42.703   1.432  1.00  0.00     0.000 C 
ENDROOT
BRANCH   1   2
ATOM      2  C   UNL     1      18.755  43.798   2.031  1.00  0.00    -0.000 C 
BRANCH   2   3
ATOM      3  C   UNL     1      19.890  44.163   1.067  1.00  0.00    -0.003 C 
ATOM      4  C   UNL     1      19.513  45.363   0.202  1.00  0.00     0.004 C 
ENDBRANCH   2   3
ENDBRANCH   1   2
BRANCH   1   5
ATOM      5  C   UNL     1      16.493  43.242   0.974  1.00  0.00     0.008 C 
BRANCH   5   6
ATOM      6  C   UNL     1      16.118  44.565   1.659  1.00  0.00     0.075 C 
BRANCH   6   7
ATOM      7  C   UNL     1      15.433  45.490   0.688  1.00  0.00     0.129 C 
ATOM      8  O   UNL     1      14.408  46.065   1.026  1.00  0.00    -0.300 OA
ATOM      9  C   UNL     1      15.973  45.716  -0.692  1.00  0.00     0.087 C 
ENDBRANCH   6   7
ENDBRANCH   5   6
ENDBRANCH   1   5
TORSDOF 5
ENDMDL
MODEL 6
REMARK VINA RESULT:    -3.653     16.802     18.846
REMARK INTER + INTRA:          -4.867
REMARK INTER:                  -4.400
REMARK INTRA:                  -0.467
REMARK UNBOUND:                -0.146
REMARK SMILES CCCCCCC(C)=O
REMARK SMILES IDX 4 1 3 2 2 3 1 4 5 5 6 6 7 7 9 8 8 9
REMARK H PARENT
REMARK Flexibility Score: inf
ROOT
ATOM      1  C   UNL     1      16.036  43.184   1.346  1.00  0.00     0.000 C 
ENDROOT
BRANCH   1   2
ATOM      2  C   UNL     1      15.940  44.686   1.656  1.00  0.00    -0.000 C 
BRANCH   2   3
ATOM      3  C   UNL     1      15.129  45.417   0.579  1.00  0.00    -0.003 C 
ATOM      4  C   UNL     1      15.987  45.716  -0.648  1.00  0.00     0.004 C 
ENDBRANCH   2   3
ENDBRANCH   1   2
BRANCH   1   5
ATOM      5  C   UNL     1      17.477  42.727   1.070  1.00  0.00     0.008 C 
BRANCH   5   6
ATOM      6  C   UNL     1      18.518  43.559   1.833  1.00  0.00     0.075 C 
BRANCH   6   7
ATOM      7  C   UNL     1      19.604  44.034   0.904  1.00  0.00     0.129 C 
ATOM      8  O   UNL     1      20.588  43.333   0.721  1.00  0.00    -0.300 OA
ATOM      9  C   UNL     1      19.512  45.357   0.203  1.00  0.00     0.087 C 
ENDBRANCH   6   7
ENDBRANCH   5   6
ENDBRANCH   1   5
TORSDOF 5
ENDMDL
MODEL 7
REMARK VINA RESULT:    -3.588     17.564     19.377
REMARK INTER + INTRA:          -4.782
REMARK INTER:                  -4.252
REMARK INTRA:                  -0.530
REMARK UNBOUND:                -0.146
REMARK SMILES CCCCCCC(C)=O
REMARK SMILES IDX 4 1 3 2 2 3 1 4 5 5 6 6 7 7 9 8 8 9
REMARK H PARENT
REMARK Flexibility Score: inf
ROOT
ATOM      1  C   UNL     1      18.874  42.429   0.322  1.00  0.00     0.000 C 
ENDROOT
BRANCH   1   2
ATOM      2  C   UNL     1      19.218  42.897   1.745  1.00  0.00    -0.000 C 
BRANCH   2   3
ATOM      3  C   UNL     1      19.720  44.345   1.739  1.00  0.00    -0.003 C 
ATOM      4  C   UNL     1      19.405  45.032   0.413  1.00  0.00     0.004 C 
ENDBRANCH   2   3
ENDBRANCH   1   2
BRANCH   1   5
ATOM      5  C   UNL     1      17.464  41.826   0.220  1.00  0.00     0.008 C 
BRANCH   5   6
ATOM      6  C   UNL     1      16.389  42.880  -0.083  1.00  0.00     0.075 C 
BRANCH   6   7
ATOM      7  C   UNL     1      15.708  43.324   1.185  1.00  0.00     0.129 C 
ATOM      8  O   UNL     1      15.109  42.504   1.865  1.00  0.00    -0.300 OA
ATOM      9  C   UNL     1      15.738  44.757   1.629  1.00  0.00     0.087 C 
ENDBRANCH   6   7
ENDBRANCH   5   6
ENDBRANCH   1   5
TORSDOF 5
ENDMDL
MODEL 8
REMARK VINA RESULT:    -3.405     17.504     19.076
REMARK INTER + INTRA:          -4.546
REMARK INTER:                  -3.993
REMARK INTRA:                  -0.553
REMARK UNBOUND:                -0.146
REMARK SMILES CCCCCCC(C)=O
REMARK SMILES IDX 4 1 3 2 2 3 1 4 5 5 6 6 7 7 9 8 8 9
REMARK H PARENT
REMARK Flexibility Score: inf
ROOT
ATOM      1  C   UNL     1      17.968  45.004   0.247  1.00  0.00     0.000 C 
ENDROOT
BRANCH   1   2
ATOM      2  C   UNL     1      19.485  45.079   0.486  1.00  0.00    -0.000 C 
BRANCH   2   3
ATOM      3  C   UNL     1      19.914  44.104   1.588  1.00  0.00    -0.003 C 
ATOM      4  C   UNL     1      20.631  42.890   1.001  1.00  0.00     0.004 C 
ENDBRANCH   2   3
ENDBRANCH   1   2
BRANCH   1   5
ATOM      5  C   UNL     1      17.215  44.357   1.420  1.00  0.00     0.008 C 
BRANCH   5   6
ATOM      6  C   UNL     1      16.230  43.270   0.964  1.00  0.00     0.075 C 
BRANCH   6   7
ATOM      7  C   UNL     1      16.905  41.924   0.924  1.00  0.00     0.129 C 
ATOM      8  O   UNL     1      17.273  41.405   1.967  1.00  0.00    -0.300 OA
ATOM      9  C   UNL     1      17.149  41.209  -0.371  1.00  0.00     0.087 C 
ENDBRANCH   6   7
ENDBRANCH   5   6
ENDBRANCH   1   5
TORSDOF 5
ENDMDL
MODEL 9
REMARK VINA RESULT:    -3.365      4.158      6.341
REMARK INTER + INTRA:          -4.495
REMARK INTER:                  -4.246
REMARK INTRA:                  -0.249
REMARK UNBOUND:                -0.146
REMARK SMILES CCCCCCC(C)=O
REMARK SMILES IDX 4 1 3 2 2 3 1 4 5 5 6 6 7 7 9 8 8 9
REMARK H PARENT
REMARK Flexibility Score: inf
ROOT
ATOM      1  C   UNL     1      30.201  59.668  -9.486  1.00  0.00     0.000 C 
ENDROOT
BRANCH   1   2
ATOM      2  C   UNL     1      28.974  60.338 -10.126  1.00  0.00    -0.000 C 
BRANCH   2   3
ATOM      3  C   UNL     1      27.740  60.187  -9.230  1.00  0.00    -0.003 C 
ATOM      4  C   UNL     1      27.050  58.845  -9.462  1.00  0.00     0.004 C 
ENDBRANCH   2   3
ENDBRANCH   1   2
BRANCH   1   5
ATOM      5  C   UNL     1      31.116  58.996 -10.521  1.00  0.00     0.008 C 
BRANCH   5   6
ATOM      6  C   UNL     1      30.433  58.810 -11.884  1.00  0.00     0.075 C 
BRANCH   6   7
ATOM      7  C   UNL     1      31.298  57.992 -12.806  1.00  0.00     0.129 C 
ATOM      8  O   UNL     1      32.285  58.502 -13.315  1.00  0.00    -0.300 OA
ATOM      9  C   UNL     1      30.970  56.563 -13.123  1.00  0.00     0.087 C 
ENDBRANCH   6   7
ENDBRANCH   5   6
ENDBRANCH   1   5
TORSDOF 5
ENDMDL
