MODEL 1
REMARK VINA RESULT:    -2.280      0.000      0.000
REMARK INTER + INTRA:          -4.315
REMARK INTER:                  -3.346
REMARK INTRA:                  -0.968
REMARK UNBOUND:                -0.968
REMARK SMILES CC(C)(O)CC[C@H](O)[C@](C)(O)[C@H]1CC[C@]2(O)C3=CC(=O)[C@H]4C[C@@H](O)[C@@H](O)C[C@@]4(C)[C@@H]3CC[C@]12C
REMARK SMILES IDX 6 1 7 2 9 3 10 4 12 5 34 6 33 7 32 8 15 9 31 10 17 11 14 12
REMARK SMILES IDX 13 13 30 14 18 15 28 16 19 17 21 18 27 19 29 20 20 21 22 22
REMARK SMILES IDX 25 23 23 24 16 25 26 27 24 29 11 31 8 33 5 35 2 36 1 37 3 38
REMARK SMILES IDX 4 39
REMARK H PARENT 16 26 26 28 24 30 11 32 8 34 4 40
REMARK Flexibility Score: inf
ROOT
ATOM      1  C   UNL     1      31.256  56.369  12.153  1.00  0.00     0.038 C 
ENDROOT
BRANCH   1   2
ATOM      2  C   UNL     1      30.210  56.943  11.120  1.00  0.00     0.146 C 
BRANCH   2   3
ATOM      3  C   UNL     1      30.779  57.850   9.911  1.00  0.00     0.091 C 
ATOM      4  C   UNL     1      29.901  58.045   8.627  1.00  0.00     0.045 C 
BRANCH   3   5
ATOM      5  C   UNL     1      31.292  59.242  10.468  1.00  0.00     0.032 C 
ATOM      6  C   UNL     1      28.855  59.885  11.457  1.00  0.00     0.015 C 
ATOM      7  C   UNL     1      30.357  60.276  11.244  1.00  0.00     0.006 C 
ATOM      8  C   UNL     1      30.998  60.479  12.685  1.00  0.00     0.011 C 
ATOM      9  C   UNL     1      30.440  61.537  10.322  1.00  0.00     0.092 C 
ATOM     10  C   UNL     1      31.416  61.890  13.050  1.00  0.00     0.009 C 
ATOM     11  C   UNL     1      30.058  62.807  11.113  1.00  0.00    -0.031 C 
ATOM     12  C   UNL     1      31.870  61.541   9.775  1.00  0.00     0.041 C 
ATOM     13  C   UNL     1      32.125  60.089   9.443  1.00  0.00     0.010 C 
ATOM     14  C   UNL     1      30.318  62.884  12.627  1.00  0.00     0.025 C 
ATOM     15  C   UNL     1      29.177  63.680  10.634  1.00  0.00     0.050 C 
ATOM     16  C   UNL     1      30.489  64.349  13.170  1.00  0.00    -0.013 C 
ATOM     17  C   UNL     1      28.945  65.011  11.240  1.00  0.00     0.159 C 
ATOM     18  C   UNL     1      29.388  65.325  12.641  1.00  0.00     0.070 C 
ATOM     19  C   UNL     1      30.411  64.367  14.738  1.00  0.00     0.042 C 
ATOM     20  C   UNL     1      31.880  64.900  12.738  1.00  0.00     0.013 C 
ATOM     21  O   UNL     1      28.315  65.905  10.606  1.00  0.00    -0.295 OA
ATOM     22  C   UNL     1      28.162  65.525  13.578  1.00  0.00     0.047 C 
ATOM     23  C   UNL     1      29.043  63.826  15.274  1.00  0.00     0.143 C 
ATOM     24  C   UNL     1      27.822  64.266  14.397  1.00  0.00     0.143 C 
BRANCH   9  25
ATOM     25  O   UNL     1      29.588  61.348   9.212  1.00  0.00    -0.385 OA
ATOM     26  H   UNL     1      29.836  60.484   8.765  1.00  0.00     0.211 HD
ENDBRANCH   9  25
BRANCH  23  27
ATOM     27  O   UNL     1      29.126  62.444  15.441  1.00  0.00    -0.390 OA
ATOM     28  H   UNL     1      30.056  62.243  15.778  1.00  0.00     0.211 HD
ENDBRANCH  23  27
BRANCH  24  29
ATOM     29  O   UNL     1      27.356  63.235  13.564  1.00  0.00    -0.390 OA
ATOM     30  H   UNL     1      26.553  63.581  13.085  1.00  0.00     0.211 HD
ENDBRANCH  24  29
ENDBRANCH   3   5
BRANCH   3  31
ATOM     31  O   UNL     1      31.993  57.200   9.520  1.00  0.00    -0.387 OA
ATOM     32  H   UNL     1      31.903  56.738   8.639  1.00  0.00     0.211 HD
ENDBRANCH   3  31
ENDBRANCH   2   3
BRANCH   2  33
ATOM     33  O   UNL     1      29.270  55.988  10.663  1.00  0.00    -0.390 OA
ATOM     34  H   UNL     1      29.584  55.551   9.812  1.00  0.00     0.211 HD
ENDBRANCH   2  33
ENDBRANCH   1   2
BRANCH   1  35
ATOM     35  C   UNL     1      30.634  55.875  13.512  1.00  0.00     0.037 C 
BRANCH  35  36
ATOM     36  C   UNL     1      30.729  56.843  14.728  1.00  0.00     0.059 C 
ATOM     37  C   UNL     1      32.031  57.708  14.699  1.00  0.00     0.042 C 
ATOM     38  C   UNL     1      30.727  56.030  16.016  1.00  0.00     0.042 C 
BRANCH  36  39
ATOM     39  O   UNL     1      29.527  57.599  14.806  1.00  0.00    -0.390 OA
ATOM     40  H   UNL     1      29.606  58.265  15.536  1.00  0.00     0.211 HD
ENDBRANCH  36  39
ENDBRANCH  35  36
ENDBRANCH   1  35
TORSDOF 11
ENDMDL
MODEL 2
REMARK VINA RESULT:    -2.140      1.870      7.707
REMARK INTER + INTRA:          -4.109
REMARK INTER:                  -2.711
REMARK INTRA:                  -1.398
REMARK UNBOUND:                -0.968
REMARK SMILES CC(C)(O)CC[C@H](O)[C@](C)(O)[C@H]1CC[C@]2(O)C3=CC(=O)[C@H]4C[C@@H](O)[C@@H](O)C[C@@]4(C)[C@@H]3CC[C@]12C
REMARK SMILES IDX 6 1 7 2 9 3 10 4 12 5 34 6 33 7 32 8 15 9 31 10 17 11 14 12
REMARK SMILES IDX 13 13 30 14 18 15 28 16 19 17 21 18 27 19 29 20 20 21 22 22
REMARK SMILES IDX 25 23 23 24 16 25 26 27 24 29 11 31 8 33 5 35 2 36 1 37 3 38
REMARK SMILES IDX 4 39
REMARK H PARENT 16 26 26 28 24 30 11 32 8 34 4 40
REMARK Flexibility Score: inf
ROOT
ATOM      1  C   UNL     1      27.275  65.756  13.414  1.00  0.00     0.038 C 
ENDROOT
BRANCH   1   2
ATOM      2  C   UNL     1      27.456  64.393  14.188  1.00  0.00     0.146 C 
BRANCH   2   3
ATOM      3  C   UNL     1      28.949  63.999  14.662  1.00  0.00     0.091 C 
ATOM      4  C   UNL     1      29.152  63.341  16.070  1.00  0.00     0.045 C 
BRANCH   3   5
ATOM      5  C   UNL     1      29.676  63.160  13.530  1.00  0.00     0.032 C 
ATOM      6  C   UNL     1      28.141  60.978  13.989  1.00  0.00     0.015 C 
ATOM      7  C   UNL     1      29.294  61.653  13.172  1.00  0.00     0.006 C 
ATOM      8  C   UNL     1      28.853  61.645  11.644  1.00  0.00     0.011 C 
ATOM      9  C   UNL     1      30.639  60.906  13.455  1.00  0.00     0.092 C 
ATOM     10  C   UNL     1      29.660  60.767  10.708  1.00  0.00     0.009 C 
ATOM     11  C   UNL     1      30.677  59.561  12.696  1.00  0.00    -0.031 C 
ATOM     12  C   UNL     1      31.738  61.890  13.047  1.00  0.00     0.041 C 
ATOM     13  C   UNL     1      31.243  63.214  13.582  1.00  0.00     0.010 C 
ATOM     14  C   UNL     1      29.916  59.399  11.369  1.00  0.00     0.025 C 
ATOM     15  C   UNL     1      31.012  58.431  13.311  1.00  0.00     0.050 C 
ATOM     16  C   UNL     1      30.513  58.294  10.425  1.00  0.00    -0.013 C 
ATOM     17  C   UNL     1      31.279  57.166  12.589  1.00  0.00     0.159 C 
ATOM     18  C   UNL     1      30.823  56.957  11.173  1.00  0.00     0.070 C 
ATOM     19  C   UNL     1      29.505  57.955   9.268  1.00  0.00     0.042 C 
ATOM     20  C   UNL     1      31.835  58.817   9.791  1.00  0.00     0.013 C 
ATOM     21  O   UNL     1      31.856  56.203  13.172  1.00  0.00    -0.295 OA
ATOM     22  C   UNL     1      29.706  55.875  11.106  1.00  0.00     0.047 C 
ATOM     23  C   UNL     1      28.136  57.421   9.807  1.00  0.00     0.143 C 
ATOM     24  C   UNL     1      28.290  56.479  11.049  1.00  0.00     0.143 C 
BRANCH   9  25
ATOM     25  O   UNL     1      30.770  60.714  14.847  1.00  0.00    -0.385 OA
ATOM     26  H   UNL     1      29.877  60.874  15.276  1.00  0.00     0.211 HD
ENDBRANCH   9  25
BRANCH  23  27
ATOM     27  O   UNL     1      27.279  58.497  10.040  1.00  0.00    -0.390 OA
ATOM     28  H   UNL     1      27.858  59.288  10.277  1.00  0.00     0.211 HD
ENDBRANCH  23  27
BRANCH  24  29
ATOM     29  O   UNL     1      27.968  57.120  12.256  1.00  0.00    -0.390 OA
ATOM     30  H   UNL     1      27.377  56.503  12.771  1.00  0.00     0.211 HD
ENDBRANCH  24  29
ENDBRANCH   3   5
BRANCH   3  31
ATOM     31  O   UNL     1      29.666  65.237  14.645  1.00  0.00    -0.387 OA
ATOM     32  H   UNL     1      29.796  65.606  15.565  1.00  0.00     0.211 HD
ENDBRANCH   3  31
ENDBRANCH   2   3
BRANCH   2  33
ATOM     33  O   UNL     1      26.507  64.186  15.219  1.00  0.00    -0.390 OA
ATOM     34  H   UNL     1      25.567  64.281  14.869  1.00  0.00     0.211 HD
ENDBRANCH   2  33
ENDBRANCH   1   2
BRANCH   1  35
ATOM     35  C   UNL     1      27.361  65.639  11.847  1.00  0.00     0.037 C 
BRANCH  35  36
ATOM     36  C   UNL     1      28.638  66.208  11.163  1.00  0.00     0.059 C 
ATOM     37  C   UNL     1      28.306  67.316  10.112  1.00  0.00     0.042 C 
ATOM     38  C   UNL     1      29.370  65.079  10.449  1.00  0.00     0.042 C 
BRANCH  36  39
ATOM     39  O   UNL     1      29.554  66.617  12.171  1.00  0.00    -0.390 OA
ATOM     40  H   UNL     1      30.253  67.191  11.766  1.00  0.00     0.211 HD
ENDBRANCH  36  39
ENDBRANCH  35  36
ENDBRANCH   1  35
TORSDOF 11
ENDMDL
MODEL 3
REMARK VINA RESULT:    -2.083      2.791      6.462
REMARK INTER + INTRA:          -4.026
REMARK INTER:                  -2.862
REMARK INTRA:                  -1.164
REMARK UNBOUND:                -0.968
REMARK SMILES CC(C)(O)CC[C@H](O)[C@](C)(O)[C@H]1CC[C@]2(O)C3=CC(=O)[C@H]4C[C@@H](O)[C@@H](O)C[C@@]4(C)[C@@H]3CC[C@]12C
REMARK SMILES IDX 6 1 7 2 9 3 10 4 12 5 34 6 33 7 32 8 15 9 31 10 17 11 14 12
REMARK SMILES IDX 13 13 30 14 18 15 28 16 19 17 21 18 27 19 29 20 20 21 22 22
REMARK SMILES IDX 25 23 23 24 16 25 26 27 24 29 11 31 8 33 5 35 2 36 1 37 3 38
REMARK SMILES IDX 4 39
REMARK H PARENT 16 26 26 28 24 30 11 32 8 34 4 40
REMARK Flexibility Score: inf
ROOT
ATOM      1  C   UNL     1      30.913  60.238  16.412  1.00  0.00     0.038 C 
ENDROOT
BRANCH   1   2
ATOM      2  C   UNL     1      30.088  58.922  16.694  1.00  0.00     0.146 C 
BRANCH   2   3
ATOM      3  C   UNL     1      30.690  57.532  16.134  1.00  0.00     0.091 C 
ATOM      4  C   UNL     1      29.874  56.210  16.342  1.00  0.00     0.045 C 
BRANCH   3   5
ATOM      5  C   UNL     1      31.129  57.700  14.620  1.00  0.00     0.032 C 
ATOM      6  C   UNL     1      28.636  58.418  13.848  1.00  0.00     0.015 C 
ATOM      7  C   UNL     1      30.128  58.140  13.459  1.00  0.00     0.006 C 
ATOM      8  C   UNL     1      30.710  59.485  12.842  1.00  0.00     0.011 C 
ATOM      9  C   UNL     1      30.194  56.911  12.495  1.00  0.00     0.092 C 
ATOM     10  C   UNL     1      31.059  59.460  11.367  1.00  0.00     0.009 C 
ATOM     11  C   UNL     1      29.736  57.315  11.076  1.00  0.00    -0.031 C 
ATOM     12  C   UNL     1      31.641  56.417  12.572  1.00  0.00     0.041 C 
ATOM     13  C   UNL     1      31.964  56.502  14.046  1.00  0.00     0.010 C 
ATOM     14  C   UNL     1      29.939  58.755  10.577  1.00  0.00     0.025 C 
ATOM     15  C   UNL     1      28.839  56.594  10.409  1.00  0.00     0.050 C 
ATOM     16  C   UNL     1      30.034  58.880   9.014  1.00  0.00    -0.013 C 
ATOM     17  C   UNL     1      28.535  56.808   8.976  1.00  0.00     0.159 C 
ATOM     18  C   UNL     1      28.916  58.079   8.272  1.00  0.00     0.070 C 
ATOM     19  C   UNL     1      29.899  60.382   8.573  1.00  0.00     0.042 C 
ATOM     20  C   UNL     1      31.417  58.347   8.537  1.00  0.00     0.013 C 
ATOM     21  O   UNL     1      27.893  55.939   8.319  1.00  0.00    -0.295 OA
ATOM     22  C   UNL     1      27.650  58.897   7.882  1.00  0.00     0.047 C 
ATOM     23  C   UNL     1      28.536  61.013   9.011  1.00  0.00     0.143 C 
ATOM     24  C   UNL     1      27.331  60.020   8.884  1.00  0.00     0.143 C 
BRANCH   9  25
ATOM     25  O   UNL     1      29.390  55.875  13.019  1.00  0.00    -0.385 OA
ATOM     26  H   UNL     1      28.681  56.286  13.597  1.00  0.00     0.211 HD
ENDBRANCH   9  25
BRANCH  23  27
ATOM     27  O   UNL     1      28.666  61.554  10.290  1.00  0.00    -0.390 OA
ATOM     28  H   UNL     1      29.087  60.843  10.869  1.00  0.00     0.211 HD
ENDBRANCH  23  27
BRANCH  24  29
ATOM     29  O   UNL     1      26.935  59.491  10.124  1.00  0.00    -0.390 OA
ATOM     30  H   UNL     1      26.636  58.554   9.964  1.00  0.00     0.211 HD
ENDBRANCH  24  29
ENDBRANCH   3   5
BRANCH   3  31
ATOM     31  O   UNL     1      31.943  57.388  16.811  1.00  0.00    -0.387 OA
ATOM     32  H   UNL     1      31.954  56.590  17.412  1.00  0.00     0.211 HD
ENDBRANCH   3  31
ENDBRANCH   2   3
BRANCH   2  33
ATOM     33  O   UNL     1      29.642  58.799  18.032  1.00  0.00    -0.390 OA
ATOM     34  H   UNL     1      28.780  59.302  18.174  1.00  0.00     0.211 HD
ENDBRANCH   2  33
ENDBRANCH   1   2
BRANCH   1  35
ATOM     35  C   UNL     1      30.046  61.477  15.977  1.00  0.00     0.037 C 
BRANCH  35  36
ATOM     36  C   UNL     1      29.234  62.200  17.090  1.00  0.00     0.059 C 
ATOM     37  C   UNL     1      27.702  61.905  16.995  1.00  0.00     0.042 C 
ATOM     38  C   UNL     1      29.438  63.704  16.962  1.00  0.00     0.042 C 
BRANCH  36  39
ATOM     39  O   UNL     1      29.810  61.890  18.353  1.00  0.00    -0.390 OA
ATOM     40  H   UNL     1      30.184  62.715  18.754  1.00  0.00     0.211 HD
ENDBRANCH  36  39
ENDBRANCH  35  36
ENDBRANCH   1  35
TORSDOF 11
ENDMDL
MODEL 4
REMARK VINA RESULT:    -2.028      2.367      7.469
REMARK INTER + INTRA:          -3.944
REMARK INTER:                  -2.825
REMARK INTRA:                  -1.119
REMARK UNBOUND:                -0.968
REMARK SMILES CC(C)(O)CC[C@H](O)[C@](C)(O)[C@H]1CC[C@]2(O)C3=CC(=O)[C@H]4C[C@@H](O)[C@@H](O)C[C@@]4(C)[C@@H]3CC[C@]12C
REMARK SMILES IDX 6 1 7 2 9 3 10 4 12 5 34 6 33 7 32 8 15 9 31 10 17 11 14 12
REMARK SMILES IDX 13 13 30 14 18 15 28 16 19 17 21 18 27 19 29 20 20 21 22 22
REMARK SMILES IDX 25 23 23 24 16 25 26 27 24 29 11 31 8 33 5 35 2 36 1 37 3 38
REMARK SMILES IDX 4 39
REMARK H PARENT 16 26 26 28 24 30 11 32 8 34 4 40
REMARK Flexibility Score: inf
ROOT
ATOM      1  C   UNL     1      26.247  64.764  11.384  1.00  0.00     0.038 C 
ENDROOT
BRANCH   1   2
ATOM      2  C   UNL     1      27.685  65.140  10.852  1.00  0.00     0.146 C 
BRANCH   2   3
ATOM      3  C   UNL     1      28.949  64.724  11.767  1.00  0.00     0.091 C 
ATOM      4  C   UNL     1      28.722  64.427  13.289  1.00  0.00     0.045 C 
BRANCH   3   5
ATOM      5  C   UNL     1      29.762  63.553  11.073  1.00  0.00     0.032 C 
ATOM      6  C   UNL     1      28.070  61.657  12.007  1.00  0.00     0.015 C 
ATOM      7  C   UNL     1      29.348  62.016  11.175  1.00  0.00     0.006 C 
ATOM      8  C   UNL     1      29.094  61.513   9.688  1.00  0.00     0.011 C 
ATOM      9  C   UNL     1      30.606  61.388  11.859  1.00  0.00     0.092 C 
ATOM     10  C   UNL     1      29.961  60.368   9.201  1.00  0.00     0.009 C 
ATOM     11  C   UNL     1      30.665  59.869  11.587  1.00  0.00    -0.031 C 
ATOM     12  C   UNL     1      31.798  62.173  11.303  1.00  0.00     0.041 C 
ATOM     13  C   UNL     1      31.312  63.604  11.311  1.00  0.00     0.010 C 
ATOM     14  C   UNL     1      30.063  59.289  10.297  1.00  0.00     0.025 C 
ATOM     15  C   UNL     1      30.863  58.999  12.574  1.00  0.00     0.050 C 
ATOM     16  C   UNL     1      30.710  57.929   9.847  1.00  0.00    -0.013 C 
ATOM     17  C   UNL     1      31.148  57.565  12.341  1.00  0.00     0.159 C 
ATOM     18  C   UNL     1      30.856  56.908  11.022  1.00  0.00     0.070 C 
ATOM     19  C   UNL     1      29.833  57.242   8.740  1.00  0.00     0.042 C 
ATOM     20  C   UNL     1      32.125  58.202   9.258  1.00  0.00     0.013 C 
ATOM     21  O   UNL     1      31.598  56.840  13.274  1.00  0.00    -0.295 OA
ATOM     22  C   UNL     1      29.699  55.876  11.161  1.00  0.00     0.047 C 
ATOM     23  C   UNL     1      28.382  56.928   9.238  1.00  0.00     0.143 C 
ATOM     24  C   UNL     1      28.335  56.442  10.726  1.00  0.00     0.143 C 
BRANCH   9  25
ATOM     25  O   UNL     1      30.558  61.662  13.243  1.00  0.00    -0.385 OA
ATOM     26  H   UNL     1      31.301  62.299  13.467  1.00  0.00     0.211 HD
ENDBRANCH   9  25
BRANCH  23  27
ATOM     27  O   UNL     1      27.562  58.029   8.995  1.00  0.00    -0.390 OA
ATOM     28  H   UNL     1      27.731  58.319   8.044  1.00  0.00     0.211 HD
ENDBRANCH  23  27
BRANCH  24  29
ATOM     29  O   UNL     1      27.903  57.447  11.608  1.00  0.00    -0.390 OA
ATOM     30  H   UNL     1      26.927  57.576  11.455  1.00  0.00     0.211 HD
ENDBRANCH  24  29
ENDBRANCH   3   5
BRANCH   3  31
ATOM     31  O   UNL     1      29.845  65.834  11.662  1.00  0.00    -0.387 OA
ATOM     32  H   UNL     1      30.802  65.547  11.692  1.00  0.00     0.211 HD
ENDBRANCH   3  31
ENDBRANCH   2   3
BRANCH   2  33
ATOM     33  O   UNL     1      27.896  64.818   9.489  1.00  0.00    -0.390 OA
ATOM     34  H   UNL     1      27.578  65.562   8.888  1.00  0.00     0.211 HD
ENDBRANCH   2  33
ENDBRANCH   1   2
BRANCH   1  35
ATOM     35  C   UNL     1      25.224  64.335  10.267  1.00  0.00     0.037 C 
BRANCH  35  36
ATOM     36  C   UNL     1      24.529  62.953  10.436  1.00  0.00     0.059 C 
ATOM     37  C   UNL     1      24.505  62.479  11.925  1.00  0.00     0.042 C 
ATOM     38  C   UNL     1      25.281  61.912   9.617  1.00  0.00     0.042 C 
BRANCH  36  39
ATOM     39  O   UNL     1      23.249  63.005   9.819  1.00  0.00    -0.390 OA
ATOM     40  H   UNL     1      22.976  62.091   9.553  1.00  0.00     0.211 HD
ENDBRANCH  36  39
ENDBRANCH  35  36
ENDBRANCH   1  35
TORSDOF 11
ENDMDL
MODEL 5
REMARK VINA RESULT:    -2.009      3.409      6.908
REMARK INTER + INTRA:          -3.917
REMARK INTER:                  -2.931
REMARK INTRA:                  -0.986
REMARK UNBOUND:                -0.968
REMARK SMILES CC(C)(O)CC[C@H](O)[C@](C)(O)[C@H]1CC[C@]2(O)C3=CC(=O)[C@H]4C[C@@H](O)[C@@H](O)C[C@@]4(C)[C@@H]3CC[C@]12C
REMARK SMILES IDX 6 1 7 2 9 3 10 4 12 5 34 6 33 7 32 8 15 9 31 10 17 11 14 12
REMARK SMILES IDX 13 13 30 14 18 15 28 16 19 17 21 18 27 19 29 20 20 21 22 22
REMARK SMILES IDX 25 23 23 24 16 25 26 27 24 29 11 31 8 33 5 35 2 36 1 37 3 38
REMARK SMILES IDX 4 39
REMARK H PARENT 16 26 26 28 24 30 11 32 8 34 4 40
REMARK Flexibility Score: inf
ROOT
ATOM      1  C   UNL     1      27.562  59.227  18.083  1.00  0.00     0.038 C 
ENDROOT
BRANCH   1   2
ATOM      2  C   UNL     1      27.793  58.010  17.105  1.00  0.00     0.146 C 
BRANCH   2   3
ATOM      3  C   UNL     1      29.311  57.497  16.901  1.00  0.00     0.091 C 
ATOM      4  C   UNL     1      29.597  55.957  16.877  1.00  0.00     0.045 C 
BRANCH   3   5
ATOM      5  C   UNL     1      29.965  58.219  15.651  1.00  0.00     0.032 C 
ATOM      6  C   UNL     1      28.322  56.960  13.906  1.00  0.00     0.015 C 
ATOM      7  C   UNL     1      29.493  57.972  14.147  1.00  0.00     0.006 C 
ATOM      8  C   UNL     1      29.020  59.380  13.581  1.00  0.00     0.011 C 
ATOM      9  C   UNL     1      30.800  57.421  13.487  1.00  0.00     0.092 C 
ATOM     10  C   UNL     1      29.756  59.905  12.364  1.00  0.00     0.009 C 
ATOM     11  C   UNL     1      30.746  57.606  11.954  1.00  0.00    -0.031 C 
ATOM     12  C   UNL     1      31.944  58.174  14.172  1.00  0.00     0.041 C 
ATOM     13  C   UNL     1      31.534  58.189  15.627  1.00  0.00     0.010 C 
ATOM     14  C   UNL     1      29.950  58.769  11.341  1.00  0.00     0.025 C 
ATOM     15  C   UNL     1      31.032  56.603  11.128  1.00  0.00     0.050 C 
ATOM     16  C   UNL     1      30.464  59.216   9.925  1.00  0.00    -0.013 C 
ATOM     17  C   UNL     1      31.213  56.784   9.670  1.00  0.00     0.159 C 
ATOM     18  C   UNL     1      30.715  58.011   8.961  1.00  0.00     0.070 C 
ATOM     19  C   UNL     1      29.414  60.156   9.230  1.00  0.00     0.042 C 
ATOM     20  C   UNL     1      31.799  60.001  10.085  1.00  0.00     0.013 C 
ATOM     21  O   UNL     1      31.747  55.875   8.971  1.00  0.00    -0.295 OA
ATOM     22  C   UNL     1      29.538  57.661   8.005  1.00  0.00     0.047 C 
ATOM     23  C   UNL     1      28.030  59.456   9.026  1.00  0.00     0.143 C 
ATOM     24  C   UNL     1      28.158  57.947   8.624  1.00  0.00     0.143 C 
BRANCH   9  25
ATOM     25  O   UNL     1      30.950  56.062  13.836  1.00  0.00    -0.385 OA
ATOM     26  H   UNL     1      31.353  56.012  14.754  1.00  0.00     0.211 HD
ENDBRANCH   9  25
BRANCH  23  27
ATOM     27  O   UNL     1      27.239  59.655  10.157  1.00  0.00    -0.390 OA
ATOM     28  H   UNL     1      27.263  60.643  10.363  1.00  0.00     0.211 HD
ENDBRANCH  23  27
BRANCH  24  29
ATOM     29  O   UNL     1      27.897  57.079   9.697  1.00  0.00    -0.390 OA
ATOM     30  H   UNL     1      27.031  57.361  10.103  1.00  0.00     0.211 HD
ENDBRANCH  24  29
ENDBRANCH   3   5
BRANCH   3  31
ATOM     31  O   UNL     1      30.028  58.062  18.002  1.00  0.00    -0.387 OA
ATOM     32  H   UNL     1      31.015  58.074  17.840  1.00  0.00     0.211 HD
ENDBRANCH   3  31
ENDBRANCH   2   3
BRANCH   2  33
ATOM     33  O   UNL     1      26.898  56.931  17.308  1.00  0.00    -0.390 OA
ATOM     34  H   UNL     1      26.806  56.717  18.288  1.00  0.00     0.211 HD
ENDBRANCH   2  33
ENDBRANCH   1   2
BRANCH   1  35
ATOM     35  C   UNL     1      26.786  58.870  19.405  1.00  0.00     0.037 C 
BRANCH  35  36
ATOM     36  C   UNL     1      27.633  58.356  20.606  1.00  0.00     0.059 C 
ATOM     37  C   UNL     1      27.716  56.796  20.650  1.00  0.00     0.042 C 
ATOM     38  C   UNL     1      27.000  58.836  21.906  1.00  0.00     0.042 C 
BRANCH  36  39
ATOM     39  O   UNL     1      28.896  59.008  20.588  1.00  0.00    -0.390 OA
ATOM     40  H   UNL     1      29.588  58.393  20.943  1.00  0.00     0.211 HD
ENDBRANCH  36  39
ENDBRANCH  35  36
ENDBRANCH   1  35
TORSDOF 11
ENDMDL
MODEL 6
REMARK VINA RESULT:    -2.006      1.901      4.766
REMARK INTER + INTRA:          -3.912
REMARK INTER:                  -2.731
REMARK INTRA:                  -1.181
REMARK UNBOUND:                -0.968
REMARK SMILES CC(C)(O)CC[C@H](O)[C@](C)(O)[C@H]1CC[C@]2(O)C3=CC(=O)[C@H]4C[C@@H](O)[C@@H](O)C[C@@]4(C)[C@@H]3CC[C@]12C
REMARK SMILES IDX 6 1 7 2 9 3 10 4 12 5 34 6 33 7 32 8 15 9 31 10 17 11 14 12
REMARK SMILES IDX 13 13 30 14 18 15 28 16 19 17 21 18 27 19 29 20 20 21 22 22
REMARK SMILES IDX 25 23 23 24 16 25 26 27 24 29 11 31 8 33 5 35 2 36 1 37 3 38
REMARK SMILES IDX 4 39
REMARK H PARENT 16 26 26 28 24 30 11 32 8 34 4 40
REMARK Flexibility Score: inf
ROOT
ATOM      1  C   UNL     1      30.329  56.262  11.632  1.00  0.00     0.038 C 
ENDROOT
BRANCH   1   2
ATOM      2  C   UNL     1      30.928  56.797  12.990  1.00  0.00     0.146 C 
BRANCH   2   3
ATOM      3  C   UNL     1      29.898  57.432  14.059  1.00  0.00     0.091 C 
ATOM      4  C   UNL     1      30.461  58.055  15.382  1.00  0.00     0.045 C 
BRANCH   3   5
ATOM      5  C   UNL     1      28.908  58.434  13.333  1.00  0.00     0.032 C 
ATOM      6  C   UNL     1      30.935  60.013  12.480  1.00  0.00     0.015 C 
ATOM      7  C   UNL     1      29.396  59.728  12.538  1.00  0.00     0.006 C 
ATOM      8  C   UNL     1      28.894  59.558  11.039  1.00  0.00     0.011 C 
ATOM      9  C   UNL     1      28.684  60.876  13.326  1.00  0.00     0.092 C 
ATOM     10  C   UNL     1      27.960  60.629  10.509  1.00  0.00     0.009 C 
ATOM     11  C   UNL     1      28.575  62.143  12.449  1.00  0.00    -0.031 C 
ATOM     12  C   UNL     1      27.336  60.292  13.757  1.00  0.00     0.041 C 
ATOM     13  C   UNL     1      27.686  58.891  14.204  1.00  0.00     0.010 C 
ATOM     14  C   UNL     1      28.478  62.021  10.920  1.00  0.00     0.025 C 
ATOM     15  C   UNL     1      28.944  63.335  12.911  1.00  0.00     0.050 C 
ATOM     16  C   UNL     1      27.763  63.238  10.228  1.00  0.00    -0.013 C 
ATOM     17  C   UNL     1      28.654  64.602  12.200  1.00  0.00     0.159 C 
ATOM     18  C   UNL     1      28.279  64.620  10.746  1.00  0.00     0.070 C 
ATOM     19  C   UNL     1      28.001  63.205   8.675  1.00  0.00     0.042 C 
ATOM     20  C   UNL     1      26.231  63.156  10.495  1.00  0.00     0.013 C 
ATOM     21  O   UNL     1      28.770  65.712  12.793  1.00  0.00    -0.295 OA
ATOM     22  C   UNL     1      29.400  65.280   9.892  1.00  0.00     0.047 C 
ATOM     23  C   UNL     1      29.519  63.280   8.302  1.00  0.00     0.143 C 
ATOM     24  C   UNL     1      30.331  64.250   9.226  1.00  0.00     0.143 C 
BRANCH   9  25
ATOM     25  O   UNL     1      29.405  61.132  14.512  1.00  0.00    -0.385 OA
ATOM     26  H   UNL     1      30.383  61.013  14.321  1.00  0.00     0.211 HD
ENDBRANCH   9  25
BRANCH  23  27
ATOM     27  O   UNL     1      30.049  61.991   8.262  1.00  0.00    -0.390 OA
ATOM     28  H   UNL     1      29.454  61.410   8.833  1.00  0.00     0.211 HD
ENDBRANCH  23  27
BRANCH  24  29
ATOM     29  O   UNL     1      31.095  63.567  10.187  1.00  0.00    -0.390 OA
ATOM     30  H   UNL     1      31.350  62.688   9.792  1.00  0.00     0.211 HD
ENDBRANCH  24  29
ENDBRANCH   3   5
BRANCH   3  31
ATOM     31  O   UNL     1      29.039  56.344  14.415  1.00  0.00    -0.387 OA
ATOM     32  H   UNL     1      28.345  56.616  15.080  1.00  0.00     0.211 HD
ENDBRANCH   3  31
ENDBRANCH   2   3
BRANCH   2  33
ATOM     33  O   UNL     1      31.842  55.908  13.605  1.00  0.00    -0.390 OA
ATOM     34  H   UNL     1      31.365  55.263  14.215  1.00  0.00     0.211 HD
ENDBRANCH   2  33
ENDBRANCH   1   2
BRANCH   1  35
ATOM     35  C   UNL     1      31.401  55.879  10.545  1.00  0.00     0.037 C 
BRANCH  35  36
ATOM     36  C   UNL     1      31.383  56.687   9.215  1.00  0.00     0.059 C 
ATOM     37  C   UNL     1      31.840  58.168   9.414  1.00  0.00     0.042 C 
ATOM     38  C   UNL     1      29.966  56.698   8.656  1.00  0.00     0.042 C 
BRANCH  36  39
ATOM     39  O   UNL     1      32.125  55.974   8.235  1.00  0.00    -0.390 OA
ATOM     40  H   UNL     1      31.908  55.009   8.297  1.00  0.00     0.211 HD
ENDBRANCH  36  39
ENDBRANCH  35  36
ENDBRANCH   1  35
TORSDOF 11
ENDMDL
MODEL 7
REMARK VINA RESULT:    -1.984      2.274      6.195
REMARK INTER + INTRA:          -3.880
REMARK INTER:                  -2.777
REMARK INTRA:                  -1.103
REMARK UNBOUND:                -0.968
REMARK SMILES CC(C)(O)CC[C@H](O)[C@](C)(O)[C@H]1CC[C@]2(O)C3=CC(=O)[C@H]4C[C@@H](O)[C@@H](O)C[C@@]4(C)[C@@H]3CC[C@]12C
REMARK SMILES IDX 6 1 7 2 9 3 10 4 12 5 34 6 33 7 32 8 15 9 31 10 17 11 14 12
REMARK SMILES IDX 13 13 30 14 18 15 28 16 19 17 21 18 27 19 29 20 20 21 22 22
REMARK SMILES IDX 25 23 23 24 16 25 26 27 24 29 11 31 8 33 5 35 2 36 1 37 3 38
REMARK SMILES IDX 4 39
REMARK H PARENT 16 26 26 28 24 30 11 32 8 34 4 40
REMARK Flexibility Score: inf
ROOT
ATOM      1  C   UNL     1      31.653  59.856   9.884  1.00  0.00     0.038 C 
ENDROOT
BRANCH   1   2
ATOM      2  C   UNL     1      30.677  61.094   9.960  1.00  0.00     0.146 C 
BRANCH   2   3
ATOM      3  C   UNL     1      30.899  62.143  11.168  1.00  0.00     0.091 C 
ATOM      4  C   UNL     1      29.795  63.219  11.454  1.00  0.00     0.045 C 
BRANCH   3   5
ATOM      5  C   UNL     1      31.300  61.371  12.493  1.00  0.00     0.032 C 
ATOM      6  C   UNL     1      28.837  60.277  12.749  1.00  0.00     0.015 C 
ATOM      7  C   UNL     1      30.295  60.434  13.302  1.00  0.00     0.006 C 
ATOM      8  C   UNL     1      30.945  58.983  13.327  1.00  0.00     0.011 C 
ATOM      9  C   UNL     1      30.248  61.140  14.696  1.00  0.00     0.092 C 
ATOM     10  C   UNL     1      31.246  58.397  14.693  1.00  0.00     0.009 C 
ATOM     11  C   UNL     1      29.774  60.152  15.784  1.00  0.00    -0.031 C 
ATOM     12  C   UNL     1      31.661  61.688  14.916  1.00  0.00     0.041 C 
ATOM     13  C   UNL     1      32.035  62.251  13.564  1.00  0.00     0.010 C 
ATOM     14  C   UNL     1      30.057  58.647  15.641  1.00  0.00     0.025 C 
ATOM     15  C   UNL     1      28.810  60.479  16.640  1.00  0.00     0.050 C 
ATOM     16  C   UNL     1      30.111  57.876  17.009  1.00  0.00    -0.013 C 
ATOM     17  C   UNL     1      28.477  59.664  17.831  1.00  0.00     0.159 C 
ATOM     18  C   UNL     1      28.919  58.234  17.955  1.00  0.00     0.070 C 
ATOM     19  C   UNL     1      30.063  56.325  16.768  1.00  0.00     0.042 C 
ATOM     20  C   UNL     1      31.439  58.222  17.743  1.00  0.00     0.013 C 
ATOM     21  O   UNL     1      27.758  60.142  18.755  1.00  0.00    -0.295 OA
ATOM     22  C   UNL     1      27.699  57.269  17.892  1.00  0.00     0.047 C 
ATOM     23  C   UNL     1      28.759  55.875  16.029  1.00  0.00     0.143 C 
ATOM     24  C   UNL     1      27.487  56.663  16.493  1.00  0.00     0.143 C 
BRANCH   9  25
ATOM     25  O   UNL     1      29.394  62.261  14.612  1.00  0.00    -0.385 OA
ATOM     26  H   UNL     1      29.493  62.668  13.701  1.00  0.00     0.211 HD
ENDBRANCH   9  25
BRANCH  23  27
ATOM     27  O   UNL     1      28.965  55.934  14.650  1.00  0.00    -0.390 OA
ATOM     28  H   UNL     1      28.403  55.205  14.237  1.00  0.00     0.211 HD
ENDBRANCH  23  27
BRANCH  24  29
ATOM     29  O   UNL     1      27.095  57.648  15.571  1.00  0.00    -0.390 OA
ATOM     30  H   UNL     1      27.897  58.208  15.378  1.00  0.00     0.211 HD
ENDBRANCH  24  29
ENDBRANCH   3   5
BRANCH   3  31
ATOM     31  O   UNL     1      32.106  62.830  10.826  1.00  0.00    -0.387 OA
ATOM     32  H   UNL     1      32.115  63.119   9.869  1.00  0.00     0.211 HD
ENDBRANCH   3  31
ENDBRANCH   2   3
BRANCH   2  33
ATOM     33  O   UNL     1      30.486  61.753   8.721  1.00  0.00    -0.390 OA
ATOM     34  H   UNL     1      29.928  61.194   8.096  1.00  0.00     0.211 HD
ENDBRANCH   2  33
ENDBRANCH   1   2
BRANCH   1  35
ATOM     35  C   UNL     1      31.274  58.786   8.794  1.00  0.00     0.037 C 
BRANCH  35  36
ATOM     36  C   UNL     1      30.499  57.526   9.278  1.00  0.00     0.059 C 
ATOM     37  C   UNL     1      29.069  57.874   9.804  1.00  0.00     0.042 C 
ATOM     38  C   UNL     1      31.275  56.866  10.411  1.00  0.00     0.042 C 
BRANCH  36  39
ATOM     39  O   UNL     1      30.519  56.550   8.244  1.00  0.00    -0.390 OA
ATOM     40  H   UNL     1      30.857  56.964   7.409  1.00  0.00     0.211 HD
ENDBRANCH  36  39
ENDBRANCH  35  36
ENDBRANCH   1  35
TORSDOF 11
ENDMDL
MODEL 8
REMARK VINA RESULT:    -1.938      2.847      7.720
REMARK INTER + INTRA:          -3.813
REMARK INTER:                  -2.580
REMARK INTRA:                  -1.233
REMARK UNBOUND:                -0.968
REMARK SMILES CC(C)(O)CC[C@H](O)[C@](C)(O)[C@H]1CC[C@]2(O)C3=CC(=O)[C@H]4C[C@@H](O)[C@@H](O)C[C@@]4(C)[C@@H]3CC[C@]12C
REMARK SMILES IDX 6 1 7 2 9 3 10 4 12 5 34 6 33 7 32 8 15 9 31 10 17 11 14 12
REMARK SMILES IDX 13 13 30 14 18 15 28 16 19 17 21 18 27 19 29 20 20 21 22 22
REMARK SMILES IDX 25 23 23 24 16 25 26 27 24 29 11 31 8 33 5 35 2 36 1 37 3 38
REMARK SMILES IDX 4 39
REMARK H PARENT 16 26 26 28 24 30 11 32 8 34 4 40
REMARK Flexibility Score: inf
ROOT
ATOM      1  C   UNL     1      25.239  63.789  10.959  1.00  0.00     0.038 C 
ENDROOT
BRANCH   1   2
ATOM      2  C   UNL     1      25.434  63.180  12.402  1.00  0.00     0.146 C 
BRANCH   2   3
ATOM      3  C   UNL     1      26.840  63.464  13.145  1.00  0.00     0.091 C 
ATOM      4  C   UNL     1      26.984  63.103  14.663  1.00  0.00     0.045 C 
BRANCH   3   5
ATOM      5  C   UNL     1      28.035  62.859  12.298  1.00  0.00     0.032 C 
ATOM      6  C   UNL     1      26.970  60.370  12.344  1.00  0.00     0.015 C 
ATOM      7  C   UNL     1      28.127  61.321  11.884  1.00  0.00     0.006 C 
ATOM      8  C   UNL     1      28.164  61.279  10.295  1.00  0.00     0.011 C 
ATOM      9  C   UNL     1      29.463  60.883  12.568  1.00  0.00     0.092 C 
ATOM     10  C   UNL     1      29.386  60.644   9.660  1.00  0.00     0.009 C 
ATOM     11  C   UNL     1      30.025  59.614  11.889  1.00  0.00    -0.031 C 
ATOM     12  C   UNL     1      30.381  62.105  12.476  1.00  0.00     0.041 C 
ATOM     13  C   UNL     1      29.464  63.260  12.807  1.00  0.00     0.010 C 
ATOM     14  C   UNL     1      29.742  59.341  10.402  1.00  0.00     0.025 C 
ATOM     15  C   UNL     1      30.414  58.563  12.605  1.00  0.00     0.050 C 
ATOM     16  C   UNL     1      30.822  58.439   9.703  1.00  0.00    -0.013 C 
ATOM     17  C   UNL     1      31.159  57.422  12.026  1.00  0.00     0.159 C 
ATOM     18  C   UNL     1      31.195  57.176  10.545  1.00  0.00     0.070 C 
ATOM     19  C   UNL     1      30.299  57.933   8.312  1.00  0.00     0.042 C 
ATOM     20  C   UNL     1      32.117  59.273   9.472  1.00  0.00     0.013 C 
ATOM     21  O   UNL     1      31.744  56.590  12.777  1.00  0.00    -0.295 OA
ATOM     22  C   UNL     1      30.422  55.875  10.180  1.00  0.00     0.047 C 
ATOM     23  C   UNL     1      28.991  57.083   8.439  1.00  0.00     0.143 C 
ATOM     24  C   UNL     1      28.986  56.148   9.695  1.00  0.00     0.143 C 
BRANCH   9  25
ATOM     25  O   UNL     1      29.223  60.667  13.942  1.00  0.00    -0.385 OA
ATOM     26  H   UNL     1      30.044  60.257  14.348  1.00  0.00     0.211 HD
ENDBRANCH   9  25
BRANCH  23  27
ATOM     27  O   UNL     1      27.883  57.928   8.382  1.00  0.00    -0.390 OA
ATOM     28  H   UNL     1      27.285  57.681   9.156  1.00  0.00     0.211 HD
ENDBRANCH  23  27
BRANCH  24  29
ATOM     29  O   UNL     1      28.189  56.649  10.738  1.00  0.00    -0.390 OA
ATOM     30  H   UNL     1      27.378  56.071  10.794  1.00  0.00     0.211 HD
ENDBRANCH  24  29
ENDBRANCH   3   5
BRANCH   3  31
ATOM     31  O   UNL     1      27.038  64.874  13.006  1.00  0.00    -0.387 OA
ATOM     32  H   UNL     1      26.431  65.271  12.318  1.00  0.00     0.211 HD
ENDBRANCH   3  31
ENDBRANCH   2   3
BRANCH   2  33
ATOM     33  O   UNL     1      24.332  63.387  13.267  1.00  0.00    -0.390 OA
ATOM     34  H   UNL     1      23.586  62.741  13.063  1.00  0.00     0.211 HD
ENDBRANCH   2  33
ENDBRANCH   1   2
BRANCH   1  35
ATOM     35  C   UNL     1      24.832  62.744   9.854  1.00  0.00     0.037 C 
BRANCH  35  36
ATOM     36  C   UNL     1      23.463  62.024  10.030  1.00  0.00     0.059 C 
ATOM     37  C   UNL     1      23.621  60.577  10.599  1.00  0.00     0.042 C 
ATOM     38  C   UNL     1      22.770  61.930   8.676  1.00  0.00     0.042 C 
BRANCH  36  39
ATOM     39  O   UNL     1      22.601  62.860  10.790  1.00  0.00    -0.390 OA
ATOM     40  H   UNL     1      21.727  62.936  10.329  1.00  0.00     0.211 HD
ENDBRANCH  36  39
ENDBRANCH  35  36
ENDBRANCH   1  35
TORSDOF 11
ENDMDL
