MODEL 1
REMARK VINA RESULT:    -4.754      0.000      0.000
REMARK INTER + INTRA:         -13.048
REMARK INTER:                 -10.867
REMARK INTRA:                  -2.181
REMARK UNBOUND:                -2.181
REMARK SMILES CCCCCCCCCCCCCCCCCCCCCCCC(=O)[O-]
REMARK SMILES IDX 13 1 14 2 15 3 16 4 17 5 18 6 19 7 20 8 21 9 22 10 23 11
REMARK SMILES IDX 24 12 25 13 26 14 12 15 11 16 10 17 9 18 8 19 7 20 6 21 5 22
REMARK SMILES IDX 4 23 3 24 2 25 1 26
REMARK H PARENT
REMARK Flexibility Score: inf
ROOT
ATOM      1  C   UNL     1       1.982  44.735   9.283  1.00  0.00     0.000 C 
ENDROOT
BRANCH   1   2
ATOM      2  C   UNL     1       0.480  44.722   8.956  1.00  0.00     0.000 C 
BRANCH   2   3
ATOM      3  C   UNL     1       0.240  44.962   7.461  1.00  0.00     0.000 C 
BRANCH   3   4
ATOM      4  C   UNL     1      -0.832  46.036   7.241  1.00  0.00     0.000 C 
BRANCH   4   5
ATOM      5  C   UNL     1      -1.032  46.883   8.507  1.00  0.00     0.000 C 
BRANCH   5   6
ATOM      6  C   UNL     1      -0.549  48.335   8.336  1.00  0.00     0.000 C 
BRANCH   6   7
ATOM      7  C   UNL     1       0.910  48.590   8.761  1.00  0.00     0.000 C 
BRANCH   7   8
ATOM      8  C   UNL     1       1.964  48.334   7.665  1.00  0.00     0.000 C 
BRANCH   8   9
ATOM      9  C   UNL     1       3.131  47.418   8.085  1.00  0.00     0.000 C 
BRANCH   9  10
ATOM     10  C   UNL     1       4.447  48.149   8.404  1.00  0.00     0.006 C 
BRANCH  10  11
ATOM     11  C   UNL     1       5.410  47.304   9.247  1.00  0.00     0.053 C 
BRANCH  11  12
ATOM     12  C   UNL     1       6.727  48.000   9.391  1.00  0.00     0.041 C 
ATOM     13  O   UNL     1       7.781  47.333   9.560  1.00  0.00    -0.550 OA
ATOM     14  O   UNL     1       6.782  49.388   9.392  1.00  0.00    -0.550 OA
ENDBRANCH  11  12
ENDBRANCH  10  11
ENDBRANCH   9  10
ENDBRANCH   8   9
ENDBRANCH   7   8
ENDBRANCH   6   7
ENDBRANCH   5   6
ENDBRANCH   4   5
ENDBRANCH   3   4
ENDBRANCH   2   3
ENDBRANCH   1   2
BRANCH   1  15
ATOM     15  C   UNL     1       2.664  43.386   9.003  1.00  0.00     0.000 C 
BRANCH  15  16
ATOM     16  C   UNL     1       4.077  43.302   9.603  1.00  0.00     0.000 C 
BRANCH  16  17
ATOM     17  C   UNL     1       4.297  44.299  10.756  1.00  0.00     0.000 C 
BRANCH  17  18
ATOM     18  C   UNL     1       4.060  43.729  12.170  1.00  0.00    -0.000 C 
BRANCH  18  19
ATOM     19  C   UNL     1       2.583  43.477  12.539  1.00  0.00    -0.000 C 
BRANCH  19  20
ATOM     20  C   UNL     1       2.046  42.086  12.158  1.00  0.00    -0.000 C 
BRANCH  20  21
ATOM     21  C   UNL     1       3.087  40.952  12.223  1.00  0.00    -0.000 C 
BRANCH  21  22
ATOM     22  C   UNL     1       2.559  39.664  12.891  1.00  0.00    -0.000 C 
BRANCH  22  23
ATOM     23  C   UNL     1       3.519  38.476  12.712  1.00  0.00    -0.000 C 
BRANCH  23  24
ATOM     24  C   UNL     1       2.893  37.323  11.912  1.00  0.00    -0.000 C 
BRANCH  24  25
ATOM     25  C   UNL     1       1.373  37.219  12.112  1.00  0.00    -0.003 C 
ATOM     26  C   UNL     1       0.848  35.868  11.636  1.00  0.00     0.004 C 
ENDBRANCH  24  25
ENDBRANCH  23  24
ENDBRANCH  22  23
ENDBRANCH  21  22
ENDBRANCH  20  21
ENDBRANCH  19  20
ENDBRANCH  18  19
ENDBRANCH  17  18
ENDBRANCH  16  17
ENDBRANCH  15  16
ENDBRANCH   1  15
TORSDOF 22
ENDMDL
MODEL 2
REMARK VINA RESULT:    -4.693      1.152      2.016
REMARK INTER + INTRA:         -12.909
REMARK INTER:                 -10.092
REMARK INTRA:                  -2.817
REMARK UNBOUND:                -2.181
REMARK SMILES CCCCCCCCCCCCCCCCCCCCCCCC(=O)[O-]
REMARK SMILES IDX 13 1 14 2 15 3 16 4 17 5 18 6 19 7 20 8 21 9 22 10 23 11
REMARK SMILES IDX 24 12 25 13 26 14 12 15 11 16 10 17 9 18 8 19 7 20 6 21 5 22
REMARK SMILES IDX 4 23 3 24 2 25 1 26
REMARK H PARENT
REMARK Flexibility Score: inf
ROOT
ATOM      1  C   UNL     1       2.370  43.245   8.720  1.00  0.00     0.000 C 
ENDROOT
BRANCH   1   2
ATOM      2  C   UNL     1       1.239  44.279   8.833  1.00  0.00     0.000 C 
BRANCH   2   3
ATOM      3  C   UNL     1       0.392  44.310   7.556  1.00  0.00     0.000 C 
BRANCH   3   4
ATOM      4  C   UNL     1      -0.352  45.644   7.419  1.00  0.00     0.000 C 
BRANCH   4   5
ATOM      5  C   UNL     1      -0.603  46.278   8.796  1.00  0.00     0.000 C 
BRANCH   5   6
ATOM      6  C   UNL     1      -0.676  47.815   8.740  1.00  0.00     0.000 C 
BRANCH   6   7
ATOM      7  C   UNL     1       0.665  48.520   8.459  1.00  0.00     0.000 C 
BRANCH   7   8
ATOM      8  C   UNL     1       1.903  47.841   9.078  1.00  0.00     0.000 C 
BRANCH   8   9
ATOM      9  C   UNL     1       2.969  47.381   8.063  1.00  0.00     0.000 C 
BRANCH   9  10
ATOM     10  C   UNL     1       4.347  48.049   8.221  1.00  0.00     0.006 C 
BRANCH  10  11
ATOM     11  C   UNL     1       5.210  47.389   9.303  1.00  0.00     0.053 C 
BRANCH  11  12
ATOM     12  C   UNL     1       6.537  48.073   9.402  1.00  0.00     0.041 C 
ATOM     13  O   UNL     1       6.620  49.320   9.249  1.00  0.00    -0.550 OA
ATOM     14  O   UNL     1       7.690  47.326   9.612  1.00  0.00    -0.550 OA
ENDBRANCH  11  12
ENDBRANCH  10  11
ENDBRANCH   9  10
ENDBRANCH   8   9
ENDBRANCH   7   8
ENDBRANCH   6   7
ENDBRANCH   5   6
ENDBRANCH   4   5
ENDBRANCH   3   4
ENDBRANCH   2   3
ENDBRANCH   1   2
BRANCH   1  15
ATOM     15  C   UNL     1       3.721  43.783   9.219  1.00  0.00     0.000 C 
BRANCH  15  16
ATOM     16  C   UNL     1       4.066  43.295  10.635  1.00  0.00     0.000 C 
BRANCH  16  17
ATOM     17  C   UNL     1       3.737  44.335  11.722  1.00  0.00     0.000 C 
BRANCH  17  18
ATOM     18  C   UNL     1       2.294  44.287  12.262  1.00  0.00    -0.000 C 
BRANCH  18  19
ATOM     19  C   UNL     1       1.631  42.894  12.248  1.00  0.00    -0.000 C 
BRANCH  19  20
ATOM     20  C   UNL     1       0.218  42.839  12.856  1.00  0.00    -0.000 C 
BRANCH  20  21
ATOM     21  C   UNL     1      -0.184  41.467  13.432  1.00  0.00    -0.000 C 
BRANCH  21  22
ATOM     22  C   UNL     1       1.013  40.636  13.943  1.00  0.00    -0.000 C 
BRANCH  22  23
ATOM     23  C   UNL     1       1.095  39.255  13.271  1.00  0.00    -0.000 C 
BRANCH  23  24
ATOM     24  C   UNL     1       2.534  38.858  12.904  1.00  0.00    -0.000 C 
BRANCH  24  25
ATOM     25  C   UNL     1       3.348  40.034  12.343  1.00  0.00    -0.003 C 
ATOM     26  C   UNL     1       4.675  40.185  13.082  1.00  0.00     0.004 C 
ENDBRANCH  24  25
ENDBRANCH  23  24
ENDBRANCH  22  23
ENDBRANCH  21  22
ENDBRANCH  20  21
ENDBRANCH  19  20
ENDBRANCH  18  19
ENDBRANCH  17  18
ENDBRANCH  16  17
ENDBRANCH  15  16
ENDBRANCH   1  15
TORSDOF 22
ENDMDL
MODEL 3
REMARK VINA RESULT:    -4.629      0.940      1.773
REMARK INTER + INTRA:         -12.762
REMARK INTER:                 -10.012
REMARK INTRA:                  -2.750
REMARK UNBOUND:                -2.181
REMARK SMILES CCCCCCCCCCCCCCCCCCCCCCCC(=O)[O-]
REMARK SMILES IDX 13 1 14 2 15 3 16 4 17 5 18 6 19 7 20 8 21 9 22 10 23 11
REMARK SMILES IDX 24 12 25 13 26 14 12 15 11 16 10 17 9 18 8 19 7 20 6 21 5 22
REMARK SMILES IDX 4 23 3 24 2 25 1 26
REMARK H PARENT
REMARK Flexibility Score: inf
ROOT
ATOM      1  C   UNL     1       1.108  44.321   8.757  1.00  0.00     0.000 C 
ENDROOT
BRANCH   1   2
ATOM      2  C   UNL     1       0.411  44.533   7.404  1.00  0.00     0.000 C 
BRANCH   2   3
ATOM      3  C   UNL     1      -0.683  45.602   7.510  1.00  0.00     0.000 C 
BRANCH   3   4
ATOM      4  C   UNL     1      -0.600  46.344   8.849  1.00  0.00     0.000 C 
BRANCH   4   5
ATOM      5  C   UNL     1      -0.630  47.865   8.638  1.00  0.00     0.000 C 
BRANCH   5   6
ATOM      6  C   UNL     1       0.757  48.516   8.789  1.00  0.00     0.000 C 
BRANCH   6   7
ATOM      7  C   UNL     1       1.641  48.464   7.529  1.00  0.00     0.000 C 
BRANCH   7   8
ATOM      8  C   UNL     1       3.106  48.048   7.776  1.00  0.00     0.000 C 
BRANCH   8   9
ATOM      9  C   UNL     1       3.317  47.077   8.955  1.00  0.00     0.000 C 
BRANCH   9  10
ATOM     10  C   UNL     1       4.767  46.598   9.149  1.00  0.00     0.006 C 
BRANCH  10  11
ATOM     11  C   UNL     1       5.561  47.480  10.121  1.00  0.00     0.053 C 
BRANCH  11  12
ATOM     12  C   UNL     1       6.731  48.102   9.425  1.00  0.00     0.041 C 
ATOM     13  O   UNL     1       6.606  49.211   8.844  1.00  0.00    -0.550 OA
ATOM     14  O   UNL     1       7.946  47.430   9.373  1.00  0.00    -0.550 OA
ENDBRANCH  11  12
ENDBRANCH  10  11
ENDBRANCH   9  10
ENDBRANCH   8   9
ENDBRANCH   7   8
ENDBRANCH   6   7
ENDBRANCH   5   6
ENDBRANCH   4   5
ENDBRANCH   3   4
ENDBRANCH   2   3
ENDBRANCH   1   2
BRANCH   1  15
ATOM     15  C   UNL     1       2.142  43.184   8.723  1.00  0.00     0.000 C 
BRANCH  15  16
ATOM     16  C   UNL     1       3.528  43.628   9.218  1.00  0.00     0.000 C 
BRANCH  16  17
ATOM     17  C   UNL     1       4.124  42.667  10.263  1.00  0.00     0.000 C 
BRANCH  17  18
ATOM     18  C   UNL     1       4.148  43.203  11.709  1.00  0.00    -0.000 C 
BRANCH  18  19
ATOM     19  C   UNL     1       3.187  44.376  11.993  1.00  0.00    -0.000 C 
BRANCH  19  20
ATOM     20  C   UNL     1       1.786  43.964  12.481  1.00  0.00    -0.000 C 
BRANCH  20  21
ATOM     21  C   UNL     1       1.389  42.512  12.154  1.00  0.00    -0.000 C 
BRANCH  21  22
ATOM     22  C   UNL     1       0.991  41.684  13.395  1.00  0.00    -0.000 C 
BRANCH  22  23
ATOM     23  C   UNL     1       1.502  40.236  13.322  1.00  0.00    -0.000 C 
BRANCH  23  24
ATOM     24  C   UNL     1       2.872  40.125  12.634  1.00  0.00    -0.000 C 
BRANCH  24  25
ATOM     25  C   UNL     1       3.532  38.754  12.846  1.00  0.00    -0.003 C 
ATOM     26  C   UNL     1       2.730  37.647  12.166  1.00  0.00     0.004 C 
ENDBRANCH  24  25
ENDBRANCH  23  24
ENDBRANCH  22  23
ENDBRANCH  21  22
ENDBRANCH  20  21
ENDBRANCH  19  20
ENDBRANCH  18  19
ENDBRANCH  17  18
ENDBRANCH  16  17
ENDBRANCH  15  16
ENDBRANCH   1  15
TORSDOF 22
ENDMDL
MODEL 4
REMARK VINA RESULT:    -4.584      3.076      8.380
REMARK INTER + INTRA:         -12.662
REMARK INTER:                  -9.584
REMARK INTRA:                  -3.078
REMARK UNBOUND:                -2.181
REMARK SMILES CCCCCCCCCCCCCCCCCCCCCCCC(=O)[O-]
REMARK SMILES IDX 13 1 14 2 15 3 16 4 17 5 18 6 19 7 20 8 21 9 22 10 23 11
REMARK SMILES IDX 24 12 25 13 26 14 12 15 11 16 10 17 9 18 8 19 7 20 6 21 5 22
REMARK SMILES IDX 4 23 3 24 2 25 1 26
REMARK H PARENT
REMARK Flexibility Score: inf
ROOT
ATOM      1  C   UNL     1       0.373  44.559   7.345  1.00  0.00     0.000 C 
ENDROOT
BRANCH   1   2
ATOM      2  C   UNL     1       1.008  44.365   8.730  1.00  0.00     0.000 C 
BRANCH   2   3
ATOM      3  C   UNL     1       1.871  43.099   8.767  1.00  0.00     0.000 C 
BRANCH   3   4
ATOM      4  C   UNL     1       3.362  43.450   8.840  1.00  0.00     0.000 C 
BRANCH   4   5
ATOM      5  C   UNL     1       3.906  43.250  10.263  1.00  0.00     0.000 C 
BRANCH   5   6
ATOM      6  C   UNL     1       3.010  42.340  11.122  1.00  0.00     0.000 C 
BRANCH   6   7
ATOM      7  C   UNL     1       2.378  43.021  12.351  1.00  0.00     0.000 C 
BRANCH   7   8
ATOM      8  C   UNL     1       0.850  42.856  12.475  1.00  0.00     0.000 C 
BRANCH   8   9
ATOM      9  C   UNL     1       0.390  41.622  13.277  1.00  0.00     0.000 C 
BRANCH   9  10
ATOM     10  C   UNL     1       1.526  40.710  13.773  1.00  0.00     0.006 C 
BRANCH  10  11
ATOM     11  C   UNL     1       1.449  39.292  13.195  1.00  0.00     0.053 C 
BRANCH  11  12
ATOM     12  C   UNL     1       2.808  38.821  12.783  1.00  0.00     0.041 C 
ATOM     13  O   UNL     1       3.819  39.541  12.993  1.00  0.00    -0.550 OA
ATOM     14  O   UNL     1       2.951  37.610  12.117  1.00  0.00    -0.550 OA
ENDBRANCH  11  12
ENDBRANCH  10  11
ENDBRANCH   9  10
ENDBRANCH   8   9
ENDBRANCH   7   8
ENDBRANCH   6   7
ENDBRANCH   5   6
ENDBRANCH   4   5
ENDBRANCH   3   4
ENDBRANCH   2   3
ENDBRANCH   1   2
BRANCH   1  15
ATOM     15  C   UNL     1      -0.526  45.804   7.271  1.00  0.00     0.000 C 
BRANCH  15  16
ATOM     16  C   UNL     1      -0.556  46.592   8.591  1.00  0.00     0.000 C 
BRANCH  16  17
ATOM     17  C   UNL     1      -0.386  48.108   8.384  1.00  0.00     0.000 C 
BRANCH  17  18
ATOM     18  C   UNL     1       1.022  48.659   8.692  1.00  0.00    -0.000 C 
BRANCH  18  19
ATOM     19  C   UNL     1       2.109  48.301   7.658  1.00  0.00    -0.000 C 
BRANCH  19  20
ATOM     20  C   UNL     1       3.206  47.349   8.170  1.00  0.00    -0.000 C 
BRANCH  20  21
ATOM     21  C   UNL     1       3.093  46.978   9.661  1.00  0.00    -0.000 C 
BRANCH  21  22
ATOM     22  C   UNL     1       4.458  46.839  10.370  1.00  0.00    -0.000 C 
BRANCH  22  23
ATOM     23  C   UNL     1       5.620  46.683   9.375  1.00  0.00    -0.000 C 
BRANCH  23  24
ATOM     24  C   UNL     1       6.711  47.748   9.566  1.00  0.00    -0.000 C 
BRANCH  24  25
ATOM     25  C   UNL     1       6.389  49.064   8.841  1.00  0.00    -0.003 C 
ATOM     26  C   UNL     1       6.766  50.269   9.698  1.00  0.00     0.004 C 
ENDBRANCH  24  25
ENDBRANCH  23  24
ENDBRANCH  22  23
ENDBRANCH  21  22
ENDBRANCH  20  21
ENDBRANCH  19  20
ENDBRANCH  18  19
ENDBRANCH  17  18
ENDBRANCH  16  17
ENDBRANCH  15  16
ENDBRANCH   1  15
TORSDOF 22
ENDMDL
MODEL 5
REMARK VINA RESULT:    -4.507      3.361      7.902
REMARK INTER + INTRA:         -12.485
REMARK INTER:                  -9.271
REMARK INTRA:                  -3.214
REMARK UNBOUND:                -2.181
REMARK SMILES CCCCCCCCCCCCCCCCCCCCCCCC(=O)[O-]
REMARK SMILES IDX 13 1 14 2 15 3 16 4 17 5 18 6 19 7 20 8 21 9 22 10 23 11
REMARK SMILES IDX 24 12 25 13 26 14 12 15 11 16 10 17 9 18 8 19 7 20 6 21 5 22
REMARK SMILES IDX 4 23 3 24 2 25 1 26
REMARK H PARENT
REMARK Flexibility Score: inf
ROOT
ATOM      1  C   UNL     1       2.548  42.217  10.374  1.00  0.00     0.000 C 
ENDROOT
BRANCH   1   2
ATOM      2  C   UNL     1       2.403  43.228   9.226  1.00  0.00     0.000 C 
BRANCH   2   3
ATOM      3  C   UNL     1       1.174  44.121   9.432  1.00  0.00     0.000 C 
BRANCH   3   4
ATOM      4  C   UNL     1       1.073  44.593  10.887  1.00  0.00     0.000 C 
BRANCH   4   5
ATOM      5  C   UNL     1      -0.378  44.935  11.256  1.00  0.00     0.000 C 
BRANCH   5   6
ATOM      6  C   UNL     1      -0.939  44.036  12.372  1.00  0.00     0.000 C 
BRANCH   6   7
ATOM      7  C   UNL     1       0.005  42.910  12.837  1.00  0.00     0.000 C 
BRANCH   7   8
ATOM      8  C   UNL     1      -0.679  41.758  13.600  1.00  0.00     0.000 C 
BRANCH   8   9
ATOM      9  C   UNL     1       0.284  40.745  14.250  1.00  0.00     0.000 C 
BRANCH   9  10
ATOM     10  C   UNL     1       1.464  40.309  13.363  1.00  0.00     0.006 C 
BRANCH  10  11
ATOM     11  C   UNL     1       1.504  38.795  13.124  1.00  0.00     0.053 C 
BRANCH  11  12
ATOM     12  C   UNL     1       2.849  38.382  12.615  1.00  0.00     0.041 C 
ATOM     13  O   UNL     1       3.861  39.093  12.849  1.00  0.00    -0.550 OA
ATOM     14  O   UNL     1       2.976  37.238  11.835  1.00  0.00    -0.550 OA
ENDBRANCH  11  12
ENDBRANCH  10  11
ENDBRANCH   9  10
ENDBRANCH   8   9
ENDBRANCH   7   8
ENDBRANCH   6   7
ENDBRANCH   5   6
ENDBRANCH   4   5
ENDBRANCH   3   4
ENDBRANCH   2   3
ENDBRANCH   1   2
BRANCH   1  15
ATOM     15  C   UNL     1       3.798  42.469  11.234  1.00  0.00     0.000 C 
BRANCH  15  16
ATOM     16  C   UNL     1       4.623  43.669  10.742  1.00  0.00     0.000 C 
BRANCH  16  17
ATOM     17  C   UNL     1       4.502  44.895  11.665  1.00  0.00     0.000 C 
BRANCH  17  18
ATOM     18  C   UNL     1       4.147  46.218  10.957  1.00  0.00    -0.000 C 
BRANCH  18  19
ATOM     19  C   UNL     1       4.341  46.218   9.426  1.00  0.00    -0.000 C 
BRANCH  19  20
ATOM     20  C   UNL     1       4.659  47.593   8.811  1.00  0.00    -0.000 C 
BRANCH  20  21
ATOM     21  C   UNL     1       3.641  48.080   7.761  1.00  0.00    -0.000 C 
BRANCH  21  22
ATOM     22  C   UNL     1       2.263  47.393   7.869  1.00  0.00    -0.000 C 
BRANCH  22  23
ATOM     23  C   UNL     1       1.282  48.186   8.748  1.00  0.00    -0.000 C 
BRANCH  23  24
ATOM     24  C   UNL     1      -0.129  47.575   8.763  1.00  0.00    -0.000 C 
BRANCH  24  25
ATOM     25  C   UNL     1      -0.692  47.349   7.351  1.00  0.00    -0.003 C 
ATOM     26  C   UNL     1      -0.828  45.860   7.046  1.00  0.00     0.004 C 
ENDBRANCH  24  25
ENDBRANCH  23  24
ENDBRANCH  22  23
ENDBRANCH  21  22
ENDBRANCH  20  21
ENDBRANCH  19  20
ENDBRANCH  18  19
ENDBRANCH  17  18
ENDBRANCH  16  17
ENDBRANCH  15  16
ENDBRANCH   1  15
TORSDOF 22
ENDMDL
MODEL 6
REMARK VINA RESULT:    -4.470      3.267      8.057
REMARK INTER + INTRA:         -12.401
REMARK INTER:                  -9.952
REMARK INTRA:                  -2.448
REMARK UNBOUND:                -2.181
REMARK SMILES CCCCCCCCCCCCCCCCCCCCCCCC(=O)[O-]
REMARK SMILES IDX 13 1 14 2 15 3 16 4 17 5 18 6 19 7 20 8 21 9 22 10 23 11
REMARK SMILES IDX 24 12 25 13 26 14 12 15 11 16 10 17 9 18 8 19 7 20 6 21 5 22
REMARK SMILES IDX 4 23 3 24 2 25 1 26
REMARK H PARENT
REMARK Flexibility Score: inf
ROOT
ATOM      1  C   UNL     1       4.512  44.219  11.301  1.00  0.00     0.000 C 
ENDROOT
BRANCH   1   2
ATOM      2  C   UNL     1       4.052  43.272  10.181  1.00  0.00     0.000 C 
BRANCH   2   3
ATOM      3  C   UNL     1       2.663  42.698  10.483  1.00  0.00     0.000 C 
BRANCH   3   4
ATOM      4  C   UNL     1       1.561  43.698  10.115  1.00  0.00     0.000 C 
BRANCH   4   5
ATOM      5  C   UNL     1       0.836  44.206  11.371  1.00  0.00     0.000 C 
BRANCH   5   6
ATOM      6  C   UNL     1       0.751  43.144  12.482  1.00  0.00     0.000 C 
BRANCH   6   7
ATOM      7  C   UNL     1      -0.678  42.722  12.871  1.00  0.00     0.000 C 
BRANCH   7   8
ATOM      8  C   UNL     1      -0.764  41.534  13.851  1.00  0.00     0.000 C 
BRANCH   8   9
ATOM      9  C   UNL     1       0.594  40.977  14.321  1.00  0.00     0.000 C 
BRANCH   9  10
ATOM     10  C   UNL     1       1.074  39.720  13.574  1.00  0.00     0.006 C 
BRANCH  10  11
ATOM     11  C   UNL     1       2.284  39.988  12.671  1.00  0.00     0.053 C 
BRANCH  11  12
ATOM     12  C   UNL     1       3.293  38.892  12.809  1.00  0.00     0.041 C 
ATOM     13  O   UNL     1       4.362  39.091  13.442  1.00  0.00    -0.550 OA
ATOM     14  O   UNL     1       3.075  37.665  12.194  1.00  0.00    -0.550 OA
ENDBRANCH  11  12
ENDBRANCH  10  11
ENDBRANCH   9  10
ENDBRANCH   8   9
ENDBRANCH   7   8
ENDBRANCH   6   7
ENDBRANCH   5   6
ENDBRANCH   4   5
ENDBRANCH   3   4
ENDBRANCH   2   3
ENDBRANCH   1   2
BRANCH   1  15
ATOM     15  C   UNL     1       4.211  45.695  10.993  1.00  0.00     0.000 C 
BRANCH  15  16
ATOM     16  C   UNL     1       4.588  46.088   9.555  1.00  0.00     0.000 C 
BRANCH  16  17
ATOM     17  C   UNL     1       5.417  47.384   9.488  1.00  0.00     0.000 C 
BRANCH  17  18
ATOM     18  C   UNL     1       4.977  48.390   8.406  1.00  0.00    -0.000 C 
BRANCH  18  19
ATOM     19  C   UNL     1       3.724  47.986   7.601  1.00  0.00    -0.000 C 
BRANCH  19  20
ATOM     20  C   UNL     1       2.694  49.111   7.392  1.00  0.00    -0.000 C 
BRANCH  20  21
ATOM     21  C   UNL     1       1.311  48.844   8.018  1.00  0.00    -0.000 C 
BRANCH  21  22
ATOM     22  C   UNL     1       1.315  47.712   9.067  1.00  0.00    -0.000 C 
BRANCH  22  23
ATOM     23  C   UNL     1       0.459  46.510   8.634  1.00  0.00    -0.000 C 
BRANCH  23  24
ATOM     24  C   UNL     1      -0.739  46.918   7.763  1.00  0.00    -0.000 C 
BRANCH  24  25
ATOM     25  C   UNL     1      -0.928  45.999   6.546  1.00  0.00    -0.003 C 
ATOM     26  C   UNL     1      -0.268  44.642   6.776  1.00  0.00     0.004 C 
ENDBRANCH  24  25
ENDBRANCH  23  24
ENDBRANCH  22  23
ENDBRANCH  21  22
ENDBRANCH  20  21
ENDBRANCH  19  20
ENDBRANCH  18  19
ENDBRANCH  17  18
ENDBRANCH  16  17
ENDBRANCH  15  16
ENDBRANCH   1  15
TORSDOF 22
ENDMDL
MODEL 7
REMARK VINA RESULT:    -4.435      3.111      8.232
REMARK INTER + INTRA:         -12.320
REMARK INTER:                  -9.862
REMARK INTRA:                  -2.458
REMARK UNBOUND:                -2.181
REMARK SMILES CCCCCCCCCCCCCCCCCCCCCCCC(=O)[O-]
REMARK SMILES IDX 13 1 14 2 15 3 16 4 17 5 18 6 19 7 20 8 21 9 22 10 23 11
REMARK SMILES IDX 24 12 25 13 26 14 12 15 11 16 10 17 9 18 8 19 7 20 6 21 5 22
REMARK SMILES IDX 4 23 3 24 2 25 1 26
REMARK H PARENT
REMARK Flexibility Score: inf
ROOT
ATOM      1  C   UNL     1       3.665  43.532   9.213  1.00  0.00     0.000 C 
ENDROOT
BRANCH   1   2
ATOM      2  C   UNL     1       4.094  42.967  10.576  1.00  0.00     0.000 C 
BRANCH   2   3
ATOM      3  C   UNL     1       4.253  44.088  11.610  1.00  0.00     0.000 C 
BRANCH   3   4
ATOM      4  C   UNL     1       2.887  44.586  12.098  1.00  0.00     0.000 C 
BRANCH   4   5
ATOM      5  C   UNL     1       2.000  43.414  12.543  1.00  0.00     0.000 C 
BRANCH   5   6
ATOM      6  C   UNL     1       0.546  43.548  12.056  1.00  0.00     0.000 C 
BRANCH   6   7
ATOM      7  C   UNL     1      -0.527  43.175  13.097  1.00  0.00     0.000 C 
BRANCH   7   8
ATOM      8  C   UNL     1      -0.716  41.661  13.326  1.00  0.00     0.000 C 
BRANCH   8   9
ATOM      9  C   UNL     1       0.324  41.009  14.260  1.00  0.00     0.000 C 
BRANCH   9  10
ATOM     10  C   UNL     1       1.088  39.820  13.650  1.00  0.00     0.006 C 
BRANCH  10  11
ATOM     11  C   UNL     1       2.309  40.253  12.830  1.00  0.00     0.053 C 
BRANCH  11  12
ATOM     12  C   UNL     1       3.342  39.170  12.820  1.00  0.00     0.041 C 
ATOM     13  O   UNL     1       4.537  39.432  13.114  1.00  0.00    -0.550 OA
ATOM     14  O   UNL     1       2.994  37.881  12.433  1.00  0.00    -0.550 OA
ENDBRANCH  11  12
ENDBRANCH  10  11
ENDBRANCH   9  10
ENDBRANCH   8   9
ENDBRANCH   7   8
ENDBRANCH   6   7
ENDBRANCH   5   6
ENDBRANCH   4   5
ENDBRANCH   3   4
ENDBRANCH   2   3
ENDBRANCH   1   2
BRANCH   1  15
ATOM     15  C   UNL     1       2.258  43.074   8.794  1.00  0.00     0.000 C 
BRANCH  15  16
ATOM     16  C   UNL     1       1.228  44.215   8.830  1.00  0.00     0.000 C 
BRANCH  16  17
ATOM     17  C   UNL     1       0.469  44.376   7.499  1.00  0.00     0.000 C 
BRANCH  17  18
ATOM     18  C   UNL     1      -0.545  45.536   7.459  1.00  0.00    -0.000 C 
BRANCH  18  19
ATOM     19  C   UNL     1      -0.361  46.611   8.550  1.00  0.00    -0.000 C 
BRANCH  19  20
ATOM     20  C   UNL     1       0.103  47.987   8.036  1.00  0.00    -0.000 C 
BRANCH  20  21
ATOM     21  C   UNL     1       1.425  48.491   8.646  1.00  0.00    -0.000 C 
BRANCH  21  22
ATOM     22  C   UNL     1       2.331  47.362   9.181  1.00  0.00    -0.000 C 
BRANCH  22  23
ATOM     23  C   UNL     1       3.662  47.268   8.417  1.00  0.00    -0.000 C 
BRANCH  23  24
ATOM     24  C   UNL     1       4.856  46.975   9.339  1.00  0.00    -0.000 C 
BRANCH  24  25
ATOM     25  C   UNL     1       5.908  48.095   9.320  1.00  0.00    -0.003 C 
ATOM     26  C   UNL     1       7.314  47.529   9.501  1.00  0.00     0.004 C 
ENDBRANCH  24  25
ENDBRANCH  23  24
ENDBRANCH  22  23
ENDBRANCH  21  22
ENDBRANCH  20  21
ENDBRANCH  19  20
ENDBRANCH  18  19
ENDBRANCH  17  18
ENDBRANCH  16  17
ENDBRANCH  15  16
ENDBRANCH   1  15
TORSDOF 22
ENDMDL
MODEL 8
REMARK VINA RESULT:    -4.409      1.528      2.488
REMARK INTER + INTRA:         -12.261
REMARK INTER:                  -9.769
REMARK INTRA:                  -2.491
REMARK UNBOUND:                -2.181
REMARK SMILES CCCCCCCCCCCCCCCCCCCCCCCC(=O)[O-]
REMARK SMILES IDX 13 1 14 2 15 3 16 4 17 5 18 6 19 7 20 8 21 9 22 10 23 11
REMARK SMILES IDX 24 12 25 13 26 14 12 15 11 16 10 17 9 18 8 19 7 20 6 21 5 22
REMARK SMILES IDX 4 23 3 24 2 25 1 26
REMARK H PARENT
REMARK Flexibility Score: inf
ROOT
ATOM      1  C   UNL     1       0.956  44.479   8.900  1.00  0.00     0.000 C 
ENDROOT
BRANCH   1   2
ATOM      2  C   UNL     1      -0.166  44.549   7.853  1.00  0.00     0.000 C 
BRANCH   2   3
ATOM      3  C   UNL     1       0.091  45.676   6.846  1.00  0.00     0.000 C 
BRANCH   3   4
ATOM      4  C   UNL     1      -0.964  46.782   6.974  1.00  0.00     0.000 C 
BRANCH   4   5
ATOM      5  C   UNL     1      -0.848  47.500   8.327  1.00  0.00     0.000 C 
BRANCH   5   6
ATOM      6  C   UNL     1      -0.267  48.920   8.201  1.00  0.00     0.000 C 
BRANCH   6   7
ATOM      7  C   UNL     1       1.235  48.981   7.859  1.00  0.00     0.000 C 
BRANCH   7   8
ATOM      8  C   UNL     1       2.126  48.007   8.657  1.00  0.00     0.000 C 
BRANCH   8   9
ATOM      9  C   UNL     1       3.486  47.686   8.006  1.00  0.00     0.000 C 
BRANCH   9  10
ATOM     10  C   UNL     1       4.392  46.749   8.824  1.00  0.00     0.006 C 
BRANCH  10  11
ATOM     11  C   UNL     1       5.125  47.470   9.961  1.00  0.00     0.053 C 
BRANCH  11  12
ATOM     12  C   UNL     1       6.409  48.057   9.466  1.00  0.00     0.041 C 
ATOM     13  O   UNL     1       6.496  49.292   9.240  1.00  0.00    -0.550 OA
ATOM     14  O   UNL     1       7.495  47.230   9.203  1.00  0.00    -0.550 OA
ENDBRANCH  11  12
ENDBRANCH  10  11
ENDBRANCH   9  10
ENDBRANCH   8   9
ENDBRANCH   7   8
ENDBRANCH   6   7
ENDBRANCH   5   6
ENDBRANCH   4   5
ENDBRANCH   3   4
ENDBRANCH   2   3
ENDBRANCH   1   2
BRANCH   1  15
ATOM     15  C   UNL     1       0.506  44.960  10.289  1.00  0.00     0.000 C 
BRANCH  15  16
ATOM     16  C   UNL     1       1.416  44.446  11.417  1.00  0.00     0.000 C 
BRANCH  16  17
ATOM     17  C   UNL     1       2.816  45.087  11.394  1.00  0.00     0.000 C 
BRANCH  17  18
ATOM     18  C   UNL     1       3.986  44.118  11.658  1.00  0.00    -0.000 C 
BRANCH  18  19
ATOM     19  C   UNL     1       4.057  42.899  10.715  1.00  0.00    -0.000 C 
BRANCH  19  20
ATOM     20  C   UNL     1       3.129  41.730  11.093  1.00  0.00    -0.000 C 
BRANCH  20  21
ATOM     21  C   UNL     1       3.189  41.311  12.574  1.00  0.00    -0.000 C 
BRANCH  21  22
ATOM     22  C   UNL     1       2.698  39.870  12.830  1.00  0.00    -0.000 C 
BRANCH  22  23
ATOM     23  C   UNL     1       1.241  39.827  13.320  1.00  0.00    -0.000 C 
BRANCH  23  24
ATOM     24  C   UNL     1       0.683  41.221  13.647  1.00  0.00    -0.000 C 
BRANCH  24  25
ATOM     25  C   UNL     1      -0.505  41.171  14.619  1.00  0.00    -0.003 C 
ATOM     26  C   UNL     1      -0.047  41.391  16.058  1.00  0.00     0.004 C 
ENDBRANCH  24  25
ENDBRANCH  23  24
ENDBRANCH  22  23
ENDBRANCH  21  22
ENDBRANCH  20  21
ENDBRANCH  19  20
ENDBRANCH  18  19
ENDBRANCH  17  18
ENDBRANCH  16  17
ENDBRANCH  15  16
ENDBRANCH   1  15
TORSDOF 22
ENDMDL
MODEL 9
REMARK VINA RESULT:    -4.285      1.643      3.296
REMARK INTER + INTRA:         -11.978
REMARK INTER:                  -8.784
REMARK INTRA:                  -3.194
REMARK UNBOUND:                -2.181
REMARK SMILES CCCCCCCCCCCCCCCCCCCCCCCC(=O)[O-]
REMARK SMILES IDX 13 1 14 2 15 3 16 4 17 5 18 6 19 7 20 8 21 9 22 10 23 11
REMARK SMILES IDX 24 12 25 13 26 14 12 15 11 16 10 17 9 18 8 19 7 20 6 21 5 22
REMARK SMILES IDX 4 23 3 24 2 25 1 26
REMARK H PARENT
REMARK Flexibility Score: inf
ROOT
ATOM      1  C   UNL     1       1.056  44.309   9.400  1.00  0.00     0.000 C 
ENDROOT
BRANCH   1   2
ATOM      2  C   UNL     1       0.574  44.880   8.058  1.00  0.00     0.000 C 
BRANCH   2   3
ATOM      3  C   UNL     1      -0.623  45.816   8.256  1.00  0.00     0.000 C 
BRANCH   3   4
ATOM      4  C   UNL     1      -0.569  46.995   7.276  1.00  0.00     0.000 C 
BRANCH   4   5
ATOM      5  C   UNL     1      -0.471  48.331   8.027  1.00  0.00     0.000 C 
BRANCH   5   6
ATOM      6  C   UNL     1       0.924  48.576   8.629  1.00  0.00     0.000 C 
BRANCH   6   7
ATOM      7  C   UNL     1       2.010  48.979   7.613  1.00  0.00     0.000 C 
BRANCH   7   8
ATOM      8  C   UNL     1       3.270  48.090   7.617  1.00  0.00     0.000 C 
BRANCH   8   9
ATOM      9  C   UNL     1       3.325  47.042   8.746  1.00  0.00     0.000 C 
BRANCH   9  10
ATOM     10  C   UNL     1       4.732  46.507   9.068  1.00  0.00     0.006 C 
BRANCH  10  11
ATOM     11  C   UNL     1       5.495  47.393  10.061  1.00  0.00     0.053 C 
BRANCH  11  12
ATOM     12  C   UNL     1       6.683  48.016   9.399  1.00  0.00     0.041 C 
ATOM     13  O   UNL     1       7.794  47.424   9.402  1.00  0.00    -0.550 OA
ATOM     14  O   UNL     1       6.576  49.277   8.824  1.00  0.00    -0.550 OA
ENDBRANCH  11  12
ENDBRANCH  10  11
ENDBRANCH   9  10
ENDBRANCH   8   9
ENDBRANCH   7   8
ENDBRANCH   6   7
ENDBRANCH   5   6
ENDBRANCH   4   5
ENDBRANCH   3   4
ENDBRANCH   2   3
ENDBRANCH   1   2
BRANCH   1  15
ATOM     15  C   UNL     1       0.828  45.276  10.574  1.00  0.00     0.000 C 
BRANCH  15  16
ATOM     16  C   UNL     1      -0.049  44.667  11.680  1.00  0.00     0.000 C 
BRANCH  16  17
ATOM     17  C   UNL     1       0.490  43.320  12.197  1.00  0.00     0.000 C 
BRANCH  17  18
ATOM     18  C   UNL     1      -0.523  42.466  12.986  1.00  0.00    -0.000 C 
BRANCH  18  19
ATOM     19  C   UNL     1       0.093  41.503  14.022  1.00  0.00    -0.000 C 
BRANCH  19  20
ATOM     20  C   UNL     1       0.788  40.265  13.426  1.00  0.00    -0.000 C 
BRANCH  20  21
ATOM     21  C   UNL     1       2.317  40.231  13.615  1.00  0.00    -0.000 C 
BRANCH  21  22
ATOM     22  C   UNL     1       3.104  40.187  12.287  1.00  0.00    -0.000 C 
BRANCH  22  23
ATOM     23  C   UNL     1       4.011  41.415  12.103  1.00  0.00    -0.000 C 
BRANCH  23  24
ATOM     24  C   UNL     1       3.604  42.278  10.898  1.00  0.00    -0.000 C 
BRANCH  24  25
ATOM     25  C   UNL     1       4.051  43.741  11.039  1.00  0.00    -0.003 C 
ATOM     26  C   UNL     1       4.425  44.064  12.483  1.00  0.00     0.004 C 
ENDBRANCH  24  25
ENDBRANCH  23  24
ENDBRANCH  22  23
ENDBRANCH  21  22
ENDBRANCH  20  21
ENDBRANCH  19  20
ENDBRANCH  18  19
ENDBRANCH  17  18
ENDBRANCH  16  17
ENDBRANCH  15  16
ENDBRANCH   1  15
TORSDOF 22
ENDMDL
