MODEL 1
REMARK VINA RESULT:    -4.645      0.000      0.000
REMARK INTER + INTRA:          -4.353
REMARK INTER:                  -6.411
REMARK INTRA:                   2.057
REMARK UNBOUND:                 2.057
REMARK SMILES C=C(CC[C@H](C(=O)[O-])[C@@H]1CC[C@]2(C)C3=CC[C@H]4C(C)(C)[C@@H](O)CC[C@]4(C)C3=CC[C@]12C)C(C)C
REMARK SMILES IDX 4 1 5 2 6 3 7 4 8 5 9 6 10 7 30 8 11 9 12 10 29 11 31 12
REMARK SMILES IDX 13 13 14 14 28 15 27 16 15 17 25 18 16 19 17 20 24 21 26 22
REMARK SMILES IDX 18 23 23 24 21 25 19 26 20 27 22 28 3 30 2 31 1 32 32 33
REMARK SMILES IDX 33 34 34 35
REMARK H PARENT 22 29
REMARK Flexibility Score: inf
ROOT
ATOM      1  C   UNL     1      99.949 113.398 113.428  1.00  0.00     0.014 C 
ENDROOT
BRANCH   1   2
ATOM      2  C   UNL     1     100.707 112.979 114.719  1.00  0.00     0.039 C 
BRANCH   2   3
ATOM      3  C   UNL     1      99.767 112.262 115.650  1.00  0.00     0.045 C 
ATOM      4  O   UNL     1     100.200 111.390 116.450  1.00  0.00    -0.550 OA
ATOM      5  O   UNL     1      98.409 112.554 115.627  1.00  0.00    -0.550 OA
ENDBRANCH   2   3
BRANCH   2   6
ATOM      6  C   UNL     1     101.359 114.218 115.428  1.00  0.00     0.005 C 
ATOM      7  C   UNL     1     102.787 113.929 115.922  1.00  0.00     0.006 C 
ATOM      8  C   UNL     1     100.622 114.816 116.673  1.00  0.00    -0.016 C 
ATOM      9  C   UNL     1     103.018 114.745 117.192  1.00  0.00     0.012 C 
ATOM     10  C   UNL     1     101.759 115.607 117.424  1.00  0.00    -0.002 C 
ATOM     11  C   UNL     1     100.087 113.691 117.600  1.00  0.00     0.035 C 
ATOM     12  C   UNL     1      99.433 115.733 116.260  1.00  0.00     0.013 C 
ATOM     13  C   UNL     1     101.987 117.015 116.793  1.00  0.00     0.017 C 
ATOM     14  C   UNL     1     101.498 115.765 118.937  1.00  0.00    -0.042 C 
ATOM     15  C   UNL     1      99.578 114.254 118.888  1.00  0.00    -0.022 C 
ATOM     16  C   UNL     1     100.275 115.181 119.570  1.00  0.00    -0.042 C 
ATOM     17  C   UNL     1     102.399 116.410 119.703  1.00  0.00    -0.022 C 
ATOM     18  C   UNL     1      99.818 115.727 120.937  1.00  0.00    -0.004 C 
ATOM     19  C   UNL     1     102.177 116.752 121.149  1.00  0.00     0.032 C 
ATOM     20  C   UNL     1     101.117 115.846 121.822  1.00  0.00     0.011 C 
ATOM     21  C   UNL     1      98.809 114.770 121.641  1.00  0.00     0.014 C 
ATOM     22  C   UNL     1      99.119 117.080 120.638  1.00  0.00     0.017 C 
ATOM     23  C   UNL     1     100.914 116.116 123.371  1.00  0.00    -0.005 C 
ATOM     24  C   UNL     1      98.542 115.124 123.106  1.00  0.00     0.033 C 
ATOM     25  C   UNL     1      99.843 115.120 123.923  1.00  0.00     0.120 C 
ATOM     26  C   UNL     1     102.243 115.819 124.120  1.00  0.00     0.014 C 
ATOM     27  C   UNL     1     100.533 117.585 123.704  1.00  0.00     0.014 C 
BRANCH  25  28
ATOM     28  O   UNL     1      99.578 115.331 125.291  1.00  0.00    -0.393 OA
ATOM     29  H   UNL     1     100.430 115.237 125.792  1.00  0.00     0.210 HD
ENDBRANCH  25  28
ENDBRANCH   2   6
ENDBRANCH   1   2
BRANCH   1  30
ATOM     30  C   UNL     1      99.517 112.211 112.540  1.00  0.00     0.031 C 
BRANCH  30  31
ATOM     31  C   UNL     1     100.006 112.320 111.101  1.00  0.00    -0.075 C 
ATOM     32  C   UNL     1      99.129 112.123 110.100  1.00  0.00     0.008 C 
BRANCH  31  33
ATOM     33  C   UNL     1     101.469 112.591 110.741  1.00  0.00     0.008 C 
ATOM     34  C   UNL     1     101.954 111.628 109.649  1.00  0.00     0.012 C 
ATOM     35  C   UNL     1     101.753 114.047 110.339  1.00  0.00     0.012 C 
ENDBRANCH  31  33
ENDBRANCH  30  31
ENDBRANCH   1  30
TORSDOF 7
ENDMDL
MODEL 2
REMARK VINA RESULT:    -4.556      0.669      1.158
REMARK INTER + INTRA:          -4.230
REMARK INTER:                  -5.465
REMARK INTRA:                   1.235
REMARK UNBOUND:                 2.057
REMARK SMILES C=C(CC[C@H](C(=O)[O-])[C@@H]1CC[C@]2(C)C3=CC[C@H]4C(C)(C)[C@@H](O)CC[C@]4(C)C3=CC[C@]12C)C(C)C
REMARK SMILES IDX 4 1 5 2 6 3 7 4 8 5 9 6 10 7 30 8 11 9 12 10 29 11 31 12
REMARK SMILES IDX 13 13 14 14 28 15 27 16 15 17 25 18 16 19 17 20 24 21 26 22
REMARK SMILES IDX 18 23 23 24 21 25 19 26 20 27 22 28 3 30 2 31 1 32 32 33
REMARK SMILES IDX 33 34 34 35
REMARK H PARENT 22 29
REMARK Flexibility Score: inf
ROOT
ATOM      1  C   UNL     1     101.588 112.880 113.501  1.00  0.00     0.014 C 
ENDROOT
BRANCH   1   2
ATOM      2  C   UNL     1     101.011 113.029 114.937  1.00  0.00     0.039 C 
BRANCH   2   3
ATOM      3  C   UNL     1      99.506 113.016 114.883  1.00  0.00     0.045 C 
ATOM      4  O   UNL     1      98.852 112.136 115.502  1.00  0.00    -0.550 OA
ATOM      5  O   UNL     1      98.829 113.977 114.143  1.00  0.00    -0.550 OA
ENDBRANCH   2   3
BRANCH   2   6
ATOM      6  C   UNL     1     101.535 114.335 115.632  1.00  0.00     0.005 C 
ATOM      7  C   UNL     1     102.988 114.200 116.119  1.00  0.00     0.006 C 
ATOM      8  C   UNL     1     100.747 114.863 116.878  1.00  0.00    -0.016 C 
ATOM      9  C   UNL     1     103.140 115.046 117.381  1.00  0.00     0.012 C 
ATOM     10  C   UNL     1     101.801 115.774 117.614  1.00  0.00    -0.002 C 
ATOM     11  C   UNL     1     100.337 113.696 117.816  1.00  0.00     0.035 C 
ATOM     12  C   UNL     1      99.466 115.648 116.465  1.00  0.00     0.013 C 
ATOM     13  C   UNL     1     101.877 117.193 116.971  1.00  0.00     0.017 C 
ATOM     14  C   UNL     1     101.533 115.917 119.127  1.00  0.00    -0.042 C 
ATOM     15  C   UNL     1      99.780 114.214 119.103  1.00  0.00    -0.022 C 
ATOM     16  C   UNL     1     100.381 115.214 119.774  1.00  0.00    -0.042 C 
ATOM     17  C   UNL     1     102.367 116.659 119.883  1.00  0.00    -0.022 C 
ATOM     18  C   UNL     1      99.879 115.722 121.139  1.00  0.00    -0.004 C 
ATOM     19  C   UNL     1     102.119 116.987 121.328  1.00  0.00     0.032 C 
ATOM     20  C   UNL     1     101.163 115.982 122.015  1.00  0.00     0.011 C 
ATOM     21  C   UNL     1      98.978 114.670 121.858  1.00  0.00     0.014 C 
ATOM     22  C   UNL     1      99.040 116.992 120.835  1.00  0.00     0.017 C 
ATOM     23  C   UNL     1     100.943 116.243 123.563  1.00  0.00    -0.005 C 
ATOM     24  C   UNL     1      98.685 115.007 123.322  1.00  0.00     0.033 C 
ATOM     25  C   UNL     1      99.985 115.145 124.129  1.00  0.00     0.120 C 
ATOM     26  C   UNL     1     102.300 116.092 124.305  1.00  0.00     0.014 C 
ATOM     27  C   UNL     1     100.413 117.667 123.887  1.00  0.00     0.014 C 
BRANCH  25  28
ATOM     28  O   UNL     1      99.707 115.339 125.498  1.00  0.00    -0.393 OA
ATOM     29  H   UNL     1     100.064 114.561 126.002  1.00  0.00     0.210 HD
ENDBRANCH  25  28
ENDBRANCH   2   6
ENDBRANCH   1   2
BRANCH   1  30
ATOM     30  C   UNL     1     100.790 113.641 112.421  1.00  0.00     0.031 C 
BRANCH  30  31
ATOM     31  C   UNL     1     101.208 113.292 110.998  1.00  0.00    -0.075 C 
ATOM     32  C   UNL     1     101.791 114.239 110.241  1.00  0.00     0.008 C 
BRANCH  31  33
ATOM     33  C   UNL     1     100.944 111.922 110.369  1.00  0.00     0.008 C 
ATOM     34  C   UNL     1      99.644 111.932 109.553  1.00  0.00     0.012 C 
ATOM     35  C   UNL     1     102.109 111.391 109.518  1.00  0.00     0.012 C 
ENDBRANCH  31  33
ENDBRANCH  30  31
ENDBRANCH   1  30
TORSDOF 7
ENDMDL
MODEL 3
REMARK VINA RESULT:    -4.136      1.917      9.336
REMARK INTER + INTRA:          -3.650
REMARK INTER:                  -2.683
REMARK INTRA:                  -0.967
REMARK UNBOUND:                 2.057
REMARK SMILES C=C(CC[C@H](C(=O)[O-])[C@@H]1CC[C@]2(C)C3=CC[C@H]4C(C)(C)[C@@H](O)CC[C@]4(C)C3=CC[C@]12C)C(C)C
REMARK SMILES IDX 4 1 5 2 6 3 7 4 8 5 9 6 10 7 30 8 11 9 12 10 29 11 31 12
REMARK SMILES IDX 13 13 14 14 28 15 27 16 15 17 25 18 16 19 17 20 24 21 26 22
REMARK SMILES IDX 18 23 23 24 21 25 19 26 20 27 22 28 3 30 2 31 1 32 32 33
REMARK SMILES IDX 33 34 34 35
REMARK H PARENT 22 29
REMARK Flexibility Score: inf
ROOT
ATOM      1  C   UNL     1      98.452 116.367 123.603  1.00  0.00     0.014 C 
ENDROOT
BRANCH   1   2
ATOM      2  C   UNL     1      99.387 115.478 122.736  1.00  0.00     0.039 C 
BRANCH   2   3
ATOM      3  C   UNL     1     100.619 115.120 123.523  1.00  0.00     0.045 C 
ATOM      4  O   UNL     1     100.633 114.098 124.259  1.00  0.00    -0.550 OA
ATOM      5  O   UNL     1     101.751 115.922 123.446  1.00  0.00    -0.550 OA
ENDBRANCH   2   3
BRANCH   2   6
ATOM      6  C   UNL     1      99.769 116.190 121.391  1.00  0.00     0.005 C 
ATOM      7  C   UNL     1      98.594 116.977 120.787  1.00  0.00     0.006 C 
ATOM      8  C   UNL     1     100.292 115.295 120.217  1.00  0.00    -0.016 C 
ATOM      9  C   UNL     1      98.729 116.929 119.267  1.00  0.00     0.012 C 
ATOM     10  C   UNL     1     100.041 116.187 118.942  1.00  0.00    -0.002 C 
ATOM     11  C   UNL     1      99.461 113.989 120.096  1.00  0.00     0.035 C 
ATOM     12  C   UNL     1     101.793 114.920 120.395  1.00  0.00     0.013 C 
ATOM     13  C   UNL     1     101.179 117.234 118.745  1.00  0.00     0.017 C 
ATOM     14  C   UNL     1      99.877 115.366 117.645  1.00  0.00    -0.042 C 
ATOM     15  C   UNL     1      99.815 113.241 118.851  1.00  0.00    -0.022 C 
ATOM     16  C   UNL     1      99.939 113.871 117.669  1.00  0.00    -0.042 C 
ATOM     17  C   UNL     1      99.644 116.003 116.480  1.00  0.00    -0.022 C 
ATOM     18  C   UNL     1     100.228 113.123 116.352  1.00  0.00    -0.004 C 
ATOM     19  C   UNL     1      99.619 115.319 115.143  1.00  0.00     0.032 C 
ATOM     20  C   UNL     1      99.328 113.803 115.250  1.00  0.00     0.011 C 
ATOM     21  C   UNL     1      99.860 111.611 116.447  1.00  0.00     0.014 C 
ATOM     22  C   UNL     1     101.755 113.265 116.112  1.00  0.00     0.017 C 
ATOM     23  C   UNL     1      99.208 113.059 113.856  1.00  0.00    -0.005 C 
ATOM     24  C   UNL     1      99.864 110.890 115.098  1.00  0.00     0.033 C 
ATOM     25  C   UNL     1      98.888 111.551 114.113  1.00  0.00     0.120 C 
ATOM     26  C   UNL     1      98.010 113.651 113.063  1.00  0.00     0.014 C 
ATOM     27  C   UNL     1     100.462 113.218 112.953  1.00  0.00     0.014 C 
BRANCH  25  28
ATOM     28  O   UNL     1      98.809 110.814 112.913  1.00  0.00    -0.393 OA
ATOM     29  H   UNL     1      98.550 111.434 112.182  1.00  0.00     0.210 HD
ENDBRANCH  25  28
ENDBRANCH   2   6
ENDBRANCH   1   2
BRANCH   1  30
ATOM     30  C   UNL     1      99.194 117.229 124.647  1.00  0.00     0.031 C 
BRANCH  30  31
ATOM     31  C   UNL     1      99.391 118.675 124.211  1.00  0.00    -0.075 C 
ATOM     32  C   UNL     1     100.628 119.096 123.895  1.00  0.00     0.008 C 
BRANCH  31  33
ATOM     33  C   UNL     1      98.246 119.691 124.170  1.00  0.00     0.008 C 
ATOM     34  C   UNL     1      98.713 121.067 124.666  1.00  0.00     0.012 C 
ATOM     35  C   UNL     1      97.572 119.816 122.794  1.00  0.00     0.012 C 
ENDBRANCH  31  33
ENDBRANCH  30  31
ENDBRANCH   1  30
TORSDOF 7
ENDMDL
MODEL 4
REMARK VINA RESULT:    -3.445      2.908      5.264
REMARK INTER + INTRA:          -2.697
REMARK INTER:                  -1.883
REMARK INTRA:                  -0.814
REMARK UNBOUND:                 2.057
REMARK SMILES C=C(CC[C@H](C(=O)[O-])[C@@H]1CC[C@]2(C)C3=CC[C@H]4C(C)(C)[C@@H](O)CC[C@]4(C)C3=CC[C@]12C)C(C)C
REMARK SMILES IDX 4 1 5 2 6 3 7 4 8 5 9 6 10 7 30 8 11 9 12 10 29 11 31 12
REMARK SMILES IDX 13 13 14 14 28 15 27 16 15 17 25 18 16 19 17 20 24 21 26 22
REMARK SMILES IDX 18 23 23 24 21 25 19 26 20 27 22 28 3 30 2 31 1 32 32 33
REMARK SMILES IDX 33 34 34 35
REMARK H PARENT 22 29
REMARK Flexibility Score: inf
ROOT
ATOM      1  C   UNL     1      96.726 113.192 111.119  1.00  0.00     0.014 C 
ENDROOT
BRANCH   1   2
ATOM      2  C   UNL     1      98.257 113.082 111.367  1.00  0.00     0.039 C 
BRANCH   2   3
ATOM      3  C   UNL     1      98.936 112.563 110.127  1.00  0.00     0.045 C 
ATOM      4  O   UNL     1      99.573 111.477 110.154  1.00  0.00    -0.550 OA
ATOM      5  O   UNL     1      98.868 113.286 108.943  1.00  0.00    -0.550 OA
ENDBRANCH   2   3
BRANCH   2   6
ATOM      6  C   UNL     1      98.573 112.167 112.602  1.00  0.00     0.005 C 
ATOM      7  C   UNL     1      97.301 111.709 113.336  1.00  0.00     0.006 C 
ATOM      8  C   UNL     1      99.490 112.754 113.727  1.00  0.00    -0.016 C 
ATOM      9  C   UNL     1      97.638 111.574 114.819  1.00  0.00     0.012 C 
ATOM     10  C   UNL     1      99.145 111.862 114.979  1.00  0.00    -0.002 C 
ATOM     11  C   UNL     1      99.121 114.230 114.036  1.00  0.00     0.035 C 
ATOM     12  C   UNL     1     100.998 112.684 113.344  1.00  0.00     0.013 C 
ATOM     13  C   UNL     1      99.924 110.511 114.950  1.00  0.00     0.017 C 
ATOM     14  C   UNL     1      99.408 112.569 116.325  1.00  0.00    -0.042 C 
ATOM     15  C   UNL     1      99.843 114.721 115.250  1.00  0.00    -0.022 C 
ATOM     16  C   UNL     1      99.920 113.975 116.368  1.00  0.00    -0.042 C 
ATOM     17  C   UNL     1      99.143 111.924 117.479  1.00  0.00    -0.022 C 
ATOM     18  C   UNL     1     100.589 114.478 117.661  1.00  0.00    -0.004 C 
ATOM     19  C   UNL     1      99.500 112.457 118.837  1.00  0.00     0.032 C 
ATOM     20  C   UNL     1      99.675 113.995 118.851  1.00  0.00     0.011 C 
ATOM     21  C   UNL     1     100.692 116.034 117.698  1.00  0.00     0.014 C 
ATOM     22  C   UNL     1     102.018 113.870 117.661  1.00  0.00     0.017 C 
ATOM     23  C   UNL     1      99.967 114.608 120.283  1.00  0.00    -0.005 C 
ATOM     24  C   UNL     1     101.090 116.593 119.066  1.00  0.00     0.033 C 
ATOM     25  C   UNL     1     100.094 116.160 120.153  1.00  0.00     0.120 C 
ATOM     26  C   UNL     1      98.758 114.325 121.216  1.00  0.00     0.014 C 
ATOM     27  C   UNL     1     101.218 114.002 120.977  1.00  0.00     0.014 C 
BRANCH  25  28
ATOM     28  O   UNL     1     100.398 116.773 121.385  1.00  0.00    -0.393 OA
ATOM     29  H   UNL     1     100.238 117.748 121.297  1.00  0.00     0.210 HD
ENDBRANCH  25  28
ENDBRANCH   2   6
ENDBRANCH   1   2
BRANCH   1  30
ATOM     30  C   UNL     1      96.238 112.441 109.861  1.00  0.00     0.031 C 
BRANCH  30  31
ATOM     31  C   UNL     1      94.750 112.114 109.888  1.00  0.00    -0.075 C 
ATOM     32  C   UNL     1      93.862 113.111 109.728  1.00  0.00     0.008 C 
BRANCH  31  33
ATOM     33  C   UNL     1      94.217 110.702 110.147  1.00  0.00     0.008 C 
ATOM     34  C   UNL     1      94.965 109.667 109.296  1.00  0.00     0.012 C 
ATOM     35  C   UNL     1      94.231 110.291 111.628  1.00  0.00     0.012 C 
ENDBRANCH  31  33
ENDBRANCH  30  31
ENDBRANCH   1  30
TORSDOF 7
ENDMDL
MODEL 5
REMARK VINA RESULT:    -1.751      1.699      3.589
REMARK INTER + INTRA:          -0.359
REMARK INTER:                  -0.502
REMARK INTRA:                   0.143
REMARK UNBOUND:                 2.057
REMARK SMILES C=C(CC[C@H](C(=O)[O-])[C@@H]1CC[C@]2(C)C3=CC[C@H]4C(C)(C)[C@@H](O)CC[C@]4(C)C3=CC[C@]12C)C(C)C
REMARK SMILES IDX 4 1 5 2 6 3 7 4 8 5 9 6 10 7 30 8 11 9 12 10 29 11 31 12
REMARK SMILES IDX 13 13 14 14 28 15 27 16 15 17 25 18 16 19 17 20 24 21 26 22
REMARK SMILES IDX 18 23 23 24 21 25 19 26 20 27 22 28 3 30 2 31 1 32 32 33
REMARK SMILES IDX 33 34 34 35
REMARK H PARENT 22 29
REMARK Flexibility Score: inf
ROOT
ATOM      1  C   UNL     1     100.167 112.024 115.365  1.00  0.00     0.014 C 
ENDROOT
BRANCH   1   2
ATOM      2  C   UNL     1      99.986 113.446 114.763  1.00  0.00     0.039 C 
BRANCH   2   3
ATOM      3  C   UNL     1     100.296 113.416 113.289  1.00  0.00     0.045 C 
ATOM      4  O   UNL     1     101.418 113.800 112.864  1.00  0.00    -0.550 OA
ATOM      5  O   UNL     1      99.340 112.968 112.387  1.00  0.00    -0.550 OA
ENDBRANCH   2   3
BRANCH   2   6
ATOM      6  C   UNL     1     100.883 114.500 115.502  1.00  0.00     0.005 C 
ATOM      7  C   UNL     1     102.222 113.907 115.972  1.00  0.00     0.006 C 
ATOM      8  C   UNL     1     100.291 115.197 116.772  1.00  0.00    -0.016 C 
ATOM      9  C   UNL     1     102.622 114.617 117.263  1.00  0.00     0.012 C 
ATOM     10  C   UNL     1     101.570 115.712 117.534  1.00  0.00    -0.002 C 
ATOM     11  C   UNL     1      99.538 114.178 117.670  1.00  0.00     0.035 C 
ATOM     12  C   UNL     1      99.315 116.353 116.400  1.00  0.00     0.013 C 
ATOM     13  C   UNL     1     102.081 117.061 116.944  1.00  0.00     0.017 C 
ATOM     14  C   UNL     1     101.354 115.872 119.054  1.00  0.00    -0.042 C 
ATOM     15  C   UNL     1      99.162 114.793 118.980  1.00  0.00    -0.022 C 
ATOM     16  C   UNL     1     100.039 115.534 119.682  1.00  0.00    -0.042 C 
ATOM     17  C   UNL     1     102.372 116.293 119.829  1.00  0.00    -0.022 C 
ATOM     18  C   UNL     1      99.712 116.119 121.070  1.00  0.00    -0.004 C 
ATOM     19  C   UNL     1     102.232 116.627 121.287  1.00  0.00     0.032 C 
ATOM     20  C   UNL     1     101.011 115.939 121.945  1.00  0.00     0.011 C 
ATOM     21  C   UNL     1      98.529 115.369 121.756  1.00  0.00     0.014 C 
ATOM     22  C   UNL     1      99.305 117.596 120.820  1.00  0.00     0.017 C 
ATOM     23  C   UNL     1     100.875 116.196 123.503  1.00  0.00    -0.005 C 
ATOM     24  C   UNL     1      98.348 115.724 123.233  1.00  0.00     0.033 C 
ATOM     25  C   UNL     1      99.624 115.425 124.036  1.00  0.00     0.120 C 
ATOM     26  C   UNL     1     102.117 115.607 124.228  1.00  0.00     0.014 C 
ATOM     27  C   UNL     1     100.807 117.701 123.883  1.00  0.00     0.014 C 
BRANCH  25  28
ATOM     28  O   UNL     1      99.414 115.643 125.412  1.00  0.00    -0.393 OA
ATOM     29  H   UNL     1      98.456 115.474 125.613  1.00  0.00     0.210 HD
ENDBRANCH  25  28
ENDBRANCH   2   6
ENDBRANCH   1   2
BRANCH   1  30
ATOM     30  C   UNL     1      99.202 111.707 116.528  1.00  0.00     0.031 C 
BRANCH  30  31
ATOM     31  C   UNL     1      99.709 110.610 117.455  1.00  0.00    -0.075 C 
ATOM     32  C   UNL     1      99.243 109.358 117.297  1.00  0.00     0.008 C 
BRANCH  31  33
ATOM     33  C   UNL     1     100.689 110.880 118.600  1.00  0.00     0.008 C 
ATOM     34  C   UNL     1     100.125 111.925 119.572  1.00  0.00     0.012 C 
ATOM     35  C   UNL     1     101.123 109.617 119.361  1.00  0.00     0.012 C 
ENDBRANCH  31  33
ENDBRANCH  30  31
ENDBRANCH   1  30
TORSDOF 7
ENDMDL
MODEL 6
REMARK VINA RESULT:    -1.715      1.295      1.745
REMARK INTER + INTRA:          -0.310
REMARK INTER:                  -2.329
REMARK INTRA:                   2.020
REMARK UNBOUND:                 2.057
REMARK SMILES C=C(CC[C@H](C(=O)[O-])[C@@H]1CC[C@]2(C)C3=CC[C@H]4C(C)(C)[C@@H](O)CC[C@]4(C)C3=CC[C@]12C)C(C)C
REMARK SMILES IDX 4 1 5 2 6 3 7 4 8 5 9 6 10 7 30 8 11 9 12 10 29 11 31 12
REMARK SMILES IDX 13 13 14 14 28 15 27 16 15 17 25 18 16 19 17 20 24 21 26 22
REMARK SMILES IDX 18 23 23 24 21 25 19 26 20 27 22 28 3 30 2 31 1 32 32 33
REMARK SMILES IDX 33 34 34 35
REMARK H PARENT 22 29
REMARK Flexibility Score: inf
ROOT
ATOM      1  C   UNL     1      99.539 111.060 114.388  1.00  0.00     0.014 C 
ENDROOT
BRANCH   1   2
ATOM      2  C   UNL     1     100.347 111.330 115.688  1.00  0.00     0.039 C 
BRANCH   2   3
ATOM      3  C   UNL     1      99.683 110.642 116.851  1.00  0.00     0.045 C 
ATOM      4  O   UNL     1      98.451 110.379 116.819  1.00  0.00    -0.550 OA
ATOM      5  O   UNL     1     100.427 110.298 117.972  1.00  0.00    -0.550 OA
ENDBRANCH   2   3
BRANCH   2   6
ATOM      6  C   UNL     1     100.499 112.868 115.960  1.00  0.00     0.005 C 
ATOM      7  C   UNL     1     101.967 113.327 115.940  1.00  0.00     0.006 C 
ATOM      8  C   UNL     1      99.926 113.430 117.304  1.00  0.00    -0.016 C 
ATOM      9  C   UNL     1     102.111 114.478 116.934  1.00  0.00     0.012 C 
ATOM     10  C   UNL     1     100.708 114.784 117.494  1.00  0.00    -0.002 C 
ATOM     11  C   UNL     1     100.251 112.482 118.490  1.00  0.00     0.035 C 
ATOM     12  C   UNL     1      98.383 113.638 117.236  1.00  0.00     0.013 C 
ATOM     13  C   UNL     1     100.069 115.935 116.658  1.00  0.00     0.017 C 
ATOM     14  C   UNL     1     100.813 115.227 118.969  1.00  0.00    -0.042 C 
ATOM     15  C   UNL     1      99.897 113.118 119.796  1.00  0.00    -0.022 C 
ATOM     16  C   UNL     1     100.226 114.395 120.065  1.00  0.00    -0.042 C 
ATOM     17  C   UNL     1     101.468 116.364 119.277  1.00  0.00    -0.022 C 
ATOM     18  C   UNL     1      99.945 115.059 121.427  1.00  0.00    -0.004 C 
ATOM     19  C   UNL     1     101.502 116.965 120.653  1.00  0.00     0.032 C 
ATOM     20  C   UNL     1     101.216 115.928 121.767  1.00  0.00     0.011 C 
ATOM     21  C   UNL     1      99.733 114.006 122.558  1.00  0.00     0.014 C 
ATOM     22  C   UNL     1      98.639 115.876 121.237  1.00  0.00     0.017 C 
ATOM     23  C   UNL     1     101.326 116.503 123.240  1.00  0.00    -0.005 C 
ATOM     24  C   UNL     1      99.729 114.605 123.965  1.00  0.00     0.033 C 
ATOM     25  C   UNL     1     101.041 115.349 124.255  1.00  0.00     0.120 C 
ATOM     26  C   UNL     1     102.782 116.984 123.492  1.00  0.00     0.014 C 
ATOM     27  C   UNL     1     100.401 117.722 123.505  1.00  0.00     0.014 C 
BRANCH  25  28
ATOM     28  O   UNL     1     101.079 115.798 125.591  1.00  0.00    -0.393 OA
ATOM     29  H   UNL     1     101.932 115.494 125.998  1.00  0.00     0.210 HD
ENDBRANCH  25  28
ENDBRANCH   2   6
ENDBRANCH   1   2
BRANCH   1  30
ATOM     30  C   UNL     1      98.601 112.216 113.980  1.00  0.00     0.031 C 
BRANCH  30  31
ATOM     31  C   UNL     1      98.573 112.474 112.479  1.00  0.00    -0.075 C 
ATOM     32  C   UNL     1      97.418 112.857 111.906  1.00  0.00     0.008 C 
BRANCH  31  33
ATOM     33  C   UNL     1      99.794 112.264 111.579  1.00  0.00     0.008 C 
ATOM     34  C   UNL     1      99.376 112.114 110.110  1.00  0.00     0.012 C 
ATOM     35  C   UNL     1     100.870 113.352 111.723  1.00  0.00     0.012 C 
ENDBRANCH  31  33
ENDBRANCH  30  31
ENDBRANCH   1  30
TORSDOF 7
ENDMDL
