MODEL 1
REMARK VINA RESULT:    31.596      0.000      0.000
REMARK INTER + INTRA:          42.232
REMARK INTER:                  41.755
REMARK INTRA:                   0.477
REMARK UNBOUND:                 0.477
REMARK SMILES CC[C@H](C=C[C@H](C)[C@@H]1CC[C@@H]2[C@H]3CC=C4C[C@@H](O)CC[C@@]4(C)[C@H]3CC[C@@]21C)C(C)C
REMARK SMILES IDX 6 1 7 2 5 3 4 4 3 5 2 6 1 7 28 8 29 9 30 10 8 11 9 12 26 13
REMARK SMILES IDX 10 14 11 15 25 16 27 17 12 18 24 19 23 20 13 21 21 22 14 23
REMARK SMILES IDX 15 24 20 25 22 26 16 27 19 28 17 29 18 30
REMARK H PARENT 18 31
REMARK Flexibility Score: inf
ROOT
ATOM      1  C   UNL     1      16.832  12.864  39.762  1.00  0.00     0.012 C 
ATOM      2  C   UNL     1      18.119  12.290  39.151  1.00  0.00     0.012 C 
ENDROOT
BRANCH   1   3
ATOM      3  C   UNL     1      17.179  13.601  41.043  1.00  0.00    -0.028 C 
ATOM      4  C   UNL     1      18.178  13.215  41.856  1.00  0.00    -0.027 C 
BRANCH   4   5
ATOM      5  C   UNL     1      18.484  13.967  43.136  1.00  0.00     0.014 C 
BRANCH   5   6
ATOM      6  C   UNL     1      17.268  13.973  44.102  1.00  0.00     0.004 C 
ATOM      7  C   UNL     1      15.892  14.124  43.450  1.00  0.00     0.004 C 
ENDBRANCH   5   6
BRANCH   5   8
ATOM      8  C   UNL     1      19.859  13.545  43.747  1.00  0.00    -0.011 C 
ATOM      9  C   UNL     1      21.094  14.006  42.952  1.00  0.00     0.008 C 
ATOM     10  C   UNL     1      19.930  12.037  44.027  1.00  0.00     0.008 C 
ENDBRANCH   5   8
ENDBRANCH   4   5
ENDBRANCH   1   3
BRANCH   1  11
ATOM     11  C   UNL     1      16.004  13.786  38.791  1.00  0.00     0.002 C 
ATOM     12  C   UNL     1      14.552  13.925  39.285  1.00  0.00     0.005 C 
ATOM     13  C   UNL     1      15.885  13.377  37.282  1.00  0.00    -0.026 C 
ATOM     14  C   UNL     1      13.664  14.124  38.067  1.00  0.00     0.005 C 
ATOM     15  C   UNL     1      14.581  14.109  36.840  1.00  0.00    -0.001 C 
ATOM     16  C   UNL     1      15.735  11.836  37.117  1.00  0.00     0.007 C 
ATOM     17  C   UNL     1      17.111  13.897  36.480  1.00  0.00     0.012 C 
ATOM     18  C   UNL     1      13.847  13.562  35.575  1.00  0.00     0.000 C 
ATOM     19  C   UNL     1      15.153  11.402  35.765  1.00  0.00     0.005 C 
ATOM     20  C   UNL     1      13.751  12.013  35.541  1.00  0.00     0.003 C 
ATOM     21  C   UNL     1      14.463  14.120  34.280  1.00  0.00     0.031 C 
ATOM     22  C   UNL     1      12.961  11.508  34.259  1.00  0.00    -0.008 C 
ATOM     23  C   UNL     1      13.876  13.520  33.038  1.00  0.00    -0.027 C 
ATOM     24  C   UNL     1      13.322  12.292  32.992  1.00  0.00    -0.065 C 
ATOM     25  C   UNL     1      13.213   9.989  33.990  1.00  0.00     0.014 C 
ATOM     26  C   UNL     1      11.442  11.715  34.530  1.00  0.00     0.016 C 
ATOM     27  C   UNL     1      12.813  11.782  31.654  1.00  0.00     0.063 C 
ATOM     28  C   UNL     1      12.591   9.477  32.679  1.00  0.00     0.033 C 
ATOM     29  C   UNL     1      13.096  10.285  31.472  1.00  0.00     0.118 C 
BRANCH  29  30
ATOM     30  O   UNL     1      14.478  10.091  31.295  1.00  0.00    -0.393 OA
ATOM     31  H   UNL     1      14.602   9.724  30.381  1.00  0.00     0.210 HD
ENDBRANCH  29  30
ENDBRANCH   1  11
TORSDOF 6
ENDMDL
