MODEL 1
REMARK VINA RESULT:     2.456      0.000      0.000
REMARK INTER + INTRA:           3.918
REMARK INTER:                   3.030
REMARK INTRA:                   0.888
REMARK UNBOUND:                 0.888
REMARK SMILES C=CCc1ccc(OC)c(OC)c1
REMARK SMILES IDX 7 1 10 2 13 3 4 4 5 5 6 6 8 7 9 8 11 9 12 10 3 11 2 12 1 13
REMARK H PARENT
REMARK Flexibility Score: inf
ROOT
ATOM      1  C   UNL     1      17.005  -0.531  19.672  1.00  0.00     0.160 A 
ATOM      2  C   UNL     1      17.043   0.840  19.376  1.00  0.00     0.160 A 
ATOM      3  C   UNL     1      17.091   1.263  18.033  1.00  0.00     0.054 A 
ATOM      4  C   UNL     1      17.106   0.324  16.990  1.00  0.00    -0.040 A 
ATOM      5  C   UNL     1      17.057  -1.043  17.294  1.00  0.00     0.008 A 
ATOM      6  C   UNL     1      17.012  -1.469  18.622  1.00  0.00     0.051 A 
ENDROOT
BRANCH   1   7
ATOM      7  O   UNL     1      16.960  -0.922  21.020  1.00  0.00    -0.493 OA
ATOM      8  C   UNL     1      16.976  -0.020  22.122  1.00  0.00     0.278 C 
ENDBRANCH   1   7
BRANCH   2   9
ATOM      9  O   UNL     1      17.029   1.753  20.443  1.00  0.00    -0.493 OA
ATOM     10  C   UNL     1      17.124   3.167  20.297  1.00  0.00     0.278 C 
ENDBRANCH   2   9
BRANCH   4  11
ATOM     11  C   UNL     1      17.124   0.778  15.554  1.00  0.00     0.062 C 
BRANCH  11  12
ATOM     12  C   UNL     1      16.532   2.153  15.423  1.00  0.00    -0.030 C 
ATOM     13  C   UNL     1      16.965   3.020  14.504  1.00  0.00     0.004 C 
ENDBRANCH  11  12
ENDBRANCH   4  11
TORSDOF 4
ENDMDL
MODEL 2
REMARK VINA RESULT:     2.511      1.101      2.448
REMARK INTER + INTRA:           3.985
REMARK INTER:                   3.590
REMARK INTRA:                   0.395
REMARK UNBOUND:                 0.888
REMARK SMILES C=CCc1ccc(OC)c(OC)c1
REMARK SMILES IDX 7 1 10 2 13 3 4 4 5 5 6 6 8 7 9 8 11 9 12 10 3 11 2 12 1 13
REMARK H PARENT
REMARK Flexibility Score: inf
ROOT
ATOM      1  C   UNL     1      17.105   0.458  19.701  1.00  0.00     0.160 A 
ATOM      2  C   UNL     1      17.113  -0.578  18.755  1.00  0.00     0.160 A 
ATOM      3  C   UNL     1      17.110  -0.267  17.380  1.00  0.00     0.054 A 
ATOM      4  C   UNL     1      17.095   1.069  16.952  1.00  0.00    -0.040 A 
ATOM      5  C   UNL     1      17.098   2.097  17.903  1.00  0.00     0.008 A 
ATOM      6  C   UNL     1      17.099   1.797  19.266  1.00  0.00     0.051 A 
ENDROOT
BRANCH   1   7
ATOM      7  O   UNL     1      17.106   0.116  21.064  1.00  0.00    -0.493 OA
ATOM      8  C   UNL     1      17.124   1.059  22.131  1.00  0.00     0.278 C 
ENDBRANCH   1   7
BRANCH   2   9
ATOM      9  O   UNL     1      17.125  -1.904  19.217  1.00  0.00    -0.493 OA
ATOM     10  C   UNL     1      16.357  -2.382  20.317  1.00  0.00     0.278 C 
ENDBRANCH   2   9
BRANCH   4  11
ATOM     11  C   UNL     1      17.124   1.400  15.482  1.00  0.00     0.062 C 
BRANCH  11  12
ATOM     12  C   UNL     1      16.693   2.820  15.248  1.00  0.00    -0.030 C 
ATOM     13  C   UNL     1      16.676   3.357  14.025  1.00  0.00     0.004 C 
ENDBRANCH  11  12
ENDBRANCH   4  11
TORSDOF 4
ENDMDL
MODEL 3
REMARK VINA RESULT:     2.993      2.526      4.959
REMARK INTER + INTRA:           4.581
REMARK INTER:                   3.910
REMARK INTRA:                   0.671
REMARK UNBOUND:                 0.888
REMARK SMILES C=CCc1ccc(OC)c(OC)c1
REMARK SMILES IDX 7 1 10 2 13 3 4 4 5 5 6 6 8 7 9 8 11 9 12 10 3 11 2 12 1 13
REMARK H PARENT
REMARK Flexibility Score: inf
ROOT
ATOM      1  C   UNL     1      17.007   0.233  15.928  1.00  0.00     0.160 A 
ATOM      2  C   UNL     1      17.050   1.578  16.325  1.00  0.00     0.160 A 
ATOM      3  C   UNL     1      17.078   1.899  17.697  1.00  0.00     0.054 A 
ATOM      4  C   UNL     1      17.060   0.885  18.668  1.00  0.00    -0.040 A 
ATOM      5  C   UNL     1      17.027  -0.455  18.262  1.00  0.00     0.008 A 
ATOM      6  C   UNL     1      16.996  -0.781  16.905  1.00  0.00     0.051 A 
ENDROOT
BRANCH   1   7
ATOM      7  O   UNL     1      16.976  -0.057  14.554  1.00  0.00    -0.493 OA
ATOM      8  C   UNL     1      15.811  -0.453  13.839  1.00  0.00     0.278 C 
ENDBRANCH   1   7
BRANCH   2   9
ATOM      9  O   UNL     1      17.064   2.567  15.329  1.00  0.00    -0.493 OA
ATOM     10  C   UNL     1      15.919   2.993  14.597  1.00  0.00     0.278 C 
ENDBRANCH   2   9
BRANCH   4  11
ATOM     11  C   UNL     1      17.123   1.230  20.133  1.00  0.00     0.062 C 
BRANCH  11  12
ATOM     12  C   UNL     1      17.060  -0.013  20.975  1.00  0.00    -0.030 C 
ATOM     13  C   UNL     1      16.071  -0.901  20.844  1.00  0.00     0.004 C 
ENDBRANCH  11  12
ENDBRANCH   4  11
TORSDOF 4
ENDMDL
