MODEL 1
REMARK VINA RESULT:    -4.082      0.000      0.000
REMARK INTER + INTRA:         -15.723
REMARK INTER:                 -10.764
REMARK INTRA:                  -4.959
REMARK UNBOUND:                -4.959
REMARK SMILES CCCCCCCCCCCCCCCCCCCCCCCCCCCCCC(=O)[O-]
REMARK SMILES IDX 16 1 17 2 18 3 19 4 20 5 21 6 22 7 23 8 24 9 25 10 26 11
REMARK SMILES IDX 27 12 28 13 29 14 30 15 31 16 32 17 15 18 14 19 13 20 12 21
REMARK SMILES IDX 11 22 10 23 9 24 8 25 7 26 6 27 5 28 4 29 3 30 2 31 1 32
REMARK H PARENT
REMARK Flexibility Score: inf
ROOT
ATOM      1  C   UNL     1      16.290 127.726  55.322  1.00  0.00     0.000 C 
ENDROOT
BRANCH   1   2
ATOM      2  C   UNL     1      16.695 128.152  53.902  1.00  0.00     0.000 C 
BRANCH   2   3
ATOM      3  C   UNL     1      18.078 128.822  53.859  1.00  0.00     0.000 C 
BRANCH   3   4
ATOM      4  C   UNL     1      18.883 128.613  55.154  1.00  0.00     0.000 C 
BRANCH   4   5
ATOM      5  C   UNL     1      19.820 129.778  55.535  1.00  0.00     0.000 C 
BRANCH   5   6
ATOM      6  C   UNL     1      19.382 131.164  55.026  1.00  0.00     0.000 C 
BRANCH   6   7
ATOM      7  C   UNL     1      20.316 132.326  55.413  1.00  0.00     0.000 C 
BRANCH   7   8
ATOM      8  C   UNL     1      19.625 133.441  56.228  1.00  0.00     0.000 C 
BRANCH   8   9
ATOM      9  C   UNL     1      18.890 134.458  55.340  1.00  0.00     0.000 C 
BRANCH   9  10
ATOM     10  C   UNL     1      17.360 134.329  55.423  1.00  0.00     0.000 C 
BRANCH  10  11
ATOM     11  C   UNL     1      16.673 134.203  54.046  1.00  0.00     0.000 C 
BRANCH  11  12
ATOM     12  C   UNL     1      17.642 133.729  52.953  1.00  0.00     0.000 C 
BRANCH  12  13
ATOM     13  C   UNL     1      17.276 132.322  52.463  1.00  0.00     0.006 C 
BRANCH  13  14
ATOM     14  C   UNL     1      15.989 132.350  51.632  1.00  0.00     0.053 C 
BRANCH  14  15
ATOM     15  C   UNL     1      16.008 131.266  50.602  1.00  0.00     0.041 C 
ATOM     16  O   UNL     1      15.330 131.385  49.547  1.00  0.00    -0.550 OA
ATOM     17  O   UNL     1      16.745 130.109  50.822  1.00  0.00    -0.550 OA
ENDBRANCH  14  15
ENDBRANCH  13  14
ENDBRANCH  12  13
ENDBRANCH  11  12
ENDBRANCH  10  11
ENDBRANCH   9  10
ENDBRANCH   8   9
ENDBRANCH   7   8
ENDBRANCH   6   7
ENDBRANCH   5   6
ENDBRANCH   4   5
ENDBRANCH   3   4
ENDBRANCH   2   3
ENDBRANCH   1   2
BRANCH   1  18
ATOM     18  C   UNL     1      15.138 128.577  55.885  1.00  0.00     0.000 C 
BRANCH  18  19
ATOM     19  C   UNL     1      14.902 129.861  55.075  1.00  0.00     0.000 C 
BRANCH  19  20
ATOM     20  C   UNL     1      15.601 131.084  55.695  1.00  0.00     0.000 C 
BRANCH  20  21
ATOM     21  C   UNL     1      15.600 131.054  57.233  1.00  0.00     0.000 C 
BRANCH  21  22
ATOM     22  C   UNL     1      17.006 131.242  57.828  1.00  0.00     0.000 C 
BRANCH  22  23
ATOM     23  C   UNL     1      17.574 129.947  58.432  1.00  0.00     0.000 C 
BRANCH  23  24
ATOM     24  C   UNL     1      18.917 130.161  59.145  1.00  0.00    -0.000 C 
BRANCH  24  25
ATOM     25  C   UNL     1      18.854 129.663  60.598  1.00  0.00    -0.000 C 
BRANCH  25  26
ATOM     26  C   UNL     1      17.821 130.424  61.446  1.00  0.00    -0.000 C 
BRANCH  26  27
ATOM     27  C   UNL     1      17.364 129.625  62.679  1.00  0.00    -0.000 C 
BRANCH  27  28
ATOM     28  C   UNL     1      18.518 128.876  63.368  1.00  0.00    -0.000 C 
BRANCH  28  29
ATOM     29  C   UNL     1      18.168 127.464  63.877  1.00  0.00    -0.000 C 
BRANCH  29  30
ATOM     30  C   UNL     1      17.113 126.761  63.005  1.00  0.00    -0.000 C 
BRANCH  30  31
ATOM     31  C   UNL     1      17.438 125.277  62.770  1.00  0.00    -0.003 C 
ATOM     32  C   UNL     1      18.941 124.999  62.743  1.00  0.00     0.004 C 
ENDBRANCH  30  31
ENDBRANCH  29  30
ENDBRANCH  28  29
ENDBRANCH  27  28
ENDBRANCH  26  27
ENDBRANCH  25  26
ENDBRANCH  24  25
ENDBRANCH  23  24
ENDBRANCH  22  23
ENDBRANCH  21  22
ENDBRANCH  20  21
ENDBRANCH  19  20
ENDBRANCH  18  19
ENDBRANCH   1  18
TORSDOF 28
ENDMDL
MODEL 2
REMARK VINA RESULT:    -4.054      3.457      8.597
REMARK INTER + INTRA:         -15.649
REMARK INTER:                 -10.224
REMARK INTRA:                  -5.425
REMARK UNBOUND:                -4.959
REMARK SMILES CCCCCCCCCCCCCCCCCCCCCCCCCCCCCC(=O)[O-]
REMARK SMILES IDX 16 1 17 2 18 3 19 4 20 5 21 6 22 7 23 8 24 9 25 10 26 11
REMARK SMILES IDX 27 12 28 13 29 14 30 15 31 16 32 17 15 18 14 19 13 20 12 21
REMARK SMILES IDX 11 22 10 23 9 24 8 25 7 26 6 27 5 28 4 29 3 30 2 31 1 32
REMARK H PARENT
REMARK Flexibility Score: inf
ROOT
ATOM      1  C   UNL     1      18.214 128.599  55.095  1.00  0.00     0.000 C 
ENDROOT
BRANCH   1   2
ATOM      2  C   UNL     1      16.879 127.844  54.999  1.00  0.00     0.000 C 
BRANCH   2   3
ATOM      3  C   UNL     1      16.320 127.815  53.567  1.00  0.00     0.000 C 
BRANCH   3   4
ATOM      4  C   UNL     1      14.921 128.446  53.460  1.00  0.00     0.000 C 
BRANCH   4   5
ATOM      5  C   UNL     1      14.469 129.246  54.700  1.00  0.00     0.000 C 
BRANCH   5   6
ATOM      6  C   UNL     1      14.428 130.774  54.515  1.00  0.00     0.000 C 
BRANCH   6   7
ATOM      7  C   UNL     1      15.146 131.584  55.610  1.00  0.00     0.000 C 
BRANCH   7   8
ATOM      8  C   UNL     1      15.190 130.880  56.984  1.00  0.00     0.000 C 
BRANCH   8   9
ATOM      9  C   UNL     1      16.493 131.155  57.751  1.00  0.00     0.000 C 
BRANCH   9  10
ATOM     10  C   UNL     1      17.195 129.869  58.219  1.00  0.00     0.000 C 
BRANCH  10  11
ATOM     11  C   UNL     1      18.709 130.042  58.462  1.00  0.00     0.000 C 
BRANCH  11  12
ATOM     12  C   UNL     1      19.022 130.479  59.901  1.00  0.00     0.000 C 
BRANCH  12  13
ATOM     13  C   UNL     1      18.175 129.695  60.912  1.00  0.00     0.006 C 
BRANCH  13  14
ATOM     14  C   UNL     1      19.065 128.885  61.860  1.00  0.00     0.053 C 
BRANCH  14  15
ATOM     15  C   UNL     1      18.237 128.208  62.905  1.00  0.00     0.041 C 
ATOM     16  O   UNL     1      17.191 127.590  62.581  1.00  0.00    -0.550 OA
ATOM     17  O   UNL     1      18.603 128.291  64.244  1.00  0.00    -0.550 OA
ENDBRANCH  14  15
ENDBRANCH  13  14
ENDBRANCH  12  13
ENDBRANCH  11  12
ENDBRANCH  10  11
ENDBRANCH   9  10
ENDBRANCH   8   9
ENDBRANCH   7   8
ENDBRANCH   6   7
ENDBRANCH   5   6
ENDBRANCH   4   5
ENDBRANCH   3   4
ENDBRANCH   2   3
ENDBRANCH   1   2
BRANCH   1  18
ATOM     18  C   UNL     1      18.380 129.645  53.978  1.00  0.00     0.000 C 
BRANCH  18  19
ATOM     19  C   UNL     1      18.416 131.083  54.518  1.00  0.00     0.000 C 
BRANCH  19  20
ATOM     20  C   UNL     1      19.789 131.751  54.320  1.00  0.00     0.000 C 
BRANCH  20  21
ATOM     21  C   UNL     1      20.326 132.399  55.607  1.00  0.00     0.000 C 
BRANCH  21  22
ATOM     22  C   UNL     1      19.288 133.306  56.289  1.00  0.00     0.000 C 
BRANCH  22  23
ATOM     23  C   UNL     1      19.500 134.796  55.971  1.00  0.00     0.000 C 
BRANCH  23  24
ATOM     24  C   UNL     1      18.281 135.440  55.294  1.00  0.00    -0.000 C 
BRANCH  24  25
ATOM     25  C   UNL     1      18.038 134.831  53.904  1.00  0.00    -0.000 C 
BRANCH  25  26
ATOM     26  C   UNL     1      16.593 134.345  53.707  1.00  0.00    -0.000 C 
BRANCH  26  27
ATOM     27  C   UNL     1      16.231 134.145  52.225  1.00  0.00    -0.000 C 
BRANCH  27  28
ATOM     28  C   UNL     1      16.377 132.683  51.767  1.00  0.00    -0.000 C 
BRANCH  28  29
ATOM     29  C   UNL     1      15.168 132.117  50.997  1.00  0.00    -0.000 C 
BRANCH  29  30
ATOM     30  C   UNL     1      15.306 130.615  50.692  1.00  0.00    -0.000 C 
BRANCH  30  31
ATOM     31  C   UNL     1      16.555 130.296  49.855  1.00  0.00    -0.003 C 
ATOM     32  C   UNL     1      17.259 129.017  50.309  1.00  0.00     0.004 C 
ENDBRANCH  30  31
ENDBRANCH  29  30
ENDBRANCH  28  29
ENDBRANCH  27  28
ENDBRANCH  26  27
ENDBRANCH  25  26
ENDBRANCH  24  25
ENDBRANCH  23  24
ENDBRANCH  22  23
ENDBRANCH  21  22
ENDBRANCH  20  21
ENDBRANCH  19  20
ENDBRANCH  18  19
ENDBRANCH   1  18
TORSDOF 28
ENDMDL
MODEL 3
REMARK VINA RESULT:    -4.025      3.713      8.635
REMARK INTER + INTRA:         -15.573
REMARK INTER:                  -9.839
REMARK INTRA:                  -5.734
REMARK UNBOUND:                -4.959
REMARK SMILES CCCCCCCCCCCCCCCCCCCCCCCCCCCCCC(=O)[O-]
REMARK SMILES IDX 16 1 17 2 18 3 19 4 20 5 21 6 22 7 23 8 24 9 25 10 26 11
REMARK SMILES IDX 27 12 28 13 29 14 30 15 31 16 32 17 15 18 14 19 13 20 12 21
REMARK SMILES IDX 11 22 10 23 9 24 8 25 7 26 6 27 5 28 4 29 3 30 2 31 1 32
REMARK H PARENT
REMARK Flexibility Score: inf
ROOT
ATOM      1  C   UNL     1      16.634 129.117  53.111  1.00  0.00     0.000 C 
ENDROOT
BRANCH   1   2
ATOM      2  C   UNL     1      15.987 127.863  53.720  1.00  0.00     0.000 C 
BRANCH   2   3
ATOM      3  C   UNL     1      16.562 127.517  55.103  1.00  0.00     0.000 C 
BRANCH   3   4
ATOM      4  C   UNL     1      15.892 128.305  56.242  1.00  0.00     0.000 C 
BRANCH   4   5
ATOM      5  C   UNL     1      16.865 128.908  57.278  1.00  0.00     0.000 C 
BRANCH   5   6
ATOM      6  C   UNL     1      16.632 130.393  57.609  1.00  0.00     0.000 C 
BRANCH   6   7
ATOM      7  C   UNL     1      17.774 131.077  58.383  1.00  0.00     0.000 C 
BRANCH   7   8
ATOM      8  C   UNL     1      18.891 130.112  58.836  1.00  0.00     0.000 C 
BRANCH   8   9
ATOM      9  C   UNL     1      18.801 129.758  60.329  1.00  0.00     0.000 C 
BRANCH   9  10
ATOM     10  C   UNL     1      17.854 130.685  61.109  1.00  0.00     0.000 C 
BRANCH  10  11
ATOM     11  C   UNL     1      16.576 129.984  61.615  1.00  0.00     0.000 C 
BRANCH  11  12
ATOM     12  C   UNL     1      16.701 128.453  61.582  1.00  0.00     0.000 C 
BRANCH  12  13
ATOM     13  C   UNL     1      17.013 127.894  62.976  1.00  0.00     0.006 C 
BRANCH  13  14
ATOM     14  C   UNL     1      18.357 127.161  62.984  1.00  0.00     0.053 C 
BRANCH  14  15
ATOM     15  C   UNL     1      18.149 125.684  62.880  1.00  0.00     0.041 C 
ATOM     16  O   UNL     1      16.990 125.201  62.969  1.00  0.00    -0.550 OA
ATOM     17  O   UNL     1      19.240 124.837  62.719  1.00  0.00    -0.550 OA
ENDBRANCH  14  15
ENDBRANCH  13  14
ENDBRANCH  12  13
ENDBRANCH  11  12
ENDBRANCH  10  11
ENDBRANCH   9  10
ENDBRANCH   8   9
ENDBRANCH   7   8
ENDBRANCH   6   7
ENDBRANCH   5   6
ENDBRANCH   4   5
ENDBRANCH   3   4
ENDBRANCH   2   3
ENDBRANCH   1   2
BRANCH   1  18
ATOM     18  C   UNL     1      18.116 129.261  53.497  1.00  0.00     0.000 C 
BRANCH  18  19
ATOM     19  C   UNL     1      18.440 130.641  54.091  1.00  0.00     0.000 C 
BRANCH  19  20
ATOM     20  C   UNL     1      19.546 130.576  55.160  1.00  0.00     0.000 C 
BRANCH  20  21
ATOM     21  C   UNL     1      20.132 131.958  55.494  1.00  0.00     0.000 C 
BRANCH  21  22
ATOM     22  C   UNL     1      19.260 133.111  54.970  1.00  0.00     0.000 C 
BRANCH  22  23
ATOM     23  C   UNL     1      18.620 133.934  56.100  1.00  0.00     0.000 C 
BRANCH  23  24
ATOM     24  C   UNL     1      17.955 135.223  55.596  1.00  0.00    -0.000 C 
BRANCH  24  25
ATOM     25  C   UNL     1      16.441 135.201  55.860  1.00  0.00    -0.000 C 
BRANCH  25  26
ATOM     26  C   UNL     1      15.968 133.893  56.513  1.00  0.00    -0.000 C 
BRANCH  26  27
ATOM     27  C   UNL     1      14.817 133.227  55.738  1.00  0.00    -0.000 C 
BRANCH  27  28
ATOM     28  C   UNL     1      15.312 132.287  54.623  1.00  0.00    -0.000 C 
BRANCH  28  29
ATOM     29  C   UNL     1      15.151 132.832  53.191  1.00  0.00    -0.000 C 
BRANCH  29  30
ATOM     30  C   UNL     1      16.467 133.375  52.608  1.00  0.00    -0.000 C 
BRANCH  30  31
ATOM     31  C   UNL     1      16.351 134.840  52.157  1.00  0.00    -0.003 C 
ATOM     32  C   UNL     1      14.951 135.415  52.378  1.00  0.00     0.004 C 
ENDBRANCH  30  31
ENDBRANCH  29  30
ENDBRANCH  28  29
ENDBRANCH  27  28
ENDBRANCH  26  27
ENDBRANCH  25  26
ENDBRANCH  24  25
ENDBRANCH  23  24
ENDBRANCH  22  23
ENDBRANCH  21  22
ENDBRANCH  20  21
ENDBRANCH  19  20
ENDBRANCH  18  19
ENDBRANCH   1  18
TORSDOF 28
ENDMDL
MODEL 4
REMARK VINA RESULT:    -4.023      3.553      8.580
REMARK INTER + INTRA:         -15.568
REMARK INTER:                 -10.125
REMARK INTRA:                  -5.443
REMARK UNBOUND:                -4.959
REMARK SMILES CCCCCCCCCCCCCCCCCCCCCCCCCCCCCC(=O)[O-]
REMARK SMILES IDX 16 1 17 2 18 3 19 4 20 5 21 6 22 7 23 8 24 9 25 10 26 11
REMARK SMILES IDX 27 12 28 13 29 14 30 15 31 16 32 17 15 18 14 19 13 20 12 21
REMARK SMILES IDX 11 22 10 23 9 24 8 25 7 26 6 27 5 28 4 29 3 30 2 31 1 32
REMARK H PARENT
REMARK Flexibility Score: inf
ROOT
ATOM      1  C   UNL     1      16.353 127.840  52.892  1.00  0.00     0.000 C 
ENDROOT
BRANCH   1   2
ATOM      2  C   UNL     1      15.390 128.544  53.860  1.00  0.00     0.000 C 
BRANCH   2   3
ATOM      3  C   UNL     1      15.876 128.493  55.317  1.00  0.00     0.000 C 
BRANCH   3   4
ATOM      4  C   UNL     1      17.340 128.035  55.442  1.00  0.00     0.000 C 
BRANCH   4   5
ATOM      5  C   UNL     1      18.370 129.176  55.575  1.00  0.00     0.000 C 
BRANCH   5   6
ATOM      6  C   UNL     1      18.630 129.660  57.014  1.00  0.00     0.000 C 
BRANCH   6   7
ATOM      7  C   UNL     1      17.847 130.919  57.431  1.00  0.00     0.000 C 
BRANCH   7   8
ATOM      8  C   UNL     1      16.680 130.639  58.402  1.00  0.00     0.000 C 
BRANCH   8   9
ATOM      9  C   UNL     1      17.059 129.650  59.516  1.00  0.00     0.000 C 
BRANCH   9  10
ATOM     10  C   UNL     1      18.015 130.257  60.557  1.00  0.00     0.000 C 
BRANCH  10  11
ATOM     11  C   UNL     1      19.390 129.559  60.618  1.00  0.00     0.000 C 
BRANCH  11  12
ATOM     12  C   UNL     1      19.505 128.602  61.814  1.00  0.00     0.000 C 
BRANCH  12  13
ATOM     13  C   UNL     1      18.613 129.061  62.975  1.00  0.00     0.006 C 
BRANCH  13  14
ATOM     14  C   UNL     1      18.279 127.891  63.905  1.00  0.00     0.053 C 
BRANCH  14  15
ATOM     15  C   UNL     1      17.851 126.697  63.111  1.00  0.00     0.041 C 
ATOM     16  O   UNL     1      16.700 126.654  62.606  1.00  0.00    -0.550 OA
ATOM     17  O   UNL     1      18.713 125.617  62.961  1.00  0.00    -0.550 OA
ENDBRANCH  14  15
ENDBRANCH  13  14
ENDBRANCH  12  13
ENDBRANCH  11  12
ENDBRANCH  10  11
ENDBRANCH   9  10
ENDBRANCH   8   9
ENDBRANCH   7   8
ENDBRANCH   6   7
ENDBRANCH   5   6
ENDBRANCH   4   5
ENDBRANCH   3   4
ENDBRANCH   2   3
ENDBRANCH   1   2
BRANCH   1  18
ATOM     18  C   UNL     1      16.894 128.787  51.806  1.00  0.00     0.000 C 
BRANCH  18  19
ATOM     19  C   UNL     1      16.100 130.099  51.720  1.00  0.00     0.000 C 
BRANCH  19  20
ATOM     20  C   UNL     1      17.007 131.341  51.789  1.00  0.00     0.000 C 
BRANCH  20  21
ATOM     21  C   UNL     1      17.666 131.520  53.167  1.00  0.00     0.000 C 
BRANCH  21  22
ATOM     22  C   UNL     1      18.525 132.794  53.250  1.00  0.00     0.000 C 
BRANCH  22  23
ATOM     23  C   UNL     1      18.577 133.385  54.668  1.00  0.00     0.000 C 
BRANCH  23  24
ATOM     24  C   UNL     1      18.131 134.854  54.717  1.00  0.00    -0.000 C 
BRANCH  24  25
ATOM     25  C   UNL     1      17.807 135.379  53.310  1.00  0.00    -0.000 C 
BRANCH  25  26
ATOM     26  C   UNL     1      16.310 135.663  53.108  1.00  0.00    -0.000 C 
BRANCH  26  27
ATOM     27  C   UNL     1      15.745 134.994  51.842  1.00  0.00    -0.000 C 
BRANCH  27  28
ATOM     28  C   UNL     1      14.629 133.979  52.149  1.00  0.00    -0.000 C 
BRANCH  28  29
ATOM     29  C   UNL     1      14.276 133.829  53.641  1.00  0.00    -0.000 C 
BRANCH  29  30
ATOM     30  C   UNL     1      14.196 132.360  54.090  1.00  0.00    -0.000 C 
BRANCH  30  31
ATOM     31  C   UNL     1      14.928 132.110  55.419  1.00  0.00    -0.003 C 
ATOM     32  C   UNL     1      15.151 133.393  56.219  1.00  0.00     0.004 C 
ENDBRANCH  30  31
ENDBRANCH  29  30
ENDBRANCH  28  29
ENDBRANCH  27  28
ENDBRANCH  26  27
ENDBRANCH  25  26
ENDBRANCH  24  25
ENDBRANCH  23  24
ENDBRANCH  22  23
ENDBRANCH  21  22
ENDBRANCH  20  21
ENDBRANCH  19  20
ENDBRANCH  18  19
ENDBRANCH   1  18
TORSDOF 28
ENDMDL
MODEL 5
REMARK VINA RESULT:    -3.977      3.477      8.050
REMARK INTER + INTRA:         -15.447
REMARK INTER:                  -9.529
REMARK INTRA:                  -5.918
REMARK UNBOUND:                -4.959
REMARK SMILES CCCCCCCCCCCCCCCCCCCCCCCCCCCCCC(=O)[O-]
REMARK SMILES IDX 16 1 17 2 18 3 19 4 20 5 21 6 22 7 23 8 24 9 25 10 26 11
REMARK SMILES IDX 27 12 28 13 29 14 30 15 31 16 32 17 15 18 14 19 13 20 12 21
REMARK SMILES IDX 11 22 10 23 9 24 8 25 7 26 6 27 5 28 4 29 3 30 2 31 1 32
REMARK H PARENT
REMARK Flexibility Score: inf
ROOT
ATOM      1  C   UNL     1      15.816 127.883  54.767  1.00  0.00     0.000 C 
ENDROOT
BRANCH   1   2
ATOM      2  C   UNL     1      17.229 127.622  55.311  1.00  0.00     0.000 C 
BRANCH   2   3
ATOM      3  C   UNL     1      18.268 128.607  54.751  1.00  0.00     0.000 C 
BRANCH   3   4
ATOM      4  C   UNL     1      19.114 129.272  55.850  1.00  0.00     0.000 C 
BRANCH   4   5
ATOM      5  C   UNL     1      18.427 130.443  56.584  1.00  0.00     0.000 C 
BRANCH   5   6
ATOM      6  C   UNL     1      17.845 130.099  57.967  1.00  0.00     0.000 C 
BRANCH   6   7
ATOM      7  C   UNL     1      16.719 131.032  58.452  1.00  0.00     0.000 C 
BRANCH   7   8
ATOM      8  C   UNL     1      15.298 130.475  58.217  1.00  0.00     0.000 C 
BRANCH   8   9
ATOM      9  C   UNL     1      15.273 128.943  58.093  1.00  0.00     0.000 C 
BRANCH   9  10
ATOM     10  C   UNL     1      14.972 128.239  59.426  1.00  0.00     0.000 C 
BRANCH  10  11
ATOM     11  C   UNL     1      14.232 129.131  60.445  1.00  0.00     0.000 C 
BRANCH  11  12
ATOM     12  C   UNL     1      15.129 129.536  61.624  1.00  0.00     0.000 C 
BRANCH  12  13
ATOM     13  C   UNL     1      16.381 128.652  61.695  1.00  0.00     0.006 C 
BRANCH  13  14
ATOM     14  C   UNL     1      17.654 129.504  61.687  1.00  0.00     0.053 C 
BRANCH  14  15
ATOM     15  C   UNL     1      18.794 128.747  62.291  1.00  0.00     0.041 C 
ATOM     16  O   UNL     1      18.733 128.359  63.486  1.00  0.00    -0.550 OA
ATOM     17  O   UNL     1      19.940 128.503  61.543  1.00  0.00    -0.550 OA
ENDBRANCH  14  15
ENDBRANCH  13  14
ENDBRANCH  12  13
ENDBRANCH  11  12
ENDBRANCH  10  11
ENDBRANCH   9  10
ENDBRANCH   8   9
ENDBRANCH   7   8
ENDBRANCH   6   7
ENDBRANCH   5   6
ENDBRANCH   4   5
ENDBRANCH   3   4
ENDBRANCH   2   3
ENDBRANCH   1   2
BRANCH   1  18
ATOM     18  C   UNL     1      15.830 128.422  53.326  1.00  0.00     0.000 C 
BRANCH  18  19
ATOM     19  C   UNL     1      15.004 129.708  53.168  1.00  0.00     0.000 C 
BRANCH  19  20
ATOM     20  C   UNL     1      15.053 130.596  54.425  1.00  0.00     0.000 C 
BRANCH  20  21
ATOM     21  C   UNL     1      16.086 131.730  54.313  1.00  0.00     0.000 C 
BRANCH  21  22
ATOM     22  C   UNL     1      16.676 131.853  52.898  1.00  0.00     0.000 C 
BRANCH  22  23
ATOM     23  C   UNL     1      16.807 133.312  52.433  1.00  0.00     0.000 C 
BRANCH  23  24
ATOM     24  C   UNL     1      15.719 134.225  53.019  1.00  0.00    -0.000 C 
BRANCH  24  25
ATOM     25  C   UNL     1      16.279 135.623  53.324  1.00  0.00    -0.000 C 
BRANCH  25  26
ATOM     26  C   UNL     1      17.812 135.689  53.217  1.00  0.00    -0.000 C 
BRANCH  26  27
ATOM     27  C   UNL     1      18.496 135.836  54.587  1.00  0.00    -0.000 C 
BRANCH  27  28
ATOM     28  C   UNL     1      18.942 134.487  55.180  1.00  0.00    -0.000 C 
BRANCH  28  29
ATOM     29  C   UNL     1      18.095 133.985  56.366  1.00  0.00    -0.000 C 
BRANCH  29  30
ATOM     30  C   UNL     1      17.181 135.075  56.951  1.00  0.00    -0.000 C 
BRANCH  30  31
ATOM     31  C   UNL     1      15.944 134.492  57.652  1.00  0.00    -0.003 C 
ATOM     32  C   UNL     1      14.784 134.241  56.688  1.00  0.00     0.004 C 
ENDBRANCH  30  31
ENDBRANCH  29  30
ENDBRANCH  28  29
ENDBRANCH  27  28
ENDBRANCH  26  27
ENDBRANCH  25  26
ENDBRANCH  24  25
ENDBRANCH  23  24
ENDBRANCH  22  23
ENDBRANCH  21  22
ENDBRANCH  20  21
ENDBRANCH  19  20
ENDBRANCH  18  19
ENDBRANCH   1  18
TORSDOF 28
ENDMDL
MODEL 6
REMARK VINA RESULT:    -3.975      3.194      5.219
REMARK INTER + INTRA:         -15.440
REMARK INTER:                 -10.138
REMARK INTRA:                  -5.301
REMARK UNBOUND:                -4.959
REMARK SMILES CCCCCCCCCCCCCCCCCCCCCCCCCCCCCC(=O)[O-]
REMARK SMILES IDX 16 1 17 2 18 3 19 4 20 5 21 6 22 7 23 8 24 9 25 10 26 11
REMARK SMILES IDX 27 12 28 13 29 14 30 15 31 16 32 17 15 18 14 19 13 20 12 21
REMARK SMILES IDX 11 22 10 23 9 24 8 25 7 26 6 27 5 28 4 29 3 30 2 31 1 32
REMARK H PARENT
REMARK Flexibility Score: inf
ROOT
ATOM      1  C   UNL     1      19.081 128.808  55.114  1.00  0.00     0.000 C 
ENDROOT
BRANCH   1   2
ATOM      2  C   UNL     1      18.421 129.575  53.958  1.00  0.00     0.000 C 
BRANCH   2   3
ATOM      3  C   UNL     1      17.552 128.669  53.070  1.00  0.00     0.000 C 
BRANCH   3   4
ATOM      4  C   UNL     1      16.494 127.888  53.868  1.00  0.00     0.000 C 
BRANCH   4   5
ATOM      5  C   UNL     1      15.200 128.670  54.175  1.00  0.00     0.000 C 
BRANCH   5   6
ATOM      6  C   UNL     1      15.096 129.230  55.606  1.00  0.00     0.000 C 
BRANCH   6   7
ATOM      7  C   UNL     1      14.775 130.734  55.696  1.00  0.00     0.000 C 
BRANCH   7   8
ATOM      8  C   UNL     1      16.000 131.620  56.009  1.00  0.00     0.000 C 
BRANCH   8   9
ATOM      9  C   UNL     1      16.453 132.455  54.800  1.00  0.00     0.000 C 
BRANCH   9  10
ATOM     10  C   UNL     1      17.382 133.616  55.190  1.00  0.00     0.000 C 
BRANCH  10  11
ATOM     11  C   UNL     1      18.881 133.301  55.001  1.00  0.00     0.000 C 
BRANCH  11  12
ATOM     12  C   UNL     1      19.651 133.314  56.331  1.00  0.00     0.000 C 
BRANCH  12  13
ATOM     13  C   UNL     1      18.742 133.744  57.490  1.00  0.00     0.006 C 
BRANCH  13  14
ATOM     14  C   UNL     1      19.530 133.826  58.801  1.00  0.00     0.053 C 
BRANCH  14  15
ATOM     15  C   UNL     1      18.655 134.323  59.907  1.00  0.00     0.041 C 
ATOM     16  O   UNL     1      19.149 134.994  60.851  1.00  0.00    -0.550 OA
ATOM     17  O   UNL     1      17.300 134.015  59.914  1.00  0.00    -0.550 OA
ENDBRANCH  14  15
ENDBRANCH  13  14
ENDBRANCH  12  13
ENDBRANCH  11  12
ENDBRANCH  10  11
ENDBRANCH   9  10
ENDBRANCH   8   9
ENDBRANCH   7   8
ENDBRANCH   6   7
ENDBRANCH   5   6
ENDBRANCH   4   5
ENDBRANCH   3   4
ENDBRANCH   2   3
ENDBRANCH   1   2
BRANCH   1  18
ATOM     18  C   UNL     1      19.420 129.719  56.307  1.00  0.00     0.000 C 
BRANCH  18  19
ATOM     19  C   UNL     1      18.328 129.705  57.388  1.00  0.00     0.000 C 
BRANCH  19  20
ATOM     20  C   UNL     1      18.867 130.107  58.773  1.00  0.00     0.000 C 
BRANCH  20  21
ATOM     21  C   UNL     1      17.750 130.505  59.753  1.00  0.00     0.000 C 
BRANCH  21  22
ATOM     22  C   UNL     1      18.175 130.357  61.223  1.00  0.00     0.000 C 
BRANCH  22  23
ATOM     23  C   UNL     1      18.967 129.066  61.487  1.00  0.00     0.000 C 
BRANCH  23  24
ATOM     24  C   UNL     1      18.801 128.547  62.923  1.00  0.00    -0.000 C 
BRANCH  24  25
ATOM     25  C   UNL     1      18.140 127.160  62.934  1.00  0.00    -0.000 C 
BRANCH  25  26
ATOM     26  C   UNL     1      16.702 127.188  63.477  1.00  0.00    -0.000 C 
BRANCH  26  27
ATOM     27  C   UNL     1      16.310 128.562  64.047  1.00  0.00    -0.000 C 
BRANCH  27  28
ATOM     28  C   UNL     1      15.151 129.221  63.276  1.00  0.00    -0.000 C 
BRANCH  28  29
ATOM     29  C   UNL     1      14.644 128.427  62.058  1.00  0.00    -0.000 C 
BRANCH  29  30
ATOM     30  C   UNL     1      13.806 129.284  61.094  1.00  0.00    -0.000 C 
BRANCH  30  31
ATOM     31  C   UNL     1      14.481 129.461  59.724  1.00  0.00    -0.003 C 
ATOM     32  C   UNL     1      15.010 128.144  59.153  1.00  0.00     0.004 C 
ENDBRANCH  30  31
ENDBRANCH  29  30
ENDBRANCH  28  29
ENDBRANCH  27  28
ENDBRANCH  26  27
ENDBRANCH  25  26
ENDBRANCH  24  25
ENDBRANCH  23  24
ENDBRANCH  22  23
ENDBRANCH  21  22
ENDBRANCH  20  21
ENDBRANCH  19  20
ENDBRANCH  18  19
ENDBRANCH   1  18
TORSDOF 28
ENDMDL
MODEL 7
REMARK VINA RESULT:    -3.955      1.770      3.858
REMARK INTER + INTRA:         -15.387
REMARK INTER:                  -8.697
REMARK INTRA:                  -6.691
REMARK UNBOUND:                -4.959
REMARK SMILES CCCCCCCCCCCCCCCCCCCCCCCCCCCCCC(=O)[O-]
REMARK SMILES IDX 16 1 17 2 18 3 19 4 20 5 21 6 22 7 23 8 24 9 25 10 26 11
REMARK SMILES IDX 27 12 28 13 29 14 30 15 31 16 32 17 15 18 14 19 13 20 12 21
REMARK SMILES IDX 11 22 10 23 9 24 8 25 7 26 6 27 5 28 4 29 3 30 2 31 1 32
REMARK H PARENT
REMARK Flexibility Score: inf
ROOT
ATOM      1  C   UNL     1      16.750 128.289  56.416  1.00  0.00     0.000 C 
ENDROOT
BRANCH   1   2
ATOM      2  C   UNL     1      17.418 127.816  55.116  1.00  0.00     0.000 C 
BRANCH   2   3
ATOM      3  C   UNL     1      18.669 128.636  54.763  1.00  0.00     0.000 C 
BRANCH   3   4
ATOM      4  C   UNL     1      18.621 130.069  55.322  1.00  0.00     0.000 C 
BRANCH   4   5
ATOM      5  C   UNL     1      19.981 130.798  55.364  1.00  0.00     0.000 C 
BRANCH   5   6
ATOM      6  C   UNL     1      19.966 132.242  54.830  1.00  0.00     0.000 C 
BRANCH   6   7
ATOM      7  C   UNL     1      19.628 133.321  55.876  1.00  0.00     0.000 C 
BRANCH   7   8
ATOM      8  C   UNL     1      18.882 134.543  55.297  1.00  0.00     0.000 C 
BRANCH   8   9
ATOM      9  C   UNL     1      17.559 134.831  56.024  1.00  0.00     0.000 C 
BRANCH   9  10
ATOM     10  C   UNL     1      16.327 134.646  55.122  1.00  0.00     0.000 C 
BRANCH  10  11
ATOM     11  C   UNL     1      16.597 133.778  53.875  1.00  0.00     0.000 C 
BRANCH  11  12
ATOM     12  C   UNL     1      16.205 132.308  54.093  1.00  0.00     0.000 C 
BRANCH  12  13
ATOM     13  C   UNL     1      15.609 131.701  52.817  1.00  0.00     0.006 C 
BRANCH  13  14
ATOM     14  C   UNL     1      15.721 130.173  52.834  1.00  0.00     0.053 C 
BRANCH  14  15
ATOM     15  C   UNL     1      16.548 129.695  51.683  1.00  0.00     0.041 C 
ATOM     16  O   UNL     1      16.891 130.497  50.775  1.00  0.00    -0.550 OA
ATOM     17  O   UNL     1      16.911 128.357  51.596  1.00  0.00    -0.550 OA
ENDBRANCH  14  15
ENDBRANCH  13  14
ENDBRANCH  12  13
ENDBRANCH  11  12
ENDBRANCH  10  11
ENDBRANCH   9  10
ENDBRANCH   8   9
ENDBRANCH   7   8
ENDBRANCH   6   7
ENDBRANCH   5   6
ENDBRANCH   4   5
ENDBRANCH   3   4
ENDBRANCH   2   3
ENDBRANCH   1   2
BRANCH   1  18
ATOM     18  C   UNL     1      15.220 128.391  56.289  1.00  0.00     0.000 C 
BRANCH  18  19
ATOM     19  C   UNL     1      14.502 128.198  57.634  1.00  0.00     0.000 C 
BRANCH  19  20
ATOM     20  C   UNL     1      15.449 128.370  58.836  1.00  0.00     0.000 C 
BRANCH  20  21
ATOM     21  C   UNL     1      14.725 128.876  60.095  1.00  0.00     0.000 C 
BRANCH  21  22
ATOM     22  C   UNL     1      15.622 129.760  60.977  1.00  0.00     0.000 C 
BRANCH  22  23
ATOM     23  C   UNL     1      16.912 129.048  61.416  1.00  0.00     0.000 C 
BRANCH  23  24
ATOM     24  C   UNL     1      18.125 129.989  61.467  1.00  0.00    -0.000 C 
BRANCH  24  25
ATOM     25  C   UNL     1      19.085 129.712  60.299  1.00  0.00    -0.000 C 
BRANCH  25  26
ATOM     26  C   UNL     1      18.671 130.428  59.003  1.00  0.00    -0.000 C 
BRANCH  26  27
ATOM     27  C   UNL     1      18.539 131.950  59.182  1.00  0.00    -0.000 C 
BRANCH  27  28
ATOM     28  C   UNL     1      17.153 132.482  58.776  1.00  0.00    -0.000 C 
BRANCH  28  29
ATOM     29  C   UNL     1      16.451 131.689  57.658  1.00  0.00    -0.000 C 
BRANCH  29  30
ATOM     30  C   UNL     1      14.929 131.916  57.630  1.00  0.00    -0.000 C 
BRANCH  30  31
ATOM     31  C   UNL     1      14.456 132.866  58.742  1.00  0.00    -0.003 C 
ATOM     32  C   UNL     1      13.272 132.305  59.532  1.00  0.00     0.004 C 
ENDBRANCH  30  31
ENDBRANCH  29  30
ENDBRANCH  28  29
ENDBRANCH  27  28
ENDBRANCH  26  27
ENDBRANCH  25  26
ENDBRANCH  24  25
ENDBRANCH  23  24
ENDBRANCH  22  23
ENDBRANCH  21  22
ENDBRANCH  20  21
ENDBRANCH  19  20
ENDBRANCH  18  19
ENDBRANCH   1  18
TORSDOF 28
ENDMDL
MODEL 8
REMARK VINA RESULT:    -3.937      3.632      8.540
REMARK INTER + INTRA:         -15.341
REMARK INTER:                  -9.417
REMARK INTRA:                  -5.924
REMARK UNBOUND:                -4.959
REMARK SMILES CCCCCCCCCCCCCCCCCCCCCCCCCCCCCC(=O)[O-]
REMARK SMILES IDX 16 1 17 2 18 3 19 4 20 5 21 6 22 7 23 8 24 9 25 10 26 11
REMARK SMILES IDX 27 12 28 13 29 14 30 15 31 16 32 17 15 18 14 19 13 20 12 21
REMARK SMILES IDX 11 22 10 23 9 24 8 25 7 26 6 27 5 28 4 29 3 30 2 31 1 32
REMARK H PARENT
REMARK Flexibility Score: inf
ROOT
ATOM      1  C   UNL     1      18.842 131.421  54.409  1.00  0.00     0.000 C 
ENDROOT
BRANCH   1   2
ATOM      2  C   UNL     1      19.187 132.899  54.650  1.00  0.00     0.000 C 
BRANCH   2   3
ATOM      3  C   UNL     1      19.900 133.127  55.993  1.00  0.00     0.000 C 
BRANCH   3   4
ATOM      4  C   UNL     1      18.954 133.644  57.090  1.00  0.00     0.000 C 
BRANCH   4   5
ATOM      5  C   UNL     1      17.539 134.024  56.607  1.00  0.00     0.000 C 
BRANCH   5   6
ATOM      6  C   UNL     1      16.441 133.968  57.685  1.00  0.00     0.000 C 
BRANCH   6   7
ATOM      7  C   UNL     1      15.685 132.630  57.778  1.00  0.00     0.000 C 
BRANCH   7   8
ATOM      8  C   UNL     1      16.057 131.783  59.014  1.00  0.00     0.000 C 
BRANCH   8   9
ATOM      9  C   UNL     1      16.765 132.603  60.104  1.00  0.00     0.000 C 
BRANCH   9  10
ATOM     10  C   UNL     1      18.180 132.089  60.417  1.00  0.00     0.000 C 
BRANCH  10  11
ATOM     11  C   UNL     1      18.623 130.910  59.525  1.00  0.00     0.000 C 
BRANCH  11  12
ATOM     12  C   UNL     1      19.153 129.725  60.346  1.00  0.00     0.000 C 
BRANCH  12  13
ATOM     13  C   UNL     1      18.243 129.434  61.547  1.00  0.00     0.006 C 
BRANCH  13  14
ATOM     14  C   UNL     1      18.950 128.534  62.564  1.00  0.00     0.053 C 
BRANCH  14  15
ATOM     15  C   UNL     1      18.096 127.353  62.901  1.00  0.00     0.041 C 
ATOM     16  O   UNL     1      18.585 126.193  62.883  1.00  0.00    -0.550 OA
ATOM     17  O   UNL     1      16.751 127.531  63.201  1.00  0.00    -0.550 OA
ENDBRANCH  14  15
ENDBRANCH  13  14
ENDBRANCH  12  13
ENDBRANCH  11  12
ENDBRANCH  10  11
ENDBRANCH   9  10
ENDBRANCH   8   9
ENDBRANCH   7   8
ENDBRANCH   6   7
ENDBRANCH   5   6
ENDBRANCH   4   5
ENDBRANCH   3   4
ENDBRANCH   2   3
ENDBRANCH   1   2
BRANCH   1  18
ATOM     18  C   UNL     1      19.747 130.468  55.209  1.00  0.00     0.000 C 
BRANCH  18  19
ATOM     19  C   UNL     1      18.957 129.349  55.905  1.00  0.00     0.000 C 
BRANCH  19  20
ATOM     20  C   UNL     1      17.532 129.786  56.288  1.00  0.00     0.000 C 
BRANCH  20  21
ATOM     21  C   UNL     1      16.730 128.666  56.972  1.00  0.00     0.000 C 
BRANCH  21  22
ATOM     22  C   UNL     1      15.560 128.165  56.108  1.00  0.00     0.000 C 
BRANCH  22  23
ATOM     23  C   UNL     1      15.311 129.048  54.875  1.00  0.00     0.000 C 
BRANCH  23  24
ATOM     24  C   UNL     1      15.210 128.239  53.573  1.00  0.00    -0.000 C 
BRANCH  24  25
ATOM     25  C   UNL     1      16.586 127.695  53.156  1.00  0.00    -0.000 C 
BRANCH  25  26
ATOM     26  C   UNL     1      17.453 128.746  52.443  1.00  0.00    -0.000 C 
BRANCH  26  27
ATOM     27  C   UNL     1      16.726 129.412  51.262  1.00  0.00    -0.000 C 
BRANCH  27  28
ATOM     28  C   UNL     1      16.744 130.950  51.340  1.00  0.00    -0.000 C 
BRANCH  28  29
ATOM     29  C   UNL     1      15.489 131.586  51.968  1.00  0.00    -0.000 C 
BRANCH  29  30
ATOM     30  C   UNL     1      15.823 132.743  52.925  1.00  0.00    -0.000 C 
BRANCH  30  31
ATOM     31  C   UNL     1      15.054 132.650  54.253  1.00  0.00    -0.003 C 
ATOM     32  C   UNL     1      13.538 132.708  54.061  1.00  0.00     0.004 C 
ENDBRANCH  30  31
ENDBRANCH  29  30
ENDBRANCH  28  29
ENDBRANCH  27  28
ENDBRANCH  26  27
ENDBRANCH  25  26
ENDBRANCH  24  25
ENDBRANCH  23  24
ENDBRANCH  22  23
ENDBRANCH  21  22
ENDBRANCH  20  21
ENDBRANCH  19  20
ENDBRANCH  18  19
ENDBRANCH   1  18
TORSDOF 28
ENDMDL
MODEL 9
REMARK VINA RESULT:    -3.891      1.874      3.715
REMARK INTER + INTRA:         -15.221
REMARK INTER:                  -9.135
REMARK INTRA:                  -6.085
REMARK UNBOUND:                -4.959
REMARK SMILES CCCCCCCCCCCCCCCCCCCCCCCCCCCCCC(=O)[O-]
REMARK SMILES IDX 16 1 17 2 18 3 19 4 20 5 21 6 22 7 23 8 24 9 25 10 26 11
REMARK SMILES IDX 27 12 28 13 29 14 30 15 31 16 32 17 15 18 14 19 13 20 12 21
REMARK SMILES IDX 11 22 10 23 9 24 8 25 7 26 6 27 5 28 4 29 3 30 2 31 1 32
REMARK H PARENT
REMARK Flexibility Score: inf
ROOT
ATOM      1  C   UNL     1      19.860 129.652  55.123  1.00  0.00     0.000 C 
ENDROOT
BRANCH   1   2
ATOM      2  C   UNL     1      20.319 131.116  55.206  1.00  0.00     0.000 C 
BRANCH   2   3
ATOM      3  C   UNL     1      19.449 132.056  54.354  1.00  0.00     0.000 C 
BRANCH   3   4
ATOM      4  C   UNL     1      19.168 133.400  55.047  1.00  0.00     0.000 C 
BRANCH   4   5
ATOM      5  C   UNL     1      19.845 133.580  56.422  1.00  0.00     0.000 C 
BRANCH   5   6
ATOM      6  C   UNL     1      18.902 133.477  57.635  1.00  0.00     0.000 C 
BRANCH   6   7
ATOM      7  C   UNL     1      17.479 134.020  57.403  1.00  0.00     0.000 C 
BRANCH   7   8
ATOM      8  C   UNL     1      16.377 133.218  58.128  1.00  0.00     0.000 C 
BRANCH   8   9
ATOM      9  C   UNL     1      15.327 132.646  57.162  1.00  0.00     0.000 C 
BRANCH   9  10
ATOM     10  C   UNL     1      15.951 131.977  55.926  1.00  0.00     0.000 C 
BRANCH  10  11
ATOM     11  C   UNL     1      14.991 131.880  54.722  1.00  0.00     0.000 C 
BRANCH  11  12
ATOM     12  C   UNL     1      14.383 130.477  54.573  1.00  0.00     0.000 C 
BRANCH  12  13
ATOM     13  C   UNL     1      15.471 129.429  54.309  1.00  0.00     0.006 C 
BRANCH  13  14
ATOM     14  C   UNL     1      16.234 129.746  53.019  1.00  0.00     0.053 C 
BRANCH  14  15
ATOM     15  C   UNL     1      16.720 128.487  52.374  1.00  0.00     0.041 C 
ATOM     16  O   UNL     1      16.577 127.382  52.959  1.00  0.00    -0.550 OA
ATOM     17  O   UNL     1      17.363 128.539  51.143  1.00  0.00    -0.550 OA
ENDBRANCH  14  15
ENDBRANCH  13  14
ENDBRANCH  12  13
ENDBRANCH  11  12
ENDBRANCH  10  11
ENDBRANCH   9  10
ENDBRANCH   8   9
ENDBRANCH   7   8
ENDBRANCH   6   7
ENDBRANCH   5   6
ENDBRANCH   4   5
ENDBRANCH   3   4
ENDBRANCH   2   3
ENDBRANCH   1   2
BRANCH   1  18
ATOM     18  C   UNL     1      18.651 129.362  56.028  1.00  0.00     0.000 C 
BRANCH  18  19
ATOM     19  C   UNL     1      18.859 129.856  57.468  1.00  0.00     0.000 C 
BRANCH  19  20
ATOM     20  C   UNL     1      17.580 129.749  58.318  1.00  0.00     0.000 C 
BRANCH  20  21
ATOM     21  C   UNL     1      16.554 128.767  57.726  1.00  0.00     0.000 C 
BRANCH  21  22
ATOM     22  C   UNL     1      15.127 129.026  58.238  1.00  0.00     0.000 C 
BRANCH  22  23
ATOM     23  C   UNL     1      14.786 128.203  59.492  1.00  0.00     0.000 C 
BRANCH  23  24
ATOM     24  C   UNL     1      14.249 129.066  60.643  1.00  0.00    -0.000 C 
BRANCH  24  25
ATOM     25  C   UNL     1      14.612 130.545  60.438  1.00  0.00    -0.000 C 
BRANCH  25  26
ATOM     26  C   UNL     1      15.123 131.219  61.722  1.00  0.00    -0.000 C 
BRANCH  26  27
ATOM     27  C   UNL     1      16.292 132.185  61.460  1.00  0.00    -0.000 C 
BRANCH  27  28
ATOM     28  C   UNL     1      17.666 131.494  61.531  1.00  0.00    -0.000 C 
BRANCH  28  29
ATOM     29  C   UNL     1      17.728 130.258  62.449  1.00  0.00    -0.000 C 
BRANCH  29  30
ATOM     30  C   UNL     1      18.503 129.087  61.820  1.00  0.00    -0.000 C 
BRANCH  30  31
ATOM     31  C   UNL     1      18.311 127.772  62.592  1.00  0.00    -0.003 C 
ATOM     32  C   UNL     1      16.841 127.472  62.890  1.00  0.00     0.004 C 
ENDBRANCH  30  31
ENDBRANCH  29  30
ENDBRANCH  28  29
ENDBRANCH  27  28
ENDBRANCH  26  27
ENDBRANCH  25  26
ENDBRANCH  24  25
ENDBRANCH  23  24
ENDBRANCH  22  23
ENDBRANCH  21  22
ENDBRANCH  20  21
ENDBRANCH  19  20
ENDBRANCH  18  19
ENDBRANCH   1  18
TORSDOF 28
ENDMDL
