MODEL 1
REMARK VINA RESULT:    -2.940      0.000      0.000
REMARK INTER + INTRA:          -7.023
REMARK INTER:                  -5.002
REMARK INTRA:                  -2.021
REMARK UNBOUND:                -2.021
REMARK SMILES CCCCCCCCCCCCCC(=O)[O-]
REMARK SMILES IDX 8 1 9 2 10 3 11 4 12 5 13 6 14 7 15 8 16 9 7 10 6 11 5 12
REMARK SMILES IDX 4 13 3 14 2 15 1 16
REMARK H PARENT
REMARK Flexibility Score: inf
ROOT
ATOM      1  C   UNL     1      11.303  43.307 150.397  1.00  0.00     0.000 C 
ENDROOT
BRANCH   1   2
ATOM      2  C   UNL     1      12.474  42.344 150.129  1.00  0.00     0.000 C 
BRANCH   2   3
ATOM      3  C   UNL     1      12.083  40.858 149.999  1.00  0.00     0.000 C 
BRANCH   3   4
ATOM      4  C   UNL     1      11.966  40.091 151.331  1.00  0.00     0.000 C 
BRANCH   4   5
ATOM      5  C   UNL     1      10.538  39.645 151.703  1.00  0.00     0.006 C 
BRANCH   5   6
ATOM      6  C   UNL     1       9.549  39.639 150.527  1.00  0.00     0.053 C 
BRANCH   6   7
ATOM      7  C   UNL     1       9.310  38.255 150.005  1.00  0.00     0.041 C 
ATOM      8  O   UNL     1       8.191  37.946 149.518  1.00  0.00    -0.550 OA
ATOM      9  O   UNL     1      10.334  37.317 150.027  1.00  0.00    -0.550 OA
ENDBRANCH   6   7
ENDBRANCH   5   6
ENDBRANCH   4   5
ENDBRANCH   3   4
ENDBRANCH   2   3
ENDBRANCH   1   2
BRANCH   1  10
ATOM     10  C   UNL     1      11.463  44.086 151.714  1.00  0.00     0.000 C 
BRANCH  10  11
ATOM     11  C   UNL     1      12.655  43.592 152.550  1.00  0.00    -0.000 C 
BRANCH  11  12
ATOM     12  C   UNL     1      12.221  42.812 153.800  1.00  0.00    -0.000 C 
BRANCH  12  13
ATOM     13  C   UNL     1      10.786  43.177 154.202  1.00  0.00    -0.000 C 
BRANCH  13  14
ATOM     14  C   UNL     1       9.967  41.921 154.522  1.00  0.00    -0.000 C 
BRANCH  14  15
ATOM     15  C   UNL     1       8.488  42.126 154.177  1.00  0.00    -0.003 C 
ATOM     16  C   UNL     1       8.310  42.493 152.706  1.00  0.00     0.004 C 
ENDBRANCH  14  15
ENDBRANCH  13  14
ENDBRANCH  12  13
ENDBRANCH  11  12
ENDBRANCH  10  11
ENDBRANCH   1  10
TORSDOF 12
ENDMDL
MODEL 2
REMARK VINA RESULT:    -2.836      1.553      3.321
REMARK INTER + INTRA:          -6.845
REMARK INTER:                  -5.428
REMARK INTRA:                  -1.417
REMARK UNBOUND:                -2.021
REMARK SMILES CCCCCCCCCCCCCC(=O)[O-]
REMARK SMILES IDX 8 1 9 2 10 3 11 4 12 5 13 6 14 7 15 8 16 9 7 10 6 11 5 12
REMARK SMILES IDX 4 13 3 14 2 15 1 16
REMARK H PARENT
REMARK Flexibility Score: inf
ROOT
ATOM      1  C   UNL     1       8.139  40.187 151.837  1.00  0.00     0.000 C 
ENDROOT
BRANCH   1   2
ATOM      2  C   UNL     1       9.027  41.028 150.901  1.00  0.00     0.000 C 
BRANCH   2   3
ATOM      3  C   UNL     1      10.008  40.220 150.028  1.00  0.00     0.000 C 
BRANCH   3   4
ATOM      4  C   UNL     1      10.635  38.989 150.713  1.00  0.00     0.000 C 
BRANCH   4   5
ATOM      5  C   UNL     1      10.424  37.653 149.974  1.00  0.00     0.006 C 
BRANCH   5   6
ATOM      6  C   UNL     1       8.959  37.346 149.625  1.00  0.00     0.053 C 
BRANCH   6   7
ATOM      7  C   UNL     1       8.682  35.874 149.615  1.00  0.00     0.041 C 
ATOM      8  O   UNL     1       7.545  35.445 149.287  1.00  0.00    -0.550 OA
ATOM      9  O   UNL     1       9.692  34.976 149.935  1.00  0.00    -0.550 OA
ENDBRANCH   6   7
ENDBRANCH   5   6
ENDBRANCH   4   5
ENDBRANCH   3   4
ENDBRANCH   2   3
ENDBRANCH   1   2
BRANCH   1  10
ATOM     10  C   UNL     1       8.431  40.445 153.325  1.00  0.00     0.000 C 
BRANCH  10  11
ATOM     11  C   UNL     1       9.887  40.872 153.574  1.00  0.00    -0.000 C 
BRANCH  11  12
ATOM     12  C   UNL     1       9.993  42.196 154.347  1.00  0.00    -0.000 C 
BRANCH  12  13
ATOM     13  C   UNL     1      11.323  42.899 154.048  1.00  0.00    -0.000 C 
BRANCH  13  14
ATOM     14  C   UNL     1      11.994  42.304 152.804  1.00  0.00    -0.000 C 
BRANCH  14  15
ATOM     15  C   UNL     1      12.241  43.382 151.743  1.00  0.00    -0.003 C 
ATOM     16  C   UNL     1      12.650  42.761 150.410  1.00  0.00     0.004 C 
ENDBRANCH  14  15
ENDBRANCH  13  14
ENDBRANCH  12  13
ENDBRANCH  11  12
ENDBRANCH  10  11
ENDBRANCH   1  10
TORSDOF 12
ENDMDL
MODEL 3
REMARK VINA RESULT:    -2.833      2.849      4.949
REMARK INTER + INTRA:          -6.842
REMARK INTER:                  -4.972
REMARK INTRA:                  -1.869
REMARK UNBOUND:                -2.021
REMARK SMILES CCCCCCCCCCCCCC(=O)[O-]
REMARK SMILES IDX 8 1 9 2 10 3 11 4 12 5 13 6 14 7 15 8 16 9 7 10 6 11 5 12
REMARK SMILES IDX 4 13 3 14 2 15 1 16
REMARK H PARENT
REMARK Flexibility Score: inf
ROOT
ATOM      1  C   UNL     1      11.105  41.989 148.768  1.00  0.00     0.000 C 
ENDROOT
BRANCH   1   2
ATOM      2  C   UNL     1      10.962  42.640 150.157  1.00  0.00     0.000 C 
BRANCH   2   3
ATOM      3  C   UNL     1      12.172  42.457 151.094  1.00  0.00     0.000 C 
BRANCH   3   4
ATOM      4  C   UNL     1      11.836  41.936 152.505  1.00  0.00     0.000 C 
BRANCH   4   5
ATOM      5  C   UNL     1      12.027  42.959 153.642  1.00  0.00     0.006 C 
BRANCH   5   6
ATOM      6  C   UNL     1      10.718  43.544 154.194  1.00  0.00     0.053 C 
BRANCH   6   7
ATOM      7  C   UNL     1       9.984  42.561 155.053  1.00  0.00     0.041 C 
ATOM      8  O   UNL     1       8.896  42.064 154.660  1.00  0.00    -0.550 OA
ATOM      9  O   UNL     1      10.521  42.168 156.273  1.00  0.00    -0.550 OA
ENDBRANCH   6   7
ENDBRANCH   5   6
ENDBRANCH   4   5
ENDBRANCH   3   4
ENDBRANCH   2   3
ENDBRANCH   1   2
BRANCH   1  10
ATOM     10  C   UNL     1      12.363  41.112 148.649  1.00  0.00     0.000 C 
BRANCH  10  11
ATOM     11  C   UNL     1      12.032  39.612 148.585  1.00  0.00    -0.000 C 
BRANCH  11  12
ATOM     12  C   UNL     1      12.232  38.901 149.933  1.00  0.00    -0.000 C 
BRANCH  12  13
ATOM     13  C   UNL     1      10.904  38.783 150.692  1.00  0.00    -0.000 C 
BRANCH  13  14
ATOM     14  C   UNL     1       9.732  38.582 149.723  1.00  0.00    -0.000 C 
BRANCH  14  15
ATOM     15  C   UNL     1       8.461  39.257 150.251  1.00  0.00    -0.003 C 
ATOM     16  C   UNL     1       8.732  40.000 151.556  1.00  0.00     0.004 C 
ENDBRANCH  14  15
ENDBRANCH  13  14
ENDBRANCH  12  13
ENDBRANCH  11  12
ENDBRANCH  10  11
ENDBRANCH   1  10
TORSDOF 12
ENDMDL
MODEL 4
REMARK VINA RESULT:    -2.801      3.532      5.259
REMARK INTER + INTRA:          -6.787
REMARK INTER:                  -4.959
REMARK INTRA:                  -1.829
REMARK UNBOUND:                -2.021
REMARK SMILES CCCCCCCCCCCCCC(=O)[O-]
REMARK SMILES IDX 8 1 9 2 10 3 11 4 12 5 13 6 14 7 15 8 16 9 7 10 6 11 5 12
REMARK SMILES IDX 4 13 3 14 2 15 1 16
REMARK H PARENT
REMARK Flexibility Score: inf
ROOT
ATOM      1  C   UNL     1      10.881  43.576 150.818  1.00  0.00     0.000 C 
ENDROOT
BRANCH   1   2
ATOM      2  C   UNL     1      10.393  43.671 152.276  1.00  0.00     0.000 C 
BRANCH   2   3
ATOM      3  C   UNL     1      11.505  43.849 153.329  1.00  0.00     0.000 C 
BRANCH   3   4
ATOM      4  C   UNL     1      11.540  42.775 154.434  1.00  0.00     0.000 C 
BRANCH   4   5
ATOM      5  C   UNL     1      10.160  42.244 154.871  1.00  0.00     0.006 C 
BRANCH   5   6
ATOM      6  C   UNL     1       9.682  42.768 156.234  1.00  0.00     0.053 C 
BRANCH   6   7
ATOM      7  C   UNL     1       8.853  44.009 156.096  1.00  0.00     0.041 C 
ATOM      8  O   UNL     1       8.152  44.191 155.067  1.00  0.00    -0.550 OA
ATOM      9  O   UNL     1       8.831  44.946 157.121  1.00  0.00    -0.550 OA
ENDBRANCH   6   7
ENDBRANCH   5   6
ENDBRANCH   4   5
ENDBRANCH   3   4
ENDBRANCH   2   3
ENDBRANCH   1   2
BRANCH   1  10
ATOM     10  C   UNL     1      12.215  42.823 150.685  1.00  0.00     0.000 C 
BRANCH  10  11
ATOM     11  C   UNL     1      12.023  41.355 150.271  1.00  0.00    -0.000 C 
BRANCH  11  12
ATOM     12  C   UNL     1      12.024  40.394 151.470  1.00  0.00    -0.000 C 
BRANCH  12  13
ATOM     13  C   UNL     1      10.822  39.443 151.411  1.00  0.00    -0.000 C 
BRANCH  13  14
ATOM     14  C   UNL     1       9.629  40.013 152.188  1.00  0.00    -0.000 C 
BRANCH  14  15
ATOM     15  C   UNL     1       8.505  40.437 151.236  1.00  0.00    -0.003 C 
ATOM     16  C   UNL     1       8.234  39.361 150.188  1.00  0.00     0.004 C 
ENDBRANCH  14  15
ENDBRANCH  13  14
ENDBRANCH  12  13
ENDBRANCH  11  12
ENDBRANCH  10  11
ENDBRANCH   1  10
TORSDOF 12
ENDMDL
MODEL 5
REMARK VINA RESULT:    -2.789     12.278     14.149
REMARK INTER + INTRA:          -6.766
REMARK INTER:                  -4.945
REMARK INTRA:                  -1.820
REMARK UNBOUND:                -2.021
REMARK SMILES CCCCCCCCCCCCCC(=O)[O-]
REMARK SMILES IDX 8 1 9 2 10 3 11 4 12 5 13 6 14 7 15 8 16 9 7 10 6 11 5 12
REMARK SMILES IDX 4 13 3 14 2 15 1 16
REMARK H PARENT
REMARK Flexibility Score: inf
ROOT
ATOM      1  C   UNL     1       8.883  35.736 141.110  1.00  0.00     0.000 C 
ENDROOT
BRANCH   1   2
ATOM      2  C   UNL     1       7.917  34.946 140.209  1.00  0.00     0.000 C 
BRANCH   2   3
ATOM      3  C   UNL     1       6.854  35.796 139.484  1.00  0.00     0.000 C 
BRANCH   3   4
ATOM      4  C   UNL     1       7.343  36.508 138.207  1.00  0.00     0.000 C 
BRANCH   4   5
ATOM      5  C   UNL     1       7.678  38.003 138.382  1.00  0.00     0.006 C 
BRANCH   5   6
ATOM      6  C   UNL     1       6.642  38.793 139.196  1.00  0.00     0.053 C 
BRANCH   6   7
ATOM      7  C   UNL     1       5.838  39.717 138.333  1.00  0.00     0.041 C 
ATOM      8  O   UNL     1       6.013  40.961 138.402  1.00  0.00    -0.550 OA
ATOM      9  O   UNL     1       4.921  39.199 137.428  1.00  0.00    -0.550 OA
ENDBRANCH   6   7
ENDBRANCH   5   6
ENDBRANCH   4   5
ENDBRANCH   3   4
ENDBRANCH   2   3
ENDBRANCH   1   2
BRANCH   1  10
ATOM     10  C   UNL     1      10.361  35.442 140.800  1.00  0.00     0.000 C 
BRANCH  10  11
ATOM     11  C   UNL     1      10.571  34.929 139.366  1.00  0.00    -0.000 C 
BRANCH  11  12
ATOM     12  C   UNL     1      11.060  36.026 138.409  1.00  0.00    -0.000 C 
BRANCH  12  13
ATOM     13  C   UNL     1      12.492  36.455 138.753  1.00  0.00    -0.000 C 
BRANCH  13  14
ATOM     14  C   UNL     1      12.557  37.954 139.070  1.00  0.00    -0.000 C 
BRANCH  14  15
ATOM     15  C   UNL     1      11.178  38.608 138.922  1.00  0.00    -0.003 C 
ATOM     16  C   UNL     1      10.691  39.174 140.253  1.00  0.00     0.004 C 
ENDBRANCH  14  15
ENDBRANCH  13  14
ENDBRANCH  12  13
ENDBRANCH  11  12
ENDBRANCH  10  11
ENDBRANCH   1  10
TORSDOF 12
ENDMDL
MODEL 6
REMARK VINA RESULT:    -2.775     12.078     14.070
REMARK INTER + INTRA:          -6.742
REMARK INTER:                  -4.877
REMARK INTRA:                  -1.865
REMARK UNBOUND:                -2.021
REMARK SMILES CCCCCCCCCCCCCC(=O)[O-]
REMARK SMILES IDX 8 1 9 2 10 3 11 4 12 5 13 6 14 7 15 8 16 9 7 10 6 11 5 12
REMARK SMILES IDX 4 13 3 14 2 15 1 16
REMARK H PARENT
REMARK Flexibility Score: inf
ROOT
ATOM      1  C   UNL     1       7.638  36.911 140.578  1.00  0.00     0.000 C 
ENDROOT
BRANCH   1   2
ATOM      2  C   UNL     1       7.092  36.069 139.410  1.00  0.00     0.000 C 
BRANCH   2   3
ATOM      3  C   UNL     1       7.185  36.736 138.023  1.00  0.00     0.000 C 
BRANCH   3   4
ATOM      4  C   UNL     1       7.191  38.277 138.036  1.00  0.00     0.000 C 
BRANCH   4   5
ATOM      5  C   UNL     1       5.892  38.939 137.535  1.00  0.00     0.006 C 
BRANCH   5   6
ATOM      6  C   UNL     1       5.288  39.965 138.506  1.00  0.00     0.053 C 
BRANCH   6   7
ATOM      7  C   UNL     1       4.198  39.369 139.343  1.00  0.00     0.041 C 
ATOM      8  O   UNL     1       2.991  39.608 139.075  1.00  0.00    -0.550 OA
ATOM      9  O   UNL     1       4.516  38.523 140.397  1.00  0.00    -0.550 OA
ENDBRANCH   6   7
ENDBRANCH   5   6
ENDBRANCH   4   5
ENDBRANCH   3   4
ENDBRANCH   2   3
ENDBRANCH   1   2
BRANCH   1  10
ATOM     10  C   UNL     1       8.776  36.207 141.337  1.00  0.00     0.000 C 
BRANCH  10  11
ATOM     11  C   UNL     1       9.349  35.009 140.562  1.00  0.00    -0.000 C 
BRANCH  11  12
ATOM     12  C   UNL     1      10.780  35.254 140.061  1.00  0.00    -0.000 C 
BRANCH  12  13
ATOM     13  C   UNL     1      10.771  35.999 138.720  1.00  0.00    -0.000 C 
BRANCH  13  14
ATOM     14  C   UNL     1      11.662  37.246 138.776  1.00  0.00    -0.000 C 
BRANCH  14  15
ATOM     15  C   UNL     1      10.824  38.525 138.670  1.00  0.00    -0.003 C 
ATOM     16  C   UNL     1      10.595  39.150 140.043  1.00  0.00     0.004 C 
ENDBRANCH  14  15
ENDBRANCH  13  14
ENDBRANCH  12  13
ENDBRANCH  11  12
ENDBRANCH  10  11
ENDBRANCH   1  10
TORSDOF 12
ENDMDL
MODEL 7
REMARK VINA RESULT:    -2.715      3.615      5.536
REMARK INTER + INTRA:          -6.640
REMARK INTER:                  -4.867
REMARK INTRA:                  -1.772
REMARK UNBOUND:                -2.021
REMARK SMILES CCCCCCCCCCCCCC(=O)[O-]
REMARK SMILES IDX 8 1 9 2 10 3 11 4 12 5 13 6 14 7 15 8 16 9 7 10 6 11 5 12
REMARK SMILES IDX 4 13 3 14 2 15 1 16
REMARK H PARENT
REMARK Flexibility Score: inf
ROOT
ATOM      1  C   UNL     1      10.723  39.524 151.415  1.00  0.00     0.000 C 
ENDROOT
BRANCH   1   2
ATOM      2  C   UNL     1       9.413  40.332 151.363  1.00  0.00     0.000 C 
BRANCH   2   3
ATOM      3  C   UNL     1       8.688  40.491 152.714  1.00  0.00     0.000 C 
BRANCH   3   4
ATOM      4  C   UNL     1       9.484  41.237 153.803  1.00  0.00     0.000 C 
BRANCH   4   5
ATOM      5  C   UNL     1       8.721  42.382 154.499  1.00  0.00     0.006 C 
BRANCH   5   6
ATOM      6  C   UNL     1       9.445  42.977 155.717  1.00  0.00     0.053 C 
BRANCH   6   7
ATOM      7  C   UNL     1       9.023  44.389 155.983  1.00  0.00     0.041 C 
ATOM      8  O   UNL     1       8.609  44.723 157.125  1.00  0.00    -0.550 OA
ATOM      9  O   UNL     1       9.121  45.344 154.979  1.00  0.00    -0.550 OA
ENDBRANCH   6   7
ENDBRANCH   5   6
ENDBRANCH   4   5
ENDBRANCH   3   4
ENDBRANCH   2   3
ENDBRANCH   1   2
BRANCH   1  10
ATOM     10  C   UNL     1      11.975  40.417 151.397  1.00  0.00     0.000 C 
BRANCH  10  11
ATOM     11  C   UNL     1      12.056  41.292 150.135  1.00  0.00    -0.000 C 
BRANCH  11  12
ATOM     12  C   UNL     1      12.329  42.770 150.454  1.00  0.00    -0.000 C 
BRANCH  12  13
ATOM     13  C   UNL     1      11.073  43.450 151.014  1.00  0.00    -0.000 C 
BRANCH  13  14
ATOM     14  C   UNL     1      11.337  44.031 152.409  1.00  0.00    -0.000 C 
BRANCH  14  15
ATOM     15  C   UNL     1      12.767  43.727 152.869  1.00  0.00    -0.003 C 
ATOM     16  C   UNL     1      12.771  42.981 154.201  1.00  0.00     0.004 C 
ENDBRANCH  14  15
ENDBRANCH  13  14
ENDBRANCH  12  13
ENDBRANCH  11  12
ENDBRANCH  10  11
ENDBRANCH   1  10
TORSDOF 12
ENDMDL
MODEL 8
REMARK VINA RESULT:    -2.687      3.673      5.299
REMARK INTER + INTRA:          -6.593
REMARK INTER:                  -4.785
REMARK INTRA:                  -1.808
REMARK UNBOUND:                -2.021
REMARK SMILES CCCCCCCCCCCCCC(=O)[O-]
REMARK SMILES IDX 8 1 9 2 10 3 11 4 12 5 13 6 14 7 15 8 16 9 7 10 6 11 5 12
REMARK SMILES IDX 4 13 3 14 2 15 1 16
REMARK H PARENT
REMARK Flexibility Score: inf
ROOT
ATOM      1  C   UNL     1      12.043  41.504 150.685  1.00  0.00     0.000 C 
ENDROOT
BRANCH   1   2
ATOM      2  C   UNL     1      12.125  42.888 151.356  1.00  0.00     0.000 C 
BRANCH   2   3
ATOM      3  C   UNL     1      12.416  42.865 152.870  1.00  0.00     0.000 C 
BRANCH   3   4
ATOM      4  C   UNL     1      11.571  43.840 153.715  1.00  0.00     0.000 C 
BRANCH   4   5
ATOM      5  C   UNL     1      10.532  43.172 154.637  1.00  0.00     0.006 C 
BRANCH   5   6
ATOM      6  C   UNL     1       9.366  44.086 155.044  1.00  0.00     0.053 C 
BRANCH   6   7
ATOM      7  C   UNL     1       8.934  43.846 156.458  1.00  0.00     0.041 C 
ATOM      8  O   UNL     1       9.407  42.878 157.110  1.00  0.00    -0.550 OA
ATOM      9  O   UNL     1       8.036  44.713 157.067  1.00  0.00    -0.550 OA
ENDBRANCH   6   7
ENDBRANCH   5   6
ENDBRANCH   4   5
ENDBRANCH   3   4
ENDBRANCH   2   3
ENDBRANCH   1   2
BRANCH   1  10
ATOM     10  C   UNL     1      11.875  40.360 151.700  1.00  0.00     0.000 C 
BRANCH  10  11
ATOM     11  C   UNL     1      10.435  39.822 151.747  1.00  0.00    -0.000 C 
BRANCH  11  12
ATOM     12  C   UNL     1       9.694  40.222 153.032  1.00  0.00    -0.000 C 
BRANCH  12  13
ATOM     13  C   UNL     1       8.177  40.235 152.808  1.00  0.00    -0.000 C 
BRANCH  13  14
ATOM     14  C   UNL     1       7.614  41.657 152.927  1.00  0.00    -0.000 C 
BRANCH  14  15
ATOM     15  C   UNL     1       7.457  42.303 151.546  1.00  0.00    -0.003 C 
ATOM     16  C   UNL     1       8.535  43.356 151.304  1.00  0.00     0.004 C 
ENDBRANCH  14  15
ENDBRANCH  13  14
ENDBRANCH  12  13
ENDBRANCH  11  12
ENDBRANCH  10  11
ENDBRANCH   1  10
TORSDOF 12
ENDMDL
MODEL 9
REMARK VINA RESULT:    -2.676      3.316      5.319
REMARK INTER + INTRA:          -6.574
REMARK INTER:                  -4.555
REMARK INTRA:                  -2.019
REMARK UNBOUND:                -2.021
REMARK SMILES CCCCCCCCCCCCCC(=O)[O-]
REMARK SMILES IDX 8 1 9 2 10 3 11 4 12 5 13 6 14 7 15 8 16 9 7 10 6 11 5 12
REMARK SMILES IDX 4 13 3 14 2 15 1 16
REMARK H PARENT
REMARK Flexibility Score: inf
ROOT
ATOM      1  C   UNL     1      10.375  44.301 150.961  1.00  0.00     0.000 C 
ENDROOT
BRANCH   1   2
ATOM      2  C   UNL     1      10.677  44.289 152.471  1.00  0.00     0.000 C 
BRANCH   2   3
ATOM      3  C   UNL     1      11.998  43.601 152.869  1.00  0.00     0.000 C 
BRANCH   3   4
ATOM      4  C   UNL     1      11.942  42.778 154.171  1.00  0.00     0.000 C 
BRANCH   4   5
ATOM      5  C   UNL     1      10.545  42.243 154.545  1.00  0.00     0.006 C 
BRANCH   5   6
ATOM      6  C   UNL     1      10.160  42.452 156.018  1.00  0.00     0.053 C 
BRANCH   6   7
ATOM      7  C   UNL     1       8.914  43.271 156.159  1.00  0.00     0.041 C 
ATOM      8  O   UNL     1       8.786  44.069 157.125  1.00  0.00    -0.550 OA
ATOM      9  O   UNL     1       7.909  43.178 155.205  1.00  0.00    -0.550 OA
ENDBRANCH   6   7
ENDBRANCH   5   6
ENDBRANCH   4   5
ENDBRANCH   3   4
ENDBRANCH   2   3
ENDBRANCH   1   2
BRANCH   1  10
ATOM     10  C   UNL     1       9.614  43.047 150.496  1.00  0.00     0.000 C 
BRANCH  10  11
ATOM     11  C   UNL     1       8.455  42.680 151.436  1.00  0.00    -0.000 C 
BRANCH  11  12
ATOM     12  C   UNL     1       8.457  41.194 151.829  1.00  0.00    -0.000 C 
BRANCH  12  13
ATOM     13  C   UNL     1       9.460  40.404 150.979  1.00  0.00    -0.000 C 
BRANCH  13  14
ATOM     14  C   UNL     1      10.540  39.761 151.857  1.00  0.00    -0.000 C 
BRANCH  14  15
ATOM     15  C   UNL     1      11.941  40.194 151.413  1.00  0.00    -0.003 C 
ATOM     16  C   UNL     1      12.011  40.364 149.897  1.00  0.00     0.004 C 
ENDBRANCH  14  15
ENDBRANCH  13  14
ENDBRANCH  12  13
ENDBRANCH  11  12
ENDBRANCH  10  11
ENDBRANCH   1  10
TORSDOF 12
ENDMDL
