MODEL 1
REMARK VINA RESULT:    -3.460      0.000      0.000
REMARK INTER + INTRA:          -4.359
REMARK INTER:                  -4.067
REMARK INTRA:                  -0.292
REMARK UNBOUND:                -0.292
REMARK SMILES O=c1cc(-c2ccc(O)c(O)c2)oc2cc(O)cc(O)c12
REMARK SMILES IDX 4 1 3 2 2 3 1 4 21 5 19 6 18 7 16 8 15 9 14 10 13 11 5 12
REMARK SMILES IDX 6 13 7 14 8 15 12 16 10 17 9 18 11 20 20 22 17 24
REMARK H PARENT 9 19 11 21 20 23 17 25
REMARK Flexibility Score: inf
ROOT
ATOM      1  C   UNL     1      20.582  20.885  18.815  1.00  0.00     0.138 A 
ATOM      2  C   UNL     1      21.008  21.553  19.970  1.00  0.00     0.100 A 
ATOM      3  C   UNL     1      22.365  21.571  20.295  1.00  0.00     0.197 A 
ATOM      4  O   UNL     1      22.711  22.125  21.371  1.00  0.00    -0.289 OA
ATOM      5  C   UNL     1      23.302  20.944  19.441  1.00  0.00     0.107 A 
ATOM      6  C   UNL     1      24.714  20.933  19.649  1.00  0.00     0.134 A 
ATOM      7  C   UNL     1      25.532  20.180  18.798  1.00  0.00     0.093 A 
ATOM      8  C   UNL     1      24.998  19.489  17.711  1.00  0.00     0.123 A 
ATOM      9  C   UNL     1      23.625  19.535  17.466  1.00  0.00     0.094 A 
ATOM     10  C   UNL     1      22.778  20.249  18.318  1.00  0.00     0.146 A 
ATOM     11  O   UNL     1      21.475  20.256  18.058  1.00  0.00    -0.456 OA
ENDROOT
BRANCH   1  12
ATOM     12  C   UNL     1      19.150  20.835  18.422  1.00  0.00     0.021 A 
ATOM     13  C   UNL     1      18.347  21.991  18.409  1.00  0.00     0.016 A 
ATOM     14  C   UNL     1      17.006  21.917  18.024  1.00  0.00     0.051 A 
ATOM     15  C   UNL     1      16.445  20.695  17.639  1.00  0.00     0.157 A 
ATOM     16  C   UNL     1      18.585  19.612  18.021  1.00  0.00     0.062 A 
ATOM     17  C   UNL     1      17.237  19.536  17.636  1.00  0.00     0.158 A 
BRANCH  15  18
ATOM     18  O   UNL     1      15.103  20.653  17.262  1.00  0.00    -0.504 OA
ATOM     19  H   UNL     1      14.769  21.097  16.416  1.00  0.00     0.293 HD
ENDBRANCH  15  18
BRANCH  17  20
ATOM     20  O   UNL     1      16.687  18.315  17.250  1.00  0.00    -0.504 OA
ATOM     21  H   UNL     1      16.697  18.009  16.284  1.00  0.00     0.293 HD
ENDBRANCH  17  20
ENDBRANCH   1  12
BRANCH   6  22
ATOM     22  O   UNL     1      25.360  21.659  20.654  1.00  0.00    -0.507 OA
ATOM     23  H   UNL     1      26.149  21.328  21.189  1.00  0.00     0.293 HD
ENDBRANCH   6  22
BRANCH   8  24
ATOM     24  O   UNL     1      25.844  18.761  16.877  1.00  0.00    -0.508 OA
ATOM     25  H   UNL     1      26.378  17.973  17.221  1.00  0.00     0.293 HD
ENDBRANCH   8  24
TORSDOF 5
ENDMDL
MODEL 2
REMARK VINA RESULT:    -3.409     22.708     24.666
REMARK INTER + INTRA:          -4.299
REMARK INTER:                  -4.004
REMARK INTRA:                  -0.295
REMARK UNBOUND:                -0.292
REMARK SMILES O=c1cc(-c2ccc(O)c(O)c2)oc2cc(O)cc(O)c12
REMARK SMILES IDX 4 1 3 2 2 3 1 4 21 5 19 6 18 7 16 8 15 9 14 10 13 11 5 12
REMARK SMILES IDX 6 13 7 14 8 15 12 16 10 17 9 18 11 20 20 22 17 24
REMARK H PARENT 9 19 11 21 20 23 17 25
REMARK Flexibility Score: inf
ROOT
ATOM      1  C   UNL     1       6.181  11.692  34.846  1.00  0.00     0.138 A 
ATOM      2  C   UNL     1       6.407  11.388  33.497  1.00  0.00     0.100 A 
ATOM      3  C   UNL     1       6.483  10.054  33.095  1.00  0.00     0.197 A 
ATOM      4  O   UNL     1       6.749   9.812  31.889  1.00  0.00    -0.289 OA
ATOM      5  C   UNL     1       6.299   9.021  34.044  1.00  0.00     0.107 A 
ATOM      6  C   UNL     1       6.314   7.626  33.741  1.00  0.00     0.134 A 
ATOM      7  C   UNL     1       6.237   6.693  34.783  1.00  0.00     0.093 A 
ATOM      8  C   UNL     1       6.084   7.102  36.107  1.00  0.00     0.123 A 
ATOM      9  C   UNL     1       6.014   8.462  36.409  1.00  0.00     0.094 A 
ATOM     10  C   UNL     1       6.123   9.418  35.396  1.00  0.00     0.146 A 
ATOM     11  O   UNL     1       6.066  10.704  35.728  1.00  0.00    -0.456 OA
ENDROOT
BRANCH   1  12
ATOM     12  C   UNL     1       6.090  13.094  35.329  1.00  0.00     0.021 A 
ATOM     13  C   UNL     1       5.984  13.399  36.699  1.00  0.00     0.016 A 
ATOM     14  C   UNL     1       5.911  14.728  37.125  1.00  0.00     0.051 A 
ATOM     15  C   UNL     1       5.951  15.773  36.198  1.00  0.00     0.157 A 
ATOM     16  C   UNL     1       6.144  14.150  34.402  1.00  0.00     0.062 A 
ATOM     17  C   UNL     1       6.070  15.485  34.829  1.00  0.00     0.158 A 
BRANCH  15  18
ATOM     18  O   UNL     1       5.875  17.088  36.654  1.00  0.00    -0.504 OA
ATOM     19  H   UNL     1       5.568  17.314  37.592  1.00  0.00     0.293 HD
ENDBRANCH  15  18
BRANCH  17  20
ATOM     20  O   UNL     1       6.114  16.521  33.898  1.00  0.00    -0.504 OA
ATOM     21  H   UNL     1       6.991  16.851  33.512  1.00  0.00     0.293 HD
ENDBRANCH  17  20
ENDBRANCH   1  12
BRANCH   6  22
ATOM     22  O   UNL     1       6.378   7.109  32.444  1.00  0.00    -0.507 OA
ATOM     23  H   UNL     1       5.625   6.626  31.979  1.00  0.00     0.293 HD
ENDBRANCH   6  22
BRANCH   8  24
ATOM     24  O   UNL     1       5.996   6.145  37.115  1.00  0.00    -0.508 OA
ATOM     25  H   UNL     1       6.824   5.750  37.545  1.00  0.00     0.293 HD
ENDBRANCH   8  24
TORSDOF 5
ENDMDL
MODEL 3
REMARK VINA RESULT:    -3.204      1.144      2.670
REMARK INTER + INTRA:          -4.058
REMARK INTER:                  -3.797
REMARK INTRA:                  -0.261
REMARK UNBOUND:                -0.292
REMARK SMILES O=c1cc(-c2ccc(O)c(O)c2)oc2cc(O)cc(O)c12
REMARK SMILES IDX 4 1 3 2 2 3 1 4 21 5 19 6 18 7 16 8 15 9 14 10 13 11 5 12
REMARK SMILES IDX 6 13 7 14 8 15 12 16 10 17 9 18 11 20 20 22 17 24
REMARK H PARENT 9 19 11 21 20 23 17 25
REMARK Flexibility Score: inf
ROOT
ATOM      1  C   UNL     1      20.700  20.395  18.226  1.00  0.00     0.138 A 
ATOM      2  C   UNL     1      21.454  19.555  17.397  1.00  0.00     0.100 A 
ATOM      3  C   UNL     1      22.806  19.347  17.673  1.00  0.00     0.197 A 
ATOM      4  O   UNL     1      23.472  18.638  16.875  1.00  0.00    -0.289 OA
ATOM      5  C   UNL     1      23.396  19.959  18.803  1.00  0.00     0.107 A 
ATOM      6  C   UNL     1      24.755  19.787  19.206  1.00  0.00     0.134 A 
ATOM      7  C   UNL     1      25.258  20.535  20.277  1.00  0.00     0.093 A 
ATOM      8  C   UNL     1      24.438  21.403  20.997  1.00  0.00     0.123 A 
ATOM      9  C   UNL     1      23.095  21.540  20.647  1.00  0.00     0.094 A 
ATOM     10  C   UNL     1      22.571  20.833  19.561  1.00  0.00     0.146 A 
ATOM     11  O   UNL     1      21.290  21.002  19.250  1.00  0.00    -0.456 OA
ENDROOT
BRANCH   1  12
ATOM     12  C   UNL     1      19.258  20.651  17.979  1.00  0.00     0.021 A 
ATOM     13  C   UNL     1      18.789  21.916  17.577  1.00  0.00     0.016 A 
ATOM     14  C   UNL     1      17.428  22.125  17.341  1.00  0.00     0.051 A 
ATOM     15  C   UNL     1      16.513  21.079  17.494  1.00  0.00     0.157 A 
ATOM     16  C   UNL     1      18.335  19.599  18.117  1.00  0.00     0.062 A 
ATOM     17  C   UNL     1      16.967  19.809  17.882  1.00  0.00     0.158 A 
BRANCH  15  18
ATOM     18  O   UNL     1      15.161  21.320  17.253  1.00  0.00    -0.504 OA
ATOM     19  H   UNL     1      14.433  20.733  17.641  1.00  0.00     0.293 HD
ENDBRANCH  15  18
BRANCH  17  20
ATOM     20  O   UNL     1      16.062  18.759  18.033  1.00  0.00    -0.504 OA
ATOM     21  H   UNL     1      15.487  18.440  17.263  1.00  0.00     0.293 HD
ENDBRANCH  17  20
ENDBRANCH   1  12
BRANCH   6  22
ATOM     22  O   UNL     1      25.637  18.881  18.608  1.00  0.00    -0.507 OA
ATOM     23  H   UNL     1      26.277  18.284  19.109  1.00  0.00     0.293 HD
ENDBRANCH   6  22
BRANCH   8  24
ATOM     24  O   UNL     1      24.970  22.121  22.066  1.00  0.00    -0.508 OA
ATOM     25  H   UNL     1      24.388  22.706  22.654  1.00  0.00     0.293 HD
ENDBRANCH   8  24
TORSDOF 5
ENDMDL
MODEL 4
REMARK VINA RESULT:    -2.906      1.723      6.855
REMARK INTER + INTRA:          -3.708
REMARK INTER:                  -3.439
REMARK INTRA:                  -0.269
REMARK UNBOUND:                -0.292
REMARK SMILES O=c1cc(-c2ccc(O)c(O)c2)oc2cc(O)cc(O)c12
REMARK SMILES IDX 4 1 3 2 2 3 1 4 21 5 19 6 18 7 16 8 15 9 14 10 13 11 5 12
REMARK SMILES IDX 6 13 7 14 8 15 12 16 10 17 9 18 11 20 20 22 17 24
REMARK H PARENT 9 19 11 21 20 23 17 25
REMARK Flexibility Score: inf
ROOT
ATOM      1  C   UNL     1      20.684  20.655  18.162  1.00  0.00     0.138 A 
ATOM      2  C   UNL     1      19.678  21.623  18.040  1.00  0.00     0.100 A 
ATOM      3  C   UNL     1      18.376  21.229  17.728  1.00  0.00     0.197 A 
ATOM      4  O   UNL     1      17.508  22.125  17.563  1.00  0.00    -0.289 OA
ATOM      5  C   UNL     1      18.075  19.856  17.569  1.00  0.00     0.107 A 
ATOM      6  C   UNL     1      16.776  19.334  17.291  1.00  0.00     0.134 A 
ATOM      7  C   UNL     1      16.621  17.965  17.040  1.00  0.00     0.093 A 
ATOM      8  C   UNL     1      17.704  17.091  17.117  1.00  0.00     0.123 A 
ATOM      9  C   UNL     1      18.970  17.581  17.440  1.00  0.00     0.094 A 
ATOM     10  C   UNL     1      19.164  18.948  17.663  1.00  0.00     0.146 A 
ATOM     11  O   UNL     1      20.387  19.377  17.954  1.00  0.00    -0.456 OA
ENDROOT
BRANCH   1  12
ATOM     12  C   UNL     1      22.085  21.019  18.492  1.00  0.00     0.021 A 
ATOM     13  C   UNL     1      22.903  21.716  17.582  1.00  0.00     0.016 A 
ATOM     14  C   UNL     1      24.214  22.054  17.925  1.00  0.00     0.051 A 
ATOM     15  C   UNL     1      24.731  21.714  19.178  1.00  0.00     0.157 A 
ATOM     16  C   UNL     1      22.605  20.692  19.757  1.00  0.00     0.062 A 
ATOM     17  C   UNL     1      23.923  21.030  20.101  1.00  0.00     0.158 A 
BRANCH  15  18
ATOM     18  O   UNL     1      26.044  22.065  19.489  1.00  0.00    -0.504 OA
ATOM     19  H   UNL     1      26.262  22.846  20.095  1.00  0.00     0.293 HD
ENDBRANCH  15  18
BRANCH  17  20
ATOM     20  O   UNL     1      24.429  20.690  21.354  1.00  0.00    -0.504 OA
ATOM     21  H   UNL     1      23.868  20.774  22.194  1.00  0.00     0.293 HD
ENDBRANCH  17  20
ENDBRANCH   1  12
BRANCH   6  22
ATOM     22  O   UNL     1      15.611  20.108  17.275  1.00  0.00    -0.507 OA
ATOM     23  H   UNL     1      15.566  21.086  17.513  1.00  0.00     0.293 HD
ENDBRANCH   6  22
BRANCH   8  24
ATOM     24  O   UNL     1      17.510  15.733  16.875  1.00  0.00    -0.508 OA
ATOM     25  H   UNL     1      16.606  15.368  16.597  1.00  0.00     0.293 HD
ENDBRANCH   8  24
TORSDOF 5
ENDMDL
MODEL 5
REMARK VINA RESULT:    -2.591      1.888      2.732
REMARK INTER + INTRA:          -3.337
REMARK INTER:                  -3.027
REMARK INTRA:                  -0.310
REMARK UNBOUND:                -0.292
REMARK SMILES O=c1cc(-c2ccc(O)c(O)c2)oc2cc(O)cc(O)c12
REMARK SMILES IDX 4 1 3 2 2 3 1 4 21 5 19 6 18 7 16 8 15 9 14 10 13 11 5 12
REMARK SMILES IDX 6 13 7 14 8 15 12 16 10 17 9 18 11 20 20 22 17 24
REMARK H PARENT 9 19 11 21 20 23 17 25
REMARK Flexibility Score: inf
ROOT
ATOM      1  C   UNL     1      21.181  20.336  18.540  1.00  0.00     0.138 A 
ATOM      2  C   UNL     1      21.858  21.063  17.552  1.00  0.00     0.100 A 
ATOM      3  C   UNL     1      23.193  21.419  17.751  1.00  0.00     0.197 A 
ATOM      4  O   UNL     1      23.756  22.125  16.875  1.00  0.00    -0.289 OA
ATOM      5  C   UNL     1      23.860  21.016  18.932  1.00  0.00     0.107 A 
ATOM      6  C   UNL     1      25.231  21.287  19.224  1.00  0.00     0.134 A 
ATOM      7  C   UNL     1      25.751  20.939  20.477  1.00  0.00     0.093 A 
ATOM      8  C   UNL     1      24.969  20.277  21.423  1.00  0.00     0.123 A 
ATOM      9  C   UNL     1      23.643  19.960  21.129  1.00  0.00     0.094 A 
ATOM     10  C   UNL     1      23.084  20.325  19.900  1.00  0.00     0.146 A 
ATOM     11  O   UNL     1      21.813  20.017  19.664  1.00  0.00    -0.456 OA
ENDROOT
BRANCH   1  12
ATOM     12  C   UNL     1      19.761  19.931  18.379  1.00  0.00     0.021 A 
ATOM     13  C   UNL     1      19.186  19.740  17.108  1.00  0.00     0.016 A 
ATOM     14  C   UNL     1      17.850  19.348  16.987  1.00  0.00     0.051 A 
ATOM     15  C   UNL     1      17.068  19.133  18.126  1.00  0.00     0.157 A 
ATOM     16  C   UNL     1      18.974  19.699  19.521  1.00  0.00     0.062 A 
ATOM     17  C   UNL     1      17.632  19.307  19.400  1.00  0.00     0.158 A 
BRANCH  15  18
ATOM     18  O   UNL     1      15.738  18.744  17.972  1.00  0.00    -0.504 OA
ATOM     19  H   UNL     1      14.969  19.377  18.153  1.00  0.00     0.293 HD
ENDBRANCH  15  18
BRANCH  17  20
ATOM     20  O   UNL     1      16.861  19.090  20.541  1.00  0.00    -0.504 OA
ATOM     21  H   UNL     1      17.190  18.508  21.302  1.00  0.00     0.293 HD
ENDBRANCH  17  20
ENDBRANCH   1  12
BRANCH   6  22
ATOM     22  O   UNL     1      26.123  21.866  18.317  1.00  0.00    -0.507 OA
ATOM     23  H   UNL     1      27.127  21.847  18.404  1.00  0.00     0.293 HD
ENDBRANCH   6  22
BRANCH   8  24
ATOM     24  O   UNL     1      25.524  19.934  22.654  1.00  0.00    -0.508 OA
ATOM     25  H   UNL     1      24.993  19.427  23.352  1.00  0.00     0.293 HD
ENDBRANCH   8  24
TORSDOF 5
ENDMDL
