MODEL 1
REMARK VINA RESULT:    -5.357      0.000      0.000
REMARK INTER + INTRA:          -9.571
REMARK INTER:                  -8.332
REMARK INTRA:                  -1.239
REMARK UNBOUND:                -1.239
REMARK SMILES C[C@]12C[C@]3(O)O[C@H](O1)[C@@]1(COC(=O)c4ccccc4)[C@@H]3C[C@]12O[C@@H]1O[C@@H](CO)[C@H](O)[C@@H](O)[C@H]1O
REMARK SMILES IDX 1 1 2 2 3 3 4 4 20 5 21 6 22 7 9 8 7 9 8 10 6 11 23 12 24 13
REMARK SMILES IDX 33 14 25 15 31 16 26 17 29 18 34 19 32 21 27 23 28 24 30 26
REMARK SMILES IDX 5 28 10 30 11 31 12 32 13 33 14 34 15 35 19 36 16 37 18 38
REMARK SMILES IDX 17 39
REMARK H PARENT 34 20 32 22 28 25 30 27 5 29
REMARK Flexibility Score: inf
ROOT
ATOM      1  C   UNL     1      -6.969  -1.724  -4.618  1.00  0.00     0.046 C 
ATOM      2  C   UNL     1      -8.279  -2.494  -4.823  1.00  0.00     0.104 C 
ATOM      3  C   UNL     1      -9.325  -1.603  -5.602  1.00  0.00     0.104 C 
ATOM      4  C   UNL     1     -10.552  -2.555  -5.803  1.00  0.00     0.175 C 
ATOM      5  C   UNL     1     -10.080  -3.931  -6.381  1.00  0.00     0.070 C 
ATOM      6  C   UNL     1      -8.672  -3.873  -6.983  1.00  0.00     0.050 C 
ATOM      7  C   UNL     1      -8.145  -3.904  -5.537  1.00  0.00     0.115 C 
ATOM      8  C   UNL     1      -9.479  -4.509  -5.103  1.00  0.00     0.096 C 
ATOM      9  C   UNL     1      -9.986  -3.643  -3.954  1.00  0.00     0.267 C 
ATOM     10  O   UNL     1      -8.906  -2.790  -3.589  1.00  0.00    -0.342 OA
ATOM     11  O   UNL     1     -11.028  -2.853  -4.505  1.00  0.00    -0.320 OA
ENDROOT
BRANCH   7  12
ATOM     12  O   UNL     1      -6.975  -4.713  -5.405  1.00  0.00    -0.339 OA
BRANCH  12  13
ATOM     13  C   UNL     1      -6.148  -4.402  -4.286  1.00  0.00     0.282 C 
ATOM     14  C   UNL     1      -6.426  -5.360  -3.099  1.00  0.00     0.202 C 
ATOM     15  O   UNL     1      -4.774  -4.454  -4.657  1.00  0.00    -0.341 OA
ATOM     16  C   UNL     1      -5.959  -6.790  -3.431  1.00  0.00     0.179 C 
ATOM     17  C   UNL     1      -4.383  -5.745  -5.106  1.00  0.00     0.178 C 
ATOM     18  C   UNL     1      -4.517  -6.789  -3.964  1.00  0.00     0.177 C 
BRANCH  14  19
ATOM     19  O   UNL     1      -5.830  -4.886  -1.917  1.00  0.00    -0.385 OA
ATOM     20  H   UNL     1      -6.164  -3.959  -1.756  1.00  0.00     0.211 HD
ENDBRANCH  14  19
BRANCH  16  21
ATOM     21  O   UNL     1      -6.108  -7.647  -2.322  1.00  0.00    -0.387 OA
ATOM     22  H   UNL     1      -6.731  -7.210  -1.680  1.00  0.00     0.211 HD
ENDBRANCH  16  21
BRANCH  17  23
ATOM     23  C   UNL     1      -2.925  -5.665  -5.612  1.00  0.00     0.191 C 
BRANCH  23  24
ATOM     24  O   UNL     1      -2.710  -6.621  -6.623  1.00  0.00    -0.394 OA
ATOM     25  H   UNL     1      -3.291  -6.372  -7.390  1.00  0.00     0.210 HD
ENDBRANCH  23  24
ENDBRANCH  17  23
BRANCH  18  26
ATOM     26  O   UNL     1      -4.166  -8.090  -4.383  1.00  0.00    -0.387 OA
ATOM     27  H   UNL     1      -4.566  -8.748  -3.752  1.00  0.00     0.211 HD
ENDBRANCH  18  26
ENDBRANCH  12  13
ENDBRANCH   7  12
BRANCH   4  28
ATOM     28  O   UNL     1     -11.543  -1.945  -6.586  1.00  0.00    -0.365 OA
ATOM     29  H   UNL     1     -11.144  -1.115  -6.959  1.00  0.00     0.214 HD
ENDBRANCH   4  28
BRANCH   8  30
ATOM     30  C   UNL     1      -9.582  -6.037  -4.942  1.00  0.00     0.249 C 
BRANCH  30  31
ATOM     31  O   UNL     1     -10.788  -6.408  -4.282  1.00  0.00    -0.461 OA
BRANCH  31  32
ATOM     32  C   UNL     1     -11.737  -7.249  -4.872  1.00  0.00     0.338 C 
ATOM     33  O   UNL     1     -11.741  -8.481  -4.599  1.00  0.00    -0.246 OA
BRANCH  32  34
ATOM     34  C   UNL     1     -12.717  -6.701  -5.831  1.00  0.00     0.060 A 
ATOM     35  C   UNL     1     -13.109  -5.348  -5.760  1.00  0.00     0.015 A 
ATOM     36  C   UNL     1     -13.279  -7.524  -6.827  1.00  0.00     0.015 A 
ATOM     37  C   UNL     1     -14.033  -4.831  -6.671  1.00  0.00     0.001 A 
ATOM     38  C   UNL     1     -14.193  -7.000  -7.743  1.00  0.00     0.001 A 
ATOM     39  C   UNL     1     -14.568  -5.652  -7.669  1.00  0.00     0.000 A 
ENDBRANCH  32  34
ENDBRANCH  31  32
ENDBRANCH  30  31
ENDBRANCH   8  30
TORSDOF 12
ENDMDL
MODEL 2
REMARK VINA RESULT:    -5.228      2.919      5.520
REMARK INTER + INTRA:          -9.371
REMARK INTER:                  -8.259
REMARK INTRA:                  -1.113
REMARK UNBOUND:                -1.239
REMARK SMILES C[C@]12C[C@]3(O)O[C@H](O1)[C@@]1(COC(=O)c4ccccc4)[C@@H]3C[C@]12O[C@@H]1O[C@@H](CO)[C@H](O)[C@@H](O)[C@H]1O
REMARK SMILES IDX 1 1 2 2 3 3 4 4 20 5 21 6 22 7 9 8 7 9 8 10 6 11 23 12 24 13
REMARK SMILES IDX 33 14 25 15 31 16 26 17 29 18 34 19 32 21 27 23 28 24 30 26
REMARK SMILES IDX 5 28 10 30 11 31 12 32 13 33 14 34 15 35 19 36 16 37 18 38
REMARK SMILES IDX 17 39
REMARK H PARENT 34 20 32 22 28 25 30 27 5 29
REMARK Flexibility Score: inf
ROOT
ATOM      1  C   UNL     1      -9.350  -4.634  -2.757  1.00  0.00     0.046 C 
ATOM      2  C   UNL     1      -9.465  -3.881  -4.087  1.00  0.00     0.104 C 
ATOM      3  C   UNL     1      -8.037  -3.437  -4.594  1.00  0.00     0.104 C 
ATOM      4  C   UNL     1      -8.321  -2.773  -5.983  1.00  0.00     0.175 C 
ATOM      5  C   UNL     1      -9.229  -3.705  -6.853  1.00  0.00     0.070 C 
ATOM      6  C   UNL     1      -9.266  -5.148  -6.340  1.00  0.00     0.050 C 
ATOM      7  C   UNL     1     -10.227  -4.646  -5.249  1.00  0.00     0.115 C 
ATOM      8  C   UNL     1     -10.552  -3.448  -6.138  1.00  0.00     0.096 C 
ATOM      9  C   UNL     1     -10.347  -2.207  -5.275  1.00  0.00     0.267 C 
ATOM     10  O   UNL     1     -10.186  -2.672  -3.939  1.00  0.00    -0.342 OA
ATOM     11  O   UNL     1      -9.122  -1.639  -5.712  1.00  0.00    -0.320 OA
ENDROOT
BRANCH   7  12
ATOM     12  O   UNL     1     -11.276  -5.579  -4.981  1.00  0.00    -0.339 OA
BRANCH  12  13
ATOM     13  C   UNL     1     -11.029  -6.911  -5.426  1.00  0.00     0.282 C 
ATOM     14  C   UNL     1     -10.811  -7.871  -4.228  1.00  0.00     0.202 C 
ATOM     15  O   UNL     1     -12.104  -7.367  -6.240  1.00  0.00    -0.341 OA
ATOM     16  C   UNL     1     -12.116  -8.056  -3.431  1.00  0.00     0.179 C 
ATOM     17  C   UNL     1     -13.341  -7.394  -5.539  1.00  0.00     0.178 C 
ATOM     18  C   UNL     1     -13.286  -8.409  -4.365  1.00  0.00     0.177 C 
BRANCH  14  19
ATOM     19  O   UNL     1     -10.292  -9.105  -4.658  1.00  0.00    -0.385 OA
ATOM     20  H   UNL     1      -9.783  -8.946  -5.501  1.00  0.00     0.211 HD
ENDBRANCH  14  19
BRANCH  16  21
ATOM     21  O   UNL     1     -11.959  -9.009  -2.405  1.00  0.00    -0.387 OA
ATOM     22  H   UNL     1     -12.217  -8.576  -1.546  1.00  0.00     0.211 HD
ENDBRANCH  16  21
BRANCH  17  23
ATOM     23  C   UNL     1     -14.461  -7.767  -6.538  1.00  0.00     0.191 C 
BRANCH  23  24
ATOM     24  O   UNL     1     -13.991  -7.645  -7.859  1.00  0.00    -0.394 OA
ATOM     25  H   UNL     1     -14.521  -8.274  -8.418  1.00  0.00     0.210 HD
ENDBRANCH  23  24
ENDBRANCH  17  23
BRANCH  18  26
ATOM     26  O   UNL     1     -14.488  -8.441  -3.626  1.00  0.00    -0.387 OA
ATOM     27  H   UNL     1     -14.919  -9.329  -3.756  1.00  0.00     0.211 HD
ENDBRANCH  18  26
ENDBRANCH  12  13
ENDBRANCH   7  12
BRANCH   4  28
ATOM     28  O   UNL     1      -7.127  -2.416  -6.627  1.00  0.00    -0.365 OA
ATOM     29  H   UNL     1      -7.027  -3.027  -7.404  1.00  0.00     0.214 HD
ENDBRANCH   4  28
BRANCH   8  30
ATOM     30  C   UNL     1     -11.814  -3.500  -7.020  1.00  0.00     0.249 C 
BRANCH  30  31
ATOM     31  O   UNL     1     -12.881  -2.754  -6.444  1.00  0.00    -0.461 OA
BRANCH  31  32
ATOM     32  C   UNL     1     -13.863  -3.346  -5.645  1.00  0.00     0.338 C 
ATOM     33  O   UNL     1     -13.755  -3.311  -4.388  1.00  0.00    -0.246 OA
BRANCH  32  34
ATOM     34  C   UNL     1     -15.012  -4.032  -6.269  1.00  0.00     0.060 A 
ATOM     35  C   UNL     1     -15.070  -4.204  -7.667  1.00  0.00     0.015 A 
ATOM     36  C   UNL     1     -16.070  -4.519  -5.476  1.00  0.00     0.015 A 
ATOM     37  C   UNL     1     -16.155  -4.856  -8.255  1.00  0.00     0.001 A 
ATOM     38  C   UNL     1     -17.147  -5.182  -6.066  1.00  0.00     0.001 A 
ATOM     39  C   UNL     1     -17.189  -5.356  -7.456  1.00  0.00     0.000 A 
ENDBRANCH  32  34
ENDBRANCH  31  32
ENDBRANCH  30  31
ENDBRANCH   8  30
TORSDOF 12
ENDMDL
MODEL 3
REMARK VINA RESULT:    -5.206      2.763      7.987
REMARK INTER + INTRA:          -9.337
REMARK INTER:                  -8.393
REMARK INTRA:                  -0.944
REMARK UNBOUND:                -1.239
REMARK SMILES C[C@]12C[C@]3(O)O[C@H](O1)[C@@]1(COC(=O)c4ccccc4)[C@@H]3C[C@]12O[C@@H]1O[C@@H](CO)[C@H](O)[C@@H](O)[C@H]1O
REMARK SMILES IDX 1 1 2 2 3 3 4 4 20 5 21 6 22 7 9 8 7 9 8 10 6 11 23 12 24 13
REMARK SMILES IDX 33 14 25 15 31 16 26 17 29 18 34 19 32 21 27 23 28 24 30 26
REMARK SMILES IDX 5 28 10 30 11 31 12 32 13 33 14 34 15 35 19 36 16 37 18 38
REMARK SMILES IDX 17 39
REMARK H PARENT 34 20 32 22 28 25 30 27 5 29
REMARK Flexibility Score: inf
ROOT
ATOM      1  C   UNL     1     -14.681  -1.915  -5.620  1.00  0.00     0.046 C 
ATOM      2  C   UNL     1     -13.215  -2.328  -5.446  1.00  0.00     0.104 C 
ATOM      3  C   UNL     1     -12.441  -1.261  -4.578  1.00  0.00     0.104 C 
ATOM      4  C   UNL     1     -11.007  -1.870  -4.423  1.00  0.00     0.175 C 
ATOM      5  C   UNL     1     -11.101  -3.364  -3.964  1.00  0.00     0.070 C 
ATOM      6  C   UNL     1     -12.476  -3.727  -3.392  1.00  0.00     0.050 C 
ATOM      7  C   UNL     1     -12.974  -3.777  -4.847  1.00  0.00     0.115 C 
ATOM      8  C   UNL     1     -11.527  -3.974  -5.297  1.00  0.00     0.096 C 
ATOM      9  C   UNL     1     -11.264  -2.916  -6.363  1.00  0.00     0.267 C 
ATOM     10  O   UNL     1     -12.531  -2.349  -6.685  1.00  0.00    -0.342 OA
ATOM     11  O   UNL     1     -10.468  -1.927  -5.730  1.00  0.00    -0.320 OA
ENDROOT
BRANCH   7  12
ATOM     12  O   UNL     1     -13.890  -4.851  -5.068  1.00  0.00    -0.339 OA
BRANCH  12  13
ATOM     13  C   UNL     1     -14.761  -4.683  -6.185  1.00  0.00     0.282 C 
ATOM     14  C   UNL     1     -14.251  -5.474  -7.418  1.00  0.00     0.202 C 
ATOM     15  O   UNL     1     -16.083  -5.087  -5.846  1.00  0.00    -0.341 OA
ATOM     16  C   UNL     1     -14.360  -6.992  -7.176  1.00  0.00     0.179 C 
ATOM     17  C   UNL     1     -16.153  -6.459  -5.477  1.00  0.00     0.178 C 
ATOM     18  C   UNL     1     -15.763  -7.370  -6.673  1.00  0.00     0.177 C 
BRANCH  14  19
ATOM     19  O   UNL     1     -14.937  -5.089  -8.583  1.00  0.00    -0.385 OA
ATOM     20  H   UNL     1     -15.804  -4.680  -8.307  1.00  0.00     0.211 HD
ENDBRANCH  14  19
BRANCH  16  21
ATOM     21  O   UNL     1     -14.001  -7.720  -8.328  1.00  0.00    -0.387 OA
ATOM     22  H   UNL     1     -13.008  -7.710  -8.397  1.00  0.00     0.211 HD
ENDBRANCH  16  21
BRANCH  17  23
ATOM     23  C   UNL     1     -17.590  -6.764  -4.997  1.00  0.00     0.191 C 
BRANCH  23  24
ATOM     24  O   UNL     1     -18.347  -7.307  -6.052  1.00  0.00    -0.394 OA
ATOM     25  H   UNL     1     -19.306  -7.156  -5.833  1.00  0.00     0.210 HD
ENDBRANCH  23  24
ENDBRANCH  17  23
BRANCH  18  26
ATOM     26  O   UNL     1     -15.791  -8.740  -6.335  1.00  0.00    -0.387 OA
ATOM     27  H   UNL     1     -16.259  -9.238  -7.059  1.00  0.00     0.211 HD
ENDBRANCH  18  26
ENDBRANCH  12  13
ENDBRANCH   7  12
BRANCH   4  28
ATOM     28  O   UNL     1     -10.212  -1.087  -3.573  1.00  0.00    -0.365 OA
ATOM     29  H   UNL     1      -9.267  -1.267  -3.818  1.00  0.00     0.214 HD
ENDBRANCH   4  28
BRANCH   8  30
ATOM     30  C   UNL     1     -11.026  -5.403  -5.573  1.00  0.00     0.249 C 
BRANCH  30  31
ATOM     31  O   UNL     1      -9.645  -5.410  -5.920  1.00  0.00    -0.461 OA
BRANCH  31  32
ATOM     32  C   UNL     1      -8.631  -5.475  -4.959  1.00  0.00     0.338 C 
ATOM     33  O   UNL     1      -8.765  -6.227  -3.955  1.00  0.00    -0.246 OA
BRANCH  32  34
ATOM     34  C   UNL     1      -7.417  -4.648  -5.106  1.00  0.00     0.060 A 
ATOM     35  C   UNL     1      -6.144  -5.189  -4.827  1.00  0.00     0.015 A 
ATOM     36  C   UNL     1      -7.513  -3.305  -5.519  1.00  0.00     0.015 A 
ATOM     37  C   UNL     1      -4.997  -4.406  -4.970  1.00  0.00     0.001 A 
ATOM     38  C   UNL     1      -6.362  -2.530  -5.673  1.00  0.00     0.001 A 
ATOM     39  C   UNL     1      -5.102  -3.080  -5.403  1.00  0.00     0.000 A 
ENDBRANCH  32  34
ENDBRANCH  31  32
ENDBRANCH  30  31
ENDBRANCH   8  30
TORSDOF 12
ENDMDL
MODEL 4
REMARK VINA RESULT:    -5.152      6.743     11.238
REMARK INTER + INTRA:          -9.252
REMARK INTER:                  -7.877
REMARK INTRA:                  -1.376
REMARK UNBOUND:                -1.239
REMARK SMILES C[C@]12C[C@]3(O)O[C@H](O1)[C@@]1(COC(=O)c4ccccc4)[C@@H]3C[C@]12O[C@@H]1O[C@@H](CO)[C@H](O)[C@@H](O)[C@H]1O
REMARK SMILES IDX 1 1 2 2 3 3 4 4 20 5 21 6 22 7 9 8 7 9 8 10 6 11 23 12 24 13
REMARK SMILES IDX 33 14 25 15 31 16 26 17 29 18 34 19 32 21 27 23 28 24 30 26
REMARK SMILES IDX 5 28 10 30 11 31 12 32 13 33 14 34 15 35 19 36 16 37 18 38
REMARK SMILES IDX 17 39
REMARK H PARENT 34 20 32 22 28 25 30 27 5 29
REMARK Flexibility Score: inf
ROOT
ATOM      1  C   UNL     1     -19.005 -10.525  -4.245  1.00  0.00     0.046 C 
ATOM      2  C   UNL     1     -18.194 -11.824  -4.170  1.00  0.00     0.104 C 
ATOM      3  C   UNL     1     -19.115 -13.068  -4.478  1.00  0.00     0.104 C 
ATOM      4  C   UNL     1     -18.127 -14.282  -4.450  1.00  0.00     0.175 C 
ATOM      5  C   UNL     1     -16.869 -13.977  -5.330  1.00  0.00     0.070 C 
ATOM      6  C   UNL     1     -17.088 -12.809  -6.298  1.00  0.00     0.050 C 
ATOM      7  C   UNL     1     -16.899 -11.880  -5.086  1.00  0.00     0.115 C 
ATOM      8  C   UNL     1     -16.165 -13.016  -4.376  1.00  0.00     0.096 C 
ATOM      9  C   UNL     1     -16.841 -13.178  -3.018  1.00  0.00     0.267 C 
ATOM     10  O   UNL     1     -17.701 -12.054  -2.863  1.00  0.00    -0.342 OA
ATOM     11  O   UNL     1     -17.634 -14.350  -3.126  1.00  0.00    -0.320 OA
ENDROOT
BRANCH   7  12
ATOM     12  O   UNL     1     -16.151 -10.708  -5.414  1.00  0.00    -0.339 OA
BRANCH  12  13
ATOM     13  C   UNL     1     -16.322  -9.611  -4.520  1.00  0.00     0.282 C 
ATOM     14  C   UNL     1     -15.256  -9.633  -3.393  1.00  0.00     0.202 C 
ATOM     15  O   UNL     1     -16.267  -8.380  -5.232  1.00  0.00    -0.341 OA
ATOM     16  C   UNL     1     -13.854  -9.343  -3.962  1.00  0.00     0.179 C 
ATOM     17  C   UNL     1     -15.017  -8.185  -5.882  1.00  0.00     0.178 C 
ATOM     18  C   UNL     1     -13.868  -8.083  -4.843  1.00  0.00     0.177 C 
BRANCH  14  19
ATOM     19  O   UNL     1     -15.590  -8.734  -2.365  1.00  0.00    -0.385 OA
ATOM     20  H   UNL     1     -15.639  -7.820  -2.762  1.00  0.00     0.211 HD
ENDBRANCH  14  19
BRANCH  16  21
ATOM     21  O   UNL     1     -12.894  -9.254  -2.934  1.00  0.00    -0.387 OA
ATOM     22  H   UNL     1     -13.312  -9.592  -2.096  1.00  0.00     0.211 HD
ENDBRANCH  16  21
BRANCH  17  23
ATOM     23  C   UNL     1     -15.106  -6.898  -6.735  1.00  0.00     0.191 C 
BRANCH  23  24
ATOM     24  O   UNL     1     -14.157  -6.940  -7.773  1.00  0.00    -0.394 OA
ATOM     25  H   UNL     1     -13.363  -7.426  -7.426  1.00  0.00     0.210 HD
ENDBRANCH  23  24
ENDBRANCH  17  23
BRANCH  18  26
ATOM     26  O   UNL     1     -12.606  -7.920  -5.454  1.00  0.00    -0.387 OA
ATOM     27  H   UNL     1     -12.058  -8.732  -5.280  1.00  0.00     0.211 HD
ENDBRANCH  18  26
ENDBRANCH  12  13
ENDBRANCH   7  12
BRANCH   4  28
ATOM     28  O   UNL     1     -18.775 -15.471  -4.818  1.00  0.00    -0.365 OA
ATOM     29  H   UNL     1     -19.742 -15.340  -4.632  1.00  0.00     0.214 HD
ENDBRANCH   4  28
BRANCH   8  30
ATOM     30  C   UNL     1     -14.626 -13.040  -4.412  1.00  0.00     0.249 C 
BRANCH  30  31
ATOM     31  O   UNL     1     -14.073 -12.796  -3.123  1.00  0.00    -0.461 OA
BRANCH  31  32
ATOM     32  C   UNL     1     -12.730 -13.046  -2.824  1.00  0.00     0.338 C 
ATOM     33  O   UNL     1     -11.904 -12.092  -2.801  1.00  0.00    -0.246 OA
BRANCH  32  34
ATOM     34  C   UNL     1     -12.274 -14.425  -2.559  1.00  0.00     0.060 A 
ATOM     35  C   UNL     1     -12.299 -14.948  -1.249  1.00  0.00     0.015 A 
ATOM     36  C   UNL     1     -11.803 -15.235  -3.610  1.00  0.00     0.015 A 
ATOM     37  C   UNL     1     -11.871 -16.254  -1.001  1.00  0.00     0.001 A 
ATOM     38  C   UNL     1     -11.388 -16.545  -3.360  1.00  0.00     0.001 A 
ATOM     39  C   UNL     1     -11.425 -17.057  -2.056  1.00  0.00     0.000 A 
ENDBRANCH  32  34
ENDBRANCH  31  32
ENDBRANCH  30  31
ENDBRANCH   8  30
TORSDOF 12
ENDMDL
MODEL 5
REMARK VINA RESULT:    -5.146      6.703     11.400
REMARK INTER + INTRA:          -9.243
REMARK INTER:                  -8.446
REMARK INTRA:                  -0.797
REMARK UNBOUND:                -1.239
REMARK SMILES C[C@]12C[C@]3(O)O[C@H](O1)[C@@]1(COC(=O)c4ccccc4)[C@@H]3C[C@]12O[C@@H]1O[C@@H](CO)[C@H](O)[C@@H](O)[C@H]1O
REMARK SMILES IDX 1 1 2 2 3 3 4 4 20 5 21 6 22 7 9 8 7 9 8 10 6 11 23 12 24 13
REMARK SMILES IDX 33 14 25 15 31 16 26 17 29 18 34 19 32 21 27 23 28 24 30 26
REMARK SMILES IDX 5 28 10 30 11 31 12 32 13 33 14 34 15 35 19 36 16 37 18 38
REMARK SMILES IDX 17 39
REMARK H PARENT 34 20 32 22 28 25 30 27 5 29
REMARK Flexibility Score: inf
ROOT
ATOM      1  C   UNL     1     -18.682 -10.828  -3.026  1.00  0.00     0.046 C 
ATOM      2  C   UNL     1     -17.694 -11.910  -3.477  1.00  0.00     0.104 C 
ATOM      3  C   UNL     1     -18.462 -13.104  -4.167  1.00  0.00     0.104 C 
ATOM      4  C   UNL     1     -17.318 -14.062  -4.640  1.00  0.00     0.175 C 
ATOM      5  C   UNL     1     -16.222 -13.256  -5.415  1.00  0.00     0.070 C 
ATOM      6  C   UNL     1     -16.710 -11.878  -5.875  1.00  0.00     0.050 C 
ATOM      7  C   UNL     1     -16.517 -11.418  -4.420  1.00  0.00     0.115 C 
ATOM      8  C   UNL     1     -15.556 -12.588  -4.216  1.00  0.00     0.096 C 
ATOM      9  C   UNL     1     -16.044 -13.331  -2.977  1.00  0.00     0.267 C 
ATOM     10  O   UNL     1     -17.030 -12.498  -2.374  1.00  0.00    -0.342 OA
ATOM     11  O   UNL     1     -16.673 -14.506  -3.462  1.00  0.00    -0.320 OA
ENDROOT
BRANCH   7  12
ATOM     12  O   UNL     1     -15.981 -10.096  -4.337  1.00  0.00    -0.339 OA
BRANCH  12  13
ATOM     13  C   UNL     1     -16.381  -9.215  -5.385  1.00  0.00     0.282 C 
ATOM     14  C   UNL     1     -17.289  -8.079  -4.847  1.00  0.00     0.202 C 
ATOM     15  O   UNL     1     -15.238  -8.672  -6.037  1.00  0.00    -0.341 OA
ATOM     16  C   UNL     1     -16.490  -7.125  -3.938  1.00  0.00     0.179 C 
ATOM     17  C   UNL     1     -14.420  -7.912  -5.154  1.00  0.00     0.178 C 
ATOM     18  C   UNL     1     -15.190  -6.672  -4.622  1.00  0.00     0.177 C 
BRANCH  14  19
ATOM     19  O   UNL     1     -17.909  -7.385  -5.901  1.00  0.00    -0.385 OA
ATOM     20  H   UNL     1     -18.791  -7.819  -6.076  1.00  0.00     0.211 HD
ENDBRANCH  14  19
BRANCH  16  21
ATOM     21  O   UNL     1     -17.277  -6.029  -3.529  1.00  0.00    -0.387 OA
ATOM     22  H   UNL     1     -18.116  -6.040  -4.066  1.00  0.00     0.211 HD
ENDBRANCH  16  21
BRANCH  17  23
ATOM     23  C   UNL     1     -13.145  -7.485  -5.916  1.00  0.00     0.191 C 
BRANCH  23  24
ATOM     24  O   UNL     1     -13.323  -6.207  -6.479  1.00  0.00    -0.394 OA
ATOM     25  H   UNL     1     -12.777  -5.572  -5.944  1.00  0.00     0.210 HD
ENDBRANCH  23  24
ENDBRANCH  17  23
BRANCH  18  26
ATOM     26  O   UNL     1     -14.420  -5.910  -3.718  1.00  0.00    -0.387 OA
ATOM     27  H   UNL     1     -14.158  -5.058  -4.161  1.00  0.00     0.211 HD
ENDBRANCH  18  26
ENDBRANCH  12  13
ENDBRANCH   7  12
BRANCH   4  28
ATOM     28  O   UNL     1     -17.831 -15.137  -5.381  1.00  0.00    -0.365 OA
ATOM     29  H   UNL     1     -17.051 -15.659  -5.707  1.00  0.00     0.214 HD
ENDBRANCH   4  28
BRANCH   8  30
ATOM     30  C   UNL     1     -14.042 -12.334  -4.343  1.00  0.00     0.249 C 
BRANCH  30  31
ATOM     31  O   UNL     1     -13.309 -13.071  -3.370  1.00  0.00    -0.461 OA
BRANCH  31  32
ATOM     32  C   UNL     1     -12.634 -14.256  -3.680  1.00  0.00     0.338 C 
ATOM     33  O   UNL     1     -12.292 -14.490  -4.872  1.00  0.00    -0.246 OA
BRANCH  32  34
ATOM     34  C   UNL     1     -12.343 -15.242  -2.621  1.00  0.00     0.060 A 
ATOM     35  C   UNL     1     -12.863 -15.070  -1.321  1.00  0.00     0.015 A 
ATOM     36  C   UNL     1     -11.537 -16.365  -2.892  1.00  0.00     0.015 A 
ATOM     37  C   UNL     1     -12.590 -16.006  -0.321  1.00  0.00     0.001 A 
ATOM     38  C   UNL     1     -11.277 -17.305  -1.893  1.00  0.00     0.001 A 
ATOM     39  C   UNL     1     -11.807 -17.129  -0.607  1.00  0.00     0.000 A 
ENDBRANCH  32  34
ENDBRANCH  31  32
ENDBRANCH  30  31
ENDBRANCH   8  30
TORSDOF 12
ENDMDL
MODEL 6
REMARK VINA RESULT:    -5.131      2.398      4.643
REMARK INTER + INTRA:          -9.220
REMARK INTER:                  -8.201
REMARK INTRA:                  -1.019
REMARK UNBOUND:                -1.239
REMARK SMILES C[C@]12C[C@]3(O)O[C@H](O1)[C@@]1(COC(=O)c4ccccc4)[C@@H]3C[C@]12O[C@@H]1O[C@@H](CO)[C@H](O)[C@@H](O)[C@H]1O
REMARK SMILES IDX 1 1 2 2 3 3 4 4 20 5 21 6 22 7 9 8 7 9 8 10 6 11 23 12 24 13
REMARK SMILES IDX 33 14 25 15 31 16 26 17 29 18 34 19 32 21 27 23 28 24 30 26
REMARK SMILES IDX 5 28 10 30 11 31 12 32 13 33 14 34 15 35 19 36 16 37 18 38
REMARK SMILES IDX 17 39
REMARK H PARENT 34 20 32 22 28 25 30 27 5 29
REMARK Flexibility Score: inf
ROOT
ATOM      1  C   UNL     1      -8.342  -2.433  -2.176  1.00  0.00     0.046 C 
ATOM      2  C   UNL     1      -8.097  -2.594  -3.681  1.00  0.00     0.104 C 
ATOM      3  C   UNL     1      -6.566  -2.399  -4.014  1.00  0.00     0.104 C 
ATOM      4  C   UNL     1      -6.477  -2.681  -5.551  1.00  0.00     0.175 C 
ATOM      5  C   UNL     1      -7.211  -4.019  -5.899  1.00  0.00     0.070 C 
ATOM      6  C   UNL     1      -7.454  -4.902  -4.671  1.00  0.00     0.050 C 
ATOM      7  C   UNL     1      -8.612  -3.951  -4.321  1.00  0.00     0.115 C 
ATOM      8  C   UNL     1      -8.647  -3.515  -5.785  1.00  0.00     0.096 C 
ATOM      9  C   UNL     1      -8.574  -1.992  -5.779  1.00  0.00     0.267 C 
ATOM     10  O   UNL     1      -8.759  -1.589  -4.425  1.00  0.00    -0.342 OA
ATOM     11  O   UNL     1      -7.250  -1.673  -6.174  1.00  0.00    -0.320 OA
ENDROOT
BRANCH   7  12
ATOM     12  O   UNL     1      -9.749  -4.648  -3.809  1.00  0.00    -0.339 OA
BRANCH  12  13
ATOM     13  C   UNL     1      -9.459  -5.636  -2.821  1.00  0.00     0.282 C 
ATOM     14  C   UNL     1     -10.311  -5.419  -1.543  1.00  0.00     0.202 C 
ATOM     15  O   UNL     1      -9.674  -6.940  -3.348  1.00  0.00    -0.341 OA
ATOM     16  C   UNL     1     -11.799  -5.702  -1.825  1.00  0.00     0.179 C 
ATOM     17  C   UNL     1     -11.024  -7.147  -3.748  1.00  0.00     0.178 C 
ATOM     18  C   UNL     1     -11.978  -7.059  -2.526  1.00  0.00     0.177 C 
BRANCH  14  19
ATOM     19  O   UNL     1      -9.831  -6.202  -0.478  1.00  0.00    -0.385 OA
ATOM     20  H   UNL     1     -10.551  -6.253   0.212  1.00  0.00     0.211 HD
ENDBRANCH  14  19
BRANCH  16  21
ATOM     21  O   UNL     1     -12.568  -5.614  -0.648  1.00  0.00    -0.387 OA
ATOM     22  H   UNL     1     -13.437  -5.188  -0.883  1.00  0.00     0.211 HD
ENDBRANCH  16  21
BRANCH  17  23
ATOM     23  C   UNL     1     -11.125  -8.531  -4.428  1.00  0.00     0.191 C 
BRANCH  23  24
ATOM     24  O   UNL     1      -9.857  -9.138  -4.481  1.00  0.00    -0.394 OA
ATOM     25  H   UNL     1      -9.357  -8.710  -5.227  1.00  0.00     0.210 HD
ENDBRANCH  23  24
ENDBRANCH  17  23
BRANCH  18  26
ATOM     26  O   UNL     1     -13.331  -7.230  -2.888  1.00  0.00    -0.387 OA
ATOM     27  H   UNL     1     -13.660  -8.086  -2.502  1.00  0.00     0.211 HD
ENDBRANCH  18  26
ENDBRANCH  12  13
ENDBRANCH   7  12
BRANCH   4  28
ATOM     28  O   UNL     1      -5.147  -2.657  -5.995  1.00  0.00    -0.365 OA
ATOM     29  H   UNL     1      -4.728  -3.506  -5.694  1.00  0.00     0.214 HD
ENDBRANCH   4  28
BRANCH   8  30
ATOM     30  C   UNL     1      -9.668  -4.175  -6.730  1.00  0.00     0.249 C 
BRANCH  30  31
ATOM     31  O   UNL     1     -10.787  -3.325  -6.960  1.00  0.00    -0.461 OA
BRANCH  31  32
ATOM     32  C   UNL     1     -12.011  -3.505  -6.309  1.00  0.00     0.338 C 
ATOM     33  O   UNL     1     -12.278  -2.831  -5.275  1.00  0.00    -0.246 OA
BRANCH  32  34
ATOM     34  C   UNL     1     -12.980  -4.498  -6.813  1.00  0.00     0.060 A 
ATOM     35  C   UNL     1     -13.866  -4.166  -7.860  1.00  0.00     0.015 A 
ATOM     36  C   UNL     1     -13.038  -5.788  -6.252  1.00  0.00     0.015 A 
ATOM     37  C   UNL     1     -14.779  -5.108  -8.338  1.00  0.00     0.001 A 
ATOM     38  C   UNL     1     -13.944  -6.731  -6.742  1.00  0.00     0.001 A 
ATOM     39  C   UNL     1     -14.812  -6.394  -7.789  1.00  0.00     0.000 A 
ENDBRANCH  32  34
ENDBRANCH  31  32
ENDBRANCH  30  31
ENDBRANCH   8  30
TORSDOF 12
ENDMDL
MODEL 7
REMARK VINA RESULT:    -5.108      2.822      8.335
REMARK INTER + INTRA:          -9.184
REMARK INTER:                  -8.482
REMARK INTRA:                  -0.701
REMARK UNBOUND:                -1.239
REMARK SMILES C[C@]12C[C@]3(O)O[C@H](O1)[C@@]1(COC(=O)c4ccccc4)[C@@H]3C[C@]12O[C@@H]1O[C@@H](CO)[C@H](O)[C@@H](O)[C@H]1O
REMARK SMILES IDX 1 1 2 2 3 3 4 4 20 5 21 6 22 7 9 8 7 9 8 10 6 11 23 12 24 13
REMARK SMILES IDX 33 14 25 15 31 16 26 17 29 18 34 19 32 21 27 23 28 24 30 26
REMARK SMILES IDX 5 28 10 30 11 31 12 32 13 33 14 34 15 35 19 36 16 37 18 38
REMARK SMILES IDX 17 39
REMARK H PARENT 34 20 32 22 28 25 30 27 5 29
REMARK Flexibility Score: inf
ROOT
ATOM      1  C   UNL     1     -13.169  -7.338  -2.154  1.00  0.00     0.046 C 
ATOM      2  C   UNL     1     -12.067  -6.717  -3.020  1.00  0.00     0.104 C 
ATOM      3  C   UNL     1     -10.718  -7.523  -2.857  1.00  0.00     0.104 C 
ATOM      4  C   UNL     1      -9.740  -6.825  -3.860  1.00  0.00     0.175 C 
ATOM      5  C   UNL     1     -10.421  -6.671  -5.262  1.00  0.00     0.070 C 
ATOM      6  C   UNL     1     -11.647  -7.574  -5.431  1.00  0.00     0.050 C 
ATOM      7  C   UNL     1     -12.409  -6.559  -4.561  1.00  0.00     0.115 C 
ATOM      8  C   UNL     1     -11.356  -5.513  -4.923  1.00  0.00     0.096 C 
ATOM      9  C   UNL     1     -10.864  -4.928  -3.604  1.00  0.00     0.267 C 
ATOM     10  O   UNL     1     -11.754  -5.403  -2.599  1.00  0.00    -0.342 OA
ATOM     11  O   UNL     1      -9.583  -5.500  -3.388  1.00  0.00    -0.320 OA
ENDROOT
BRANCH   7  12
ATOM     12  O   UNL     1     -13.744  -6.345  -5.023  1.00  0.00    -0.339 OA
BRANCH  12  13
ATOM     13  C   UNL     1     -14.145  -7.168  -6.116  1.00  0.00     0.282 C 
ATOM     14  C   UNL     1     -15.394  -8.013  -5.754  1.00  0.00     0.202 C 
ATOM     15  O   UNL     1     -14.400  -6.371  -7.268  1.00  0.00    -0.341 OA
ATOM     16  C   UNL     1     -16.632  -7.111  -5.584  1.00  0.00     0.179 C 
ATOM     17  C   UNL     1     -15.449  -5.434  -7.057  1.00  0.00     0.178 C 
ATOM     18  C   UNL     1     -16.792  -6.164  -6.785  1.00  0.00     0.177 C 
BRANCH  14  19
ATOM     19  O   UNL     1     -15.618  -9.019  -6.710  1.00  0.00    -0.385 OA
ATOM     20  H   UNL     1     -16.325  -8.695  -7.335  1.00  0.00     0.211 HD
ENDBRANCH  14  19
BRANCH  16  21
ATOM     21  O   UNL     1     -17.795  -7.876  -5.361  1.00  0.00    -0.387 OA
ATOM     22  H   UNL     1     -17.868  -8.541  -6.099  1.00  0.00     0.211 HD
ENDBRANCH  16  21
BRANCH  17  23
ATOM     23  C   UNL     1     -15.555  -4.530  -8.307  1.00  0.00     0.191 C 
BRANCH  23  24
ATOM     24  O   UNL     1     -16.698  -4.870  -9.053  1.00  0.00    -0.394 OA
ATOM     25  H   UNL     1     -16.651  -4.365  -9.909  1.00  0.00     0.210 HD
ENDBRANCH  23  24
ENDBRANCH  17  23
BRANCH  18  26
ATOM     26  O   UNL     1     -17.852  -5.265  -6.541  1.00  0.00    -0.387 OA
ATOM     27  H   UNL     1     -18.103  -5.320  -5.579  1.00  0.00     0.211 HD
ENDBRANCH  18  26
ENDBRANCH  12  13
ENDBRANCH   7  12
BRANCH   4  28
ATOM     28  O   UNL     1      -8.511  -7.497  -3.921  1.00  0.00    -0.365 OA
ATOM     29  H   UNL     1      -7.810  -6.803  -4.037  1.00  0.00     0.214 HD
ENDBRANCH   4  28
BRANCH   8  30
ATOM     30  C   UNL     1     -11.652  -4.531  -6.071  1.00  0.00     0.249 C 
BRANCH  30  31
ATOM     31  O   UNL     1     -10.697  -3.475  -6.110  1.00  0.00    -0.461 OA
BRANCH  31  32
ATOM     32  C   UNL     1      -9.418  -3.642  -6.650  1.00  0.00     0.338 C 
ATOM     33  O   UNL     1      -9.270  -4.278  -7.730  1.00  0.00    -0.246 OA
BRANCH  32  34
ATOM     34  C   UNL     1      -8.240  -3.097  -5.946  1.00  0.00     0.060 A 
ATOM     35  C   UNL     1      -7.185  -3.946  -5.552  1.00  0.00     0.015 A 
ATOM     36  C   UNL     1      -8.156  -1.721  -5.653  1.00  0.00     0.015 A 
ATOM     37  C   UNL     1      -6.070  -3.428  -4.890  1.00  0.00     0.001 A 
ATOM     38  C   UNL     1      -7.034  -1.206  -5.003  1.00  0.00     0.001 A 
ATOM     39  C   UNL     1      -5.987  -2.057  -4.624  1.00  0.00     0.000 A 
ENDBRANCH  32  34
ENDBRANCH  31  32
ENDBRANCH  30  31
ENDBRANCH   8  30
TORSDOF 12
ENDMDL
MODEL 8
REMARK VINA RESULT:    -5.101      2.733      7.781
REMARK INTER + INTRA:          -9.173
REMARK INTER:                  -7.847
REMARK INTRA:                  -1.327
REMARK UNBOUND:                -1.239
REMARK SMILES C[C@]12C[C@]3(O)O[C@H](O1)[C@@]1(COC(=O)c4ccccc4)[C@@H]3C[C@]12O[C@@H]1O[C@@H](CO)[C@H](O)[C@@H](O)[C@H]1O
REMARK SMILES IDX 1 1 2 2 3 3 4 4 20 5 21 6 22 7 9 8 7 9 8 10 6 11 23 12 24 13
REMARK SMILES IDX 33 14 25 15 31 16 26 17 29 18 34 19 32 21 27 23 28 24 30 26
REMARK SMILES IDX 5 28 10 30 11 31 12 32 13 33 14 34 15 35 19 36 16 37 18 38
REMARK SMILES IDX 17 39
REMARK H PARENT 34 20 32 22 28 25 30 27 5 29
REMARK Flexibility Score: inf
ROOT
ATOM      1  C   UNL     1     -14.962  -3.352  -6.946  1.00  0.00     0.046 C 
ATOM      2  C   UNL     1     -13.535  -3.340  -6.387  1.00  0.00     0.104 C 
ATOM      3  C   UNL     1     -13.206  -1.935  -5.747  1.00  0.00     0.104 C 
ATOM      4  C   UNL     1     -11.769  -2.120  -5.153  1.00  0.00     0.175 C 
ATOM      5  C   UNL     1     -11.701  -3.429  -4.298  1.00  0.00     0.070 C 
ATOM      6  C   UNL     1     -13.085  -3.960  -3.911  1.00  0.00     0.050 C 
ATOM      7  C   UNL     1     -13.191  -4.491  -5.351  1.00  0.00     0.115 C 
ATOM      8  C   UNL     1     -11.667  -4.436  -5.444  1.00  0.00     0.096 C 
ATOM      9  C   UNL     1     -11.345  -3.646  -6.708  1.00  0.00     0.267 C 
ATOM     10  O   UNL     1     -12.574  -3.502  -7.414  1.00  0.00    -0.342 OA
ATOM     11  O   UNL     1     -10.923  -2.368  -6.260  1.00  0.00    -0.320 OA
ENDROOT
BRANCH   7  12
ATOM     12  O   UNL     1     -13.815  -5.775  -5.410  1.00  0.00    -0.339 OA
BRANCH  12  13
ATOM     13  C   UNL     1     -14.747  -6.043  -4.364  1.00  0.00     0.282 C 
ATOM     14  C   UNL     1     -16.205  -6.008  -4.889  1.00  0.00     0.202 C 
ATOM     15  O   UNL     1     -14.465  -7.302  -3.762  1.00  0.00    -0.341 OA
ATOM     16  C   UNL     1     -16.471  -7.189  -5.842  1.00  0.00     0.179 C 
ATOM     17  C   UNL     1     -14.566  -8.379  -4.685  1.00  0.00     0.178 C 
ATOM     18  C   UNL     1     -16.021  -8.517  -5.211  1.00  0.00     0.177 C 
BRANCH  14  19
ATOM     19  O   UNL     1     -17.125  -5.988  -3.826  1.00  0.00    -0.385 OA
ATOM     20  H   UNL     1     -18.029  -6.184  -4.200  1.00  0.00     0.211 HD
ENDBRANCH  14  19
BRANCH  16  21
ATOM     21  O   UNL     1     -17.822  -7.230  -6.241  1.00  0.00    -0.387 OA
ATOM     22  H   UNL     1     -18.384  -7.128  -5.426  1.00  0.00     0.211 HD
ENDBRANCH  16  21
BRANCH  17  23
ATOM     23  C   UNL     1     -14.111  -9.675  -3.976  1.00  0.00     0.191 C 
BRANCH  23  24
ATOM     24  O   UNL     1     -15.228 -10.375  -3.483  1.00  0.00    -0.394 OA
ATOM     25  H   UNL     1     -15.275 -11.237  -3.977  1.00  0.00     0.210 HD
ENDBRANCH  23  24
ENDBRANCH  17  23
BRANCH  18  26
ATOM     26  O   UNL     1     -16.155  -9.558  -6.155  1.00  0.00    -0.387 OA
ATOM     27  H   UNL     1     -15.276 -10.016  -6.252  1.00  0.00     0.211 HD
ENDBRANCH  18  26
ENDBRANCH  12  13
ENDBRANCH   7  12
BRANCH   4  28
ATOM     28  O   UNL     1     -11.363  -0.981  -4.442  1.00  0.00    -0.365 OA
ATOM     29  H   UNL     1     -11.871  -0.214  -4.816  1.00  0.00     0.214 HD
ENDBRANCH   4  28
BRANCH   8  30
ATOM     30  C   UNL     1     -10.863  -5.723  -5.185  1.00  0.00     0.249 C 
BRANCH  30  31
ATOM     31  O   UNL     1      -9.550  -5.632  -5.729  1.00  0.00    -0.461 OA
BRANCH  31  32
ATOM     32  C   UNL     1      -8.456  -5.194  -4.976  1.00  0.00     0.338 C 
ATOM     33  O   UNL     1      -7.823  -6.012  -4.253  1.00  0.00    -0.246 OA
BRANCH  32  34
ATOM     34  C   UNL     1      -8.056  -3.773  -5.008  1.00  0.00     0.060 A 
ATOM     35  C   UNL     1      -8.110  -2.989  -3.837  1.00  0.00     0.015 A 
ATOM     36  C   UNL     1      -7.622  -3.180  -6.209  1.00  0.00     0.015 A 
ATOM     37  C   UNL     1      -7.728  -1.646  -3.868  1.00  0.00     0.001 A 
ATOM     38  C   UNL     1      -7.228  -1.840  -6.232  1.00  0.00     0.001 A 
ATOM     39  C   UNL     1      -7.277  -1.073  -5.061  1.00  0.00     0.000 A 
ENDBRANCH  32  34
ENDBRANCH  31  32
ENDBRANCH  30  31
ENDBRANCH   8  30
TORSDOF 12
ENDMDL
MODEL 9
REMARK VINA RESULT:    -5.045      3.335      6.061
REMARK INTER + INTRA:          -9.086
REMARK INTER:                  -8.181
REMARK INTRA:                  -0.905
REMARK UNBOUND:                -1.239
REMARK SMILES C[C@]12C[C@]3(O)O[C@H](O1)[C@@]1(COC(=O)c4ccccc4)[C@@H]3C[C@]12O[C@@H]1O[C@@H](CO)[C@H](O)[C@@H](O)[C@H]1O
REMARK SMILES IDX 1 1 2 2 3 3 4 4 20 5 21 6 22 7 9 8 7 9 8 10 6 11 23 12 24 13
REMARK SMILES IDX 33 14 25 15 31 16 26 17 29 18 34 19 32 21 27 23 28 24 30 26
REMARK SMILES IDX 5 28 10 30 11 31 12 32 13 33 14 34 15 35 19 36 16 37 18 38
REMARK SMILES IDX 17 39
REMARK H PARENT 34 20 32 22 28 25 30 27 5 29
REMARK Flexibility Score: inf
ROOT
ATOM      1  C   UNL     1     -14.481  -2.890  -6.505  1.00  0.00     0.046 C 
ATOM      2  C   UNL     1     -14.985  -4.284  -6.113  1.00  0.00     0.104 C 
ATOM      3  C   UNL     1     -16.375  -4.581  -6.800  1.00  0.00     0.104 C 
ATOM      4  C   UNL     1     -16.698  -6.052  -6.376  1.00  0.00     0.175 C 
ATOM      5  C   UNL     1     -15.460  -6.975  -6.636  1.00  0.00     0.070 C 
ATOM      6  C   UNL     1     -14.438  -6.345  -7.588  1.00  0.00     0.050 C 
ATOM      7  C   UNL     1     -13.985  -5.483  -6.397  1.00  0.00     0.115 C 
ATOM      8  C   UNL     1     -14.600  -6.521  -5.459  1.00  0.00     0.096 C 
ATOM      9  C   UNL     1     -15.522  -5.753  -4.518  1.00  0.00     0.267 C 
ATOM     10  O   UNL     1     -15.243  -4.372  -4.724  1.00  0.00    -0.342 OA
ATOM     11  O   UNL     1     -16.839  -6.027  -4.968  1.00  0.00    -0.320 OA
ENDROOT
BRANCH   7  12
ATOM     12  O   UNL     1     -12.567  -5.312  -6.360  1.00  0.00    -0.339 OA
BRANCH  12  13
ATOM     13  C   UNL     1     -12.113  -4.179  -5.622  1.00  0.00     0.282 C 
ATOM     14  C   UNL     1     -11.827  -4.550  -4.144  1.00  0.00     0.202 C 
ATOM     15  O   UNL     1     -10.951  -3.627  -6.231  1.00  0.00    -0.341 OA
ATOM     16  C   UNL     1     -10.607  -5.486  -4.041  1.00  0.00     0.179 C 
ATOM     17  C   UNL     1      -9.869  -4.549  -6.269  1.00  0.00     0.178 C 
ATOM     18  C   UNL     1      -9.414  -4.923  -4.832  1.00  0.00     0.177 C 
BRANCH  14  19
ATOM     19  O   UNL     1     -11.657  -3.396  -3.358  1.00  0.00    -0.385 OA
ATOM     20  H   UNL     1     -10.705  -3.366  -3.061  1.00  0.00     0.211 HD
ENDBRANCH  14  19
BRANCH  16  21
ATOM     21  O   UNL     1     -10.271  -5.743  -2.697  1.00  0.00    -0.387 OA
ATOM     22  H   UNL     1     -10.486  -6.697  -2.507  1.00  0.00     0.211 HD
ENDBRANCH  16  21
BRANCH  17  23
ATOM     23  C   UNL     1      -8.709  -3.909  -7.065  1.00  0.00     0.191 C 
BRANCH  23  24
ATOM     24  O   UNL     1      -7.717  -3.441  -6.184  1.00  0.00    -0.394 OA
ATOM     25  H   UNL     1      -6.912  -4.009  -6.319  1.00  0.00     0.210 HD
ENDBRANCH  23  24
ENDBRANCH  17  23
BRANCH  18  26
ATOM     26  O   UNL     1      -8.360  -5.861  -4.829  1.00  0.00    -0.387 OA
ATOM     27  H   UNL     1      -7.505  -5.383  -5.004  1.00  0.00     0.211 HD
ENDBRANCH  18  26
ENDBRANCH  12  13
ENDBRANCH   7  12
BRANCH   4  28
ATOM     28  O   UNL     1     -17.865  -6.516  -7.000  1.00  0.00    -0.365 OA
ATOM     29  H   UNL     1     -17.718  -6.434  -7.979  1.00  0.00     0.214 HD
ENDBRANCH   4  28
BRANCH   8  30
ATOM     30  C   UNL     1     -13.686  -7.595  -4.842  1.00  0.00     0.249 C 
BRANCH  30  31
ATOM     31  O   UNL     1     -14.433  -8.532  -4.073  1.00  0.00    -0.461 OA
BRANCH  31  32
ATOM     32  C   UNL     1     -14.068  -9.878  -3.972  1.00  0.00     0.338 C 
ATOM     33  O   UNL     1     -12.976 -10.194  -3.422  1.00  0.00    -0.246 OA
BRANCH  32  34
ATOM     34  C   UNL     1     -14.945 -10.928  -4.529  1.00  0.00     0.060 A 
ATOM     35  C   UNL     1     -15.966 -10.596  -5.443  1.00  0.00     0.015 A 
ATOM     36  C   UNL     1     -14.777 -12.274  -4.149  1.00  0.00     0.015 A 
ATOM     37  C   UNL     1     -16.791 -11.590  -5.972  1.00  0.00     0.001 A 
ATOM     38  C   UNL     1     -15.597 -13.266  -4.689  1.00  0.00     0.001 A 
ATOM     39  C   UNL     1     -16.602 -12.927  -5.605  1.00  0.00     0.000 A 
ENDBRANCH  32  34
ENDBRANCH  31  32
ENDBRANCH  30  31
ENDBRANCH   8  30
TORSDOF 12
ENDMDL
