MODEL 1
REMARK VINA RESULT:    -3.637      0.000      0.000
REMARK INTER + INTRA:          -4.980
REMARK INTER:                  -4.700
REMARK INTRA:                  -0.280
REMARK UNBOUND:                -0.280
REMARK SMILES CCCCCCC(=O)[O-]
REMARK SMILES IDX 5 1 6 2 7 3 8 4 9 5 4 6 3 7 2 8 1 9
REMARK H PARENT
REMARK Flexibility Score: inf
ROOT
ATOM      1  C   UNL     1      57.160  11.240  88.566  1.00  0.00     0.006 C 
ENDROOT
BRANCH   1   2
ATOM      2  C   UNL     1      58.614  11.305  89.049  1.00  0.00     0.053 C 
BRANCH   2   3
ATOM      3  C   UNL     1      58.884  10.219  90.042  1.00  0.00     0.041 C 
ATOM      4  O   UNL     1      57.962   9.437  90.392  1.00  0.00    -0.550 OA
ATOM      5  O   UNL     1      60.143  10.103  90.619  1.00  0.00    -0.550 OA
ENDBRANCH   2   3
ENDBRANCH   1   2
BRANCH   1   6
ATOM      6  C   UNL     1      56.404  12.566  88.762  1.00  0.00     0.000 C 
BRANCH   6   7
ATOM      7  C   UNL     1      56.962  13.478  89.875  1.00  0.00    -0.000 C 
BRANCH   7   8
ATOM      8  C   UNL     1      57.311  14.908  89.429  1.00  0.00    -0.003 C 
ATOM      9  C   UNL     1      58.805  15.216  89.528  1.00  0.00     0.004 C 
ENDBRANCH   7   8
ENDBRANCH   6   7
ENDBRANCH   1   6
TORSDOF 5
ENDMDL
MODEL 2
REMARK VINA RESULT:    -3.608     11.602     12.434
REMARK INTER + INTRA:          -4.942
REMARK INTER:                  -4.744
REMARK INTRA:                  -0.198
REMARK UNBOUND:                -0.280
REMARK SMILES CCCCCCC(=O)[O-]
REMARK SMILES IDX 5 1 6 2 7 3 8 4 9 5 4 6 3 7 2 8 1 9
REMARK H PARENT
REMARK Flexibility Score: inf
ROOT
ATOM      1  C   UNL     1      47.771  14.269  95.498  1.00  0.00     0.006 C 
ENDROOT
BRANCH   1   2
ATOM      2  C   UNL     1      46.574  13.414  95.934  1.00  0.00     0.053 C 
BRANCH   2   3
ATOM      3  C   UNL     1      46.230  12.419  94.870  1.00  0.00     0.041 C 
ATOM      4  O   UNL     1      46.213  12.766  93.660  1.00  0.00    -0.550 OA
ATOM      5  O   UNL     1      45.878  11.122  95.220  1.00  0.00    -0.550 OA
ENDBRANCH   2   3
ENDBRANCH   1   2
BRANCH   1   6
ATOM      6  C   UNL     1      47.382  15.725  95.185  1.00  0.00     0.000 C 
BRANCH   6   7
ATOM      7  C   UNL     1      48.568  16.702  95.039  1.00  0.00    -0.000 C 
BRANCH   7   8
ATOM      8  C   UNL     1      49.861  16.261  95.745  1.00  0.00    -0.003 C 
ATOM      9  C   UNL     1      50.013  16.864  97.141  1.00  0.00     0.004 C 
ENDBRANCH   7   8
ENDBRANCH   6   7
ENDBRANCH   1   6
TORSDOF 5
ENDMDL
MODEL 3
REMARK VINA RESULT:    -3.543      2.425      3.909
REMARK INTER + INTRA:          -4.859
REMARK INTER:                  -4.455
REMARK INTRA:                  -0.404
REMARK UNBOUND:                -0.280
REMARK SMILES CCCCCCC(=O)[O-]
REMARK SMILES IDX 5 1 6 2 7 3 8 4 9 5 4 6 3 7 2 8 1 9
REMARK H PARENT
REMARK Flexibility Score: inf
ROOT
ATOM      1  C   UNL     1      57.202  12.768  89.701  1.00  0.00     0.006 C 
ENDROOT
BRANCH   1   2
ATOM      2  C   UNL     1      58.357  13.760  89.886  1.00  0.00     0.053 C 
BRANCH   2   3
ATOM      3  C   UNL     1      58.693  13.906  91.336  1.00  0.00     0.041 C 
ATOM      4  O   UNL     1      58.351  13.017  92.159  1.00  0.00    -0.550 OA
ATOM      5  O   UNL     1      59.342  15.049  91.787  1.00  0.00    -0.550 OA
ENDBRANCH   2   3
ENDBRANCH   1   2
BRANCH   1   6
ATOM      6  C   UNL     1      57.600  11.534  88.871  1.00  0.00     0.000 C 
BRANCH   6   7
ATOM      7  C   UNL     1      59.059  11.066  89.055  1.00  0.00    -0.000 C 
BRANCH   7   8
ATOM      8  C   UNL     1      59.294  10.132  90.255  1.00  0.00    -0.003 C 
ATOM      9  C   UNL     1      60.608  10.415  90.982  1.00  0.00     0.004 C 
ENDBRANCH   7   8
ENDBRANCH   6   7
ENDBRANCH   1   6
TORSDOF 5
ENDMDL
MODEL 4
REMARK VINA RESULT:    -3.528      1.794      2.349
REMARK INTER + INTRA:          -4.839
REMARK INTER:                  -4.456
REMARK INTRA:                  -0.383
REMARK UNBOUND:                -0.280
REMARK SMILES CCCCCCC(=O)[O-]
REMARK SMILES IDX 5 1 6 2 7 3 8 4 9 5 4 6 3 7 2 8 1 9
REMARK H PARENT
REMARK Flexibility Score: inf
ROOT
ATOM      1  C   UNL     1      58.613  11.230  88.927  1.00  0.00     0.006 C 
ENDROOT
BRANCH   1   2
ATOM      2  C   UNL     1      58.970  10.263  90.063  1.00  0.00     0.053 C 
BRANCH   2   3
ATOM      3  C   UNL     1      59.919  10.910  91.020  1.00  0.00     0.041 C 
ATOM      4  O   UNL     1      59.525  11.837  91.776  1.00  0.00    -0.550 OA
ATOM      5  O   UNL     1      61.254  10.524  91.043  1.00  0.00    -0.550 OA
ENDBRANCH   2   3
ENDBRANCH   1   2
BRANCH   1   6
ATOM      6  C   UNL     1      57.095  11.377  88.721  1.00  0.00     0.000 C 
BRANCH   6   7
ATOM      7  C   UNL     1      56.526  12.777  89.032  1.00  0.00    -0.000 C 
BRANCH   7   8
ATOM      8  C   UNL     1      56.430  13.121  90.529  1.00  0.00    -0.003 C 
ATOM      9  C   UNL     1      55.869  11.974  91.369  1.00  0.00     0.004 C 
ENDBRANCH   7   8
ENDBRANCH   6   7
ENDBRANCH   1   6
TORSDOF 5
ENDMDL
MODEL 5
REMARK VINA RESULT:    -3.509      1.311      2.286
REMARK INTER + INTRA:          -4.814
REMARK INTER:                  -4.401
REMARK INTRA:                  -0.413
REMARK UNBOUND:                -0.280
REMARK SMILES CCCCCCC(=O)[O-]
REMARK SMILES IDX 5 1 6 2 7 3 8 4 9 5 4 6 3 7 2 8 1 9
REMARK H PARENT
REMARK Flexibility Score: inf
ROOT
ATOM      1  C   UNL     1      57.337  11.243  88.488  1.00  0.00     0.006 C 
ENDROOT
BRANCH   1   2
ATOM      2  C   UNL     1      58.704  11.442  89.155  1.00  0.00     0.053 C 
BRANCH   2   3
ATOM      3  C   UNL     1      58.984  10.328  90.113  1.00  0.00     0.041 C 
ATOM      4  O   UNL     1      60.122  10.215  90.640  1.00  0.00    -0.550 OA
ATOM      5  O   UNL     1      58.001   9.384  90.387  1.00  0.00    -0.550 OA
ENDBRANCH   2   3
ENDBRANCH   1   2
BRANCH   1   6
ATOM      6  C   UNL     1      56.369  12.411  88.748  1.00  0.00     0.000 C 
BRANCH   6   7
ATOM      7  C   UNL     1      56.496  13.068  90.139  1.00  0.00    -0.000 C 
BRANCH   7   8
ATOM      8  C   UNL     1      55.755  12.336  91.271  1.00  0.00    -0.003 C 
ATOM      9  C   UNL     1      56.662  11.995  92.453  1.00  0.00     0.004 C 
ENDBRANCH   7   8
ENDBRANCH   6   7
ENDBRANCH   1   6
TORSDOF 5
ENDMDL
MODEL 6
REMARK VINA RESULT:    -3.493      2.970      4.451
REMARK INTER + INTRA:          -4.793
REMARK INTER:                  -4.460
REMARK INTRA:                  -0.333
REMARK UNBOUND:                -0.280
REMARK SMILES CCCCCCC(=O)[O-]
REMARK SMILES IDX 5 1 6 2 7 3 8 4 9 5 4 6 3 7 2 8 1 9
REMARK H PARENT
REMARK Flexibility Score: inf
ROOT
ATOM      1  C   UNL     1      56.208  12.931  88.743  1.00  0.00     0.006 C 
ENDROOT
BRANCH   1   2
ATOM      2  C   UNL     1      56.493  13.434  90.164  1.00  0.00     0.053 C 
BRANCH   2   3
ATOM      3  C   UNL     1      57.045  14.824  90.125  1.00  0.00     0.041 C 
ATOM      4  O   UNL     1      56.742  15.652  91.024  1.00  0.00    -0.550 OA
ATOM      5  O   UNL     1      57.853  15.221  89.067  1.00  0.00    -0.550 OA
ENDBRANCH   2   3
ENDBRANCH   1   2
BRANCH   1   6
ATOM      6  C   UNL     1      56.884  11.582  88.440  1.00  0.00     0.000 C 
BRANCH   6   7
ATOM      7  C   UNL     1      58.304  11.417  89.022  1.00  0.00    -0.000 C 
BRANCH   7   8
ATOM      8  C   UNL     1      58.475  10.232  89.987  1.00  0.00    -0.003 C 
ATOM      9  C   UNL     1      57.153   9.756  90.587  1.00  0.00     0.004 C 
ENDBRANCH   7   8
ENDBRANCH   6   7
ENDBRANCH   1   6
TORSDOF 5
ENDMDL
MODEL 7
REMARK VINA RESULT:    -3.488      2.112      3.505
REMARK INTER + INTRA:          -4.787
REMARK INTER:                  -4.350
REMARK INTRA:                  -0.437
REMARK UNBOUND:                -0.280
REMARK SMILES CCCCCCC(=O)[O-]
REMARK SMILES IDX 5 1 6 2 7 3 8 4 9 5 4 6 3 7 2 8 1 9
REMARK H PARENT
REMARK Flexibility Score: inf
ROOT
ATOM      1  C   UNL     1      56.612  13.168  90.052  1.00  0.00     0.006 C 
ENDROOT
BRANCH   1   2
ATOM      2  C   UNL     1      55.617  12.803  91.161  1.00  0.00     0.053 C 
BRANCH   2   3
ATOM      3  C   UNL     1      56.170  11.711  92.021  1.00  0.00     0.041 C 
ATOM      4  O   UNL     1      55.725  10.538  91.920  1.00  0.00    -0.550 OA
ATOM      5  O   UNL     1      57.145  11.999  92.968  1.00  0.00    -0.550 OA
ENDBRANCH   2   3
ENDBRANCH   1   2
BRANCH   1   6
ATOM      6  C   UNL     1      56.336  12.424  88.733  1.00  0.00     0.000 C 
BRANCH   6   7
ATOM      7  C   UNL     1      57.250  11.210  88.465  1.00  0.00    -0.000 C 
BRANCH   7   8
ATOM      8  C   UNL     1      58.637  11.283  89.127  1.00  0.00    -0.003 C 
ATOM      9  C   UNL     1      58.900  10.124  90.088  1.00  0.00     0.004 C 
ENDBRANCH   7   8
ENDBRANCH   6   7
ENDBRANCH   1   6
TORSDOF 5
ENDMDL
MODEL 8
REMARK VINA RESULT:    -3.440     14.702     15.882
REMARK INTER + INTRA:          -4.725
REMARK INTER:                  -4.518
REMARK INTRA:                  -0.207
REMARK UNBOUND:                -0.280
REMARK SMILES CCCCCCC(=O)[O-]
REMARK SMILES IDX 5 1 6 2 7 3 8 4 9 5 4 6 3 7 2 8 1 9
REMARK H PARENT
REMARK Flexibility Score: inf
ROOT
ATOM      1  C   UNL     1      51.505   7.074 102.427  1.00  0.00     0.006 C 
ENDROOT
BRANCH   1   2
ATOM      2  C   UNL     1      52.120   6.458 101.163  1.00  0.00     0.053 C 
BRANCH   2   3
ATOM      3  C   UNL     1      51.450   7.000  99.940  1.00  0.00     0.041 C 
ATOM      4  O   UNL     1      50.234   6.758  99.724  1.00  0.00    -0.550 OA
ATOM      5  O   UNL     1      52.183   7.729  99.012  1.00  0.00    -0.550 OA
ENDBRANCH   2   3
ENDBRANCH   1   2
BRANCH   1   6
ATOM      6  C   UNL     1      50.804   6.033 103.318  1.00  0.00     0.000 C 
BRANCH   6   7
ATOM      7  C   UNL     1      51.284   4.579 103.127  1.00  0.00    -0.000 C 
BRANCH   7   8
ATOM      8  C   UNL     1      51.548   3.807 104.430  1.00  0.00    -0.003 C 
ATOM      9  C   UNL     1      52.880   3.057 104.419  1.00  0.00     0.004 C 
ENDBRANCH   7   8
ENDBRANCH   6   7
ENDBRANCH   1   6
TORSDOF 5
ENDMDL
MODEL 9
REMARK VINA RESULT:    -3.416     11.531     12.730
REMARK INTER + INTRA:          -4.694
REMARK INTER:                  -4.583
REMARK INTRA:                  -0.110
REMARK UNBOUND:                -0.280
REMARK SMILES CCCCCCC(=O)[O-]
REMARK SMILES IDX 5 1 6 2 7 3 8 4 9 5 4 6 3 7 2 8 1 9
REMARK H PARENT
REMARK Flexibility Score: inf
ROOT
ATOM      1  C   UNL     1      48.134  15.815  95.428  1.00  0.00     0.006 C 
ENDROOT
BRANCH   1   2
ATOM      2  C   UNL     1      49.568  16.314  95.212  1.00  0.00     0.053 C 
BRANCH   2   3
ATOM      3  C   UNL     1      49.931  17.326  96.252  1.00  0.00     0.041 C 
ATOM      4  O   UNL     1      50.229  16.957  97.419  1.00  0.00    -0.550 OA
ATOM      5  O   UNL     1      49.892  18.681  95.947  1.00  0.00    -0.550 OA
ENDBRANCH   2   3
ENDBRANCH   1   2
BRANCH   1   6
ATOM      6  C   UNL     1      48.073  14.342  95.869  1.00  0.00     0.000 C 
BRANCH   6   7
ATOM      7  C   UNL     1      46.664  13.712  95.850  1.00  0.00    -0.000 C 
BRANCH   7   8
ATOM      8  C   UNL     1      46.404  12.739  94.688  1.00  0.00    -0.003 C 
ATOM      9  C   UNL     1      46.197  11.298  95.152  1.00  0.00     0.004 C 
ENDBRANCH   7   8
ENDBRANCH   6   7
ENDBRANCH   1   6
TORSDOF 5
ENDMDL
