MODEL 1
REMARK VINA RESULT:    -6.868      0.000      0.000
REMARK INTER + INTRA:          -7.270
REMARK INTER:                  -7.270
REMARK INTRA:                   0.000
REMARK UNBOUND:                 0.000
REMARK SMILES O=c1ccc2cc(O)c(O)cc2o1
REMARK SMILES IDX 4 1 3 2 2 3 1 4 13 5 12 6 11 7 9 8 7 9 6 10 5 11 8 12 10 14
REMARK H PARENT 8 13 10 15
REMARK Flexibility Score: inf
ROOT
ATOM      1  C   UNL     1      84.444  62.338  11.653  1.00  0.00     0.019 A 
ATOM      2  C   UNL     1      85.429  61.352  11.699  1.00  0.00     0.094 A 
ATOM      3  C   UNL     1      85.093  60.040  11.349  1.00  0.00     0.336 A 
ATOM      4  O   UNL     1      85.969  59.137  11.383  1.00  0.00    -0.246 OA
ATOM      5  O   UNL     1      83.851  59.740  10.979  1.00  0.00    -0.423 OA
ATOM      6  C   UNL     1      82.880  60.649  10.921  1.00  0.00     0.142 A 
ATOM      7  C   UNL     1      81.594  60.274  10.524  1.00  0.00     0.098 A 
ATOM      8  C   UNL     1      80.568  61.224  10.461  1.00  0.00     0.161 A 
ATOM      9  C   UNL     1      80.831  62.565  10.798  1.00  0.00     0.158 A 
ATOM     10  C   UNL     1      82.121  62.946  11.197  1.00  0.00     0.062 A 
ATOM     11  C   UNL     1      83.147  61.993  11.260  1.00  0.00     0.022 A 
ENDROOT
BRANCH   9  12
ATOM     12  O   UNL     1      79.810  63.513  10.737  1.00  0.00    -0.504 OA
ATOM     13  H   UNL     1      78.880  63.271  10.413  1.00  0.00     0.293 HD
ENDBRANCH   9  12
BRANCH   8  14
ATOM     14  O   UNL     1      79.295  60.819  10.061  1.00  0.00    -0.504 OA
ATOM     15  H   UNL     1      78.848  61.189   9.231  1.00  0.00     0.293 HD
ENDBRANCH   8  14
TORSDOF 2
ENDMDL
MODEL 2
REMARK VINA RESULT:    -6.573      1.204      5.030
REMARK INTER + INTRA:          -6.957
REMARK INTER:                  -6.957
REMARK INTRA:                   0.000
REMARK UNBOUND:                 0.000
REMARK SMILES O=c1ccc2cc(O)c(O)cc2o1
REMARK SMILES IDX 4 1 3 2 2 3 1 4 13 5 12 6 11 7 9 8 7 9 6 10 5 11 8 12 10 14
REMARK H PARENT 8 13 10 15
REMARK Flexibility Score: inf
ROOT
ATOM      1  C   UNL     1      80.693  60.252  10.685  1.00  0.00     0.019 A 
ATOM      2  C   UNL     1      79.679  61.195  10.514  1.00  0.00     0.094 A 
ATOM      3  C   UNL     1      79.984  62.553  10.658  1.00  0.00     0.336 A 
ATOM      4  O   UNL     1      79.084  63.418  10.507  1.00  0.00    -0.246 OA
ATOM      5  O   UNL     1      81.223  62.936  10.956  1.00  0.00    -0.423 OA
ATOM      6  C   UNL     1      82.219  62.070  11.129  1.00  0.00     0.142 A 
ATOM      7  C   UNL     1      83.501  62.532  11.440  1.00  0.00     0.098 A 
ATOM      8  C   UNL     1      84.554  61.629  11.623  1.00  0.00     0.161 A 
ATOM      9  C   UNL     1      84.324  60.247  11.493  1.00  0.00     0.158 A 
ATOM     10  C   UNL     1      83.038  59.778  11.180  1.00  0.00     0.062 A 
ATOM     11  C   UNL     1      81.986  60.685  10.998  1.00  0.00     0.022 A 
ENDROOT
BRANCH   9  12
ATOM     12  O   UNL     1      85.372  59.345  11.675  1.00  0.00    -0.504 OA
ATOM     13  H   UNL     1      86.322  59.660  11.831  1.00  0.00     0.293 HD
ENDBRANCH   9  12
BRANCH   8  14
ATOM     14  O   UNL     1      85.822  62.121  11.933  1.00  0.00    -0.504 OA
ATOM     15  H   UNL     1      86.232  62.903  11.437  1.00  0.00     0.293 HD
ENDBRANCH   8  14
TORSDOF 2
ENDMDL
MODEL 3
REMARK VINA RESULT:    -6.550      1.171      2.319
REMARK INTER + INTRA:          -6.933
REMARK INTER:                  -6.933
REMARK INTRA:                   0.000
REMARK UNBOUND:                 0.000
REMARK SMILES O=c1ccc2cc(O)c(O)cc2o1
REMARK SMILES IDX 4 1 3 2 2 3 1 4 13 5 12 6 11 7 9 8 7 9 6 10 5 11 8 12 10 14
REMARK H PARENT 8 13 10 15
REMARK Flexibility Score: inf
ROOT
ATOM      1  C   UNL     1      82.632  59.078  11.631  1.00  0.00     0.019 A 
ATOM      2  C   UNL     1      84.014  59.208  11.767  1.00  0.00     0.094 A 
ATOM      3  C   UNL     1      84.592  60.476  11.642  1.00  0.00     0.336 A 
ATOM      4  O   UNL     1      85.837  60.613  11.762  1.00  0.00    -0.246 OA
ATOM      5  O   UNL     1      83.832  61.540  11.397  1.00  0.00    -0.423 OA
ATOM      6  C   UNL     1      82.510  61.461  11.260  1.00  0.00     0.142 A 
ATOM      7  C   UNL     1      81.763  62.614  11.004  1.00  0.00     0.098 A 
ATOM      8  C   UNL     1      80.374  62.540  10.859  1.00  0.00     0.161 A 
ATOM      9  C   UNL     1      79.721  61.298  10.971  1.00  0.00     0.158 A 
ATOM     10  C   UNL     1      80.467  60.137  11.229  1.00  0.00     0.062 A 
ATOM     11  C   UNL     1      81.859  60.215  11.373  1.00  0.00     0.022 A 
ENDROOT
BRANCH   9  12
ATOM     12  O   UNL     1      78.337  61.222  10.827  1.00  0.00    -0.504 OA
ATOM     13  H   UNL     1      77.756  62.053  10.824  1.00  0.00     0.293 HD
ENDBRANCH   9  12
BRANCH   8  14
ATOM     14  O   UNL     1      79.656  63.708  10.603  1.00  0.00    -0.504 OA
ATOM     15  H   UNL     1      78.854  63.723   9.985  1.00  0.00     0.293 HD
ENDBRANCH   8  14
TORSDOF 2
ENDMDL
MODEL 4
REMARK VINA RESULT:    -6.460      1.431      4.424
REMARK INTER + INTRA:          -6.838
REMARK INTER:                  -6.838
REMARK INTRA:                   0.000
REMARK UNBOUND:                 0.000
REMARK SMILES O=c1ccc2cc(O)c(O)cc2o1
REMARK SMILES IDX 4 1 3 2 2 3 1 4 13 5 12 6 11 7 9 8 7 9 6 10 5 11 8 12 10 14
REMARK H PARENT 8 13 10 15
REMARK Flexibility Score: inf
ROOT
ATOM      1  C   UNL     1      81.009  62.602  10.829  1.00  0.00     0.019 A 
ATOM      2  C   UNL     1      79.878  61.862  10.484  1.00  0.00     0.094 A 
ATOM      3  C   UNL     1      79.979  60.469  10.400  1.00  0.00     0.336 A 
ATOM      4  O   UNL     1      78.969  59.784  10.092  1.00  0.00    -0.246 OA
ATOM      5  O   UNL     1      81.137  59.862  10.645  1.00  0.00    -0.423 OA
ATOM      6  C   UNL     1      82.240  60.529  10.976  1.00  0.00     0.142 A 
ATOM      7  C   UNL     1      83.429  59.837  11.223  1.00  0.00     0.098 A 
ATOM      8  C   UNL     1      84.592  60.531  11.572  1.00  0.00     0.161 A 
ATOM      9  C   UNL     1      84.569  61.934  11.676  1.00  0.00     0.158 A 
ATOM     10  C   UNL     1      83.378  62.634  11.430  1.00  0.00     0.062 A 
ATOM     11  C   UNL     1      82.213  61.936  11.080  1.00  0.00     0.022 A 
ENDROOT
BRANCH   9  12
ATOM     12  O   UNL     1      85.728  62.628  12.024  1.00  0.00    -0.504 OA
ATOM     13  H   UNL     1      85.782  63.637  11.957  1.00  0.00     0.293 HD
ENDBRANCH   9  12
BRANCH   8  14
ATOM     14  O   UNL     1      85.764  59.812  11.811  1.00  0.00    -0.504 OA
ATOM     15  H   UNL     1      85.811  59.077  12.507  1.00  0.00     0.293 HD
ENDBRANCH   8  14
TORSDOF 2
ENDMDL
MODEL 5
REMARK VINA RESULT:    -6.387      1.377      1.580
REMARK INTER + INTRA:          -6.760
REMARK INTER:                  -6.760
REMARK INTRA:                   0.000
REMARK UNBOUND:                 0.000
REMARK SMILES O=c1ccc2cc(O)c(O)cc2o1
REMARK SMILES IDX 4 1 3 2 2 3 1 4 13 5 12 6 11 7 9 8 7 9 6 10 5 11 8 12 10 14
REMARK H PARENT 8 13 10 15
REMARK Flexibility Score: inf
ROOT
ATOM      1  C   UNL     1      83.488  61.383  11.523  1.00  0.00     0.019 A 
ATOM      2  C   UNL     1      84.087  60.143  11.743  1.00  0.00     0.094 A 
ATOM      3  C   UNL     1      83.295  58.991  11.709  1.00  0.00     0.336 A 
ATOM      4  O   UNL     1      83.817  57.863  11.904  1.00  0.00    -0.246 OA
ATOM      5  O   UNL     1      81.988  59.080  11.471  1.00  0.00    -0.423 OA
ATOM      6  C   UNL     1      81.376  60.242  11.257  1.00  0.00     0.142 A 
ATOM      7  C   UNL     1      80.001  60.273  11.011  1.00  0.00     0.098 A 
ATOM      8  C   UNL     1      79.350  61.491  10.784  1.00  0.00     0.161 A 
ATOM      9  C   UNL     1      80.082  62.693  10.803  1.00  0.00     0.158 A 
ATOM     10  C   UNL     1      81.464  62.666  11.048  1.00  0.00     0.062 A 
ATOM     11  C   UNL     1      82.113  61.446  11.275  1.00  0.00     0.022 A 
ENDROOT
BRANCH   9  12
ATOM     12  O   UNL     1      79.435  63.907  10.577  1.00  0.00    -0.504 OA
ATOM     13  H   UNL     1      79.081  64.470  11.342  1.00  0.00     0.293 HD
ENDBRANCH   9  12
BRANCH   8  14
ATOM     14  O   UNL     1      77.976  61.490  10.543  1.00  0.00    -0.504 OA
ATOM     15  H   UNL     1      77.550  62.098   9.854  1.00  0.00     0.293 HD
ENDBRANCH   8  14
TORSDOF 2
ENDMDL
MODEL 6
REMARK VINA RESULT:    -6.326      2.049      3.338
REMARK INTER + INTRA:          -6.696
REMARK INTER:                  -6.696
REMARK INTRA:                   0.000
REMARK UNBOUND:                 0.000
REMARK SMILES O=c1ccc2cc(O)c(O)cc2o1
REMARK SMILES IDX 4 1 3 2 2 3 1 4 13 5 12 6 11 7 9 8 7 9 6 10 5 11 8 12 10 14
REMARK H PARENT 8 13 10 15
REMARK Flexibility Score: inf
ROOT
ATOM      1  C   UNL     1      81.792  60.168  11.295  1.00  0.00     0.019 A 
ATOM      2  C   UNL     1      83.010  60.846  11.353  1.00  0.00     0.094 A 
ATOM      3  C   UNL     1      83.018  62.238  11.216  1.00  0.00     0.336 A 
ATOM      4  O   UNL     1      84.107  62.867  11.266  1.00  0.00    -0.246 OA
ATOM      5  O   UNL     1      81.880  62.903  11.032  1.00  0.00    -0.423 OA
ATOM      6  C   UNL     1      80.697  62.296  10.971  1.00  0.00     0.142 A 
ATOM      7  C   UNL     1      79.535  63.048  10.777  1.00  0.00     0.098 A 
ATOM      8  C   UNL     1      78.288  62.417  10.711  1.00  0.00     0.161 A 
ATOM      9  C   UNL     1      78.200  61.019  10.841  1.00  0.00     0.158 A 
ATOM     10  C   UNL     1      79.364  60.260  11.036  1.00  0.00     0.062 A 
ATOM     11  C   UNL     1      80.612  60.893  11.101  1.00  0.00     0.022 A 
ENDROOT
BRANCH   9  12
ATOM     12  O   UNL     1      76.957  60.389  10.775  1.00  0.00    -0.504 OA
ATOM     13  H   UNL     1      76.495  60.038  11.606  1.00  0.00     0.293 HD
ENDBRANCH   9  12
BRANCH   8  14
ATOM     14  O   UNL     1      77.146  63.195  10.516  1.00  0.00    -0.504 OA
ATOM     15  H   UNL     1      77.015  64.085  10.982  1.00  0.00     0.293 HD
ENDBRANCH   8  14
TORSDOF 2
ENDMDL
MODEL 7
REMARK VINA RESULT:    -6.079      1.591      4.684
REMARK INTER + INTRA:          -6.435
REMARK INTER:                  -6.435
REMARK INTRA:                   0.000
REMARK UNBOUND:                 0.000
REMARK SMILES O=c1ccc2cc(O)c(O)cc2o1
REMARK SMILES IDX 4 1 3 2 2 3 1 4 13 5 12 6 11 7 9 8 7 9 6 10 5 11 8 12 10 14
REMARK H PARENT 8 13 10 15
REMARK Flexibility Score: inf
ROOT
ATOM      1  C   UNL     1      79.729  62.680  10.654  1.00  0.00     0.019 A 
ATOM      2  C   UNL     1      78.536  61.960  10.719  1.00  0.00     0.094 A 
ATOM      3  C   UNL     1      78.578  60.609  11.079  1.00  0.00     0.336 A 
ATOM      4  O   UNL     1      77.513  59.943  11.143  1.00  0.00    -0.246 OA
ATOM      5  O   UNL     1      79.740  60.022  11.355  1.00  0.00    -0.423 OA
ATOM      6  C   UNL     1      80.901  60.671  11.306  1.00  0.00     0.142 A 
ATOM      7  C   UNL     1      82.090  60.002  11.607  1.00  0.00     0.098 A 
ATOM      8  C   UNL     1      83.314  60.677  11.557  1.00  0.00     0.161 A 
ATOM      9  C   UNL     1      83.352  62.038  11.203  1.00  0.00     0.158 A 
ATOM     10  C   UNL     1      82.160  62.715  10.900  1.00  0.00     0.062 A 
ATOM     11  C   UNL     1      80.935  62.036  10.950  1.00  0.00     0.022 A 
ENDROOT
BRANCH   9  12
ATOM     12  O   UNL     1      84.571  62.713  11.153  1.00  0.00    -0.504 OA
ATOM     13  H   UNL     1      84.808  63.323  10.379  1.00  0.00     0.293 HD
ENDBRANCH   9  12
BRANCH   8  14
ATOM     14  O   UNL     1      84.484  59.981  11.863  1.00  0.00    -0.504 OA
ATOM     15  H   UNL     1      85.391  60.433  11.880  1.00  0.00     0.293 HD
ENDBRANCH   8  14
TORSDOF 2
ENDMDL
MODEL 8
REMARK VINA RESULT:    -6.060      2.139      3.310
REMARK INTER + INTRA:          -6.414
REMARK INTER:                  -6.414
REMARK INTRA:                   0.000
REMARK UNBOUND:                 0.000
REMARK SMILES O=c1ccc2cc(O)c(O)cc2o1
REMARK SMILES IDX 4 1 3 2 2 3 1 4 13 5 12 6 11 7 9 8 7 9 6 10 5 11 8 12 10 14
REMARK H PARENT 8 13 10 15
REMARK Flexibility Score: inf
ROOT
ATOM      1  C   UNL     1      81.472  59.245  12.313  1.00  0.00     0.019 A 
ATOM      2  C   UNL     1      82.777  59.709  12.144  1.00  0.00     0.094 A 
ATOM      3  C   UNL     1      82.984  60.928  11.492  1.00  0.00     0.336 A 
ATOM      4  O   UNL     1      84.154  61.363  11.330  1.00  0.00    -0.246 OA
ATOM      5  O   UNL     1      81.950  61.633  11.039  1.00  0.00    -0.423 OA
ATOM      6  C   UNL     1      80.690  61.228  11.179  1.00  0.00     0.142 A 
ATOM      7  C   UNL     1      79.645  62.012  10.684  1.00  0.00     0.098 A 
ATOM      8  C   UNL     1      78.317  61.593  10.826  1.00  0.00     0.161 A 
ATOM      9  C   UNL     1      78.030  60.376  11.472  1.00  0.00     0.158 A 
ATOM     10  C   UNL     1      79.077  59.586  11.972  1.00  0.00     0.062 A 
ATOM     11  C   UNL     1      80.406  60.007  11.827  1.00  0.00     0.022 A 
ENDROOT
BRANCH   9  12
ATOM     12  O   UNL     1      76.708  59.957  11.616  1.00  0.00    -0.504 OA
ATOM     13  H   UNL     1      76.012  60.143  10.903  1.00  0.00     0.293 HD
ENDBRANCH   9  12
BRANCH   8  14
ATOM     14  O   UNL     1      77.295  62.397  10.321  1.00  0.00    -0.504 OA
ATOM     15  H   UNL     1      77.304  62.745   9.370  1.00  0.00     0.293 HD
ENDBRANCH   8  14
TORSDOF 2
ENDMDL
MODEL 9
REMARK VINA RESULT:    -5.650      2.797      4.259
REMARK INTER + INTRA:          -5.981
REMARK INTER:                  -5.981
REMARK INTRA:                   0.000
REMARK UNBOUND:                 0.000
REMARK SMILES O=c1ccc2cc(O)c(O)cc2o1
REMARK SMILES IDX 4 1 3 2 2 3 1 4 13 5 12 6 11 7 9 8 7 9 6 10 5 11 8 12 10 14
REMARK H PARENT 8 13 10 15
REMARK Flexibility Score: inf
ROOT
ATOM      1  C   UNL     1      80.225  59.624  12.678  1.00  0.00     0.019 A 
ATOM      2  C   UNL     1      81.546  59.894  12.323  1.00  0.00     0.094 A 
ATOM      3  C   UNL     1      81.840  60.214  10.993  1.00  0.00     0.336 A 
ATOM      4  O   UNL     1      83.026  60.461  10.655  1.00  0.00    -0.246 OA
ATOM      5  O   UNL     1      80.871  60.257  10.082  1.00  0.00    -0.423 OA
ATOM      6  C   UNL     1      79.598  60.007  10.377  1.00  0.00     0.142 A 
ATOM      7  C   UNL     1      78.623  60.069   9.378  1.00  0.00     0.098 A 
ATOM      8  C   UNL     1      77.283  59.806   9.680  1.00  0.00     0.161 A 
ATOM      9  C   UNL     1      76.910  59.478  10.996  1.00  0.00     0.158 A 
ATOM     10  C   UNL     1      77.885  59.415  12.004  1.00  0.00     0.062 A 
ATOM     11  C   UNL     1      79.228  59.678  11.699  1.00  0.00     0.022 A 
ENDROOT
BRANCH   9  12
ATOM     12  O   UNL     1      75.574  59.216  11.299  1.00  0.00    -0.504 OA
ATOM     13  H   UNL     1      74.966  59.932  11.679  1.00  0.00     0.293 HD
ENDBRANCH   9  12
BRANCH   8  14
ATOM     14  O   UNL     1      76.333  59.876   8.660  1.00  0.00    -0.504 OA
ATOM     15  H   UNL     1      75.441  60.341   8.785  1.00  0.00     0.293 HD
ENDBRANCH   8  14
TORSDOF 2
ENDMDL
