MODEL 1
REMARK VINA RESULT:    -5.308      0.000      0.000
REMARK INTER + INTRA:         -12.670
REMARK INTER:                  -9.963
REMARK INTRA:                  -2.707
REMARK UNBOUND:                -2.707
REMARK SMILES CCCCCCCCC=CCCCCCCCC(=O)[O-]
REMARK SMILES IDX 10 1 9 2 11 3 12 4 13 5 14 6 15 7 16 8 17 9 18 10 19 11
REMARK SMILES IDX 20 12 8 13 7 14 6 15 5 16 4 17 3 18 2 19 1 20
REMARK H PARENT
REMARK Flexibility Score: inf
ROOT
ATOM      1  C   UNL     1      23.549   5.772  24.843  1.00  0.00    -0.031 C 
ATOM      2  C   UNL     1      23.875   4.610  25.440  1.00  0.00    -0.031 C 
ENDROOT
BRANCH   1   3
ATOM      3  C   UNL     1      22.869   5.902  23.499  1.00  0.00     0.027 C 
BRANCH   3   4
ATOM      4  C   UNL     1      21.370   6.182  23.659  1.00  0.00     0.004 C 
BRANCH   4   5
ATOM      5  C   UNL     1      20.512   4.961  23.284  1.00  0.00     0.000 C 
BRANCH   5   6
ATOM      6  C   UNL     1      19.287   5.336  22.435  1.00  0.00     0.000 C 
BRANCH   6   7
ATOM      7  C   UNL     1      19.326   4.725  21.026  1.00  0.00     0.000 C 
BRANCH   7   8
ATOM      8  C   UNL     1      19.672   5.788  19.977  1.00  0.00     0.006 C 
BRANCH   8   9
ATOM      9  C   UNL     1      21.026   5.494  19.324  1.00  0.00     0.053 C 
BRANCH   9  10
ATOM     10  C   UNL     1      22.083   6.393  19.882  1.00  0.00     0.041 C 
ATOM     11  O   UNL     1      23.294   6.046  19.850  1.00  0.00    -0.550 OA
ATOM     12  O   UNL     1      21.737   7.634  20.399  1.00  0.00    -0.550 OA
ENDBRANCH   9  10
ENDBRANCH   8   9
ENDBRANCH   7   8
ENDBRANCH   6   7
ENDBRANCH   5   6
ENDBRANCH   4   5
ENDBRANCH   3   4
ENDBRANCH   1   3
BRANCH   2  13
ATOM     13  C   UNL     1      23.660   3.244  24.843  1.00  0.00     0.027 C 
BRANCH  13  14
ATOM     14  C   UNL     1      22.567   2.476  25.598  1.00  0.00     0.004 C 
BRANCH  14  15
ATOM     15  C   UNL     1      21.893   1.440  24.685  1.00  0.00     0.000 C 
BRANCH  15  16
ATOM     16  C   UNL     1      22.571   1.327  23.306  1.00  0.00     0.000 C 
BRANCH  16  17
ATOM     17  C   UNL     1      21.672   1.741  22.125  1.00  0.00    -0.000 C 
BRANCH  17  18
ATOM     18  C   UNL     1      22.413   2.562  21.045  1.00  0.00    -0.000 C 
BRANCH  18  19
ATOM     19  C   UNL     1      22.291   1.967  19.631  1.00  0.00    -0.003 C 
ATOM     20  C   UNL     1      23.069   0.662  19.468  1.00  0.00     0.004 C 
ENDBRANCH  18  19
ENDBRANCH  17  18
ENDBRANCH  16  17
ENDBRANCH  15  16
ENDBRANCH  14  15
ENDBRANCH  13  14
ENDBRANCH   2  13
TORSDOF 15
ENDMDL
MODEL 2
REMARK VINA RESULT:    -5.265      2.170      5.693
REMARK INTER + INTRA:         -12.589
REMARK INTER:                 -10.704
REMARK INTRA:                  -1.885
REMARK UNBOUND:                -2.707
REMARK SMILES CCCCCCCCC=CCCCCCCCC(=O)[O-]
REMARK SMILES IDX 10 1 9 2 11 3 12 4 13 5 14 6 15 7 16 8 17 9 18 10 19 11
REMARK SMILES IDX 20 12 8 13 7 14 6 15 5 16 4 17 3 18 2 19 1 20
REMARK H PARENT
REMARK Flexibility Score: inf
ROOT
ATOM      1  C   UNL     1      21.990   1.137  23.907  1.00  0.00    -0.031 C 
ATOM      2  C   UNL     1      21.873   1.991  24.941  1.00  0.00    -0.031 C 
ENDROOT
BRANCH   1   3
ATOM      3  C   UNL     1      23.281   0.800  23.196  1.00  0.00     0.027 C 
BRANCH   3   4
ATOM      4  C   UNL     1      23.012   0.141  21.838  1.00  0.00     0.004 C 
BRANCH   4   5
ATOM      5  C   UNL     1      22.600   1.168  20.770  1.00  0.00     0.000 C 
BRANCH   5   6
ATOM      6  C   UNL     1      23.558   2.367  20.697  1.00  0.00     0.000 C 
BRANCH   6   7
ATOM      7  C   UNL     1      22.913   3.677  21.175  1.00  0.00     0.000 C 
BRANCH   7   8
ATOM      8  C   UNL     1      21.388   3.619  21.041  1.00  0.00     0.006 C 
BRANCH   8   9
ATOM      9  C   UNL     1      20.711   4.536  22.065  1.00  0.00     0.053 C 
BRANCH   9  10
ATOM     10  C   UNL     1      19.835   5.535  21.377  1.00  0.00     0.041 C 
ATOM     11  O   UNL     1      19.266   5.240  20.293  1.00  0.00    -0.550 OA
ATOM     12  O   UNL     1      19.613   6.777  21.955  1.00  0.00    -0.550 OA
ENDBRANCH   9  10
ENDBRANCH   8   9
ENDBRANCH   7   8
ENDBRANCH   6   7
ENDBRANCH   5   6
ENDBRANCH   4   5
ENDBRANCH   3   4
ENDBRANCH   1   3
BRANCH   2  13
ATOM     13  C   UNL     1      23.005   2.790  25.532  1.00  0.00     0.027 C 
BRANCH  13  14
ATOM     14  C   UNL     1      23.260   4.068  24.723  1.00  0.00     0.004 C 
BRANCH  14  15
ATOM     15  C   UNL     1      24.569   4.743  25.162  1.00  0.00     0.000 C 
BRANCH  15  16
ATOM     16  C   UNL     1      24.577   6.261  24.898  1.00  0.00     0.000 C 
BRANCH  16  17
ATOM     17  C   UNL     1      24.992   7.112  26.115  1.00  0.00    -0.000 C 
BRANCH  17  18
ATOM     18  C   UNL     1      24.718   6.424  27.471  1.00  0.00    -0.000 C 
BRANCH  18  19
ATOM     19  C   UNL     1      25.971   6.284  28.353  1.00  0.00    -0.003 C 
ATOM     20  C   UNL     1      26.683   7.617  28.585  1.00  0.00     0.004 C 
ENDBRANCH  18  19
ENDBRANCH  17  18
ENDBRANCH  16  17
ENDBRANCH  15  16
ENDBRANCH  14  15
ENDBRANCH  13  14
ENDBRANCH   2  13
TORSDOF 15
ENDMDL
MODEL 3
REMARK VINA RESULT:    -5.166      3.018      5.085
REMARK INTER + INTRA:         -12.403
REMARK INTER:                  -9.617
REMARK INTRA:                  -2.786
REMARK UNBOUND:                -2.707
REMARK SMILES CCCCCCCCC=CCCCCCCCC(=O)[O-]
REMARK SMILES IDX 10 1 9 2 11 3 12 4 13 5 14 6 15 7 16 8 17 9 18 10 19 11
REMARK SMILES IDX 20 12 8 13 7 14 6 15 5 16 4 17 3 18 2 19 1 20
REMARK H PARENT
REMARK Flexibility Score: inf
ROOT
ATOM      1  C   UNL     1      23.442   5.150  23.713  1.00  0.00    -0.031 C 
ATOM      2  C   UNL     1      22.439   5.757  23.051  1.00  0.00    -0.031 C 
ENDROOT
BRANCH   1   3
ATOM      3  C   UNL     1      23.385   4.692  25.152  1.00  0.00     0.027 C 
BRANCH   3   4
ATOM      4  C   UNL     1      23.364   3.163  25.248  1.00  0.00     0.004 C 
BRANCH   4   5
ATOM      5  C   UNL     1      21.991   2.579  24.870  1.00  0.00     0.000 C 
BRANCH   5   6
ATOM      6  C   UNL     1      22.096   1.412  23.876  1.00  0.00     0.000 C 
BRANCH   6   7
ATOM      7  C   UNL     1      23.330   1.510  22.966  1.00  0.00     0.000 C 
BRANCH   7   8
ATOM      8  C   UNL     1      23.322   0.400  21.909  1.00  0.00     0.006 C 
BRANCH   8   9
ATOM      9  C   UNL     1      24.529   0.525  20.974  1.00  0.00     0.053 C 
BRANCH   9  10
ATOM     10  C   UNL     1      25.129  -0.819  20.710  1.00  0.00     0.041 C 
ATOM     11  O   UNL     1      26.084  -0.940  19.897  1.00  0.00    -0.550 OA
ATOM     12  O   UNL     1      24.663  -1.934  21.394  1.00  0.00    -0.550 OA
ENDBRANCH   9  10
ENDBRANCH   8   9
ENDBRANCH   7   8
ENDBRANCH   6   7
ENDBRANCH   5   6
ENDBRANCH   4   5
ENDBRANCH   3   4
ENDBRANCH   1   3
BRANCH   2  13
ATOM     13  C   UNL     1      21.107   6.125  23.651  1.00  0.00     0.027 C 
BRANCH  13  14
ATOM     14  C   UNL     1      19.986   5.236  23.097  1.00  0.00     0.004 C 
BRANCH  14  15
ATOM     15  C   UNL     1      19.616   5.648  21.664  1.00  0.00     0.000 C 
BRANCH  15  16
ATOM     16  C   UNL     1      19.651   4.469  20.674  1.00  0.00     0.000 C 
BRANCH  16  17
ATOM     17  C   UNL     1      20.582   3.316  21.097  1.00  0.00    -0.000 C 
BRANCH  17  18
ATOM     18  C   UNL     1      21.229   2.577  19.904  1.00  0.00    -0.000 C 
BRANCH  18  19
ATOM     19  C   UNL     1      22.303   3.407  19.178  1.00  0.00    -0.003 C 
ATOM     20  C   UNL     1      23.394   3.917  20.118  1.00  0.00     0.004 C 
ENDBRANCH  18  19
ENDBRANCH  17  18
ENDBRANCH  16  17
ENDBRANCH  15  16
ENDBRANCH  14  15
ENDBRANCH  13  14
ENDBRANCH   2  13
TORSDOF 15
ENDMDL
MODEL 4
REMARK VINA RESULT:    -5.156      2.550      5.423
REMARK INTER + INTRA:         -12.385
REMARK INTER:                  -9.620
REMARK INTRA:                  -2.765
REMARK UNBOUND:                -2.707
REMARK SMILES CCCCCCCCC=CCCCCCCCC(=O)[O-]
REMARK SMILES IDX 10 1 9 2 11 3 12 4 13 5 14 6 15 7 16 8 17 9 18 10 19 11
REMARK SMILES IDX 20 12 8 13 7 14 6 15 5 16 4 17 3 18 2 19 1 20
REMARK H PARENT
REMARK Flexibility Score: inf
ROOT
ATOM      1  C   UNL     1      21.453   5.830  23.298  1.00  0.00    -0.031 C 
ATOM      2  C   UNL     1      20.194   5.735  22.831  1.00  0.00    -0.031 C 
ENDROOT
BRANCH   1   3
ATOM      3  C   UNL     1      22.527   6.732  22.733  1.00  0.00     0.027 C 
BRANCH   3   4
ATOM      4  C   UNL     1      23.671   6.927  23.734  1.00  0.00     0.004 C 
BRANCH   4   5
ATOM      5  C   UNL     1      23.200   6.764  25.190  1.00  0.00     0.000 C 
BRANCH   5   6
ATOM      6  C   UNL     1      23.861   5.571  25.897  1.00  0.00     0.000 C 
BRANCH   6   7
ATOM      7  C   UNL     1      24.772   4.754  24.968  1.00  0.00     0.000 C 
BRANCH   7   8
ATOM      8  C   UNL     1      24.093   3.445  24.548  1.00  0.00     0.006 C 
BRANCH   8   9
ATOM      9  C   UNL     1      22.967   3.075  25.519  1.00  0.00     0.053 C 
BRANCH   9  10
ATOM     10  C   UNL     1      22.231   1.867  25.034  1.00  0.00     0.041 C 
ATOM     11  O   UNL     1      22.750   1.112  24.170  1.00  0.00    -0.550 OA
ATOM     12  O   UNL     1      20.988   1.551  25.566  1.00  0.00    -0.550 OA
ENDBRANCH   9  10
ENDBRANCH   8   9
ENDBRANCH   7   8
ENDBRANCH   6   7
ENDBRANCH   5   6
ENDBRANCH   4   5
ENDBRANCH   3   4
ENDBRANCH   1   3
BRANCH   2  13
ATOM     13  C   UNL     1      19.660   6.477  21.633  1.00  0.00     0.027 C 
BRANCH  13  14
ATOM     14  C   UNL     1      19.721   5.606  20.371  1.00  0.00     0.004 C 
BRANCH  14  15
ATOM     15  C   UNL     1      20.388   6.364  19.213  1.00  0.00     0.000 C 
BRANCH  15  16
ATOM     16  C   UNL     1      21.735   5.747  18.790  1.00  0.00     0.000 C 
BRANCH  16  17
ATOM     17  C   UNL     1      21.810   4.217  18.961  1.00  0.00    -0.000 C 
BRANCH  17  18
ATOM     18  C   UNL     1      23.033   3.747  19.779  1.00  0.00    -0.000 C 
BRANCH  18  19
ATOM     19  C   UNL     1      22.678   3.283  21.203  1.00  0.00    -0.003 C 
ATOM     20  C   UNL     1      21.433   2.398  21.244  1.00  0.00     0.004 C 
ENDBRANCH  18  19
ENDBRANCH  17  18
ENDBRANCH  16  17
ENDBRANCH  15  16
ENDBRANCH  14  15
ENDBRANCH  13  14
ENDBRANCH   2  13
TORSDOF 15
ENDMDL
MODEL 5
REMARK VINA RESULT:    -5.129      1.889      2.777
REMARK INTER + INTRA:         -12.333
REMARK INTER:                  -9.627
REMARK INTRA:                  -2.707
REMARK UNBOUND:                -2.707
REMARK SMILES CCCCCCCCC=CCCCCCCCC(=O)[O-]
REMARK SMILES IDX 10 1 9 2 11 3 12 4 13 5 14 6 15 7 16 8 17 9 18 10 19 11
REMARK SMILES IDX 20 12 8 13 7 14 6 15 5 16 4 17 3 18 2 19 1 20
REMARK H PARENT
REMARK Flexibility Score: inf
ROOT
ATOM      1  C   UNL     1      24.481   4.436  24.790  1.00  0.00    -0.031 C 
ATOM      2  C   UNL     1      23.848   3.255  24.661  1.00  0.00    -0.031 C 
ENDROOT
BRANCH   1   3
ATOM      3  C   UNL     1      24.169   5.483  25.835  1.00  0.00     0.027 C 
BRANCH   3   4
ATOM      4  C   UNL     1      23.350   6.634  25.241  1.00  0.00     0.004 C 
BRANCH   4   5
ATOM      5  C   UNL     1      23.655   6.850  23.748  1.00  0.00     0.000 C 
BRANCH   5   6
ATOM      6  C   UNL     1      22.420   6.654  22.856  1.00  0.00     0.000 C 
BRANCH   6   7
ATOM      7  C   UNL     1      21.286   5.895  23.563  1.00  0.00     0.000 C 
BRANCH   7   8
ATOM      8  C   UNL     1      20.902   4.632  22.783  1.00  0.00     0.006 C 
BRANCH   8   9
ATOM      9  C   UNL     1      21.853   4.406  21.604  1.00  0.00     0.053 C 
BRANCH   9  10
ATOM     10  C   UNL     1      21.156   3.677  20.499  1.00  0.00     0.041 C 
ATOM     11  O   UNL     1      19.953   3.326  20.630  1.00  0.00    -0.550 OA
ATOM     12  O   UNL     1      21.821   3.422  19.307  1.00  0.00    -0.550 OA
ENDBRANCH   9  10
ENDBRANCH   8   9
ENDBRANCH   7   8
ENDBRANCH   6   7
ENDBRANCH   5   6
ENDBRANCH   4   5
ENDBRANCH   3   4
ENDBRANCH   1   3
BRANCH   2  13
ATOM     13  C   UNL     1      22.687   2.801  25.508  1.00  0.00     0.027 C 
BRANCH  13  14
ATOM     14  C   UNL     1      21.987   1.588  24.881  1.00  0.00     0.004 C 
BRANCH  14  15
ATOM     15  C   UNL     1      22.805   1.028  23.707  1.00  0.00     0.000 C 
BRANCH  15  16
ATOM     16  C   UNL     1      21.951   0.771  22.451  1.00  0.00     0.000 C 
BRANCH  16  17
ATOM     17  C   UNL     1      22.765   0.365  21.206  1.00  0.00    -0.000 C 
BRANCH  17  18
ATOM     18  C   UNL     1      24.070   1.173  21.032  1.00  0.00    -0.000 C 
BRANCH  18  19
ATOM     19  C   UNL     1      25.292   0.300  20.697  1.00  0.00    -0.003 C 
ATOM     20  C   UNL     1      25.086  -0.552  19.445  1.00  0.00     0.004 C 
ENDBRANCH  18  19
ENDBRANCH  17  18
ENDBRANCH  16  17
ENDBRANCH  15  16
ENDBRANCH  14  15
ENDBRANCH  13  14
ENDBRANCH   2  13
TORSDOF 15
ENDMDL
MODEL 6
REMARK VINA RESULT:    -5.111      1.111      3.879
REMARK INTER + INTRA:         -12.301
REMARK INTER:                  -9.555
REMARK INTRA:                  -2.746
REMARK UNBOUND:                -2.707
REMARK SMILES CCCCCCCCC=CCCCCCCCC(=O)[O-]
REMARK SMILES IDX 10 1 9 2 11 3 12 4 13 5 14 6 15 7 16 8 17 9 18 10 19 11
REMARK SMILES IDX 20 12 8 13 7 14 6 15 5 16 4 17 3 18 2 19 1 20
REMARK H PARENT
REMARK Flexibility Score: inf
ROOT
ATOM      1  C   UNL     1      22.016   1.580  24.581  1.00  0.00    -0.031 C 
ATOM      2  C   UNL     1      22.611   2.565  25.279  1.00  0.00    -0.031 C 
ENDROOT
BRANCH   1   3
ATOM      3  C   UNL     1      22.466   1.074  23.229  1.00  0.00     0.027 C 
BRANCH   3   4
ATOM      4  C   UNL     1      21.789   1.848  22.093  1.00  0.00     0.004 C 
BRANCH   4   5
ATOM      5  C   UNL     1      22.768   2.174  20.952  1.00  0.00     0.000 C 
BRANCH   5   6
ATOM      6  C   UNL     1      22.380   3.445  20.180  1.00  0.00     0.000 C 
BRANCH   6   7
ATOM      7  C   UNL     1      23.598   4.258  19.716  1.00  0.00     0.000 C 
BRANCH   7   8
ATOM      8  C   UNL     1      23.184   5.670  19.289  1.00  0.00     0.006 C 
BRANCH   8   9
ATOM      9  C   UNL     1      21.752   5.681  18.745  1.00  0.00     0.053 C 
BRANCH   9  10
ATOM     10  C   UNL     1      21.105   7.005  18.996  1.00  0.00     0.041 C 
ATOM     11  O   UNL     1      21.803   8.052  19.059  1.00  0.00    -0.550 OA
ATOM     12  O   UNL     1      19.724   7.091  19.120  1.00  0.00    -0.550 OA
ENDBRANCH   9  10
ENDBRANCH   8   9
ENDBRANCH   7   8
ENDBRANCH   6   7
ENDBRANCH   5   6
ENDBRANCH   4   5
ENDBRANCH   3   4
ENDBRANCH   1   3
BRANCH   2  13
ATOM     13  C   UNL     1      23.797   3.364  24.804  1.00  0.00     0.027 C 
BRANCH  13  14
ATOM     14  C   UNL     1      23.945   4.664  25.606  1.00  0.00     0.004 C 
BRANCH  14  15
ATOM     15  C   UNL     1      23.075   5.780  25.006  1.00  0.00     0.000 C 
BRANCH  15  16
ATOM     16  C   UNL     1      23.309   5.976  23.496  1.00  0.00     0.000 C 
BRANCH  16  17
ATOM     17  C   UNL     1      22.020   6.193  22.679  1.00  0.00    -0.000 C 
BRANCH  17  18
ATOM     18  C   UNL     1      20.855   5.275  23.111  1.00  0.00    -0.000 C 
BRANCH  18  19
ATOM     19  C   UNL     1      19.537   5.569  22.373  1.00  0.00    -0.003 C 
ATOM     20  C   UNL     1      19.220   4.536  21.292  1.00  0.00     0.004 C 
ENDBRANCH  18  19
ENDBRANCH  17  18
ENDBRANCH  16  17
ENDBRANCH  15  16
ENDBRANCH  14  15
ENDBRANCH  13  14
ENDBRANCH   2  13
TORSDOF 15
ENDMDL
MODEL 7
REMARK VINA RESULT:    -5.089      2.686      5.247
REMARK INTER + INTRA:         -12.258
REMARK INTER:                  -9.657
REMARK INTRA:                  -2.601
REMARK UNBOUND:                -2.707
REMARK SMILES CCCCCCCCC=CCCCCCCCC(=O)[O-]
REMARK SMILES IDX 10 1 9 2 11 3 12 4 13 5 14 6 15 7 16 8 17 9 18 10 19 11
REMARK SMILES IDX 20 12 8 13 7 14 6 15 5 16 4 17 3 18 2 19 1 20
REMARK H PARENT
REMARK Flexibility Score: inf
ROOT
ATOM      1  C   UNL     1      24.103   6.801  22.590  1.00  0.00    -0.031 C 
ATOM      2  C   UNL     1      22.962   6.127  22.359  1.00  0.00    -0.031 C 
ENDROOT
BRANCH   1   3
ATOM      3  C   UNL     1      24.306   7.824  23.685  1.00  0.00     0.027 C 
BRANCH   3   4
ATOM      4  C   UNL     1      25.609   7.569  24.451  1.00  0.00     0.004 C 
BRANCH   4   5
ATOM      5  C   UNL     1      25.363   7.358  25.955  1.00  0.00     0.000 C 
BRANCH   5   6
ATOM      6  C   UNL     1      24.251   6.336  26.237  1.00  0.00     0.000 C 
BRANCH   6   7
ATOM      7  C   UNL     1      24.647   4.901  25.856  1.00  0.00     0.000 C 
BRANCH   7   8
ATOM      8  C   UNL     1      23.410   4.066  25.504  1.00  0.00     0.006 C 
BRANCH   8   9
ATOM      9  C   UNL     1      23.718   3.079  24.374  1.00  0.00     0.053 C 
BRANCH   9  10
ATOM     10  C   UNL     1      22.821   1.886  24.460  1.00  0.00     0.041 C 
ATOM     11  O   UNL     1      21.866   1.867  25.281  1.00  0.00    -0.550 OA
ATOM     12  O   UNL     1      23.013   0.809  23.604  1.00  0.00    -0.550 OA
ENDBRANCH   9  10
ENDBRANCH   8   9
ENDBRANCH   7   8
ENDBRANCH   6   7
ENDBRANCH   5   6
ENDBRANCH   4   5
ENDBRANCH   3   4
ENDBRANCH   1   3
BRANCH   2  13
ATOM     13  C   UNL     1      21.678   6.316  23.125  1.00  0.00     0.027 C 
BRANCH  13  14
ATOM     14  C   UNL     1      20.826   5.040  23.099  1.00  0.00     0.004 C 
BRANCH  14  15
ATOM     15  C   UNL     1      19.463   5.304  22.439  1.00  0.00     0.000 C 
BRANCH  15  16
ATOM     16  C   UNL     1      19.340   4.663  21.043  1.00  0.00     0.000 C 
BRANCH  16  17
ATOM     17  C   UNL     1      20.418   3.604  20.737  1.00  0.00    -0.000 C 
BRANCH  17  18
ATOM     18  C   UNL     1      21.428   4.048  19.655  1.00  0.00    -0.000 C 
BRANCH  18  19
ATOM     19  C   UNL     1      21.182   5.475  19.135  1.00  0.00    -0.003 C 
ATOM     20  C   UNL     1      22.451   6.137  18.600  1.00  0.00     0.004 C 
ENDBRANCH  18  19
ENDBRANCH  17  18
ENDBRANCH  16  17
ENDBRANCH  15  16
ENDBRANCH  14  15
ENDBRANCH  13  14
ENDBRANCH   2  13
TORSDOF 15
ENDMDL
MODEL 8
REMARK VINA RESULT:    -5.056      1.336      2.066
REMARK INTER + INTRA:         -12.197
REMARK INTER:                  -9.455
REMARK INTRA:                  -2.742
REMARK UNBOUND:                -2.707
REMARK SMILES CCCCCCCCC=CCCCCCCCC(=O)[O-]
REMARK SMILES IDX 10 1 9 2 11 3 12 4 13 5 14 6 15 7 16 8 17 9 18 10 19 11
REMARK SMILES IDX 20 12 8 13 7 14 6 15 5 16 4 17 3 18 2 19 1 20
REMARK H PARENT
REMARK Flexibility Score: inf
ROOT
ATOM      1  C   UNL     1      22.566   6.037  23.117  1.00  0.00    -0.031 C 
ATOM      2  C   UNL     1      23.667   5.451  23.625  1.00  0.00    -0.031 C 
ENDROOT
BRANCH   1   3
ATOM      3  C   UNL     1      21.222   6.112  23.805  1.00  0.00     0.027 C 
BRANCH   3   4
ATOM      4  C   UNL     1      20.164   5.302  23.048  1.00  0.00     0.004 C 
BRANCH   4   5
ATOM      5  C   UNL     1      19.576   6.086  21.862  1.00  0.00     0.000 C 
BRANCH   5   6
ATOM      6  C   UNL     1      19.560   5.271  20.560  1.00  0.00     0.000 C 
BRANCH   6   7
ATOM      7  C   UNL     1      20.028   6.081  19.341  1.00  0.00     0.000 C 
BRANCH   7   8
ATOM      8  C   UNL     1      21.361   6.782  19.628  1.00  0.00     0.006 C 
BRANCH   8   9
ATOM      9  C   UNL     1      22.538   5.966  19.084  1.00  0.00     0.053 C 
BRANCH   9  10
ATOM     10  C   UNL     1      22.390   5.752  17.611  1.00  0.00     0.041 C 
ATOM     11  O   UNL     1      22.200   4.594  17.153  1.00  0.00    -0.550 OA
ATOM     12  O   UNL     1      22.421   6.837  16.745  1.00  0.00    -0.550 OA
ENDBRANCH   9  10
ENDBRANCH   8   9
ENDBRANCH   7   8
ENDBRANCH   6   7
ENDBRANCH   5   6
ENDBRANCH   4   5
ENDBRANCH   3   4
ENDBRANCH   1   3
BRANCH   2  13
ATOM     13  C   UNL     1      23.728   4.729  24.946  1.00  0.00     0.027 C 
BRANCH  13  14
ATOM     14  C   UNL     1      23.766   3.209  24.743  1.00  0.00     0.004 C 
BRANCH  14  15
ATOM     15  C   UNL     1      22.640   2.522  25.531  1.00  0.00     0.000 C 
BRANCH  15  16
ATOM     16  C   UNL     1      21.780   1.590  24.655  1.00  0.00     0.000 C 
BRANCH  16  17
ATOM     17  C   UNL     1      22.446   1.176  23.329  1.00  0.00    -0.000 C 
BRANCH  17  18
ATOM     18  C   UNL     1      21.657   1.621  22.077  1.00  0.00    -0.000 C 
BRANCH  18  19
ATOM     19  C   UNL     1      22.297   2.809  21.338  1.00  0.00    -0.003 C 
ATOM     20  C   UNL     1      22.952   2.402  20.018  1.00  0.00     0.004 C 
ENDBRANCH  18  19
ENDBRANCH  17  18
ENDBRANCH  16  17
ENDBRANCH  15  16
ENDBRANCH  14  15
ENDBRANCH  13  14
ENDBRANCH   2  13
TORSDOF 15
ENDMDL
MODEL 9
REMARK VINA RESULT:    -5.027      2.051      4.668
REMARK INTER + INTRA:         -12.142
REMARK INTER:                  -9.629
REMARK INTRA:                  -2.513
REMARK UNBOUND:                -2.707
REMARK SMILES CCCCCCCCC=CCCCCCCCC(=O)[O-]
REMARK SMILES IDX 10 1 9 2 11 3 12 4 13 5 14 6 15 7 16 8 17 9 18 10 19 11
REMARK SMILES IDX 20 12 8 13 7 14 6 15 5 16 4 17 3 18 2 19 1 20
REMARK H PARENT
REMARK Flexibility Score: inf
ROOT
ATOM      1  C   UNL     1      23.360   3.402  25.235  1.00  0.00    -0.031 C 
ATOM      2  C   UNL     1      23.582   4.508  24.500  1.00  0.00    -0.031 C 
ENDROOT
BRANCH   1   3
ATOM      3  C   UNL     1      22.301   2.363  24.949  1.00  0.00     0.027 C 
BRANCH   3   4
ATOM      4  C   UNL     1      22.861   1.220  24.094  1.00  0.00     0.004 C 
BRANCH   4   5
ATOM      5  C   UNL     1      22.329   1.265  22.651  1.00  0.00     0.000 C 
BRANCH   5   6
ATOM      6  C   UNL     1      23.432   1.043  21.604  1.00  0.00     0.000 C 
BRANCH   6   7
ATOM      7  C   UNL     1      23.069  -0.037  20.573  1.00  0.00     0.000 C 
BRANCH   7   8
ATOM      8  C   UNL     1      23.346   0.452  19.147  1.00  0.00     0.006 C 
BRANCH   8   9
ATOM      9  C   UNL     1      24.609   1.319  19.101  1.00  0.00     0.053 C 
BRANCH   9  10
ATOM     10  C   UNL     1      24.841   1.835  17.716  1.00  0.00     0.041 C 
ATOM     11  O   UNL     1      25.726   1.317  16.985  1.00  0.00    -0.550 OA
ATOM     12  O   UNL     1      24.050   2.861  17.216  1.00  0.00    -0.550 OA
ENDBRANCH   9  10
ENDBRANCH   8   9
ENDBRANCH   7   8
ENDBRANCH   6   7
ENDBRANCH   5   6
ENDBRANCH   4   5
ENDBRANCH   3   4
ENDBRANCH   1   3
BRANCH   2  13
ATOM     13  C   UNL     1      22.776   4.919  23.295  1.00  0.00     0.027 C 
BRANCH  13  14
ATOM     14  C   UNL     1      21.618   5.843  23.693  1.00  0.00     0.004 C 
BRANCH  14  15
ATOM     15  C   UNL     1      20.267   5.242  23.273  1.00  0.00     0.000 C 
BRANCH  15  16
ATOM     16  C   UNL     1      19.602   6.014  22.118  1.00  0.00     0.000 C 
BRANCH  16  17
ATOM     17  C   UNL     1      19.605   5.263  20.772  1.00  0.00    -0.000 C 
BRANCH  17  18
ATOM     18  C   UNL     1      20.043   3.786  20.891  1.00  0.00    -0.000 C 
BRANCH  18  19
ATOM     19  C   UNL     1      21.079   3.366  19.832  1.00  0.00    -0.003 C 
ATOM     20  C   UNL     1      22.343   4.224  19.868  1.00  0.00     0.004 C 
ENDBRANCH  18  19
ENDBRANCH  17  18
ENDBRANCH  16  17
ENDBRANCH  15  16
ENDBRANCH  14  15
ENDBRANCH  13  14
ENDBRANCH   2  13
TORSDOF 15
ENDMDL
