MODEL 1
REMARK VINA RESULT:    -3.422      0.000      0.000
REMARK INTER + INTRA:         -14.243
REMARK INTER:                  -8.624
REMARK INTRA:                  -5.619
REMARK UNBOUND:                -5.619
REMARK SMILES CCCCCCCCCCCCCCCCCCCCCCCCCCCC(=O)[O-]
REMARK SMILES IDX 15 1 16 2 17 3 18 4 19 5 20 6 21 7 22 8 23 9 24 10 25 11
REMARK SMILES IDX 26 12 27 13 28 14 29 15 30 16 14 17 13 18 12 19 11 20 10 21
REMARK SMILES IDX 9 22 8 23 7 24 6 25 5 26 4 27 3 28 2 29 1 30
REMARK H PARENT
REMARK Flexibility Score: inf
ROOT
ATOM      1  C   UNL     1      15.988  14.386  30.304  1.00  0.00     0.000 C 
ENDROOT
BRANCH   1   2
ATOM      2  C   UNL     1      17.212  15.097  30.904  1.00  0.00     0.000 C 
BRANCH   2   3
ATOM      3  C   UNL     1      17.989  14.206  31.891  1.00  0.00     0.000 C 
BRANCH   3   4
ATOM      4  C   UNL     1      17.283  12.890  32.264  1.00  0.00     0.000 C 
BRANCH   4   5
ATOM      5  C   UNL     1      18.062  11.642  31.804  1.00  0.00     0.000 C 
BRANCH   5   6
ATOM      6  C   UNL     1      18.797  11.864  30.464  1.00  0.00     0.000 C 
BRANCH   6   7
ATOM      7  C   UNL     1      17.992  11.429  29.229  1.00  0.00     0.000 C 
BRANCH   7   8
ATOM      8  C   UNL     1      18.280  12.299  27.997  1.00  0.00     0.000 C 
BRANCH   8   9
ATOM      9  C   UNL     1      19.268  13.446  28.285  1.00  0.00     0.000 C 
BRANCH   9  10
ATOM     10  C   UNL     1      18.897  14.806  27.661  1.00  0.00     0.000 C 
BRANCH  10  11
ATOM     11  C   UNL     1      17.770  14.701  26.616  1.00  0.00     0.000 C 
BRANCH  11  12
ATOM     12  C   UNL     1      17.629  15.975  25.769  1.00  0.00     0.006 C 
BRANCH  12  13
ATOM     13  C   UNL     1      16.194  16.195  25.272  1.00  0.00     0.053 C 
BRANCH  13  14
ATOM     14  C   UNL     1      15.767  15.059  24.399  1.00  0.00     0.041 C 
ATOM     15  O   UNL     1      16.337  14.859  23.295  1.00  0.00    -0.550 OA
ATOM     16  O   UNL     1      14.707  14.247  24.785  1.00  0.00    -0.550 OA
ENDBRANCH  13  14
ENDBRANCH  12  13
ENDBRANCH  11  12
ENDBRANCH  10  11
ENDBRANCH   9  10
ENDBRANCH   8   9
ENDBRANCH   7   8
ENDBRANCH   6   7
ENDBRANCH   5   6
ENDBRANCH   4   5
ENDBRANCH   3   4
ENDBRANCH   2   3
ENDBRANCH   1   2
BRANCH   1  17
ATOM     17  C   UNL     1      15.183  15.290  29.357  1.00  0.00     0.000 C 
BRANCH  17  18
ATOM     18  C   UNL     1      14.507  14.511  28.219  1.00  0.00     0.000 C 
BRANCH  18  19
ATOM     19  C   UNL     1      14.852  13.017  28.296  1.00  0.00     0.000 C 
BRANCH  19  20
ATOM     20  C   UNL     1      13.650  12.116  27.968  1.00  0.00     0.000 C 
BRANCH  20  21
ATOM     21  C   UNL     1      13.159  11.310  29.185  1.00  0.00     0.000 C 
BRANCH  21  22
ATOM     22  C   UNL     1      14.108  11.435  30.388  1.00  0.00    -0.000 C 
BRANCH  22  23
ATOM     23  C   UNL     1      13.458  12.172  31.572  1.00  0.00    -0.000 C 
BRANCH  23  24
ATOM     24  C   UNL     1      12.065  12.733  31.235  1.00  0.00    -0.000 C 
BRANCH  24  25
ATOM     25  C   UNL     1      11.826  14.190  31.683  1.00  0.00    -0.000 C 
BRANCH  25  26
ATOM     26  C   UNL     1      11.459  15.141  30.524  1.00  0.00    -0.000 C 
BRANCH  26  27
ATOM     27  C   UNL     1      11.031  14.376  29.261  1.00  0.00    -0.000 C 
BRANCH  27  28
ATOM     28  C   UNL     1       9.594  14.723  28.861  1.00  0.00    -0.000 C 
BRANCH  28  29
ATOM     29  C   UNL     1       9.509  15.073  27.372  1.00  0.00    -0.003 C 
ATOM     30  C   UNL     1       8.832  16.424  27.164  1.00  0.00     0.004 C 
ENDBRANCH  28  29
ENDBRANCH  27  28
ENDBRANCH  26  27
ENDBRANCH  25  26
ENDBRANCH  24  25
ENDBRANCH  23  24
ENDBRANCH  22  23
ENDBRANCH  21  22
ENDBRANCH  20  21
ENDBRANCH  19  20
ENDBRANCH  18  19
ENDBRANCH  17  18
ENDBRANCH   1  17
TORSDOF 26
ENDMDL
MODEL 2
REMARK VINA RESULT:    -3.404      2.991      7.080
REMARK INTER + INTRA:         -14.198
REMARK INTER:                  -9.001
REMARK INTRA:                  -5.197
REMARK UNBOUND:                -5.619
REMARK SMILES CCCCCCCCCCCCCCCCCCCCCCCCCCCC(=O)[O-]
REMARK SMILES IDX 15 1 16 2 17 3 18 4 19 5 20 6 21 7 22 8 23 9 24 10 25 11
REMARK SMILES IDX 26 12 27 13 28 14 29 15 30 16 14 17 13 18 12 19 11 20 10 21
REMARK SMILES IDX 9 22 8 23 7 24 6 25 5 26 4 27 3 28 2 29 1 30
REMARK H PARENT
REMARK Flexibility Score: inf
ROOT
ATOM      1  C   UNL     1      15.858  15.621  28.248  1.00  0.00     0.000 C 
ENDROOT
BRANCH   1   2
ATOM      2  C   UNL     1      17.068  14.894  27.639  1.00  0.00     0.000 C 
BRANCH   2   3
ATOM      3  C   UNL     1      17.235  15.178  26.135  1.00  0.00     0.000 C 
BRANCH   3   4
ATOM      4  C   UNL     1      16.289  16.256  25.576  1.00  0.00     0.000 C 
BRANCH   4   5
ATOM      5  C   UNL     1      15.734  15.901  24.183  1.00  0.00     0.000 C 
BRANCH   5   6
ATOM      6  C   UNL     1      15.469  14.387  24.020  1.00  0.00     0.000 C 
BRANCH   6   7
ATOM      7  C   UNL     1      13.980  14.021  23.914  1.00  0.00     0.000 C 
BRANCH   7   8
ATOM      8  C   UNL     1      13.604  12.814  24.787  1.00  0.00     0.000 C 
BRANCH   8   9
ATOM      9  C   UNL     1      14.076  12.954  26.246  1.00  0.00     0.000 C 
BRANCH   9  10
ATOM     10  C   UNL     1      12.987  13.377  27.252  1.00  0.00     0.000 C 
BRANCH  10  11
ATOM     11  C   UNL     1      13.374  13.088  28.715  1.00  0.00     0.000 C 
BRANCH  11  12
ATOM     12  C   UNL     1      12.240  13.409  29.700  1.00  0.00     0.006 C 
BRANCH  12  13
ATOM     13  C   UNL     1      12.757  13.990  31.023  1.00  0.00     0.053 C 
BRANCH  13  14
ATOM     14  C   UNL     1      11.635  14.135  32.000  1.00  0.00     0.041 C 
ATOM     15  O   UNL     1      10.708  14.958  31.782  1.00  0.00    -0.550 OA
ATOM     16  O   UNL     1      11.637  13.393  33.175  1.00  0.00    -0.550 OA
ENDBRANCH  13  14
ENDBRANCH  12  13
ENDBRANCH  11  12
ENDBRANCH  10  11
ENDBRANCH   9  10
ENDBRANCH   8   9
ENDBRANCH   7   8
ENDBRANCH   6   7
ENDBRANCH   5   6
ENDBRANCH   4   5
ENDBRANCH   3   4
ENDBRANCH   2   3
ENDBRANCH   1   2
BRANCH   1  17
ATOM     17  C   UNL     1      16.067  15.982  29.728  1.00  0.00     0.000 C 
BRANCH  17  18
ATOM     18  C   UNL     1      17.110  15.089  30.418  1.00  0.00     0.000 C 
BRANCH  18  19
ATOM     19  C   UNL     1      16.439  13.888  31.100  1.00  0.00     0.000 C 
BRANCH  19  20
ATOM     20  C   UNL     1      17.359  13.200  32.122  1.00  0.00     0.000 C 
BRANCH  20  21
ATOM     21  C   UNL     1      18.591  14.051  32.483  1.00  0.00     0.000 C 
BRANCH  21  22
ATOM     22  C   UNL     1      19.907  13.386  32.045  1.00  0.00    -0.000 C 
BRANCH  22  23
ATOM     23  C   UNL     1      20.501  14.040  30.785  1.00  0.00    -0.000 C 
BRANCH  23  24
ATOM     24  C   UNL     1      20.695  13.043  29.629  1.00  0.00    -0.000 C 
BRANCH  24  25
ATOM     25  C   UNL     1      19.389  12.471  29.040  1.00  0.00    -0.000 C 
BRANCH  25  26
ATOM     26  C   UNL     1      19.204  10.961  29.299  1.00  0.00    -0.000 C 
BRANCH  26  27
ATOM     27  C   UNL     1      17.722  10.573  29.429  1.00  0.00    -0.000 C 
BRANCH  27  28
ATOM     28  C   UNL     1      16.842  11.418  28.504  1.00  0.00    -0.000 C 
BRANCH  28  29
ATOM     29  C   UNL     1      16.590  10.696  27.177  1.00  0.00    -0.003 C 
ATOM     30  C   UNL     1      17.457  11.277  26.064  1.00  0.00     0.004 C 
ENDBRANCH  28  29
ENDBRANCH  27  28
ENDBRANCH  26  27
ENDBRANCH  25  26
ENDBRANCH  24  25
ENDBRANCH  23  24
ENDBRANCH  22  23
ENDBRANCH  21  22
ENDBRANCH  20  21
ENDBRANCH  19  20
ENDBRANCH  18  19
ENDBRANCH  17  18
ENDBRANCH   1  17
TORSDOF 26
ENDMDL
MODEL 3
REMARK VINA RESULT:    -3.353      2.117      6.568
REMARK INTER + INTRA:         -14.070
REMARK INTER:                  -9.244
REMARK INTRA:                  -4.826
REMARK UNBOUND:                -5.619
REMARK SMILES CCCCCCCCCCCCCCCCCCCCCCCCCCCC(=O)[O-]
REMARK SMILES IDX 15 1 16 2 17 3 18 4 19 5 20 6 21 7 22 8 23 9 24 10 25 11
REMARK SMILES IDX 26 12 27 13 28 14 29 15 30 16 14 17 13 18 12 19 11 20 10 21
REMARK SMILES IDX 9 22 8 23 7 24 6 25 5 26 4 27 3 28 2 29 1 30
REMARK H PARENT
REMARK Flexibility Score: inf
ROOT
ATOM      1  C   UNL     1      15.924  15.669  29.176  1.00  0.00     0.000 C 
ENDROOT
BRANCH   1   2
ATOM      2  C   UNL     1      16.866  15.612  30.390  1.00  0.00     0.000 C 
BRANCH   2   3
ATOM      3  C   UNL     1      17.508  14.225  30.577  1.00  0.00     0.000 C 
BRANCH   3   4
ATOM      4  C   UNL     1      17.551  13.727  32.034  1.00  0.00     0.000 C 
BRANCH   4   5
ATOM      5  C   UNL     1      16.643  12.506  32.276  1.00  0.00     0.000 C 
BRANCH   5   6
ATOM      6  C   UNL     1      16.251  11.791  30.963  1.00  0.00     0.000 C 
BRANCH   6   7
ATOM      7  C   UNL     1      14.747  11.500  30.834  1.00  0.00     0.000 C 
BRANCH   7   8
ATOM      8  C   UNL     1      13.924  12.126  31.969  1.00  0.00     0.000 C 
BRANCH   8   9
ATOM      9  C   UNL     1      12.543  12.630  31.507  1.00  0.00     0.000 C 
BRANCH   9  10
ATOM     10  C   UNL     1      11.987  13.836  32.290  1.00  0.00     0.000 C 
BRANCH  10  11
ATOM     11  C   UNL     1      10.866  14.576  31.538  1.00  0.00     0.000 C 
BRANCH  11  12
ATOM     12  C   UNL     1      10.647  14.031  30.118  1.00  0.00     0.006 C 
BRANCH  12  13
ATOM     13  C   UNL     1      10.890  15.092  29.037  1.00  0.00     0.053 C 
BRANCH  13  14
ATOM     14  C   UNL     1       9.837  15.008  27.980  1.00  0.00     0.041 C 
ATOM     15  O   UNL     1       9.664  13.936  27.341  1.00  0.00    -0.550 OA
ATOM     16  O   UNL     1       9.074  16.127  27.669  1.00  0.00    -0.550 OA
ENDBRANCH  13  14
ENDBRANCH  12  13
ENDBRANCH  11  12
ENDBRANCH  10  11
ENDBRANCH   9  10
ENDBRANCH   8   9
ENDBRANCH   7   8
ENDBRANCH   6   7
ENDBRANCH   5   6
ENDBRANCH   4   5
ENDBRANCH   3   4
ENDBRANCH   2   3
ENDBRANCH   1   2
BRANCH   1  17
ATOM     17  C   UNL     1      14.711  14.736  29.324  1.00  0.00     0.000 C 
BRANCH  17  18
ATOM     18  C   UNL     1      14.244  14.148  27.984  1.00  0.00     0.000 C 
BRANCH  18  19
ATOM     19  C   UNL     1      15.124  12.960  27.568  1.00  0.00     0.000 C 
BRANCH  19  20
ATOM     20  C   UNL     1      15.173  12.767  26.044  1.00  0.00     0.000 C 
BRANCH  20  21
ATOM     21  C   UNL     1      14.002  13.454  25.317  1.00  0.00     0.000 C 
BRANCH  21  22
ATOM     22  C   UNL     1      14.395  13.948  23.916  1.00  0.00    -0.000 C 
BRANCH  22  23
ATOM     23  C   UNL     1      15.798  14.582  23.891  1.00  0.00    -0.000 C 
BRANCH  23  24
ATOM     24  C   UNL     1      15.800  16.046  24.364  1.00  0.00    -0.000 C 
BRANCH  24  25
ATOM     25  C   UNL     1      16.568  16.303  25.677  1.00  0.00    -0.000 C 
BRANCH  25  26
ATOM     26  C   UNL     1      17.997  15.722  25.681  1.00  0.00    -0.000 C 
BRANCH  26  27
ATOM     27  C   UNL     1      18.196  14.680  26.795  1.00  0.00    -0.000 C 
BRANCH  27  28
ATOM     28  C   UNL     1      19.541  13.963  26.652  1.00  0.00    -0.000 C 
BRANCH  28  29
ATOM     29  C   UNL     1      20.107  13.583  28.023  1.00  0.00    -0.003 C 
ATOM     30  C   UNL     1      19.716  12.158  28.402  1.00  0.00     0.004 C 
ENDBRANCH  28  29
ENDBRANCH  27  28
ENDBRANCH  26  27
ENDBRANCH  25  26
ENDBRANCH  24  25
ENDBRANCH  23  24
ENDBRANCH  22  23
ENDBRANCH  21  22
ENDBRANCH  20  21
ENDBRANCH  19  20
ENDBRANCH  18  19
ENDBRANCH  17  18
ENDBRANCH   1  17
TORSDOF 26
ENDMDL
MODEL 4
REMARK VINA RESULT:    -3.319      2.154      6.328
REMARK INTER + INTRA:         -13.982
REMARK INTER:                  -8.731
REMARK INTRA:                  -5.251
REMARK UNBOUND:                -5.619
REMARK SMILES CCCCCCCCCCCCCCCCCCCCCCCCCCCC(=O)[O-]
REMARK SMILES IDX 15 1 16 2 17 3 18 4 19 5 20 6 21 7 22 8 23 9 24 10 25 11
REMARK SMILES IDX 26 12 27 13 28 14 29 15 30 16 14 17 13 18 12 19 11 20 10 21
REMARK SMILES IDX 9 22 8 23 7 24 6 25 5 26 4 27 3 28 2 29 1 30
REMARK H PARENT
REMARK Flexibility Score: inf
ROOT
ATOM      1  C   UNL     1      17.338  14.472  31.380  1.00  0.00     0.000 C 
ENDROOT
BRANCH   1   2
ATOM      2  C   UNL     1      17.406  15.604  30.341  1.00  0.00     0.000 C 
BRANCH   2   3
ATOM      3  C   UNL     1      16.031  15.928  29.727  1.00  0.00     0.000 C 
BRANCH   3   4
ATOM      4  C   UNL     1      15.898  15.585  28.232  1.00  0.00     0.000 C 
BRANCH   4   5
ATOM      5  C   UNL     1      14.836  14.502  27.959  1.00  0.00     0.000 C 
BRANCH   5   6
ATOM      6  C   UNL     1      15.429  13.076  27.970  1.00  0.00     0.000 C 
BRANCH   6   7
ATOM      7  C   UNL     1      14.597  12.059  28.768  1.00  0.00     0.000 C 
BRANCH   7   8
ATOM      8  C   UNL     1      15.017  11.978  30.243  1.00  0.00     0.000 C 
BRANCH   8   9
ATOM      9  C   UNL     1      14.083  12.766  31.181  1.00  0.00     0.000 C 
BRANCH   9  10
ATOM     10  C   UNL     1      12.726  13.170  30.571  1.00  0.00     0.000 C 
BRANCH  10  11
ATOM     11  C   UNL     1      11.940  14.158  31.453  1.00  0.00     0.000 C 
BRANCH  11  12
ATOM     12  C   UNL     1      11.070  15.121  30.631  1.00  0.00     0.006 C 
BRANCH  12  13
ATOM     13  C   UNL     1      11.206  14.892  29.120  1.00  0.00     0.053 C 
BRANCH  13  14
ATOM     14  C   UNL     1       9.858  14.877  28.473  1.00  0.00     0.041 C 
ATOM     15  O   UNL     1       8.820  14.747  29.174  1.00  0.00    -0.550 OA
ATOM     16  O   UNL     1       9.750  14.961  27.090  1.00  0.00    -0.550 OA
ENDBRANCH  13  14
ENDBRANCH  12  13
ENDBRANCH  11  12
ENDBRANCH  10  11
ENDBRANCH   9  10
ENDBRANCH   8   9
ENDBRANCH   7   8
ENDBRANCH   6   7
ENDBRANCH   5   6
ENDBRANCH   4   5
ENDBRANCH   3   4
ENDBRANCH   2   3
ENDBRANCH   1   2
BRANCH   1  17
ATOM     17  C   UNL     1      18.483  13.458  31.226  1.00  0.00     0.000 C 
BRANCH  17  18
ATOM     18  C   UNL     1      19.799  14.109  30.774  1.00  0.00     0.000 C 
BRANCH  18  19
ATOM     19  C   UNL     1      20.319  13.458  29.484  1.00  0.00     0.000 C 
BRANCH  19  20
ATOM     20  C   UNL     1      19.247  12.612  28.777  1.00  0.00     0.000 C 
BRANCH  20  21
ATOM     21  C   UNL     1      18.999  13.057  27.324  1.00  0.00     0.000 C 
BRANCH  21  22
ATOM     22  C   UNL     1      19.180  14.572  27.138  1.00  0.00    -0.000 C 
BRANCH  22  23
ATOM     23  C   UNL     1      18.592  15.073  25.807  1.00  0.00    -0.000 C 
BRANCH  23  24
ATOM     24  C   UNL     1      17.668  14.042  25.136  1.00  0.00    -0.000 C 
BRANCH  24  25
ATOM     25  C   UNL     1      17.535  14.188  23.606  1.00  0.00    -0.000 C 
BRANCH  25  26
ATOM     26  C   UNL     1      16.195  14.810  23.159  1.00  0.00    -0.000 C 
BRANCH  26  27
ATOM     27  C   UNL     1      15.149  14.806  24.286  1.00  0.00    -0.000 C 
BRANCH  27  28
ATOM     28  C   UNL     1      13.885  14.051  23.870  1.00  0.00    -0.000 C 
BRANCH  28  29
ATOM     29  C   UNL     1      13.626  12.862  24.801  1.00  0.00    -0.003 C 
ATOM     30  C   UNL     1      12.313  13.034  25.559  1.00  0.00     0.004 C 
ENDBRANCH  28  29
ENDBRANCH  27  28
ENDBRANCH  26  27
ENDBRANCH  25  26
ENDBRANCH  24  25
ENDBRANCH  23  24
ENDBRANCH  22  23
ENDBRANCH  21  22
ENDBRANCH  20  21
ENDBRANCH  19  20
ENDBRANCH  18  19
ENDBRANCH  17  18
ENDBRANCH   1  17
TORSDOF 26
ENDMDL
MODEL 5
REMARK VINA RESULT:    -3.318      2.369      5.730
REMARK INTER + INTRA:         -13.980
REMARK INTER:                  -8.105
REMARK INTRA:                  -5.875
REMARK UNBOUND:                -5.619
REMARK SMILES CCCCCCCCCCCCCCCCCCCCCCCCCCCC(=O)[O-]
REMARK SMILES IDX 15 1 16 2 17 3 18 4 19 5 20 6 21 7 22 8 23 9 24 10 25 11
REMARK SMILES IDX 26 12 27 13 28 14 29 15 30 16 14 17 13 18 12 19 11 20 10 21
REMARK SMILES IDX 9 22 8 23 7 24 6 25 5 26 4 27 3 28 2 29 1 30
REMARK H PARENT
REMARK Flexibility Score: inf
ROOT
ATOM      1  C   UNL     1      17.592  14.287  31.642  1.00  0.00     0.000 C 
ENDROOT
BRANCH   1   2
ATOM      2  C   UNL     1      18.945  13.759  32.148  1.00  0.00     0.000 C 
BRANCH   2   3
ATOM      3  C   UNL     1      20.109  14.118  31.206  1.00  0.00     0.000 C 
BRANCH   3   4
ATOM      4  C   UNL     1      20.685  12.931  30.414  1.00  0.00     0.000 C 
BRANCH   4   5
ATOM      5  C   UNL     1      20.423  13.039  28.899  1.00  0.00     0.000 C 
BRANCH   5   6
ATOM      6  C   UNL     1      19.141  12.294  28.465  1.00  0.00     0.000 C 
BRANCH   6   7
ATOM      7  C   UNL     1      18.832  11.043  29.303  1.00  0.00     0.000 C 
BRANCH   7   8
ATOM      8  C   UNL     1      17.391  11.028  29.836  1.00  0.00     0.000 C 
BRANCH   8   9
ATOM      9  C   UNL     1      16.438  11.924  29.022  1.00  0.00     0.000 C 
BRANCH   9  10
ATOM     10  C   UNL     1      14.951  11.519  29.074  1.00  0.00     0.000 C 
BRANCH  10  11
ATOM     11  C   UNL     1      14.328  11.694  30.472  1.00  0.00     0.000 C 
BRANCH  11  12
ATOM     12  C   UNL     1      14.230  13.168  30.894  1.00  0.00     0.006 C 
BRANCH  12  13
ATOM     13  C   UNL     1      12.781  13.618  31.127  1.00  0.00     0.053 C 
BRANCH  13  14
ATOM     14  C   UNL     1      12.033  13.649  29.833  1.00  0.00     0.041 C 
ATOM     15  O   UNL     1      12.324  14.501  28.953  1.00  0.00    -0.550 OA
ATOM     16  O   UNL     1      10.983  12.765  29.616  1.00  0.00    -0.550 OA
ENDBRANCH  13  14
ENDBRANCH  12  13
ENDBRANCH  11  12
ENDBRANCH  10  11
ENDBRANCH   9  10
ENDBRANCH   8   9
ENDBRANCH   7   8
ENDBRANCH   6   7
ENDBRANCH   5   6
ENDBRANCH   4   5
ENDBRANCH   3   4
ENDBRANCH   2   3
ENDBRANCH   1   2
BRANCH   1  17
ATOM     17  C   UNL     1      17.721  15.102  30.345  1.00  0.00     0.000 C 
BRANCH  17  18
ATOM     18  C   UNL     1      16.562  16.089  30.143  1.00  0.00     0.000 C 
BRANCH  18  19
ATOM     19  C   UNL     1      15.674  15.661  28.966  1.00  0.00     0.000 C 
BRANCH  19  20
ATOM     20  C   UNL     1      16.490  15.276  27.721  1.00  0.00     0.000 C 
BRANCH  20  21
ATOM     21  C   UNL     1      16.120  16.112  26.483  1.00  0.00     0.000 C 
BRANCH  21  22
ATOM     22  C   UNL     1      17.249  16.140  25.439  1.00  0.00    -0.000 C 
BRANCH  22  23
ATOM     23  C   UNL     1      18.588  15.645  26.014  1.00  0.00    -0.000 C 
BRANCH  23  24
ATOM     24  C   UNL     1      19.070  14.336  25.364  1.00  0.00    -0.000 C 
BRANCH  24  25
ATOM     25  C   UNL     1      17.996  13.580  24.554  1.00  0.00    -0.000 C 
BRANCH  25  26
ATOM     26  C   UNL     1      17.235  12.518  25.376  1.00  0.00    -0.000 C 
BRANCH  26  27
ATOM     27  C   UNL     1      15.857  12.198  24.776  1.00  0.00    -0.000 C 
BRANCH  27  28
ATOM     28  C   UNL     1      15.281  13.404  24.029  1.00  0.00    -0.000 C 
BRANCH  28  29
ATOM     29  C   UNL     1      13.917  13.802  24.600  1.00  0.00    -0.003 C 
ATOM     30  C   UNL     1      13.688  13.163  25.967  1.00  0.00     0.004 C 
ENDBRANCH  28  29
ENDBRANCH  27  28
ENDBRANCH  26  27
ENDBRANCH  25  26
ENDBRANCH  24  25
ENDBRANCH  23  24
ENDBRANCH  22  23
ENDBRANCH  21  22
ENDBRANCH  20  21
ENDBRANCH  19  20
ENDBRANCH  18  19
ENDBRANCH  17  18
ENDBRANCH   1  17
TORSDOF 26
ENDMDL
MODEL 6
REMARK VINA RESULT:    -3.304      3.052      7.121
REMARK INTER + INTRA:         -13.945
REMARK INTER:                  -9.369
REMARK INTRA:                  -4.576
REMARK UNBOUND:                -5.619
REMARK SMILES CCCCCCCCCCCCCCCCCCCCCCCCCCCC(=O)[O-]
REMARK SMILES IDX 15 1 16 2 17 3 18 4 19 5 20 6 21 7 22 8 23 9 24 10 25 11
REMARK SMILES IDX 26 12 27 13 28 14 29 15 30 16 14 17 13 18 12 19 11 20 10 21
REMARK SMILES IDX 9 22 8 23 7 24 6 25 5 26 4 27 3 28 2 29 1 30
REMARK H PARENT
REMARK Flexibility Score: inf
ROOT
ATOM      1  C   UNL     1      17.721  15.997  25.814  1.00  0.00     0.000 C 
ENDROOT
BRANCH   1   2
ATOM      2  C   UNL     1      16.205  16.125  25.590  1.00  0.00     0.000 C 
BRANCH   2   3
ATOM      3  C   UNL     1      15.780  15.722  24.166  1.00  0.00     0.000 C 
BRANCH   3   4
ATOM      4  C   UNL     1      15.353  14.251  24.014  1.00  0.00     0.000 C 
BRANCH   4   5
ATOM      5  C   UNL     1      14.039  13.931  24.753  1.00  0.00     0.000 C 
BRANCH   5   6
ATOM      6  C   UNL     1      13.665  12.434  24.674  1.00  0.00     0.000 C 
BRANCH   6   7
ATOM      7  C   UNL     1      12.480  12.037  25.569  1.00  0.00     0.000 C 
BRANCH   7   8
ATOM      8  C   UNL     1      11.759  13.253  26.170  1.00  0.00     0.000 C 
BRANCH   8   9
ATOM      9  C   UNL     1      11.403  13.069  27.658  1.00  0.00     0.000 C 
BRANCH   9  10
ATOM     10  C   UNL     1      11.289  14.372  28.473  1.00  0.00     0.000 C 
BRANCH  10  11
ATOM     11  C   UNL     1      10.616  14.168  29.842  1.00  0.00     0.000 C 
BRANCH  11  12
ATOM     12  C   UNL     1      11.527  14.564  31.014  1.00  0.00     0.006 C 
BRANCH  12  13
ATOM     13  C   UNL     1      12.362  13.386  31.533  1.00  0.00     0.053 C 
BRANCH  13  14
ATOM     14  C   UNL     1      11.924  13.004  32.910  1.00  0.00     0.041 C 
ATOM     15  O   UNL     1      11.241  13.805  33.602  1.00  0.00    -0.550 OA
ATOM     16  O   UNL     1      12.307  11.782  33.448  1.00  0.00    -0.550 OA
ENDBRANCH  13  14
ENDBRANCH  12  13
ENDBRANCH  11  12
ENDBRANCH  10  11
ENDBRANCH   9  10
ENDBRANCH   8   9
ENDBRANCH   7   8
ENDBRANCH   6   7
ENDBRANCH   5   6
ENDBRANCH   4   5
ENDBRANCH   3   4
ENDBRANCH   2   3
ENDBRANCH   1   2
BRANCH   1  17
ATOM     17  C   UNL     1      18.110  14.671  26.488  1.00  0.00     0.000 C 
BRANCH  17  18
ATOM     18  C   UNL     1      19.131  14.854  27.621  1.00  0.00     0.000 C 
BRANCH  18  19
ATOM     19  C   UNL     1      19.286  13.562  28.435  1.00  0.00     0.000 C 
BRANCH  19  20
ATOM     20  C   UNL     1      20.336  13.690  29.550  1.00  0.00     0.000 C 
BRANCH  20  21
ATOM     21  C   UNL     1      20.155  12.642  30.664  1.00  0.00     0.000 C 
BRANCH  21  22
ATOM     22  C   UNL     1      20.332  13.246  32.067  1.00  0.00    -0.000 C 
BRANCH  22  23
ATOM     23  C   UNL     1      19.111  14.074  32.505  1.00  0.00    -0.000 C 
BRANCH  23  24
ATOM     24  C   UNL     1      17.787  13.302  32.376  1.00  0.00    -0.000 C 
BRANCH  24  25
ATOM     25  C   UNL     1      16.816  13.851  31.311  1.00  0.00    -0.000 C 
BRANCH  25  26
ATOM     26  C   UNL     1      17.178  15.268  30.816  1.00  0.00    -0.000 C 
BRANCH  26  27
ATOM     27  C   UNL     1      16.246  15.744  29.690  1.00  0.00    -0.000 C 
BRANCH  27  28
ATOM     28  C   UNL     1      15.002  14.858  29.584  1.00  0.00    -0.000 C 
BRANCH  28  29
ATOM     29  C   UNL     1      14.848  14.297  28.166  1.00  0.00    -0.003 C 
ATOM     30  C   UNL     1      15.283  12.836  28.104  1.00  0.00     0.004 C 
ENDBRANCH  28  29
ENDBRANCH  27  28
ENDBRANCH  26  27
ENDBRANCH  25  26
ENDBRANCH  24  25
ENDBRANCH  23  24
ENDBRANCH  22  23
ENDBRANCH  21  22
ENDBRANCH  20  21
ENDBRANCH  19  20
ENDBRANCH  18  19
ENDBRANCH  17  18
ENDBRANCH   1  17
TORSDOF 26
ENDMDL
MODEL 7
REMARK VINA RESULT:    -3.274      2.604      5.717
REMARK INTER + INTRA:         -13.870
REMARK INTER:                  -9.557
REMARK INTRA:                  -4.313
REMARK UNBOUND:                -5.619
REMARK SMILES CCCCCCCCCCCCCCCCCCCCCCCCCCCC(=O)[O-]
REMARK SMILES IDX 15 1 16 2 17 3 18 4 19 5 20 6 21 7 22 8 23 9 24 10 25 11
REMARK SMILES IDX 26 12 27 13 28 14 29 15 30 16 14 17 13 18 12 19 11 20 10 21
REMARK SMILES IDX 9 22 8 23 7 24 6 25 5 26 4 27 3 28 2 29 1 30
REMARK H PARENT
REMARK Flexibility Score: inf
ROOT
ATOM      1  C   UNL     1      15.662  15.270  28.254  1.00  0.00     0.000 C 
ENDROOT
BRANCH   1   2
ATOM      2  C   UNL     1      16.703  15.083  27.139  1.00  0.00     0.000 C 
BRANCH   2   3
ATOM      3  C   UNL     1      16.588  16.152  26.036  1.00  0.00     0.000 C 
BRANCH   3   4
ATOM      4  C   UNL     1      15.811  15.702  24.784  1.00  0.00     0.000 C 
BRANCH   4   5
ATOM      5  C   UNL     1      15.679  14.170  24.681  1.00  0.00     0.000 C 
BRANCH   5   6
ATOM      6  C   UNL     1      14.207  13.709  24.584  1.00  0.00     0.000 C 
BRANCH   6   7
ATOM      7  C   UNL     1      13.798  12.694  25.664  1.00  0.00     0.000 C 
BRANCH   7   8
ATOM      8  C   UNL     1      13.043  13.345  26.832  1.00  0.00     0.000 C 
BRANCH   8   9
ATOM      9  C   UNL     1      11.640  12.747  27.053  1.00  0.00     0.000 C 
BRANCH   9  10
ATOM     10  C   UNL     1      10.491  13.485  26.339  1.00  0.00     0.000 C 
BRANCH  10  11
ATOM     11  C   UNL     1       9.890  14.623  27.185  1.00  0.00     0.000 C 
BRANCH  11  12
ATOM     12  C   UNL     1       9.150  15.666  26.333  1.00  0.00     0.006 C 
BRANCH  12  13
ATOM     13  C   UNL     1       8.506  16.770  27.181  1.00  0.00     0.053 C 
BRANCH  13  14
ATOM     14  C   UNL     1       8.518  18.068  26.441  1.00  0.00     0.041 C 
ATOM     15  O   UNL     1       8.858  18.103  25.229  1.00  0.00    -0.550 OA
ATOM     16  O   UNL     1       8.196  19.248  27.101  1.00  0.00    -0.550 OA
ENDBRANCH  13  14
ENDBRANCH  12  13
ENDBRANCH  11  12
ENDBRANCH  10  11
ENDBRANCH   9  10
ENDBRANCH   8   9
ENDBRANCH   7   8
ENDBRANCH   6   7
ENDBRANCH   5   6
ENDBRANCH   4   5
ENDBRANCH   3   4
ENDBRANCH   2   3
ENDBRANCH   1   2
BRANCH   1  17
ATOM     17  C   UNL     1      16.238  15.982  29.489  1.00  0.00     0.000 C 
BRANCH  17  18
ATOM     18  C   UNL     1      17.414  15.222  30.121  1.00  0.00     0.000 C 
BRANCH  18  19
ATOM     19  C   UNL     1      16.922  14.256  31.209  1.00  0.00     0.000 C 
BRANCH  19  20
ATOM     20  C   UNL     1      17.021  12.783  30.778  1.00  0.00     0.000 C 
BRANCH  20  21
ATOM     21  C   UNL     1      15.663  12.191  30.357  1.00  0.00     0.000 C 
BRANCH  21  22
ATOM     22  C   UNL     1      14.516  12.662  31.266  1.00  0.00    -0.000 C 
BRANCH  22  23
ATOM     23  C   UNL     1      13.251  13.027  30.469  1.00  0.00    -0.000 C 
BRANCH  23  24
ATOM     24  C   UNL     1      12.958  14.537  30.472  1.00  0.00    -0.000 C 
BRANCH  24  25
ATOM     25  C   UNL     1      11.467  14.910  30.337  1.00  0.00    -0.000 C 
BRANCH  25  26
ATOM     26  C   UNL     1      10.695  14.864  31.672  1.00  0.00    -0.000 C 
BRANCH  26  27
ATOM     27  C   UNL     1       9.800  13.618  31.783  1.00  0.00    -0.000 C 
BRANCH  27  28
ATOM     28  C   UNL     1       9.092  13.322  30.458  1.00  0.00    -0.000 C 
BRANCH  28  29
ATOM     29  C   UNL     1       9.455  11.926  29.943  1.00  0.00    -0.003 C 
ATOM     30  C   UNL     1       8.296  11.309  29.167  1.00  0.00     0.004 C 
ENDBRANCH  28  29
ENDBRANCH  27  28
ENDBRANCH  26  27
ENDBRANCH  25  26
ENDBRANCH  24  25
ENDBRANCH  23  24
ENDBRANCH  22  23
ENDBRANCH  21  22
ENDBRANCH  20  21
ENDBRANCH  19  20
ENDBRANCH  18  19
ENDBRANCH  17  18
ENDBRANCH   1  17
TORSDOF 26
ENDMDL
MODEL 8
REMARK VINA RESULT:    -3.246      2.573      7.238
REMARK INTER + INTRA:         -13.799
REMARK INTER:                  -8.864
REMARK INTRA:                  -4.935
REMARK UNBOUND:                -5.619
REMARK SMILES CCCCCCCCCCCCCCCCCCCCCCCCCCCC(=O)[O-]
REMARK SMILES IDX 15 1 16 2 17 3 18 4 19 5 20 6 21 7 22 8 23 9 24 10 25 11
REMARK SMILES IDX 26 12 27 13 28 14 29 15 30 16 14 17 13 18 12 19 11 20 10 21
REMARK SMILES IDX 9 22 8 23 7 24 6 25 5 26 4 27 3 28 2 29 1 30
REMARK H PARENT
REMARK Flexibility Score: inf
ROOT
ATOM      1  C   UNL     1      17.209  15.669  25.612  1.00  0.00     0.000 C 
ENDROOT
BRANCH   1   2
ATOM      2  C   UNL     1      16.862  14.746  24.432  1.00  0.00     0.000 C 
BRANCH   2   3
ATOM      3  C   UNL     1      15.352  14.715  24.129  1.00  0.00     0.000 C 
BRANCH   3   4
ATOM      4  C   UNL     1      14.707  13.320  24.219  1.00  0.00     0.000 C 
BRANCH   4   5
ATOM      5  C   UNL     1      13.386  13.323  25.013  1.00  0.00     0.000 C 
BRANCH   5   6
ATOM      6  C   UNL     1      13.583  12.908  26.488  1.00  0.00     0.000 C 
BRANCH   6   7
ATOM      7  C   UNL     1      12.443  13.351  27.420  1.00  0.00     0.000 C 
BRANCH   7   8
ATOM      8  C   UNL     1      12.808  13.217  28.906  1.00  0.00     0.000 C 
BRANCH   8   9
ATOM      9  C   UNL     1      12.043  14.206  29.807  1.00  0.00     0.000 C 
BRANCH   9  10
ATOM     10  C   UNL     1      11.031  15.112  29.078  1.00  0.00     0.000 C 
BRANCH  10  11
ATOM     11  C   UNL     1       9.568  14.688  29.309  1.00  0.00     0.000 C 
BRANCH  11  12
ATOM     12  C   UNL     1       8.819  14.408  27.998  1.00  0.00     0.006 C 
BRANCH  12  13
ATOM     13  C   UNL     1       9.116  15.455  26.916  1.00  0.00     0.053 C 
BRANCH  13  14
ATOM     14  C   UNL     1       8.272  16.671  27.125  1.00  0.00     0.041 C 
ATOM     15  O   UNL     1       8.760  17.819  26.952  1.00  0.00    -0.550 OA
ATOM     16  O   UNL     1       6.957  16.539  27.556  1.00  0.00    -0.550 OA
ENDBRANCH  13  14
ENDBRANCH  12  13
ENDBRANCH  11  12
ENDBRANCH  10  11
ENDBRANCH   9  10
ENDBRANCH   8   9
ENDBRANCH   7   8
ENDBRANCH   6   7
ENDBRANCH   5   6
ENDBRANCH   4   5
ENDBRANCH   3   4
ENDBRANCH   2   3
ENDBRANCH   1   2
BRANCH   1  17
ATOM     17  C   UNL     1      15.977  16.045  26.451  1.00  0.00     0.000 C 
BRANCH  17  18
ATOM     18  C   UNL     1      15.937  15.325  27.807  1.00  0.00     0.000 C 
BRANCH  18  19
ATOM     19  C   UNL     1      17.022  15.865  28.750  1.00  0.00     0.000 C 
BRANCH  19  20
ATOM     20  C   UNL     1      16.637  15.731  30.232  1.00  0.00     0.000 C 
BRANCH  20  21
ATOM     21  C   UNL     1      15.851  14.441  30.530  1.00  0.00     0.000 C 
BRANCH  21  22
ATOM     22  C   UNL     1      16.629  13.483  31.446  1.00  0.00    -0.000 C 
BRANCH  22  23
ATOM     23  C   UNL     1      17.925  14.113  31.985  1.00  0.00    -0.000 C 
BRANCH  23  24
ATOM     24  C   UNL     1      19.172  13.260  31.691  1.00  0.00    -0.000 C 
BRANCH  24  25
ATOM     25  C   UNL     1      20.270  13.974  30.878  1.00  0.00    -0.000 C 
BRANCH  25  26
ATOM     26  C   UNL     1      19.943  14.099  29.374  1.00  0.00    -0.000 C 
BRANCH  26  27
ATOM     27  C   UNL     1      19.288  12.826  28.816  1.00  0.00    -0.000 C 
BRANCH  27  28
ATOM     28  C   UNL     1      18.898  13.000  27.346  1.00  0.00    -0.000 C 
BRANCH  28  29
ATOM     29  C   UNL     1      17.777  12.029  26.958  1.00  0.00    -0.003 C 
ATOM     30  C   UNL     1      16.802  11.829  28.114  1.00  0.00     0.004 C 
ENDBRANCH  28  29
ENDBRANCH  27  28
ENDBRANCH  26  27
ENDBRANCH  25  26
ENDBRANCH  24  25
ENDBRANCH  23  24
ENDBRANCH  22  23
ENDBRANCH  21  22
ENDBRANCH  20  21
ENDBRANCH  19  20
ENDBRANCH  18  19
ENDBRANCH  17  18
ENDBRANCH   1  17
TORSDOF 26
ENDMDL
MODEL 9
REMARK VINA RESULT:    -3.245      2.979      7.247
REMARK INTER + INTRA:         -13.797
REMARK INTER:                 -10.030
REMARK INTRA:                  -3.767
REMARK UNBOUND:                -5.619
REMARK SMILES CCCCCCCCCCCCCCCCCCCCCCCCCCCC(=O)[O-]
REMARK SMILES IDX 15 1 16 2 17 3 18 4 19 5 20 6 21 7 22 8 23 9 24 10 25 11
REMARK SMILES IDX 26 12 27 13 28 14 29 15 30 16 14 17 13 18 12 19 11 20 10 21
REMARK SMILES IDX 9 22 8 23 7 24 6 25 5 26 4 27 3 28 2 29 1 30
REMARK H PARENT
REMARK Flexibility Score: inf
ROOT
ATOM      1  C   UNL     1      17.208  12.988  31.270  1.00  0.00     0.000 C 
ENDROOT
BRANCH   1   2
ATOM      2  C   UNL     1      15.813  12.491  31.683  1.00  0.00     0.000 C 
BRANCH   2   3
ATOM      3  C   UNL     1      14.737  12.802  30.626  1.00  0.00     0.000 C 
BRANCH   3   4
ATOM      4  C   UNL     1      13.432  13.392  31.191  1.00  0.00     0.000 C 
BRANCH   4   5
ATOM      5  C   UNL     1      12.793  14.437  30.256  1.00  0.00     0.000 C 
BRANCH   5   6
ATOM      6  C   UNL     1      11.375  14.849  30.710  1.00  0.00     0.000 C 
BRANCH   6   7
ATOM      7  C   UNL     1      10.273  13.865  30.290  1.00  0.00     0.000 C 
BRANCH   7   8
ATOM      8  C   UNL     1       9.210  14.514  29.391  1.00  0.00     0.000 C 
BRANCH   8   9
ATOM      9  C   UNL     1       9.815  15.350  28.248  1.00  0.00     0.000 C 
BRANCH   9  10
ATOM     10  C   UNL     1       9.388  14.930  26.828  1.00  0.00     0.000 C 
BRANCH  10  11
ATOM     11  C   UNL     1       8.846  16.103  25.990  1.00  0.00     0.000 C 
BRANCH  11  12
ATOM     12  C   UNL     1       7.369  16.405  26.284  1.00  0.00     0.006 C 
BRANCH  12  13
ATOM     13  C   UNL     1       7.187  17.654  27.157  1.00  0.00     0.053 C 
BRANCH  13  14
ATOM     14  C   UNL     1       7.112  18.879  26.304  1.00  0.00     0.041 C 
ATOM     15  O   UNL     1       6.693  18.801  25.119  1.00  0.00    -0.550 OA
ATOM     16  O   UNL     1       7.547  20.100  26.803  1.00  0.00    -0.550 OA
ENDBRANCH  13  14
ENDBRANCH  12  13
ENDBRANCH  11  12
ENDBRANCH  10  11
ENDBRANCH   9  10
ENDBRANCH   8   9
ENDBRANCH   7   8
ENDBRANCH   6   7
ENDBRANCH   5   6
ENDBRANCH   4   5
ENDBRANCH   3   4
ENDBRANCH   2   3
ENDBRANCH   1   2
BRANCH   1  17
ATOM     17  C   UNL     1      17.377  14.504  31.464  1.00  0.00     0.000 C 
BRANCH  17  18
ATOM     18  C   UNL     1      17.542  15.260  30.137  1.00  0.00     0.000 C 
BRANCH  18  19
ATOM     19  C   UNL     1      16.234  15.958  29.737  1.00  0.00     0.000 C 
BRANCH  19  20
ATOM     20  C   UNL     1      15.785  15.596  28.312  1.00  0.00     0.000 C 
BRANCH  20  21
ATOM     21  C   UNL     1      16.874  14.856  27.512  1.00  0.00     0.000 C 
BRANCH  21  22
ATOM     22  C   UNL     1      17.245  15.592  26.215  1.00  0.00    -0.000 C 
BRANCH  22  23
ATOM     23  C   UNL     1      16.050  16.349  25.609  1.00  0.00    -0.000 C 
BRANCH  23  24
ATOM     24  C   UNL     1      15.818  16.011  24.126  1.00  0.00    -0.000 C 
BRANCH  24  25
ATOM     25  C   UNL     1      16.026  14.527  23.758  1.00  0.00    -0.000 C 
BRANCH  25  26
ATOM     26  C   UNL     1      14.714  13.717  23.689  1.00  0.00    -0.000 C 
BRANCH  26  27
ATOM     27  C   UNL     1      14.044  13.581  25.066  1.00  0.00    -0.000 C 
BRANCH  27  28
ATOM     28  C   UNL     1      14.508  12.314  25.788  1.00  0.00    -0.000 C 
BRANCH  28  29
ATOM     29  C   UNL     1      13.792  12.157  27.133  1.00  0.00    -0.003 C 
ATOM     30  C   UNL     1      12.491  12.953  27.158  1.00  0.00     0.004 C 
ENDBRANCH  28  29
ENDBRANCH  27  28
ENDBRANCH  26  27
ENDBRANCH  25  26
ENDBRANCH  24  25
ENDBRANCH  23  24
ENDBRANCH  22  23
ENDBRANCH  21  22
ENDBRANCH  20  21
ENDBRANCH  19  20
ENDBRANCH  18  19
ENDBRANCH  17  18
ENDBRANCH   1  17
TORSDOF 26
ENDMDL
