MODEL 1
REMARK VINA RESULT:     9.199      0.000      0.000
REMARK INTER + INTRA:          11.116
REMARK INTER:                  11.350
REMARK INTRA:                  -0.234
REMARK UNBOUND:                -0.234
REMARK SMILES O=c1c(O)c(-c2cc(O)c(O)c(O)c2)oc2cc(O)cc(O)c12
REMARK SMILES IDX 5 1 3 2 2 3 1 4 23 5 21 6 20 7 18 8 17 9 16 10 15 11 6 12
REMARK SMILES IDX 7 13 8 14 14 15 10 16 12 17 9 18 11 20 13 22 4 24 22 26
REMARK SMILES IDX 19 28
REMARK H PARENT 9 19 11 21 13 23 4 25 22 27 19 29
REMARK Flexibility Score: inf
ROOT
ATOM      1  C   UNL     1     141.967 173.846 174.250  1.00  0.00     0.180 A 
ATOM      2  C   UNL     1     141.903 174.620 175.422  1.00  0.00     0.208 A 
ATOM      3  C   UNL     1     141.696 173.977 176.653  1.00  0.00     0.238 A 
ATOM      4  O   UNL     1     141.694 174.669 177.704  1.00  0.00    -0.285 OA
ATOM      5  C   UNL     1     141.539 172.571 176.695  1.00  0.00     0.111 A 
ATOM      6  C   UNL     1     141.284 171.820 177.881  1.00  0.00     0.134 A 
ATOM      7  C   UNL     1     141.276 170.420 177.824  1.00  0.00     0.093 A 
ATOM      8  C   UNL     1     141.449 169.747 176.612  1.00  0.00     0.123 A 
ATOM      9  C   UNL     1     141.639 170.474 175.439  1.00  0.00     0.094 A 
ATOM     10  C   UNL     1     141.687 171.870 175.470  1.00  0.00     0.146 A 
ATOM     11  O   UNL     1     141.882 172.523 174.331  1.00  0.00    -0.452 OA
ENDROOT
BRANCH   1  12
ATOM     12  C   UNL     1     142.158 174.454 172.915  1.00  0.00     0.029 A 
ATOM     13  C   UNL     1     141.140 174.435 171.949  1.00  0.00     0.062 A 
ATOM     14  C   UNL     1     141.349 174.996 170.683  1.00  0.00     0.162 A 
ATOM     15  C   UNL     1     143.402 175.011 172.581  1.00  0.00     0.062 A 
ATOM     16  C   UNL     1     142.585 175.574 170.360  1.00  0.00     0.200 A 
ATOM     17  C   UNL     1     143.625 175.576 171.320  1.00  0.00     0.162 A 
BRANCH  14  18
ATOM     18  O   UNL     1     140.328 174.980 169.733  1.00  0.00    -0.504 OA
ATOM     19  H   UNL     1     140.519 174.815 168.752  1.00  0.00     0.293 HD
ENDBRANCH  14  18
BRANCH  16  20
ATOM     20  O   UNL     1     142.738 176.125 169.086  1.00  0.00    -0.502 OA
ATOM     21  H   UNL     1     142.759 177.117 168.897  1.00  0.00     0.293 HD
ENDBRANCH  16  20
BRANCH  17  22
ATOM     22  O   UNL     1     144.885 176.121 171.066  1.00  0.00    -0.504 OA
ATOM     23  H   UNL     1     145.751 175.610 171.158  1.00  0.00     0.293 HD
ENDBRANCH  17  22
ENDBRANCH   1  12
BRANCH   2  24
ATOM     24  O   UNL     1     142.082 176.005 175.360  1.00  0.00    -0.502 OA
ATOM     25  H   UNL     1     142.778 176.489 175.914  1.00  0.00     0.293 HD
ENDBRANCH   2  24
BRANCH   6  26
ATOM     26  O   UNL     1     141.007 172.394 179.125  1.00  0.00    -0.507 OA
ATOM     27  H   UNL     1     141.549 173.131 179.552  1.00  0.00     0.293 HD
ENDBRANCH   6  26
BRANCH   8  28
ATOM     28  O   UNL     1     141.425 168.356 176.562  1.00  0.00    -0.508 OA
ATOM     29  H   UNL     1     140.946 167.808 177.267  1.00  0.00     0.293 HD
ENDBRANCH   8  28
TORSDOF 7
ENDMDL
MODEL 2
REMARK VINA RESULT:    10.677      1.765      7.133
REMARK INTER + INTRA:          12.940
REMARK INTER:                  13.251
REMARK INTRA:                  -0.311
REMARK UNBOUND:                -0.234
REMARK SMILES O=c1c(O)c(-c2cc(O)c(O)c(O)c2)oc2cc(O)cc(O)c12
REMARK SMILES IDX 5 1 3 2 2 3 1 4 23 5 21 6 20 7 18 8 17 9 16 10 15 11 6 12
REMARK SMILES IDX 7 13 8 14 14 15 10 16 12 17 9 18 11 20 13 22 4 24 22 26
REMARK SMILES IDX 19 28
REMARK H PARENT 9 19 11 21 13 23 4 25 22 27 19 29
REMARK Flexibility Score: inf
ROOT
ATOM      1  C   UNL     1     142.370 174.644 173.587  1.00  0.00     0.180 A 
ATOM      2  C   UNL     1     143.559 175.193 173.074  1.00  0.00     0.208 A 
ATOM      3  C   UNL     1     143.603 175.583 171.726  1.00  0.00     0.238 A 
ATOM      4  O   UNL     1     144.652 176.124 171.287  1.00  0.00    -0.285 OA
ATOM      5  C   UNL     1     142.465 175.406 170.904  1.00  0.00     0.111 A 
ATOM      6  C   UNL     1     142.411 175.728 169.515  1.00  0.00     0.134 A 
ATOM      7  C   UNL     1     141.192 175.632 168.831  1.00  0.00     0.093 A 
ATOM      8  C   UNL     1     140.041 175.164 169.470  1.00  0.00     0.123 A 
ATOM      9  C   UNL     1     140.099 174.790 170.811  1.00  0.00     0.094 A 
ATOM     10  C   UNL     1     141.292 174.908 171.529  1.00  0.00     0.146 A 
ATOM     11  O   UNL     1     141.299 174.552 172.808  1.00  0.00    -0.452 OA
ENDROOT
BRANCH   1  12
ATOM     12  C   UNL     1     142.256 174.187 174.990  1.00  0.00     0.029 A 
ATOM     13  C   UNL     1     142.853 172.993 175.421  1.00  0.00     0.062 A 
ATOM     14  C   UNL     1     142.713 172.566 176.748  1.00  0.00     0.162 A 
ATOM     15  C   UNL     1     141.486 174.930 175.898  1.00  0.00     0.062 A 
ATOM     16  C   UNL     1     141.963 173.323 177.660  1.00  0.00     0.200 A 
ATOM     17  C   UNL     1     141.338 174.516 177.227  1.00  0.00     0.162 A 
BRANCH  14  18
ATOM     18  O   UNL     1     143.317 171.382 177.170  1.00  0.00    -0.504 OA
ATOM     19  H   UNL     1     143.873 170.816 176.539  1.00  0.00     0.293 HD
ENDBRANCH  14  18
BRANCH  16  20
ATOM     20  O   UNL     1     141.862 172.855 178.972  1.00  0.00    -0.502 OA
ATOM     21  H   UNL     1     142.065 171.907 179.253  1.00  0.00     0.293 HD
ENDBRANCH  16  20
BRANCH  17  22
ATOM     22  O   UNL     1     140.567 175.315 178.074  1.00  0.00    -0.504 OA
ATOM     23  H   UNL     1     139.583 175.494 177.940  1.00  0.00     0.293 HD
ENDBRANCH  17  22
ENDBRANCH   1  12
BRANCH   2  24
ATOM     24  O   UNL     1     144.665 175.379 173.909  1.00  0.00    -0.502 OA
ATOM     25  H   UNL     1     145.230 176.219 173.884  1.00  0.00     0.293 HD
ENDBRANCH   2  24
BRANCH   6  26
ATOM     26  O   UNL     1     143.520 176.117 168.760  1.00  0.00    -0.507 OA
ATOM     27  H   UNL     1     144.072 176.945 168.932  1.00  0.00     0.293 HD
ENDBRANCH   6  26
BRANCH   8  28
ATOM     28  O   UNL     1     138.837 175.058 168.778  1.00  0.00    -0.508 OA
ATOM     29  H   UNL     1     138.717 175.466 167.859  1.00  0.00     0.293 HD
ENDBRANCH   8  28
TORSDOF 7
ENDMDL
MODEL 3
REMARK VINA RESULT:    10.870      1.734      7.093
REMARK INTER + INTRA:          13.178
REMARK INTER:                  13.486
REMARK INTRA:                  -0.308
REMARK UNBOUND:                -0.234
REMARK SMILES O=c1c(O)c(-c2cc(O)c(O)c(O)c2)oc2cc(O)cc(O)c12
REMARK SMILES IDX 5 1 3 2 2 3 1 4 23 5 21 6 20 7 18 8 17 9 16 10 15 11 6 12
REMARK SMILES IDX 7 13 8 14 14 15 10 16 12 17 9 18 11 20 13 22 4 24 22 26
REMARK SMILES IDX 19 28
REMARK H PARENT 9 19 11 21 13 23 4 25 22 27 19 29
REMARK Flexibility Score: inf
ROOT
ATOM      1  C   UNL     1     142.362 174.647 173.601  1.00  0.00     0.180 A 
ATOM      2  C   UNL     1     143.569 175.171 173.105  1.00  0.00     0.208 A 
ATOM      3  C   UNL     1     143.638 175.569 171.761  1.00  0.00     0.238 A 
ATOM      4  O   UNL     1     144.703 176.088 171.337  1.00  0.00    -0.285 OA
ATOM      5  C   UNL     1     142.505 175.424 170.925  1.00  0.00     0.111 A 
ATOM      6  C   UNL     1     142.474 175.757 169.537  1.00  0.00     0.134 A 
ATOM      7  C   UNL     1     141.261 175.694 168.839  1.00  0.00     0.093 A 
ATOM      8  C   UNL     1     140.093 175.248 169.462  1.00  0.00     0.123 A 
ATOM      9  C   UNL     1     140.127 174.864 170.801  1.00  0.00     0.094 A 
ATOM     10  C   UNL     1     141.313 174.950 171.533  1.00  0.00     0.146 A 
ATOM     11  O   UNL     1     141.298 174.584 172.809  1.00  0.00    -0.452 OA
ENDROOT
BRANCH   1  12
ATOM     12  C   UNL     1     142.221 174.183 175.000  1.00  0.00     0.029 A 
ATOM     13  C   UNL     1     141.584 174.971 175.971  1.00  0.00     0.062 A 
ATOM     14  C   UNL     1     141.482 174.525 177.295  1.00  0.00     0.162 A 
ATOM     15  C   UNL     1     142.788 172.958 175.381  1.00  0.00     0.062 A 
ATOM     16  C   UNL     1     142.028 173.288 177.668  1.00  0.00     0.200 A 
ATOM     17  C   UNL     1     142.693 172.498 176.700  1.00  0.00     0.162 A 
BRANCH  14  18
ATOM     18  O   UNL     1     140.840 175.310 178.251  1.00  0.00    -0.504 OA
ATOM     19  H   UNL     1     140.904 175.100 179.240  1.00  0.00     0.293 HD
ENDBRANCH  14  18
BRANCH  16  20
ATOM     20  O   UNL     1     141.892 172.887 178.999  1.00  0.00    -0.502 OA
ATOM     21  H   UNL     1     142.615 172.987 179.697  1.00  0.00     0.293 HD
ENDBRANCH  16  20
BRANCH  17  22
ATOM     22  O   UNL     1     143.270 171.263 177.001  1.00  0.00    -0.504 OA
ATOM     23  H   UNL     1     142.833 170.561 177.580  1.00  0.00     0.293 HD
ENDBRANCH  17  22
ENDBRANCH   1  12
BRANCH   2  24
ATOM     24  O   UNL     1     144.669 175.326 173.954  1.00  0.00    -0.502 OA
ATOM     25  H   UNL     1     145.174 176.200 174.037  1.00  0.00     0.293 HD
ENDBRANCH   2  24
BRANCH   6  26
ATOM     26  O   UNL     1     143.601 176.125 168.798  1.00  0.00    -0.507 OA
ATOM     27  H   UNL     1     143.764 177.046 168.418  1.00  0.00     0.293 HD
ENDBRANCH   6  26
BRANCH   8  28
ATOM     28  O   UNL     1     138.894 175.175 168.756  1.00  0.00    -0.508 OA
ATOM     29  H   UNL     1     138.818 175.515 167.804  1.00  0.00     0.293 HD
ENDBRANCH   8  28
TORSDOF 7
ENDMDL
