MODEL 1
REMARK VINA RESULT:    -4.006      0.000      0.000
REMARK INTER + INTRA:         -11.976
REMARK INTER:                  -8.690
REMARK INTRA:                  -3.287
REMARK UNBOUND:                -3.287
REMARK SMILES CCCCCCCCCCCCCCCCCCCCCC(=O)[O-]
REMARK SMILES IDX 12 1 11 2 10 3 9 4 8 5 7 6 6 7 5 8 4 9 3 10 2 11 1 12 13 13
REMARK SMILES IDX 14 14 15 15 16 16 17 17 18 18 19 19 20 20 21 21 22 22 23 23
REMARK SMILES IDX 24 24
REMARK H PARENT
REMARK Flexibility Score: inf
ROOT
ATOM      1  C   UNL     1       3.703  -0.984 400.291  1.00  0.00     0.000 C 
ENDROOT
BRANCH   1   2
ATOM      2  C   UNL     1       3.633  -2.511 400.100  1.00  0.00     0.000 C 
BRANCH   2   3
ATOM      3  C   UNL     1       3.278  -3.312 401.368  1.00  0.00     0.000 C 
BRANCH   3   4
ATOM      4  C   UNL     1       4.171  -4.540 401.636  1.00  0.00    -0.000 C 
BRANCH   4   5
ATOM      5  C   UNL     1       5.658  -4.221 401.889  1.00  0.00    -0.000 C 
BRANCH   5   6
ATOM      6  C   UNL     1       6.627  -4.737 400.810  1.00  0.00    -0.000 C 
BRANCH   6   7
ATOM      7  C   UNL     1       7.000  -3.663 399.777  1.00  0.00    -0.000 C 
BRANCH   7   8
ATOM      8  C   UNL     1       8.462  -3.223 399.947  1.00  0.00    -0.000 C 
BRANCH   8   9
ATOM      9  C   UNL     1       8.622  -1.693 400.027  1.00  0.00    -0.000 C 
BRANCH   9  10
ATOM     10  C   UNL     1       8.565  -0.960 398.675  1.00  0.00    -0.000 C 
BRANCH  10  11
ATOM     11  C   UNL     1       8.458   0.565 398.824  1.00  0.00    -0.003 C 
ATOM     12  C   UNL     1       8.097   1.223 397.495  1.00  0.00     0.004 C 
ENDBRANCH  10  11
ENDBRANCH   9  10
ENDBRANCH   8   9
ENDBRANCH   7   8
ENDBRANCH   6   7
ENDBRANCH   5   6
ENDBRANCH   4   5
ENDBRANCH   3   4
ENDBRANCH   2   3
ENDBRANCH   1   2
BRANCH   1  13
ATOM     13  C   UNL     1       5.115  -0.419 400.057  1.00  0.00     0.000 C 
BRANCH  13  14
ATOM     14  C   UNL     1       5.168   1.111 400.201  1.00  0.00     0.000 C 
BRANCH  14  15
ATOM     15  C   UNL     1       3.816   1.711 400.624  1.00  0.00     0.000 C 
BRANCH  15  16
ATOM     16  C   UNL     1       3.918   2.554 401.905  1.00  0.00     0.000 C 
BRANCH  16  17
ATOM     17  C   UNL     1       5.218   2.295 402.684  1.00  0.00     0.000 C 
BRANCH  17  18
ATOM     18  C   UNL     1       4.936   1.515 403.977  1.00  0.00     0.000 C 
BRANCH  18  19
ATOM     19  C   UNL     1       5.133  -0.004 403.818  1.00  0.00     0.000 C 
BRANCH  19  20
ATOM     20  C   UNL     1       3.853  -0.847 403.977  1.00  0.00     0.006 C 
BRANCH  20  21
ATOM     21  C   UNL     1       3.825  -1.649 405.285  1.00  0.00     0.053 C 
BRANCH  21  22
ATOM     22  C   UNL     1       3.189  -2.985 405.062  1.00  0.00     0.041 C 
ATOM     23  O   UNL     1       1.979  -3.062 404.720  1.00  0.00    -0.550 OA
ATOM     24  O   UNL     1       3.944  -4.144 405.184  1.00  0.00    -0.550 OA
ENDBRANCH  21  22
ENDBRANCH  20  21
ENDBRANCH  19  20
ENDBRANCH  18  19
ENDBRANCH  17  18
ENDBRANCH  16  17
ENDBRANCH  15  16
ENDBRANCH  14  15
ENDBRANCH  13  14
ENDBRANCH   1  13
TORSDOF 20
ENDMDL
MODEL 2
REMARK VINA RESULT:    -3.966      1.793      4.472
REMARK INTER + INTRA:         -11.889
REMARK INTER:                  -7.619
REMARK INTRA:                  -4.269
REMARK UNBOUND:                -3.287
REMARK SMILES CCCCCCCCCCCCCCCCCCCCCC(=O)[O-]
REMARK SMILES IDX 12 1 11 2 10 3 9 4 8 5 7 6 6 7 5 8 4 9 3 10 2 11 1 12 13 13
REMARK SMILES IDX 14 14 15 15 16 16 17 17 18 18 19 19 20 20 21 21 22 22 23 23
REMARK SMILES IDX 24 24
REMARK H PARENT
REMARK Flexibility Score: inf
ROOT
ATOM      1  C   UNL     1       5.523   1.138 400.117  1.00  0.00     0.000 C 
ENDROOT
BRANCH   1   2
ATOM      2  C   UNL     1       4.221   1.711 400.705  1.00  0.00     0.000 C 
BRANCH   2   3
ATOM      3  C   UNL     1       4.307   2.149 402.181  1.00  0.00     0.000 C 
BRANCH   3   4
ATOM      4  C   UNL     1       3.650   1.184 403.188  1.00  0.00    -0.000 C 
BRANCH   4   5
ATOM      5  C   UNL     1       4.550   0.027 403.665  1.00  0.00    -0.000 C 
BRANCH   5   6
ATOM      6  C   UNL     1       5.989   0.432 404.034  1.00  0.00    -0.000 C 
BRANCH   6   7
ATOM      7  C   UNL     1       7.050  -0.319 403.215  1.00  0.00    -0.000 C 
BRANCH   7   8
ATOM      8  C   UNL     1       6.614  -1.768 402.949  1.00  0.00    -0.000 C 
BRANCH   8   9
ATOM      9  C   UNL     1       7.548  -2.506 401.973  1.00  0.00    -0.000 C 
BRANCH   9  10
ATOM     10  C   UNL     1       7.460  -4.042 402.021  1.00  0.00    -0.000 C 
BRANCH  10  11
ATOM     11  C   UNL     1       7.159  -4.669 400.652  1.00  0.00    -0.003 C 
ATOM     12  C   UNL     1       7.432  -3.681 399.522  1.00  0.00     0.004 C 
ENDBRANCH  10  11
ENDBRANCH   9  10
ENDBRANCH   8   9
ENDBRANCH   7   8
ENDBRANCH   6   7
ENDBRANCH   5   6
ENDBRANCH   4   5
ENDBRANCH   3   4
ENDBRANCH   2   3
ENDBRANCH   1   2
BRANCH   1  13
ATOM     13  C   UNL     1       5.439  -0.374 399.844  1.00  0.00     0.000 C 
BRANCH  13  14
ATOM     14  C   UNL     1       4.031  -0.940 400.093  1.00  0.00     0.000 C 
BRANCH  14  15
ATOM     15  C   UNL     1       4.007  -2.479 400.103  1.00  0.00     0.000 C 
BRANCH  15  16
ATOM     16  C   UNL     1       3.332  -3.051 401.360  1.00  0.00     0.000 C 
BRANCH  16  17
ATOM     17  C   UNL     1       3.760  -4.497 401.657  1.00  0.00     0.000 C 
BRANCH  17  18
ATOM     18  C   UNL     1       3.873  -4.735 403.170  1.00  0.00     0.000 C 
BRANCH  18  19
ATOM     19  C   UNL     1       3.898  -3.428 403.984  1.00  0.00     0.000 C 
BRANCH  19  20
ATOM     20  C   UNL     1       2.934  -3.390 405.185  1.00  0.00     0.006 C 
BRANCH  20  21
ATOM     21  C   UNL     1       3.274  -2.282 406.190  1.00  0.00     0.053 C 
BRANCH  21  22
ATOM     22  C   UNL     1       4.551  -2.599 406.902  1.00  0.00     0.041 C 
ATOM     23  O   UNL     1       5.581  -1.903 406.695  1.00  0.00    -0.550 OA
ATOM     24  O   UNL     1       4.593  -3.630 407.831  1.00  0.00    -0.550 OA
ENDBRANCH  21  22
ENDBRANCH  20  21
ENDBRANCH  19  20
ENDBRANCH  18  19
ENDBRANCH  17  18
ENDBRANCH  16  17
ENDBRANCH  15  16
ENDBRANCH  14  15
ENDBRANCH  13  14
ENDBRANCH   1  13
TORSDOF 20
ENDMDL
MODEL 3
REMARK VINA RESULT:    -3.920      3.657      6.731
REMARK INTER + INTRA:         -11.789
REMARK INTER:                  -8.207
REMARK INTRA:                  -3.582
REMARK UNBOUND:                -3.287
REMARK SMILES CCCCCCCCCCCCCCCCCCCCCC(=O)[O-]
REMARK SMILES IDX 12 1 11 2 10 3 9 4 8 5 7 6 6 7 5 8 4 9 3 10 2 11 1 12 13 13
REMARK SMILES IDX 14 14 15 15 16 16 17 17 18 18 19 19 20 20 21 21 22 22 23 23
REMARK SMILES IDX 24 24
REMARK H PARENT
REMARK Flexibility Score: inf
ROOT
ATOM      1  C   UNL     1       5.039   2.284 402.032  1.00  0.00     0.000 C 
ENDROOT
BRANCH   1   2
ATOM      2  C   UNL     1       3.773   2.449 401.171  1.00  0.00     0.000 C 
BRANCH   2   3
ATOM      3  C   UNL     1       3.359   1.199 400.370  1.00  0.00     0.000 C 
BRANCH   3   4
ATOM      4  C   UNL     1       3.728  -0.147 401.024  1.00  0.00    -0.000 C 
BRANCH   4   5
ATOM      5  C   UNL     1       4.058  -1.284 400.036  1.00  0.00    -0.000 C 
BRANCH   5   6
ATOM      6  C   UNL     1       3.597  -2.685 400.478  1.00  0.00    -0.000 C 
BRANCH   6   7
ATOM      7  C   UNL     1       4.753  -3.564 400.977  1.00  0.00    -0.000 C 
BRANCH   7   8
ATOM      8  C   UNL     1       4.735  -3.676 402.509  1.00  0.00    -0.000 C 
BRANCH   8   9
ATOM      9  C   UNL     1       3.394  -3.239 403.127  1.00  0.00    -0.000 C 
BRANCH   9  10
ATOM     10  C   UNL     1       3.495  -2.119 404.178  1.00  0.00    -0.000 C 
BRANCH  10  11
ATOM     11  C   UNL     1       3.664  -2.651 405.608  1.00  0.00    -0.003 C 
ATOM     12  C   UNL     1       4.928  -2.095 406.257  1.00  0.00     0.004 C 
ENDBRANCH  10  11
ENDBRANCH   9  10
ENDBRANCH   8   9
ENDBRANCH   7   8
ENDBRANCH   6   7
ENDBRANCH   5   6
ENDBRANCH   4   5
ENDBRANCH   3   4
ENDBRANCH   2   3
ENDBRANCH   1   2
BRANCH   1  13
ATOM     13  C   UNL     1       4.721   1.959 403.502  1.00  0.00     0.000 C 
BRANCH  13  14
ATOM     14  C   UNL     1       5.633   0.861 404.074  1.00  0.00     0.000 C 
BRANCH  14  15
ATOM     15  C   UNL     1       6.890   0.633 403.216  1.00  0.00     0.000 C 
BRANCH  15  16
ATOM     16  C   UNL     1       7.032  -0.824 402.750  1.00  0.00     0.000 C 
BRANCH  16  17
ATOM     17  C   UNL     1       7.408  -0.939 401.264  1.00  0.00     0.000 C 
BRANCH  17  18
ATOM     18  C   UNL     1       7.788   0.434 400.688  1.00  0.00     0.000 C 
BRANCH  18  19
ATOM     19  C   UNL     1       7.034   0.770 399.388  1.00  0.00     0.000 C 
BRANCH  19  20
ATOM     20  C   UNL     1       7.877   0.668 398.102  1.00  0.00     0.006 C 
BRANCH  20  21
ATOM     21  C   UNL     1       9.385   0.616 398.378  1.00  0.00     0.053 C 
BRANCH  21  22
ATOM     22  C   UNL     1       9.996   1.969 398.187  1.00  0.00     0.041 C 
ATOM     23  O   UNL     1      11.202   2.168 398.495  1.00  0.00    -0.550 OA
ATOM     24  O   UNL     1       9.251   2.996 397.624  1.00  0.00    -0.550 OA
ENDBRANCH  21  22
ENDBRANCH  20  21
ENDBRANCH  19  20
ENDBRANCH  18  19
ENDBRANCH  17  18
ENDBRANCH  16  17
ENDBRANCH  15  16
ENDBRANCH  14  15
ENDBRANCH  13  14
ENDBRANCH   1  13
TORSDOF 20
ENDMDL
MODEL 4
REMARK VINA RESULT:    -3.915      3.376      6.676
REMARK INTER + INTRA:         -11.778
REMARK INTER:                  -8.126
REMARK INTRA:                  -3.652
REMARK UNBOUND:                -3.287
REMARK SMILES CCCCCCCCCCCCCCCCCCCCCC(=O)[O-]
REMARK SMILES IDX 12 1 11 2 10 3 9 4 8 5 7 6 6 7 5 8 4 9 3 10 2 11 1 12 13 13
REMARK SMILES IDX 14 14 15 15 16 16 17 17 18 18 19 19 20 20 21 21 22 22 23 23
REMARK SMILES IDX 24 24
REMARK H PARENT
REMARK Flexibility Score: inf
ROOT
ATOM      1  C   UNL     1       4.559  -4.423 403.022  1.00  0.00     0.000 C 
ENDROOT
BRANCH   1   2
ATOM      2  C   UNL     1       3.800  -3.196 402.485  1.00  0.00     0.000 C 
BRANCH   2   3
ATOM      3  C   UNL     1       3.244  -3.346 401.055  1.00  0.00     0.000 C 
BRANCH   3   4
ATOM      4  C   UNL     1       3.658  -2.232 400.074  1.00  0.00    -0.000 C 
BRANCH   4   5
ATOM      5  C   UNL     1       3.976  -0.872 400.728  1.00  0.00    -0.000 C 
BRANCH   5   6
ATOM      6  C   UNL     1       3.902   0.340 399.780  1.00  0.00    -0.000 C 
BRANCH   6   7
ATOM      7  C   UNL     1       3.416   1.617 400.480  1.00  0.00    -0.000 C 
BRANCH   7   8
ATOM      8  C   UNL     1       3.771   1.594 401.974  1.00  0.00    -0.000 C 
BRANCH   8   9
ATOM      9  C   UNL     1       5.116   2.279 402.281  1.00  0.00    -0.000 C 
BRANCH   9  10
ATOM     10  C   UNL     1       5.754   1.889 403.626  1.00  0.00    -0.000 C 
BRANCH  10  11
ATOM     11  C   UNL     1       5.026   0.730 404.322  1.00  0.00    -0.003 C 
ATOM     12  C   UNL     1       5.801  -0.576 404.176  1.00  0.00     0.004 C 
ENDBRANCH  10  11
ENDBRANCH   9  10
ENDBRANCH   8   9
ENDBRANCH   7   8
ENDBRANCH   6   7
ENDBRANCH   5   6
ENDBRANCH   4   5
ENDBRANCH   3   4
ENDBRANCH   2   3
ENDBRANCH   1   2
BRANCH   1  13
ATOM     13  C   UNL     1       4.819  -5.485 401.938  1.00  0.00     0.000 C 
BRANCH  13  14
ATOM     14  C   UNL     1       6.307  -5.590 401.563  1.00  0.00     0.000 C 
BRANCH  14  15
ATOM     15  C   UNL     1       6.718  -4.569 400.487  1.00  0.00     0.000 C 
BRANCH  15  16
ATOM     16  C   UNL     1       7.530  -3.399 401.063  1.00  0.00     0.000 C 
BRANCH  16  17
ATOM     17  C   UNL     1       7.373  -2.108 400.244  1.00  0.00     0.000 C 
BRANCH  17  18
ATOM     18  C   UNL     1       7.734  -0.876 401.088  1.00  0.00     0.000 C 
BRANCH  18  19
ATOM     19  C   UNL     1       7.544   0.450 400.327  1.00  0.00     0.000 C 
BRANCH  19  20
ATOM     20  C   UNL     1       7.426   0.312 398.798  1.00  0.00     0.006 C 
BRANCH  20  21
ATOM     21  C   UNL     1       8.003   1.517 398.043  1.00  0.00     0.053 C 
BRANCH  21  22
ATOM     22  C   UNL     1       9.497   1.450 398.020  1.00  0.00     0.041 C 
ATOM     23  O   UNL     1      10.180   2.497 398.177  1.00  0.00    -0.550 OA
ATOM     24  O   UNL     1      10.137   0.227 397.876  1.00  0.00    -0.550 OA
ENDBRANCH  21  22
ENDBRANCH  20  21
ENDBRANCH  19  20
ENDBRANCH  18  19
ENDBRANCH  17  18
ENDBRANCH  16  17
ENDBRANCH  15  16
ENDBRANCH  14  15
ENDBRANCH  13  14
ENDBRANCH   1  13
TORSDOF 20
ENDMDL
MODEL 5
REMARK VINA RESULT:    -3.872      3.229      5.600
REMARK INTER + INTRA:         -11.685
REMARK INTER:                  -7.742
REMARK INTRA:                  -3.943
REMARK UNBOUND:                -3.287
REMARK SMILES CCCCCCCCCCCCCCCCCCCCCC(=O)[O-]
REMARK SMILES IDX 12 1 11 2 10 3 9 4 8 5 7 6 6 7 5 8 4 9 3 10 2 11 1 12 13 13
REMARK SMILES IDX 14 14 15 15 16 16 17 17 18 18 19 19 20 20 21 21 22 22 23 23
REMARK SMILES IDX 24 24
REMARK H PARENT
REMARK Flexibility Score: inf
ROOT
ATOM      1  C   UNL     1       6.276  -0.788 403.350  1.00  0.00     0.000 C 
ENDROOT
BRANCH   1   2
ATOM      2  C   UNL     1       4.853  -0.784 403.939  1.00  0.00     0.000 C 
BRANCH   2   3
ATOM      3  C   UNL     1       3.948  -1.940 403.471  1.00  0.00     0.000 C 
BRANCH   3   4
ATOM      4  C   UNL     1       4.685  -3.115 402.798  1.00  0.00    -0.000 C 
BRANCH   4   5
ATOM      5  C   UNL     1       4.338  -3.337 401.312  1.00  0.00    -0.000 C 
BRANCH   5   6
ATOM      6  C   UNL     1       5.540  -3.301 400.351  1.00  0.00    -0.000 C 
BRANCH   6   7
ATOM      7  C   UNL     1       6.869  -3.637 401.043  1.00  0.00    -0.000 C 
BRANCH   7   8
ATOM      8  C   UNL     1       7.218  -5.123 400.872  1.00  0.00    -0.000 C 
BRANCH   8   9
ATOM      9  C   UNL     1       7.362  -5.864 402.214  1.00  0.00    -0.000 C 
BRANCH   9  10
ATOM     10  C   UNL     1       6.118  -6.653 402.659  1.00  0.00    -0.000 C 
BRANCH  10  11
ATOM     11  C   UNL     1       5.159  -6.966 401.502  1.00  0.00    -0.003 C 
ATOM     12  C   UNL     1       3.716  -7.056 401.990  1.00  0.00     0.004 C 
ENDBRANCH  10  11
ENDBRANCH   9  10
ENDBRANCH   8   9
ENDBRANCH   7   8
ENDBRANCH   6   7
ENDBRANCH   5   6
ENDBRANCH   4   5
ENDBRANCH   3   4
ENDBRANCH   2   3
ENDBRANCH   1   2
BRANCH   1  13
ATOM     13  C   UNL     1       6.967   0.584 403.453  1.00  0.00     0.000 C 
BRANCH  13  14
ATOM     14  C   UNL     1       6.037   1.671 404.015  1.00  0.00     0.000 C 
BRANCH  14  15
ATOM     15  C   UNL     1       5.669   2.734 402.964  1.00  0.00     0.000 C 
BRANCH  15  16
ATOM     16  C   UNL     1       4.188   2.676 402.558  1.00  0.00     0.000 C 
BRANCH  16  17
ATOM     17  C   UNL     1       3.993   2.365 401.065  1.00  0.00     0.000 C 
BRANCH  17  18
ATOM     18  C   UNL     1       3.640   0.885 400.856  1.00  0.00     0.000 C 
BRANCH  18  19
ATOM     19  C   UNL     1       4.731   0.108 400.095  1.00  0.00     0.000 C 
BRANCH  19  20
ATOM     20  C   UNL     1       6.009   0.912 399.790  1.00  0.00     0.006 C 
BRANCH  20  21
ATOM     21  C   UNL     1       7.190   0.023 399.379  1.00  0.00     0.053 C 
BRANCH  21  22
ATOM     22  C   UNL     1       8.031   0.716 398.353  1.00  0.00     0.041 C 
ATOM     23  O   UNL     1       7.677   0.724 397.145  1.00  0.00    -0.550 OA
ATOM     24  O   UNL     1       9.180   1.393 398.738  1.00  0.00    -0.550 OA
ENDBRANCH  21  22
ENDBRANCH  20  21
ENDBRANCH  19  20
ENDBRANCH  18  19
ENDBRANCH  17  18
ENDBRANCH  16  17
ENDBRANCH  15  16
ENDBRANCH  14  15
ENDBRANCH  13  14
ENDBRANCH   1  13
TORSDOF 20
ENDMDL
MODEL 6
REMARK VINA RESULT:    -3.863      1.690      4.794
REMARK INTER + INTRA:         -11.666
REMARK INTER:                  -7.921
REMARK INTRA:                  -3.745
REMARK UNBOUND:                -3.287
REMARK SMILES CCCCCCCCCCCCCCCCCCCCCC(=O)[O-]
REMARK SMILES IDX 12 1 11 2 10 3 9 4 8 5 7 6 6 7 5 8 4 9 3 10 2 11 1 12 13 13
REMARK SMILES IDX 14 14 15 15 16 16 17 17 18 18 19 19 20 20 21 21 22 22 23 23
REMARK SMILES IDX 24 24
REMARK H PARENT
REMARK Flexibility Score: inf
ROOT
ATOM      1  C   UNL     1       5.301  -2.553 400.838  1.00  0.00     0.000 C 
ENDROOT
BRANCH   1   2
ATOM      2  C   UNL     1       3.945  -2.273 400.163  1.00  0.00     0.000 C 
BRANCH   2   3
ATOM      3  C   UNL     1       3.694  -0.799 399.787  1.00  0.00     0.000 C 
BRANCH   3   4
ATOM      4  C   UNL     1       3.679   0.184 400.974  1.00  0.00    -0.000 C 
BRANCH   4   5
ATOM      5  C   UNL     1       4.003   1.648 400.612  1.00  0.00    -0.000 C 
BRANCH   5   6
ATOM      6  C   UNL     1       4.404   2.539 401.801  1.00  0.00    -0.000 C 
BRANCH   6   7
ATOM      7  C   UNL     1       5.062   1.751 402.943  1.00  0.00    -0.000 C 
BRANCH   7   8
ATOM      8  C   UNL     1       6.591   1.745 402.795  1.00  0.00    -0.000 C 
BRANCH   8   9
ATOM      9  C   UNL     1       7.142   0.388 402.318  1.00  0.00    -0.000 C 
BRANCH   9  10
ATOM     10  C   UNL     1       8.041   0.452 401.071  1.00  0.00    -0.000 C 
BRANCH  10  11
ATOM     11  C   UNL     1       7.351  -0.080 399.807  1.00  0.00    -0.003 C 
ATOM     12  C   UNL     1       7.234   1.008 398.743  1.00  0.00     0.004 C 
ENDBRANCH  10  11
ENDBRANCH   9  10
ENDBRANCH   8   9
ENDBRANCH   7   8
ENDBRANCH   6   7
ENDBRANCH   5   6
ENDBRANCH   4   5
ENDBRANCH   3   4
ENDBRANCH   2   3
ENDBRANCH   1   2
BRANCH   1  13
ATOM     13  C   UNL     1       5.571  -4.055 401.031  1.00  0.00     0.000 C 
BRANCH  13  14
ATOM     14  C   UNL     1       4.405  -4.779 401.724  1.00  0.00     0.000 C 
BRANCH  14  15
ATOM     15  C   UNL     1       4.815  -6.150 402.292  1.00  0.00     0.000 C 
BRANCH  15  16
ATOM     16  C   UNL     1       5.666  -6.030 403.567  1.00  0.00     0.000 C 
BRANCH  16  17
ATOM     17  C   UNL     1       4.996  -5.170 404.649  1.00  0.00     0.000 C 
BRANCH  17  18
ATOM     18  C   UNL     1       5.984  -4.143 405.223  1.00  0.00     0.000 C 
BRANCH  18  19
ATOM     19  C   UNL     1       6.102  -2.874 404.358  1.00  0.00     0.000 C 
BRANCH  19  20
ATOM     20  C   UNL     1       5.244  -1.684 404.829  1.00  0.00     0.006 C 
BRANCH  20  21
ATOM     21  C   UNL     1       3.835  -1.686 404.223  1.00  0.00     0.053 C 
BRANCH  21  22
ATOM     22  C   UNL     1       2.864  -2.326 405.164  1.00  0.00     0.041 C 
ATOM     23  O   UNL     1       1.913  -3.021 404.717  1.00  0.00    -0.550 OA
ATOM     24  O   UNL     1       3.036  -2.196 406.536  1.00  0.00    -0.550 OA
ENDBRANCH  21  22
ENDBRANCH  20  21
ENDBRANCH  19  20
ENDBRANCH  18  19
ENDBRANCH  17  18
ENDBRANCH  16  17
ENDBRANCH  15  16
ENDBRANCH  14  15
ENDBRANCH  13  14
ENDBRANCH   1  13
TORSDOF 20
ENDMDL
MODEL 7
REMARK VINA RESULT:    -3.797      2.293      5.956
REMARK INTER + INTRA:         -11.524
REMARK INTER:                  -8.092
REMARK INTRA:                  -3.432
REMARK UNBOUND:                -3.287
REMARK SMILES CCCCCCCCCCCCCCCCCCCCCC(=O)[O-]
REMARK SMILES IDX 12 1 11 2 10 3 9 4 8 5 7 6 6 7 5 8 4 9 3 10 2 11 1 12 13 13
REMARK SMILES IDX 14 14 15 15 16 16 17 17 18 18 19 19 20 20 21 21 22 22 23 23
REMARK SMILES IDX 24 24
REMARK H PARENT
REMARK Flexibility Score: inf
ROOT
ATOM      1  C   UNL     1       6.269  -1.343 405.039  1.00  0.00     0.000 C 
ENDROOT
BRANCH   1   2
ATOM      2  C   UNL     1       6.638  -0.885 403.616  1.00  0.00     0.000 C 
BRANCH   2   3
ATOM      3  C   UNL     1       7.497   0.393 403.543  1.00  0.00     0.000 C 
BRANCH   3   4
ATOM      4  C   UNL     1       6.791   1.619 402.930  1.00  0.00    -0.000 C 
BRANCH   4   5
ATOM      5  C   UNL     1       5.574   2.135 403.724  1.00  0.00    -0.000 C 
BRANCH   5   6
ATOM      6  C   UNL     1       4.215   1.950 403.026  1.00  0.00    -0.000 C 
BRANCH   6   7
ATOM      7  C   UNL     1       4.063   2.825 401.772  1.00  0.00    -0.000 C 
BRANCH   7   8
ATOM      8  C   UNL     1       3.517   2.006 400.594  1.00  0.00    -0.000 C 
BRANCH   8   9
ATOM      9  C   UNL     1       3.548   0.488 400.852  1.00  0.00    -0.000 C 
BRANCH   9  10
ATOM     10  C   UNL     1       4.312  -0.336 399.801  1.00  0.00    -0.000 C 
BRANCH  10  11
ATOM     11  C   UNL     1       5.806  -0.480 400.121  1.00  0.00    -0.003 C 
ATOM     12  C   UNL     1       6.636   0.542 399.349  1.00  0.00     0.004 C 
ENDBRANCH  10  11
ENDBRANCH   9  10
ENDBRANCH   8   9
ENDBRANCH   7   8
ENDBRANCH   6   7
ENDBRANCH   5   6
ENDBRANCH   4   5
ENDBRANCH   3   4
ENDBRANCH   2   3
ENDBRANCH   1   2
BRANCH   1  13
ATOM     13  C   UNL     1       4.782  -1.718 405.177  1.00  0.00     0.000 C 
BRANCH  13  14
ATOM     14  C   UNL     1       4.026  -1.628 403.841  1.00  0.00     0.000 C 
BRANCH  14  15
ATOM     15  C   UNL     1       3.402  -2.972 403.425  1.00  0.00     0.000 C 
BRANCH  15  16
ATOM     16  C   UNL     1       3.692  -3.329 401.958  1.00  0.00     0.000 C 
BRANCH  16  17
ATOM     17  C   UNL     1       5.136  -3.805 401.737  1.00  0.00     0.000 C 
BRANCH  17  18
ATOM     18  C   UNL     1       5.277  -5.299 402.062  1.00  0.00     0.000 C 
BRANCH  18  19
ATOM     19  C   UNL     1       4.024  -6.115 401.693  1.00  0.00     0.000 C 
BRANCH  19  20
ATOM     20  C   UNL     1       4.012  -7.564 402.218  1.00  0.00     0.006 C 
BRANCH  20  21
ATOM     21  C   UNL     1       5.369  -8.006 402.781  1.00  0.00     0.053 C 
BRANCH  21  22
ATOM     22  C   UNL     1       5.236  -8.390 404.221  1.00  0.00     0.041 C 
ATOM     23  O   UNL     1       5.717  -7.650 405.120  1.00  0.00    -0.550 OA
ATOM     24  O   UNL     1       4.538  -9.537 404.574  1.00  0.00    -0.550 OA
ENDBRANCH  21  22
ENDBRANCH  20  21
ENDBRANCH  19  20
ENDBRANCH  18  19
ENDBRANCH  17  18
ENDBRANCH  16  17
ENDBRANCH  15  16
ENDBRANCH  14  15
ENDBRANCH  13  14
ENDBRANCH   1  13
TORSDOF 20
ENDMDL
MODEL 8
REMARK VINA RESULT:    -3.781      3.067      5.719
REMARK INTER + INTRA:         -11.488
REMARK INTER:                  -7.430
REMARK INTRA:                  -4.058
REMARK UNBOUND:                -3.287
REMARK SMILES CCCCCCCCCCCCCCCCCCCCCC(=O)[O-]
REMARK SMILES IDX 12 1 11 2 10 3 9 4 8 5 7 6 6 7 5 8 4 9 3 10 2 11 1 12 13 13
REMARK SMILES IDX 14 14 15 15 16 16 17 17 18 18 19 19 20 20 21 21 22 22 23 23
REMARK SMILES IDX 24 24
REMARK H PARENT
REMARK Flexibility Score: inf
ROOT
ATOM      1  C   UNL     1       6.648  -2.099 404.530  1.00  0.00     0.000 C 
ENDROOT
BRANCH   1   2
ATOM      2  C   UNL     1       6.857  -1.619 405.978  1.00  0.00     0.000 C 
BRANCH   2   3
ATOM      3  C   UNL     1       5.771  -2.063 406.978  1.00  0.00     0.000 C 
BRANCH   3   4
ATOM      4  C   UNL     1       4.619  -2.885 406.367  1.00  0.00    -0.000 C 
BRANCH   4   5
ATOM      5  C   UNL     1       3.353  -2.076 406.020  1.00  0.00    -0.000 C 
BRANCH   5   6
ATOM      6  C   UNL     1       2.518  -2.642 404.857  1.00  0.00    -0.000 C 
BRANCH   6   7
ATOM      7  C   UNL     1       3.256  -3.733 404.066  1.00  0.00    -0.000 C 
BRANCH   7   8
ATOM      8  C   UNL     1       3.576  -3.258 402.642  1.00  0.00    -0.000 C 
BRANCH   8   9
ATOM      9  C   UNL     1       3.924  -4.415 401.687  1.00  0.00    -0.000 C 
BRANCH   9  10
ATOM     10  C   UNL     1       5.421  -4.564 401.362  1.00  0.00    -0.000 C 
BRANCH  10  11
ATOM     11  C   UNL     1       5.972  -3.401 400.525  1.00  0.00    -0.003 C 
ATOM     12  C   UNL     1       7.461  -3.190 400.787  1.00  0.00     0.004 C 
ENDBRANCH  10  11
ENDBRANCH   9  10
ENDBRANCH   8   9
ENDBRANCH   7   8
ENDBRANCH   6   7
ENDBRANCH   5   6
ENDBRANCH   4   5
ENDBRANCH   3   4
ENDBRANCH   2   3
ENDBRANCH   1   2
BRANCH   1  13
ATOM     13  C   UNL     1       6.304  -0.950 403.566  1.00  0.00     0.000 C 
BRANCH  13  14
ATOM     14  C   UNL     1       6.264   0.418 404.268  1.00  0.00     0.000 C 
BRANCH  14  15
ATOM     15  C   UNL     1       4.895   1.109 404.138  1.00  0.00     0.000 C 
BRANCH  15  16
ATOM     16  C   UNL     1       3.958   0.384 403.158  1.00  0.00     0.000 C 
BRANCH  16  17
ATOM     17  C   UNL     1       3.588   1.249 401.943  1.00  0.00     0.000 C 
BRANCH  17  18
ATOM     18  C   UNL     1       3.526   0.400 400.665  1.00  0.00     0.000 C 
BRANCH  18  19
ATOM     19  C   UNL     1       4.917  -0.031 400.162  1.00  0.00     0.000 C 
BRANCH  19  20
ATOM     20  C   UNL     1       5.975   1.088 400.136  1.00  0.00     0.006 C 
BRANCH  20  21
ATOM     21  C   UNL     1       7.408   0.558 400.278  1.00  0.00     0.053 C 
BRANCH  21  22
ATOM     22  C   UNL     1       8.052   0.429 398.934  1.00  0.00     0.041 C 
ATOM     23  O   UNL     1       7.406   0.718 397.892  1.00  0.00    -0.550 OA
ATOM     24  O   UNL     1       9.380   0.035 398.833  1.00  0.00    -0.550 OA
ENDBRANCH  21  22
ENDBRANCH  20  21
ENDBRANCH  19  20
ENDBRANCH  18  19
ENDBRANCH  17  18
ENDBRANCH  16  17
ENDBRANCH  15  16
ENDBRANCH  14  15
ENDBRANCH  13  14
ENDBRANCH   1  13
TORSDOF 20
ENDMDL
MODEL 9
REMARK VINA RESULT:    -3.768      2.144      5.548
REMARK INTER + INTRA:         -11.461
REMARK INTER:                  -7.961
REMARK INTRA:                  -3.500
REMARK UNBOUND:                -3.287
REMARK SMILES CCCCCCCCCCCCCCCCCCCCCC(=O)[O-]
REMARK SMILES IDX 12 1 11 2 10 3 9 4 8 5 7 6 6 7 5 8 4 9 3 10 2 11 1 12 13 13
REMARK SMILES IDX 14 14 15 15 16 16 17 17 18 18 19 19 20 20 21 21 22 22 23 23
REMARK SMILES IDX 24 24
REMARK H PARENT
REMARK Flexibility Score: inf
ROOT
ATOM      1  C   UNL     1       6.108  -1.537 406.450  1.00  0.00     0.000 C 
ENDROOT
BRANCH   1   2
ATOM      2  C   UNL     1       6.845  -1.035 405.195  1.00  0.00     0.000 C 
BRANCH   2   3
ATOM      3  C   UNL     1       5.933  -0.572 404.042  1.00  0.00     0.000 C 
BRANCH   3   4
ATOM      4  C   UNL     1       5.580   0.928 404.051  1.00  0.00    -0.000 C 
BRANCH   4   5
ATOM      5  C   UNL     1       4.252   1.290 403.356  1.00  0.00    -0.000 C 
BRANCH   5   6
ATOM      6  C   UNL     1       4.349   2.417 402.312  1.00  0.00    -0.000 C 
BRANCH   6   7
ATOM      7  C   UNL     1       3.793   2.010 400.939  1.00  0.00    -0.000 C 
BRANCH   7   8
ATOM      8  C   UNL     1       3.574   0.492 400.864  1.00  0.00    -0.000 C 
BRANCH   8   9
ATOM      9  C   UNL     1       4.532  -0.205 399.880  1.00  0.00    -0.000 C 
BRANCH   9  10
ATOM     10  C   UNL     1       5.846  -0.714 400.500  1.00  0.00    -0.000 C 
BRANCH  10  11
ATOM     11  C   UNL     1       7.016   0.262 400.313  1.00  0.00    -0.003 C 
ATOM     12  C   UNL     1       6.980   0.907 398.930  1.00  0.00     0.004 C 
ENDBRANCH  10  11
ENDBRANCH   9  10
ENDBRANCH   8   9
ENDBRANCH   7   8
ENDBRANCH   6   7
ENDBRANCH   5   6
ENDBRANCH   4   5
ENDBRANCH   3   4
ENDBRANCH   2   3
ENDBRANCH   1   2
BRANCH   1  13
ATOM     13  C   UNL     1       5.118  -2.674 406.144  1.00  0.00     0.000 C 
BRANCH  13  14
ATOM     14  C   UNL     1       3.652  -2.239 406.310  1.00  0.00     0.000 C 
BRANCH  14  15
ATOM     15  C   UNL     1       2.866  -2.298 404.989  1.00  0.00     0.000 C 
BRANCH  15  16
ATOM     16  C   UNL     1       3.309  -3.462 404.089  1.00  0.00     0.000 C 
BRANCH  16  17
ATOM     17  C   UNL     1       3.319  -3.089 402.598  1.00  0.00     0.000 C 
BRANCH  17  18
ATOM     18  C   UNL     1       4.658  -3.469 401.947  1.00  0.00     0.000 C 
BRANCH  18  19
ATOM     19  C   UNL     1       5.672  -4.047 402.952  1.00  0.00     0.000 C 
BRANCH  19  20
ATOM     20  C   UNL     1       6.288  -5.400 402.551  1.00  0.00     0.006 C 
BRANCH  20  21
ATOM     21  C   UNL     1       5.379  -6.221 401.628  1.00  0.00     0.053 C 
BRANCH  21  22
ATOM     22  C   UNL     1       4.467  -7.092 402.434  1.00  0.00     0.041 C 
ATOM     23  O   UNL     1       3.414  -7.553 401.919  1.00  0.00    -0.550 OA
ATOM     24  O   UNL     1       4.804  -7.433 403.737  1.00  0.00    -0.550 OA
ENDBRANCH  21  22
ENDBRANCH  20  21
ENDBRANCH  19  20
ENDBRANCH  18  19
ENDBRANCH  17  18
ENDBRANCH  16  17
ENDBRANCH  15  16
ENDBRANCH  14  15
ENDBRANCH  13  14
ENDBRANCH   1  13
TORSDOF 20
ENDMDL
