MODEL 1
REMARK VINA RESULT:    -3.133      0.000      0.000
REMARK INTER + INTRA:         -11.135
REMARK INTER:                  -7.163
REMARK INTRA:                  -3.972
REMARK UNBOUND:                -3.972
REMARK SMILES CCCCCCCCCCCCCCCCCCCCCCCC(=O)[O-]
REMARK SMILES IDX 13 1 14 2 15 3 16 4 17 5 18 6 19 7 20 8 21 9 22 10 23 11
REMARK SMILES IDX 24 12 25 13 26 14 12 15 11 16 10 17 9 18 8 19 7 20 6 21 5 22
REMARK SMILES IDX 4 23 3 24 2 25 1 26
REMARK H PARENT
REMARK Flexibility Score: inf
ROOT
ATOM      1  C   UNL     1     -19.125  40.292  94.346  1.00  0.00     0.000 C 
ENDROOT
BRANCH   1   2
ATOM      2  C   UNL     1     -20.071  41.026  93.381  1.00  0.00     0.000 C 
BRANCH   2   3
ATOM      3  C   UNL     1     -20.780  40.069  92.406  1.00  0.00     0.000 C 
BRANCH   3   4
ATOM      4  C   UNL     1     -20.542  38.587  92.760  1.00  0.00     0.000 C 
BRANCH   4   5
ATOM      5  C   UNL     1     -19.764  37.807  91.684  1.00  0.00     0.000 C 
BRANCH   5   6
ATOM      6  C   UNL     1     -18.787  38.695  90.896  1.00  0.00     0.000 C 
BRANCH   6   7
ATOM      7  C   UNL     1     -17.375  38.739  91.512  1.00  0.00     0.000 C 
BRANCH   7   8
ATOM      8  C   UNL     1     -17.081  37.657  92.569  1.00  0.00     0.000 C 
BRANCH   8   9
ATOM      9  C   UNL     1     -16.150  38.090  93.718  1.00  0.00     0.000 C 
BRANCH   9  10
ATOM     10  C   UNL     1     -15.011  39.039  93.282  1.00  0.00     0.006 C 
BRANCH  10  11
ATOM     11  C   UNL     1     -14.553  40.020  94.374  1.00  0.00     0.053 C 
BRANCH  11  12
ATOM     12  C   UNL     1     -13.361  40.829  93.949  1.00  0.00     0.041 C 
ATOM     13  O   UNL     1     -13.035  41.859  94.596  1.00  0.00    -0.550 OA
ATOM     14  O   UNL     1     -12.595  40.433  92.858  1.00  0.00    -0.550 OA
ENDBRANCH  11  12
ENDBRANCH  10  11
ENDBRANCH   9  10
ENDBRANCH   8   9
ENDBRANCH   7   8
ENDBRANCH   6   7
ENDBRANCH   5   6
ENDBRANCH   4   5
ENDBRANCH   3   4
ENDBRANCH   2   3
ENDBRANCH   1   2
BRANCH   1  15
ATOM     15  C   UNL     1     -17.932  41.159  94.779  1.00  0.00     0.000 C 
BRANCH  15  16
ATOM     16  C   UNL     1     -17.730  41.085  96.299  1.00  0.00     0.000 C 
BRANCH  16  17
ATOM     17  C   UNL     1     -18.768  41.911  97.080  1.00  0.00     0.000 C 
BRANCH  17  18
ATOM     18  C   UNL     1     -19.399  41.192  98.288  1.00  0.00    -0.000 C 
BRANCH  18  19
ATOM     19  C   UNL     1     -19.645  39.680  98.104  1.00  0.00    -0.000 C 
BRANCH  19  20
ATOM     20  C   UNL     1     -20.900  39.315  97.290  1.00  0.00    -0.000 C 
BRANCH  20  21
ATOM     21  C   UNL     1     -20.947  37.829  96.889  1.00  0.00    -0.000 C 
BRANCH  21  22
ATOM     22  C   UNL     1     -19.553  37.165  96.927  1.00  0.00    -0.000 C 
BRANCH  22  23
ATOM     23  C   UNL     1     -19.040  36.691  95.551  1.00  0.00    -0.000 C 
BRANCH  23  24
ATOM     24  C   UNL     1     -19.979  35.739  94.790  1.00  0.00    -0.000 C 
BRANCH  24  25
ATOM     25  C   UNL     1     -19.345  34.368  94.505  1.00  0.00    -0.003 C 
ATOM     26  C   UNL     1     -20.326  33.237  94.809  1.00  0.00     0.004 C 
ENDBRANCH  24  25
ENDBRANCH  23  24
ENDBRANCH  22  23
ENDBRANCH  21  22
ENDBRANCH  20  21
ENDBRANCH  19  20
ENDBRANCH  18  19
ENDBRANCH  17  18
ENDBRANCH  16  17
ENDBRANCH  15  16
ENDBRANCH   1  15
TORSDOF 22
ENDMDL
MODEL 2
REMARK VINA RESULT:    -3.107      3.578      6.621
REMARK INTER + INTRA:         -11.074
REMARK INTER:                  -6.739
REMARK INTRA:                  -4.335
REMARK UNBOUND:                -3.972
REMARK SMILES CCCCCCCCCCCCCCCCCCCCCCCC(=O)[O-]
REMARK SMILES IDX 13 1 14 2 15 3 16 4 17 5 18 6 19 7 20 8 21 9 22 10 23 11
REMARK SMILES IDX 24 12 25 13 26 14 12 15 11 16 10 17 9 18 8 19 7 20 6 21 5 22
REMARK SMILES IDX 4 23 3 24 2 25 1 26
REMARK H PARENT
REMARK Flexibility Score: inf
ROOT
ATOM      1  C   UNL     1     -19.270  41.494  93.957  1.00  0.00     0.000 C 
ENDROOT
BRANCH   1   2
ATOM      2  C   UNL     1     -17.783  41.142  94.130  1.00  0.00     0.000 C 
BRANCH   2   3
ATOM      3  C   UNL     1     -17.347  41.126  95.606  1.00  0.00     0.000 C 
BRANCH   3   4
ATOM      4  C   UNL     1     -18.499  41.497  96.563  1.00  0.00     0.000 C 
BRANCH   4   5
ATOM      5  C   UNL     1     -18.825  40.406  97.598  1.00  0.00     0.000 C 
BRANCH   5   6
ATOM      6  C   UNL     1     -19.927  39.445  97.124  1.00  0.00     0.000 C 
BRANCH   6   7
ATOM      7  C   UNL     1     -19.610  37.966  97.417  1.00  0.00     0.000 C 
BRANCH   7   8
ATOM      8  C   UNL     1     -20.644  36.952  96.891  1.00  0.00     0.000 C 
BRANCH   8   9
ATOM      9  C   UNL     1     -20.058  35.729  96.157  1.00  0.00     0.000 C 
BRANCH   9  10
ATOM     10  C   UNL     1     -21.125  34.751  95.615  1.00  0.00     0.006 C 
BRANCH  10  11
ATOM     11  C   UNL     1     -20.616  33.811  94.509  1.00  0.00     0.053 C 
BRANCH  11  12
ATOM     12  C   UNL     1     -20.203  32.471  95.045  1.00  0.00     0.041 C 
ATOM     13  O   UNL     1     -19.761  31.588  94.264  1.00  0.00    -0.550 OA
ATOM     14  O   UNL     1     -20.278  32.207  96.408  1.00  0.00    -0.550 OA
ENDBRANCH  11  12
ENDBRANCH  10  11
ENDBRANCH   9  10
ENDBRANCH   8   9
ENDBRANCH   7   8
ENDBRANCH   6   7
ENDBRANCH   5   6
ENDBRANCH   4   5
ENDBRANCH   3   4
ENDBRANCH   2   3
ENDBRANCH   1   2
BRANCH   1  15
ATOM     15  C   UNL     1     -19.934  40.715  92.810  1.00  0.00     0.000 C 
BRANCH  15  16
ATOM     16  C   UNL     1     -20.992  39.745  93.353  1.00  0.00     0.000 C 
BRANCH  16  17
ATOM     17  C   UNL     1     -20.434  38.331  93.599  1.00  0.00     0.000 C 
BRANCH  17  18
ATOM     18  C   UNL     1     -21.125  37.208  92.801  1.00  0.00    -0.000 C 
BRANCH  18  19
ATOM     19  C   UNL     1     -20.255  36.535  91.719  1.00  0.00    -0.000 C 
BRANCH  19  20
ATOM     20  C   UNL     1     -18.997  37.320  91.307  1.00  0.00    -0.000 C 
BRANCH  20  21
ATOM     21  C   UNL     1     -17.689  36.644  91.759  1.00  0.00    -0.000 C 
BRANCH  21  22
ATOM     22  C   UNL     1     -16.581  37.668  92.089  1.00  0.00    -0.000 C 
BRANCH  22  23
ATOM     23  C   UNL     1     -16.402  37.944  93.597  1.00  0.00    -0.000 C 
BRANCH  23  24
ATOM     24  C   UNL     1     -17.182  37.007  94.535  1.00  0.00    -0.000 C 
BRANCH  24  25
ATOM     25  C   UNL     1     -16.455  36.741  95.862  1.00  0.00    -0.003 C 
ATOM     26  C   UNL     1     -15.680  37.975  96.320  1.00  0.00     0.004 C 
ENDBRANCH  24  25
ENDBRANCH  23  24
ENDBRANCH  22  23
ENDBRANCH  21  22
ENDBRANCH  20  21
ENDBRANCH  19  20
ENDBRANCH  18  19
ENDBRANCH  17  18
ENDBRANCH  16  17
ENDBRANCH  15  16
ENDBRANCH   1  15
TORSDOF 22
ENDMDL
MODEL 3
REMARK VINA RESULT:    -3.093      2.850      5.195
REMARK INTER + INTRA:         -11.042
REMARK INTER:                  -7.894
REMARK INTRA:                  -3.148
REMARK UNBOUND:                -3.972
REMARK SMILES CCCCCCCCCCCCCCCCCCCCCCCC(=O)[O-]
REMARK SMILES IDX 13 1 14 2 15 3 16 4 17 5 18 6 19 7 20 8 21 9 22 10 23 11
REMARK SMILES IDX 24 12 25 13 26 14 12 15 11 16 10 17 9 18 8 19 7 20 6 21 5 22
REMARK SMILES IDX 4 23 3 24 2 25 1 26
REMARK H PARENT
REMARK Flexibility Score: inf
ROOT
ATOM      1  C   UNL     1     -15.692  39.698  94.756  1.00  0.00     0.000 C 
ENDROOT
BRANCH   1   2
ATOM      2  C   UNL     1     -16.332  41.092  94.872  1.00  0.00     0.000 C 
BRANCH   2   3
ATOM      3  C   UNL     1     -17.436  41.148  95.943  1.00  0.00     0.000 C 
BRANCH   3   4
ATOM      4  C   UNL     1     -18.851  41.075  95.331  1.00  0.00     0.000 C 
BRANCH   4   5
ATOM      5  C   UNL     1     -18.896  41.400  93.827  1.00  0.00     0.000 C 
BRANCH   5   6
ATOM      6  C   UNL     1     -20.274  41.132  93.202  1.00  0.00     0.000 C 
BRANCH   6   7
ATOM      7  C   UNL     1     -20.384  39.741  92.548  1.00  0.00     0.000 C 
BRANCH   7   8
ATOM      8  C   UNL     1     -19.168  39.308  91.706  1.00  0.00     0.000 C 
BRANCH   8   9
ATOM      9  C   UNL     1     -19.499  38.546  90.408  1.00  0.00     0.000 C 
BRANCH   9  10
ATOM     10  C   UNL     1     -19.519  37.010  90.569  1.00  0.00     0.006 C 
BRANCH  10  11
ATOM     11  C   UNL     1     -19.228  36.235  89.272  1.00  0.00     0.053 C 
BRANCH  11  12
ATOM     12  C   UNL     1     -17.843  35.654  89.255  1.00  0.00     0.041 C 
ATOM     13  O   UNL     1     -16.859  36.358  89.606  1.00  0.00    -0.550 OA
ATOM     14  O   UNL     1     -17.641  34.331  88.879  1.00  0.00    -0.550 OA
ENDBRANCH  11  12
ENDBRANCH  10  11
ENDBRANCH   9  10
ENDBRANCH   8   9
ENDBRANCH   7   8
ENDBRANCH   6   7
ENDBRANCH   5   6
ENDBRANCH   4   5
ENDBRANCH   3   4
ENDBRANCH   2   3
ENDBRANCH   1   2
BRANCH   1  15
ATOM     15  C   UNL     1     -15.956  39.037  93.394  1.00  0.00     0.000 C 
BRANCH  15  16
ATOM     16  C   UNL     1     -16.709  37.711  93.569  1.00  0.00     0.000 C 
BRANCH  16  17
ATOM     17  C   UNL     1     -17.251  37.518  94.997  1.00  0.00     0.000 C 
BRANCH  17  18
ATOM     18  C   UNL     1     -18.788  37.553  95.122  1.00  0.00    -0.000 C 
BRANCH  18  19
ATOM     19  C   UNL     1     -19.460  36.192  95.398  1.00  0.00    -0.000 C 
BRANCH  19  20
ATOM     20  C   UNL     1     -20.029  35.479  94.158  1.00  0.00    -0.000 C 
BRANCH  20  21
ATOM     21  C   UNL     1     -19.693  33.977  94.119  1.00  0.00    -0.000 C 
BRANCH  21  22
ATOM     22  C   UNL     1     -18.442  33.631  94.956  1.00  0.00    -0.000 C 
BRANCH  22  23
ATOM     23  C   UNL     1     -18.411  32.179  95.478  1.00  0.00    -0.000 C 
BRANCH  23  24
ATOM     24  C   UNL     1     -19.273  31.178  94.692  1.00  0.00    -0.000 C 
BRANCH  24  25
ATOM     25  C   UNL     1     -18.498  30.464  93.573  1.00  0.00    -0.003 C 
ATOM     26  C   UNL     1     -17.754  29.244  94.114  1.00  0.00     0.004 C 
ENDBRANCH  24  25
ENDBRANCH  23  24
ENDBRANCH  22  23
ENDBRANCH  21  22
ENDBRANCH  20  21
ENDBRANCH  19  20
ENDBRANCH  18  19
ENDBRANCH  17  18
ENDBRANCH  16  17
ENDBRANCH  15  16
ENDBRANCH   1  15
TORSDOF 22
ENDMDL
MODEL 4
REMARK VINA RESULT:    -3.091      1.925      4.362
REMARK INTER + INTRA:         -11.039
REMARK INTER:                  -6.439
REMARK INTRA:                  -4.600
REMARK UNBOUND:                -3.972
REMARK SMILES CCCCCCCCCCCCCCCCCCCCCCCC(=O)[O-]
REMARK SMILES IDX 13 1 14 2 15 3 16 4 17 5 18 6 19 7 20 8 21 9 22 10 23 11
REMARK SMILES IDX 24 12 25 13 26 14 12 15 11 16 10 17 9 18 8 19 7 20 6 21 5 22
REMARK SMILES IDX 4 23 3 24 2 25 1 26
REMARK H PARENT
REMARK Flexibility Score: inf
ROOT
ATOM      1  C   UNL     1     -18.278  41.414  96.203  1.00  0.00     0.000 C 
ENDROOT
BRANCH   1   2
ATOM      2  C   UNL     1     -18.459  40.065  96.919  1.00  0.00     0.000 C 
BRANCH   2   3
ATOM      3  C   UNL     1     -19.937  39.648  97.029  1.00  0.00     0.000 C 
BRANCH   3   4
ATOM      4  C   UNL     1     -20.250  38.376  96.215  1.00  0.00     0.000 C 
BRANCH   4   5
ATOM      5  C   UNL     1     -19.210  37.254  96.388  1.00  0.00     0.000 C 
BRANCH   5   6
ATOM      6  C   UNL     1     -19.416  36.094  95.402  1.00  0.00     0.000 C 
BRANCH   6   7
ATOM      7  C   UNL     1     -18.099  35.559  94.808  1.00  0.00     0.000 C 
BRANCH   7   8
ATOM      8  C   UNL     1     -16.880  36.491  94.958  1.00  0.00     0.000 C 
BRANCH   8   9
ATOM      9  C   UNL     1     -16.745  37.584  93.880  1.00  0.00     0.000 C 
BRANCH   9  10
ATOM     10  C   UNL     1     -15.291  37.848  93.431  1.00  0.00     0.006 C 
BRANCH  10  11
ATOM     11  C   UNL     1     -15.145  38.968  92.387  1.00  0.00     0.053 C 
BRANCH  11  12
ATOM     12  C   UNL     1     -14.647  38.455  91.067  1.00  0.00     0.041 C 
ATOM     13  O   UNL     1     -15.393  38.492  90.053  1.00  0.00    -0.550 OA
ATOM     14  O   UNL     1     -13.351  37.963  90.948  1.00  0.00    -0.550 OA
ENDBRANCH  11  12
ENDBRANCH  10  11
ENDBRANCH   9  10
ENDBRANCH   8   9
ENDBRANCH   7   8
ENDBRANCH   6   7
ENDBRANCH   5   6
ENDBRANCH   4   5
ENDBRANCH   3   4
ENDBRANCH   2   3
ENDBRANCH   1   2
BRANCH   1  15
ATOM     15  C   UNL     1     -17.280  41.336  95.036  1.00  0.00     0.000 C 
BRANCH  15  16
ATOM     16  C   UNL     1     -17.967  40.813  93.767  1.00  0.00     0.000 C 
BRANCH  16  17
ATOM     17  C   UNL     1     -19.406  41.335  93.610  1.00  0.00     0.000 C 
BRANCH  17  18
ATOM     18  C   UNL     1     -20.405  40.326  93.007  1.00  0.00    -0.000 C 
BRANCH  18  19
ATOM     19  C   UNL     1     -19.776  39.049  92.412  1.00  0.00    -0.000 C 
BRANCH  19  20
ATOM     20  C   UNL     1     -20.626  37.774  92.554  1.00  0.00    -0.000 C 
BRANCH  20  21
ATOM     21  C   UNL     1     -20.127  36.614  91.672  1.00  0.00    -0.000 C 
BRANCH  21  22
ATOM     22  C   UNL     1     -19.492  37.108  90.354  1.00  0.00    -0.000 C 
BRANCH  22  23
ATOM     23  C   UNL     1     -18.174  36.398  89.981  1.00  0.00    -0.000 C 
BRANCH  23  24
ATOM     24  C   UNL     1     -17.552  35.538  91.094  1.00  0.00    -0.000 C 
BRANCH  24  25
ATOM     25  C   UNL     1     -16.126  35.069  90.768  1.00  0.00    -0.003 C 
ATOM     26  C   UNL     1     -15.459  34.447  91.993  1.00  0.00     0.004 C 
ENDBRANCH  24  25
ENDBRANCH  23  24
ENDBRANCH  22  23
ENDBRANCH  21  22
ENDBRANCH  20  21
ENDBRANCH  19  20
ENDBRANCH  18  19
ENDBRANCH  17  18
ENDBRANCH  16  17
ENDBRANCH  15  16
ENDBRANCH   1  15
TORSDOF 22
ENDMDL
MODEL 5
REMARK VINA RESULT:    -3.081      9.805     14.712
REMARK INTER + INTRA:         -11.016
REMARK INTER:                  -7.007
REMARK INTRA:                  -4.009
REMARK UNBOUND:                -3.972
REMARK SMILES CCCCCCCCCCCCCCCCCCCCCCCC(=O)[O-]
REMARK SMILES IDX 13 1 14 2 15 3 16 4 17 5 18 6 19 7 20 8 21 9 22 10 23 11
REMARK SMILES IDX 24 12 25 13 26 14 12 15 11 16 10 17 9 18 8 19 7 20 6 21 5 22
REMARK SMILES IDX 4 23 3 24 2 25 1 26
REMARK H PARENT
REMARK Flexibility Score: inf
ROOT
ATOM      1  C   UNL     1      -2.675  41.739  96.167  1.00  0.00     0.000 C 
ENDROOT
BRANCH   1   2
ATOM      2  C   UNL     1      -3.383  43.007  96.672  1.00  0.00     0.000 C 
BRANCH   2   3
ATOM      3  C   UNL     1      -2.947  44.271  95.909  1.00  0.00     0.000 C 
BRANCH   3   4
ATOM      4  C   UNL     1      -3.756  44.481  94.611  1.00  0.00     0.000 C 
BRANCH   4   5
ATOM      5  C   UNL     1      -5.236  44.829  94.850  1.00  0.00     0.000 C 
BRANCH   5   6
ATOM      6  C   UNL     1      -6.197  43.850  94.155  1.00  0.00     0.000 C 
BRANCH   6   7
ATOM      7  C   UNL     1      -7.290  43.303  95.092  1.00  0.00     0.000 C 
BRANCH   7   8
ATOM      8  C   UNL     1      -8.313  42.357  94.434  1.00  0.00     0.000 C 
BRANCH   8   9
ATOM      9  C   UNL     1      -9.548  42.018  95.291  1.00  0.00     0.000 C 
BRANCH   9  10
ATOM     10  C   UNL     1      -9.305  42.120  96.813  1.00  0.00     0.006 C 
BRANCH  10  11
ATOM     11  C   UNL     1     -10.393  42.896  97.576  1.00  0.00     0.053 C 
BRANCH  11  12
ATOM     12  C   UNL     1     -10.097  44.366  97.651  1.00  0.00     0.041 C 
ATOM     13  O   UNL     1     -11.028  45.204  97.527  1.00  0.00    -0.550 OA
ATOM     14  O   UNL     1      -8.800  44.811  97.885  1.00  0.00    -0.550 OA
ENDBRANCH  11  12
ENDBRANCH  10  11
ENDBRANCH   9  10
ENDBRANCH   8   9
ENDBRANCH   7   8
ENDBRANCH   6   7
ENDBRANCH   5   6
ENDBRANCH   4   5
ENDBRANCH   3   4
ENDBRANCH   2   3
ENDBRANCH   1   2
BRANCH   1  15
ATOM     15  C   UNL     1      -2.188  40.837  97.312  1.00  0.00     0.000 C 
BRANCH  15  16
ATOM     16  C   UNL     1      -1.923  39.412  96.806  1.00  0.00     0.000 C 
BRANCH  16  17
ATOM     17  C   UNL     1      -1.241  39.386  95.426  1.00  0.00     0.000 C 
BRANCH  17  18
ATOM     18  C   UNL     1      -1.369  38.055  94.659  1.00  0.00    -0.000 C 
BRANCH  18  19
ATOM     19  C   UNL     1      -1.510  38.184  93.128  1.00  0.00    -0.000 C 
BRANCH  19  20
ATOM     20  C   UNL     1      -1.910  39.582  92.623  1.00  0.00    -0.000 C 
BRANCH  20  21
ATOM     21  C   UNL     1      -3.404  39.691  92.267  1.00  0.00    -0.000 C 
BRANCH  21  22
ATOM     22  C   UNL     1      -4.128  40.776  93.094  1.00  0.00    -0.000 C 
BRANCH  22  23
ATOM     23  C   UNL     1      -5.338  40.257  93.898  1.00  0.00    -0.000 C 
BRANCH  23  24
ATOM     24  C   UNL     1      -5.139  38.894  94.580  1.00  0.00    -0.000 C 
BRANCH  24  25
ATOM     25  C   UNL     1      -5.376  38.938  96.098  1.00  0.00    -0.003 C 
ATOM     26  C   UNL     1      -6.077  40.233  96.505  1.00  0.00     0.004 C 
ENDBRANCH  24  25
ENDBRANCH  23  24
ENDBRANCH  22  23
ENDBRANCH  21  22
ENDBRANCH  20  21
ENDBRANCH  19  20
ENDBRANCH  18  19
ENDBRANCH  17  18
ENDBRANCH  16  17
ENDBRANCH  15  16
ENDBRANCH   1  15
TORSDOF 22
ENDMDL
MODEL 6
REMARK VINA RESULT:    -3.079      4.260      7.828
REMARK INTER + INTRA:         -11.011
REMARK INTER:                  -7.598
REMARK INTRA:                  -3.413
REMARK UNBOUND:                -3.972
REMARK SMILES CCCCCCCCCCCCCCCCCCCCCCCC(=O)[O-]
REMARK SMILES IDX 13 1 14 2 15 3 16 4 17 5 18 6 19 7 20 8 21 9 22 10 23 11
REMARK SMILES IDX 24 12 25 13 26 14 12 15 11 16 10 17 9 18 8 19 7 20 6 21 5 22
REMARK SMILES IDX 4 23 3 24 2 25 1 26
REMARK H PARENT
REMARK Flexibility Score: inf
ROOT
ATOM      1  C   UNL     1     -18.609  35.874  93.744  1.00  0.00     0.000 C 
ENDROOT
BRANCH   1   2
ATOM      2  C   UNL     1     -20.066  35.385  93.753  1.00  0.00     0.000 C 
BRANCH   2   3
ATOM      3  C   UNL     1     -20.684  35.394  95.163  1.00  0.00     0.000 C 
BRANCH   3   4
ATOM      4  C   UNL     1     -20.970  33.972  95.688  1.00  0.00     0.000 C 
BRANCH   4   5
ATOM      5  C   UNL     1     -20.675  32.860  94.664  1.00  0.00     0.000 C 
BRANCH   5   6
ATOM      6  C   UNL     1     -19.628  31.852  95.166  1.00  0.00     0.000 C 
BRANCH   6   7
ATOM      7  C   UNL     1     -18.190  32.211  94.744  1.00  0.00     0.000 C 
BRANCH   7   8
ATOM      8  C   UNL     1     -17.772  31.726  93.342  1.00  0.00     0.000 C 
BRANCH   8   9
ATOM      9  C   UNL     1     -18.424  30.409  92.875  1.00  0.00     0.000 C 
BRANCH   9  10
ATOM     10  C   UNL     1     -17.581  29.149  93.173  1.00  0.00     0.006 C 
BRANCH  10  11
ATOM     11  C   UNL     1     -17.998  28.398  94.449  1.00  0.00     0.053 C 
BRANCH  11  12
ATOM     12  C   UNL     1     -17.164  28.784  95.636  1.00  0.00     0.041 C 
ATOM     13  O   UNL     1     -15.913  28.877  95.525  1.00  0.00    -0.550 OA
ATOM     14  O   UNL     1     -17.768  29.068  96.856  1.00  0.00    -0.550 OA
ENDBRANCH  11  12
ENDBRANCH  10  11
ENDBRANCH   9  10
ENDBRANCH   8   9
ENDBRANCH   7   8
ENDBRANCH   6   7
ENDBRANCH   5   6
ENDBRANCH   4   5
ENDBRANCH   3   4
ENDBRANCH   2   3
ENDBRANCH   1   2
BRANCH   1  15
ATOM     15  C   UNL     1     -17.877  35.532  92.436  1.00  0.00     0.000 C 
BRANCH  15  16
ATOM     16  C   UNL     1     -17.474  36.810  91.688  1.00  0.00     0.000 C 
BRANCH  16  17
ATOM     17  C   UNL     1     -18.290  37.029  90.401  1.00  0.00     0.000 C 
BRANCH  17  18
ATOM     18  C   UNL     1     -19.288  38.203  90.453  1.00  0.00    -0.000 C 
BRANCH  18  19
ATOM     19  C   UNL     1     -19.194  39.097  91.707  1.00  0.00    -0.000 C 
BRANCH  19  20
ATOM     20  C   UNL     1     -20.406  39.028  92.653  1.00  0.00    -0.000 C 
BRANCH  20  21
ATOM     21  C   UNL     1     -20.195  39.807  93.964  1.00  0.00    -0.000 C 
BRANCH  21  22
ATOM     22  C   UNL     1     -19.201  40.978  93.798  1.00  0.00    -0.000 C 
BRANCH  22  23
ATOM     23  C   UNL     1     -18.532  41.432  95.113  1.00  0.00    -0.000 C 
BRANCH  23  24
ATOM     24  C   UNL     1     -17.044  41.070  95.254  1.00  0.00    -0.000 C 
BRANCH  24  25
ATOM     25  C   UNL     1     -16.547  40.123  94.151  1.00  0.00    -0.003 C 
ATOM     26  C   UNL     1     -16.370  38.704  94.686  1.00  0.00     0.004 C 
ENDBRANCH  24  25
ENDBRANCH  23  24
ENDBRANCH  22  23
ENDBRANCH  21  22
ENDBRANCH  20  21
ENDBRANCH  19  20
ENDBRANCH  18  19
ENDBRANCH  17  18
ENDBRANCH  16  17
ENDBRANCH  15  16
ENDBRANCH   1  15
TORSDOF 22
ENDMDL
MODEL 7
REMARK VINA RESULT:    -3.075     10.602     15.490
REMARK INTER + INTRA:         -11.003
REMARK INTER:                  -6.951
REMARK INTRA:                  -4.051
REMARK UNBOUND:                -3.972
REMARK SMILES CCCCCCCCCCCCCCCCCCCCCCCC(=O)[O-]
REMARK SMILES IDX 13 1 14 2 15 3 16 4 17 5 18 6 19 7 20 8 21 9 22 10 23 11
REMARK SMILES IDX 24 12 25 13 26 14 12 15 11 16 10 17 9 18 8 19 7 20 6 21 5 22
REMARK SMILES IDX 4 23 3 24 2 25 1 26
REMARK H PARENT
REMARK Flexibility Score: inf
ROOT
ATOM      1  C   UNL     1      -3.035  44.180  95.332  1.00  0.00     0.000 C 
ENDROOT
BRANCH   1   2
ATOM      2  C   UNL     1      -2.111  45.408  95.377  1.00  0.00     0.000 C 
BRANCH   2   3
ATOM      3  C   UNL     1      -2.818  46.661  95.925  1.00  0.00     0.000 C 
BRANCH   3   4
ATOM      4  C   UNL     1      -2.283  47.077  97.311  1.00  0.00     0.000 C 
BRANCH   4   5
ATOM      5  C   UNL     1      -3.283  46.844  98.459  1.00  0.00     0.000 C 
BRANCH   5   6
ATOM      6  C   UNL     1      -4.704  46.543  97.958  1.00  0.00     0.000 C 
BRANCH   6   7
ATOM      7  C   UNL     1      -5.361  45.347  98.675  1.00  0.00     0.000 C 
BRANCH   7   8
ATOM      8  C   UNL     1      -6.638  44.797  98.011  1.00  0.00     0.000 C 
BRANCH   8   9
ATOM      9  C   UNL     1      -6.580  44.659  96.477  1.00  0.00     0.000 C 
BRANCH   9  10
ATOM     10  C   UNL     1      -6.615  43.197  95.976  1.00  0.00     0.006 C 
BRANCH  10  11
ATOM     11  C   UNL     1      -7.861  42.843  95.148  1.00  0.00     0.053 C 
BRANCH  11  12
ATOM     12  C   UNL     1      -8.999  42.368  96.006  1.00  0.00     0.041 C 
ATOM     13  O   UNL     1      -9.190  41.134  96.172  1.00  0.00    -0.550 OA
ATOM     14  O   UNL     1      -9.828  43.283  96.644  1.00  0.00    -0.550 OA
ENDBRANCH  11  12
ENDBRANCH  10  11
ENDBRANCH   9  10
ENDBRANCH   8   9
ENDBRANCH   7   8
ENDBRANCH   6   7
ENDBRANCH   5   6
ENDBRANCH   4   5
ENDBRANCH   3   4
ENDBRANCH   2   3
ENDBRANCH   1   2
BRANCH   1  15
ATOM     15  C   UNL     1      -3.048  43.400  96.657  1.00  0.00     0.000 C 
BRANCH  15  16
ATOM     16  C   UNL     1      -2.683  41.927  96.424  1.00  0.00     0.000 C 
BRANCH  16  17
ATOM     17  C   UNL     1      -3.157  41.405  95.056  1.00  0.00     0.000 C 
BRANCH  17  18
ATOM     18  C   UNL     1      -2.428  40.145  94.549  1.00  0.00    -0.000 C 
BRANCH  18  19
ATOM     19  C   UNL     1      -1.423  39.520  95.539  1.00  0.00    -0.000 C 
BRANCH  19  20
ATOM     20  C   UNL     1      -1.583  38.006  95.767  1.00  0.00    -0.000 C 
BRANCH  20  21
ATOM     21  C   UNL     1      -2.527  37.668  96.936  1.00  0.00    -0.000 C 
BRANCH  21  22
ATOM     22  C   UNL     1      -2.476  38.729  98.058  1.00  0.00    -0.000 C 
BRANCH  22  23
ATOM     23  C   UNL     1      -3.831  38.981  98.752  1.00  0.00    -0.000 C 
BRANCH  23  24
ATOM     24  C   UNL     1      -5.073  38.595  97.931  1.00  0.00    -0.000 C 
BRANCH  24  25
ATOM     25  C   UNL     1      -5.673  39.776  97.153  1.00  0.00    -0.003 C 
ATOM     26  C   UNL     1      -6.060  39.359  95.736  1.00  0.00     0.004 C 
ENDBRANCH  24  25
ENDBRANCH  23  24
ENDBRANCH  22  23
ENDBRANCH  21  22
ENDBRANCH  20  21
ENDBRANCH  19  20
ENDBRANCH  18  19
ENDBRANCH  17  18
ENDBRANCH  16  17
ENDBRANCH  15  16
ENDBRANCH   1  15
TORSDOF 22
ENDMDL
MODEL 8
REMARK VINA RESULT:    -3.032      7.602     11.311
REMARK INTER + INTRA:         -10.903
REMARK INTER:                  -5.906
REMARK INTRA:                  -4.997
REMARK UNBOUND:                -3.972
REMARK SMILES CCCCCCCCCCCCCCCCCCCCCCCC(=O)[O-]
REMARK SMILES IDX 13 1 14 2 15 3 16 4 17 5 18 6 19 7 20 8 21 9 22 10 23 11
REMARK SMILES IDX 24 12 25 13 26 14 12 15 11 16 10 17 9 18 8 19 7 20 6 21 5 22
REMARK SMILES IDX 4 23 3 24 2 25 1 26
REMARK H PARENT
REMARK Flexibility Score: inf
ROOT
ATOM      1  C   UNL     1     -15.965  29.065  93.344  1.00  0.00     0.000 C 
ENDROOT
BRANCH   1   2
ATOM      2  C   UNL     1     -17.479  28.798  93.355  1.00  0.00     0.000 C 
BRANCH   2   3
ATOM      3  C   UNL     1     -18.298  30.016  92.889  1.00  0.00     0.000 C 
BRANCH   3   4
ATOM      4  C   UNL     1     -18.751  30.904  94.066  1.00  0.00     0.000 C 
BRANCH   4   5
ATOM      5  C   UNL     1     -18.054  32.276  94.114  1.00  0.00     0.000 C 
BRANCH   5   6
ATOM      6  C   UNL     1     -17.012  32.453  92.998  1.00  0.00     0.000 C 
BRANCH   6   7
ATOM      7  C   UNL     1     -15.609  32.810  93.528  1.00  0.00     0.000 C 
BRANCH   7   8
ATOM      8  C   UNL     1     -15.445  32.744  95.059  1.00  0.00     0.000 C 
BRANCH   8   9
ATOM      9  C   UNL     1     -14.753  31.477  95.598  1.00  0.00     0.000 C 
BRANCH   9  10
ATOM     10  C   UNL     1     -15.250  31.033  96.992  1.00  0.00     0.006 C 
BRANCH  10  11
ATOM     11  C   UNL     1     -16.581  30.263  96.972  1.00  0.00     0.053 C 
BRANCH  11  12
ATOM     12  C   UNL     1     -17.682  31.011  97.668  1.00  0.00     0.041 C 
ATOM     13  O   UNL     1     -18.874  30.617  97.568  1.00  0.00    -0.550 OA
ATOM     14  O   UNL     1     -17.391  32.125  98.448  1.00  0.00    -0.550 OA
ENDBRANCH  11  12
ENDBRANCH  10  11
ENDBRANCH   9  10
ENDBRANCH   8   9
ENDBRANCH   7   8
ENDBRANCH   6   7
ENDBRANCH   5   6
ENDBRANCH   4   5
ENDBRANCH   3   4
ENDBRANCH   2   3
ENDBRANCH   1   2
BRANCH   1  15
ATOM     15  C   UNL     1     -15.148  27.863  93.846  1.00  0.00     0.000 C 
BRANCH  15  16
ATOM     16  C   UNL     1     -13.646  28.106  93.646  1.00  0.00     0.000 C 
BRANCH  16  17
ATOM     17  C   UNL     1     -13.337  29.506  93.087  1.00  0.00     0.000 C 
BRANCH  17  18
ATOM     18  C   UNL     1     -12.244  29.549  92.000  1.00  0.00    -0.000 C 
BRANCH  18  19
ATOM     19  C   UNL     1     -11.980  28.213  91.274  1.00  0.00    -0.000 C 
BRANCH  19  20
ATOM     20  C   UNL     1     -11.942  28.299  89.738  1.00  0.00    -0.000 C 
BRANCH  20  21
ATOM     21  C   UNL     1     -13.121  27.574  89.064  1.00  0.00    -0.000 C 
BRANCH  21  22
ATOM     22  C   UNL     1     -14.044  26.875  90.086  1.00  0.00    -0.000 C 
BRANCH  22  23
ATOM     23  C   UNL     1     -15.480  27.439  90.132  1.00  0.00    -0.000 C 
BRANCH  23  24
ATOM     24  C   UNL     1     -15.795  28.521  89.086  1.00  0.00    -0.000 C 
BRANCH  24  25
ATOM     25  C   UNL     1     -16.364  29.808  89.702  1.00  0.00    -0.003 C 
ATOM     26  C   UNL     1     -15.245  30.773  90.089  1.00  0.00     0.004 C 
ENDBRANCH  24  25
ENDBRANCH  23  24
ENDBRANCH  22  23
ENDBRANCH  21  22
ENDBRANCH  20  21
ENDBRANCH  19  20
ENDBRANCH  18  19
ENDBRANCH  17  18
ENDBRANCH  16  17
ENDBRANCH  15  16
ENDBRANCH   1  15
TORSDOF 22
ENDMDL
MODEL 9
REMARK VINA RESULT:    -3.006      3.418      7.157
REMARK INTER + INTRA:         -10.844
REMARK INTER:                  -6.634
REMARK INTRA:                  -4.211
REMARK UNBOUND:                -3.972
REMARK SMILES CCCCCCCCCCCCCCCCCCCCCCCC(=O)[O-]
REMARK SMILES IDX 13 1 14 2 15 3 16 4 17 5 18 6 19 7 20 8 21 9 22 10 23 11
REMARK SMILES IDX 24 12 25 13 26 14 12 15 11 16 10 17 9 18 8 19 7 20 6 21 5 22
REMARK SMILES IDX 4 23 3 24 2 25 1 26
REMARK H PARENT
REMARK Flexibility Score: inf
ROOT
ATOM      1  C   UNL     1     -19.520  39.347  92.491  1.00  0.00     0.000 C 
ENDROOT
BRANCH   1   2
ATOM      2  C   UNL     1     -20.058  40.476  93.386  1.00  0.00     0.000 C 
BRANCH   2   3
ATOM      3  C   UNL     1     -18.978  41.512  93.745  1.00  0.00     0.000 C 
BRANCH   3   4
ATOM      4  C   UNL     1     -17.646  40.852  94.160  1.00  0.00     0.000 C 
BRANCH   4   5
ATOM      5  C   UNL     1     -17.447  40.757  95.683  1.00  0.00     0.000 C 
BRANCH   5   6
ATOM      6  C   UNL     1     -17.340  39.306  96.180  1.00  0.00     0.000 C 
BRANCH   6   7
ATOM      7  C   UNL     1     -16.962  38.310  95.067  1.00  0.00     0.000 C 
BRANCH   7   8
ATOM      8  C   UNL     1     -17.796  37.015  95.027  1.00  0.00     0.000 C 
BRANCH   8   9
ATOM      9  C   UNL     1     -17.145  35.829  94.288  1.00  0.00     0.000 C 
BRANCH   9  10
ATOM     10  C   UNL     1     -18.158  34.823  93.698  1.00  0.00     0.006 C 
BRANCH  10  11
ATOM     11  C   UNL     1     -19.529  34.824  94.396  1.00  0.00     0.053 C 
BRANCH  11  12
ATOM     12  C   UNL     1     -19.845  33.501  95.031  1.00  0.00     0.041 C 
ATOM     13  O   UNL     1     -20.820  32.820  94.617  1.00  0.00    -0.550 OA
ATOM     14  O   UNL     1     -19.050  33.007  96.059  1.00  0.00    -0.550 OA
ENDBRANCH  11  12
ENDBRANCH  10  11
ENDBRANCH   9  10
ENDBRANCH   8   9
ENDBRANCH   7   8
ENDBRANCH   6   7
ENDBRANCH   5   6
ENDBRANCH   4   5
ENDBRANCH   3   4
ENDBRANCH   2   3
ENDBRANCH   1   2
BRANCH   1  15
ATOM     15  C   UNL     1     -20.341  38.053  92.610  1.00  0.00     0.000 C 
BRANCH  15  16
ATOM     16  C   UNL     1     -19.972  37.070  91.491  1.00  0.00     0.000 C 
BRANCH  16  17
ATOM     17  C   UNL     1     -18.782  37.551  90.642  1.00  0.00     0.000 C 
BRANCH  17  18
ATOM     18  C   UNL     1     -17.671  36.505  90.423  1.00  0.00    -0.000 C 
BRANCH  18  19
ATOM     19  C   UNL     1     -16.243  36.971  90.778  1.00  0.00    -0.000 C 
BRANCH  19  20
ATOM     20  C   UNL     1     -16.163  38.295  91.560  1.00  0.00    -0.000 C 
BRANCH  20  21
ATOM     21  C   UNL     1     -14.760  38.930  91.529  1.00  0.00    -0.000 C 
BRANCH  21  22
ATOM     22  C   UNL     1     -14.017  38.781  92.875  1.00  0.00    -0.000 C 
BRANCH  22  23
ATOM     23  C   UNL     1     -14.115  40.017  93.793  1.00  0.00    -0.000 C 
BRANCH  23  24
ATOM     24  C   UNL     1     -13.401  39.888  95.149  1.00  0.00    -0.000 C 
BRANCH  24  25
ATOM     25  C   UNL     1     -12.462  41.066  95.450  1.00  0.00    -0.003 C 
ATOM     26  C   UNL     1     -12.256  41.934  94.209  1.00  0.00     0.004 C 
ENDBRANCH  24  25
ENDBRANCH  23  24
ENDBRANCH  22  23
ENDBRANCH  21  22
ENDBRANCH  20  21
ENDBRANCH  19  20
ENDBRANCH  18  19
ENDBRANCH  17  18
ENDBRANCH  16  17
ENDBRANCH  15  16
ENDBRANCH   1  15
TORSDOF 22
ENDMDL
