MODEL 1
REMARK VINA RESULT:    -3.170      0.000      0.000
REMARK INTER + INTRA:          -4.996
REMARK INTER:                  -4.282
REMARK INTRA:                  -0.715
REMARK UNBOUND:                -0.715
REMARK SMILES O=C[C@@H](O)[C@@H](O)[C@@H](O)CO
REMARK SMILES IDX 7 1 9 2 10 3 5 5 3 6 2 7 1 8 4 9 6 11 8 13
REMARK H PARENT 10 4 4 10 6 12 8 14
REMARK Flexibility Score: inf
ROOT
ATOM      1  C   UNL     1       2.576  23.937  20.275  1.00  0.00     0.171 C 
ENDROOT
BRANCH   1   2
ATOM      2  C   UNL     1       1.068  24.250  20.217  1.00  0.00     0.190 C 
BRANCH   2   3
ATOM      3  O   UNL     1       0.425  23.401  19.304  1.00  0.00    -0.394 OA
ATOM      4  H   UNL     1       0.877  23.531  18.429  1.00  0.00     0.210 HD
ENDBRANCH   2   3
ENDBRANCH   1   2
BRANCH   1   5
ATOM      5  C   UNL     1       3.392  24.839  19.309  1.00  0.00     0.181 C 
BRANCH   5   6
ATOM      6  C   UNL     1       4.769  24.223  18.978  1.00  0.00     0.209 C 
BRANCH   6   7
ATOM      7  C   UNL     1       5.877  24.996  19.644  1.00  0.00     0.258 C 
ATOM      8  O   UNL     1       5.671  25.610  20.678  1.00  0.00    -0.300 OA
ENDBRANCH   6   7
BRANCH   6   9
ATOM      9  O   UNL     1       4.819  22.887  19.407  1.00  0.00    -0.383 OA
ATOM     10  H   UNL     1       5.717  22.747  19.808  1.00  0.00     0.211 HD
ENDBRANCH   6   9
ENDBRANCH   5   6
BRANCH   5  11
ATOM     11  O   UNL     1       2.673  25.006  18.110  1.00  0.00    -0.387 OA
ATOM     12  H   UNL     1       3.111  24.441  17.421  1.00  0.00     0.211 HD
ENDBRANCH   5  11
ENDBRANCH   1   5
BRANCH   1  13
ATOM     13  O   UNL     1       3.040  24.059  21.597  1.00  0.00    -0.388 OA
ATOM     14  H   UNL     1       4.031  24.116  21.563  1.00  0.00     0.211 HD
ENDBRANCH   1  13
TORSDOF 8
ENDMDL
MODEL 2
REMARK VINA RESULT:    -3.080      1.148      1.923
REMARK INTER + INTRA:          -4.875
REMARK INTER:                  -4.204
REMARK INTRA:                  -0.671
REMARK UNBOUND:                -0.715
REMARK SMILES O=C[C@@H](O)[C@@H](O)[C@@H](O)CO
REMARK SMILES IDX 7 1 9 2 10 3 5 5 3 6 2 7 1 8 4 9 6 11 8 13
REMARK H PARENT 10 4 4 10 6 12 8 14
REMARK Flexibility Score: inf
ROOT
ATOM      1  C   UNL     1       2.230  24.557  20.160  1.00  0.00     0.171 C 
ENDROOT
BRANCH   1   2
ATOM      2  C   UNL     1       1.385  24.276  21.418  1.00  0.00     0.190 C 
BRANCH   2   3
ATOM      3  O   UNL     1       2.214  24.033  22.523  1.00  0.00    -0.394 OA
ATOM      4  H   UNL     1       3.149  24.115  22.200  1.00  0.00     0.210 HD
ENDBRANCH   2   3
ENDBRANCH   1   2
BRANCH   1   5
ATOM      5  C   UNL     1       3.745  24.651  20.490  1.00  0.00     0.181 C 
BRANCH   5   6
ATOM      6  C   UNL     1       4.619  24.225  19.290  1.00  0.00     0.209 C 
BRANCH   6   7
ATOM      7  C   UNL     1       5.907  25.005  19.260  1.00  0.00     0.258 C 
ATOM      8  O   UNL     1       6.683  24.958  20.201  1.00  0.00    -0.300 OA
ENDBRANCH   6   7
BRANCH   6   9
ATOM      9  O   UNL     1       4.914  22.854  19.367  1.00  0.00    -0.383 OA
ATOM     10  H   UNL     1       5.413  22.621  18.540  1.00  0.00     0.211 HD
ENDBRANCH   6   9
ENDBRANCH   5   6
BRANCH   5  11
ATOM     11  O   UNL     1       4.065  25.979  20.831  1.00  0.00    -0.387 OA
ATOM     12  H   UNL     1       4.571  26.366  20.070  1.00  0.00     0.211 HD
ENDBRANCH   5  11
ENDBRANCH   1   5
BRANCH   1  13
ATOM     13  O   UNL     1       1.982  23.572  19.188  1.00  0.00    -0.388 OA
ATOM     14  H   UNL     1       2.424  23.864  18.347  1.00  0.00     0.211 HD
ENDBRANCH   1  13
TORSDOF 8
ENDMDL
MODEL 3
REMARK VINA RESULT:    -3.027      1.210      4.098
REMARK INTER + INTRA:          -4.804
REMARK INTER:                  -4.065
REMARK INTRA:                  -0.739
REMARK UNBOUND:                -0.715
REMARK SMILES O=C[C@@H](O)[C@@H](O)[C@@H](O)CO
REMARK SMILES IDX 7 1 9 2 10 3 5 5 3 6 2 7 1 8 4 9 6 11 8 13
REMARK H PARENT 10 4 4 10 6 12 8 14
REMARK Flexibility Score: inf
ROOT
ATOM      1  C   UNL     1       2.969  24.168  19.161  1.00  0.00     0.171 C 
ENDROOT
BRANCH   1   2
ATOM      2  C   UNL     1       4.503  24.067  19.271  1.00  0.00     0.190 C 
BRANCH   2   3
ATOM      3  O   UNL     1       4.890  22.745  19.540  1.00  0.00    -0.394 OA
ATOM      4  H   UNL     1       4.883  22.265  18.671  1.00  0.00     0.210 HD
ENDBRANCH   2   3
ENDBRANCH   1   2
BRANCH   1   5
ATOM      5  C   UNL     1       2.317  24.561  20.514  1.00  0.00     0.181 C 
BRANCH   5   6
ATOM      6  C   UNL     1       0.809  24.222  20.541  1.00  0.00     0.209 C 
BRANCH   6   7
ATOM      7  C   UNL     1      -0.023  25.476  20.503  1.00  0.00     0.258 C 
ATOM      8  O   UNL     1       0.225  26.362  19.701  1.00  0.00    -0.300 OA
ENDBRANCH   6   7
BRANCH   6   9
ATOM      9  O   UNL     1       0.474  23.414  19.443  1.00  0.00    -0.383 OA
ATOM     10  H   UNL     1       1.275  23.378  18.858  1.00  0.00     0.211 HD
ENDBRANCH   6   9
ENDBRANCH   5   6
BRANCH   5  11
ATOM     11  O   UNL     1       2.954  23.863  21.558  1.00  0.00    -0.387 OA
ATOM     12  H   UNL     1       3.680  24.446  21.903  1.00  0.00     0.211 HD
ENDBRANCH   5  11
ENDBRANCH   1   5
BRANCH   1  13
ATOM     13  O   UNL     1       2.622  25.078  18.146  1.00  0.00    -0.388 OA
ATOM     14  H   UNL     1       2.350  25.926  18.585  1.00  0.00     0.211 HD
ENDBRANCH   1  13
TORSDOF 8
ENDMDL
MODEL 4
REMARK VINA RESULT:    -2.999      1.156      3.536
REMARK INTER + INTRA:          -4.766
REMARK INTER:                  -4.099
REMARK INTRA:                  -0.667
REMARK UNBOUND:                -0.715
REMARK SMILES O=C[C@@H](O)[C@@H](O)[C@@H](O)CO
REMARK SMILES IDX 7 1 9 2 10 3 5 5 3 6 2 7 1 8 4 9 6 11 8 13
REMARK H PARENT 10 4 4 10 6 12 8 14
REMARK Flexibility Score: inf
ROOT
ATOM      1  C   UNL     1       4.997  24.321  19.288  1.00  0.00     0.171 C 
ENDROOT
BRANCH   1   2
ATOM      2  C   UNL     1       5.038  24.777  17.817  1.00  0.00     0.190 C 
BRANCH   2   3
ATOM      3  O   UNL     1       3.827  25.388  17.458  1.00  0.00    -0.394 OA
ATOM      4  H   UNL     1       3.147  24.665  17.413  1.00  0.00     0.210 HD
ENDBRANCH   2   3
ENDBRANCH   1   2
BRANCH   1   5
ATOM      5  C   UNL     1       3.811  24.961  20.060  1.00  0.00     0.181 C 
BRANCH   5   6
ATOM      6  C   UNL     1       2.740  23.911  20.434  1.00  0.00     0.209 C 
BRANCH   6   7
ATOM      7  C   UNL     1       1.961  24.349  21.646  1.00  0.00     0.258 C 
ATOM      8  O   UNL     1       2.305  24.002  22.765  1.00  0.00    -0.300 OA
ENDBRANCH   6   7
BRANCH   6   9
ATOM      9  O   UNL     1       1.852  23.720  19.363  1.00  0.00    -0.383 OA
ATOM     10  H   UNL     1       1.783  24.590  18.888  1.00  0.00     0.211 HD
ENDBRANCH   6   9
ENDBRANCH   5   6
BRANCH   5  11
ATOM     11  O   UNL     1       4.291  25.555  21.242  1.00  0.00    -0.387 OA
ATOM     12  H   UNL     1       3.535  26.048  21.654  1.00  0.00     0.211 HD
ENDBRANCH   5  11
ENDBRANCH   1   5
BRANCH   1  13
ATOM     13  O   UNL     1       4.946  22.917  19.352  1.00  0.00    -0.388 OA
ATOM     14  H   UNL     1       5.312  22.565  18.498  1.00  0.00     0.211 HD
ENDBRANCH   1  13
TORSDOF 8
ENDMDL
MODEL 5
REMARK VINA RESULT:    -2.992      1.203      2.117
REMARK INTER + INTRA:          -4.756
REMARK INTER:                  -3.914
REMARK INTRA:                  -0.842
REMARK UNBOUND:                -0.715
REMARK SMILES O=C[C@@H](O)[C@@H](O)[C@@H](O)CO
REMARK SMILES IDX 7 1 9 2 10 3 5 5 3 6 2 7 1 8 4 9 6 11 8 13
REMARK H PARENT 10 4 4 10 6 12 8 14
REMARK Flexibility Score: inf
ROOT
ATOM      1  C   UNL     1       1.878  24.312  19.090  1.00  0.00     0.171 C 
ENDROOT
BRANCH   1   2
ATOM      2  C   UNL     1       1.465  25.784  19.286  1.00  0.00     0.190 C 
BRANCH   2   3
ATOM      3  O   UNL     1       2.383  26.639  18.658  1.00  0.00    -0.394 OA
ATOM      4  H   UNL     1       2.948  26.069  18.074  1.00  0.00     0.210 HD
ENDBRANCH   2   3
ENDBRANCH   1   2
BRANCH   1   5
ATOM      5  C   UNL     1       3.071  23.919  20.003  1.00  0.00     0.181 C 
BRANCH   5   6
ATOM      6  C   UNL     1       4.351  23.643  19.183  1.00  0.00     0.209 C 
BRANCH   6   7
ATOM      7  C   UNL     1       5.378  24.720  19.413  1.00  0.00     0.258 C 
ATOM      8  O   UNL     1       5.191  25.855  19.005  1.00  0.00    -0.300 OA
ENDBRANCH   6   7
BRANCH   6   9
ATOM      9  O   UNL     1       4.899  22.401  19.543  1.00  0.00    -0.383 OA
ATOM     10  H   UNL     1       5.431  22.550  20.368  1.00  0.00     0.211 HD
ENDBRANCH   6   9
ENDBRANCH   5   6
BRANCH   5  11
ATOM     11  O   UNL     1       3.331  24.968  20.905  1.00  0.00    -0.387 OA
ATOM     12  H   UNL     1       4.285  25.221  20.797  1.00  0.00     0.211 HD
ENDBRANCH   5  11
ENDBRANCH   1   5
BRANCH   1  13
ATOM     13  O   UNL     1       0.771  23.472  19.310  1.00  0.00    -0.388 OA
ATOM     14  H   UNL     1       0.961  22.604  18.864  1.00  0.00     0.211 HD
ENDBRANCH   1  13
TORSDOF 8
ENDMDL
MODEL 6
REMARK VINA RESULT:    -2.979      3.280      5.617
REMARK INTER + INTRA:          -4.739
REMARK INTER:                  -4.232
REMARK INTRA:                  -0.506
REMARK UNBOUND:                -0.715
REMARK SMILES O=C[C@@H](O)[C@@H](O)[C@@H](O)CO
REMARK SMILES IDX 7 1 9 2 10 3 5 5 3 6 2 7 1 8 4 9 6 11 8 13
REMARK H PARENT 10 4 4 10 6 12 8 14
REMARK Flexibility Score: inf
ROOT
ATOM      1  C   UNL     1       8.078  25.673  20.620  1.00  0.00     0.171 C 
ENDROOT
BRANCH   1   2
ATOM      2  C   UNL     1       9.290  26.624  20.674  1.00  0.00     0.190 C 
BRANCH   2   3
ATOM      3  O   UNL     1      10.488  25.896  20.640  1.00  0.00    -0.394 OA
ATOM      4  H   UNL     1      10.317  25.094  20.079  1.00  0.00     0.210 HD
ENDBRANCH   2   3
ENDBRANCH   1   2
BRANCH   1   5
ATOM      5  C   UNL     1       7.496  25.560  19.185  1.00  0.00     0.181 C 
BRANCH   5   6
ATOM      6  C   UNL     1       5.980  25.259  19.206  1.00  0.00     0.209 C 
BRANCH   6   7
ATOM      7  C   UNL     1       5.441  25.123  17.806  1.00  0.00     0.258 C 
ATOM      8  O   UNL     1       6.199  25.014  16.856  1.00  0.00    -0.300 OA
ENDBRANCH   6   7
BRANCH   6   9
ATOM      9  O   UNL     1       5.731  24.070  19.910  1.00  0.00    -0.383 OA
ATOM     10  H   UNL     1       5.542  23.369  19.233  1.00  0.00     0.211 HD
ENDBRANCH   6   9
ENDBRANCH   5   6
BRANCH   5  11
ATOM     11  O   UNL     1       7.704  26.773  18.501  1.00  0.00    -0.387 OA
ATOM     12  H   UNL     1       8.013  26.547  17.585  1.00  0.00     0.211 HD
ENDBRANCH   5  11
ENDBRANCH   1   5
BRANCH   1  13
ATOM     13  O   UNL     1       8.439  24.411  21.123  1.00  0.00    -0.388 OA
ATOM     14  H   UNL     1       9.091  24.011  20.489  1.00  0.00     0.211 HD
ENDBRANCH   1  13
TORSDOF 8
ENDMDL
MODEL 7
REMARK VINA RESULT:    -2.868      1.176      3.888
REMARK INTER + INTRA:          -4.589
REMARK INTER:                  -3.932
REMARK INTRA:                  -0.657
REMARK UNBOUND:                -0.715
REMARK SMILES O=C[C@@H](O)[C@@H](O)[C@@H](O)CO
REMARK SMILES IDX 7 1 9 2 10 3 5 5 3 6 2 7 1 8 4 9 6 11 8 13
REMARK H PARENT 10 4 4 10 6 12 8 14
REMARK Flexibility Score: inf
ROOT
ATOM      1  C   UNL     1       3.860  24.956  19.918  1.00  0.00     0.171 C 
ENDROOT
BRANCH   1   2
ATOM      2  C   UNL     1       5.106  24.243  19.359  1.00  0.00     0.190 C 
BRANCH   2   3
ATOM      3  O   UNL     1       4.905  22.855  19.328  1.00  0.00    -0.394 OA
ATOM      4  H   UNL     1       4.101  22.672  19.882  1.00  0.00     0.210 HD
ENDBRANCH   2   3
ENDBRANCH   1   2
BRANCH   1   5
ATOM      5  C   UNL     1       2.653  23.990  20.057  1.00  0.00     0.181 C 
BRANCH   5   6
ATOM      6  C   UNL     1       1.692  24.434  21.183  1.00  0.00     0.209 C 
BRANCH   6   7
ATOM      7  C   UNL     1       0.261  24.142  20.813  1.00  0.00     0.258 C 
ATOM      8  O   UNL     1      -0.418  24.984  20.248  1.00  0.00    -0.300 OA
ENDBRANCH   6   7
BRANCH   6   9
ATOM      9  O   UNL     1       2.002  23.764  22.378  1.00  0.00    -0.383 OA
ATOM     10  H   UNL     1       2.950  23.477  22.308  1.00  0.00     0.211 HD
ENDBRANCH   6   9
ENDBRANCH   5   6
BRANCH   5  11
ATOM     11  O   UNL     1       1.941  23.958  18.843  1.00  0.00    -0.387 OA
ATOM     12  H   UNL     1       1.025  23.631  19.046  1.00  0.00     0.211 HD
ENDBRANCH   5  11
ENDBRANCH   1   5
BRANCH   1  13
ATOM     13  O   UNL     1       4.169  25.564  21.149  1.00  0.00    -0.388 OA
ATOM     14  H   UNL     1       4.488  26.485  20.956  1.00  0.00     0.211 HD
ENDBRANCH   1  13
TORSDOF 8
ENDMDL
MODEL 8
REMARK VINA RESULT:    -2.854      1.178      3.576
REMARK INTER + INTRA:          -4.570
REMARK INTER:                  -3.721
REMARK INTRA:                  -0.849
REMARK UNBOUND:                -0.715
REMARK SMILES O=C[C@@H](O)[C@@H](O)[C@@H](O)CO
REMARK SMILES IDX 7 1 9 2 10 3 5 5 3 6 2 7 1 8 4 9 6 11 8 13
REMARK H PARENT 10 4 4 10 6 12 8 14
REMARK Flexibility Score: inf
ROOT
ATOM      1  C   UNL     1       4.054  23.931  19.867  1.00  0.00     0.171 C 
ENDROOT
BRANCH   1   2
ATOM      2  C   UNL     1       4.946  25.187  19.916  1.00  0.00     0.190 C 
BRANCH   2   3
ATOM      3  O   UNL     1       4.475  26.086  20.885  1.00  0.00    -0.394 OA
ATOM      4  H   UNL     1       3.864  25.572  21.475  1.00  0.00     0.210 HD
ENDBRANCH   2   3
ENDBRANCH   1   2
BRANCH   1   5
ATOM      5  C   UNL     1       2.754  24.176  19.054  1.00  0.00     0.181 C 
BRANCH   5   6
ATOM      6  C   UNL     1       1.496  24.087  19.948  1.00  0.00     0.209 C 
BRANCH   6   7
ATOM      7  C   UNL     1       0.987  25.462  20.295  1.00  0.00     0.258 C 
ATOM      8  O   UNL     1       1.570  26.152  21.116  1.00  0.00    -0.300 OA
ENDBRANCH   6   7
BRANCH   6   9
ATOM      9  O   UNL     1       0.482  23.375  19.290  1.00  0.00    -0.383 OA
ATOM     10  H   UNL     1       0.473  23.691  18.348  1.00  0.00     0.211 HD
ENDBRANCH   6   9
ENDBRANCH   5   6
BRANCH   5  11
ATOM     11  O   UNL     1       2.803  25.457  18.473  1.00  0.00    -0.387 OA
ATOM     12  H   UNL     1       3.497  25.976  18.958  1.00  0.00     0.211 HD
ENDBRANCH   5  11
ENDBRANCH   1   5
BRANCH   1  13
ATOM     13  O   UNL     1       4.783  22.848  19.345  1.00  0.00    -0.388 OA
ATOM     14  H   UNL     1       4.760  22.119  20.020  1.00  0.00     0.211 HD
ENDBRANCH   1  13
TORSDOF 8
ENDMDL
MODEL 9
REMARK VINA RESULT:    -2.842      3.533      6.164
REMARK INTER + INTRA:          -4.553
REMARK INTER:                  -3.822
REMARK INTRA:                  -0.731
REMARK UNBOUND:                -0.715
REMARK SMILES O=C[C@@H](O)[C@@H](O)[C@@H](O)CO
REMARK SMILES IDX 7 1 9 2 10 3 5 5 3 6 2 7 1 8 4 9 6 11 8 13
REMARK H PARENT 10 4 4 10 6 12 8 14
REMARK Flexibility Score: inf
ROOT
ATOM      1  C   UNL     1       8.733  26.481  19.920  1.00  0.00     0.171 C 
ENDROOT
BRANCH   1   2
ATOM      2  C   UNL     1      10.057  26.825  20.630  1.00  0.00     0.190 C 
BRANCH   2   3
ATOM      3  O   UNL     1      11.006  25.814  20.416  1.00  0.00    -0.394 OA
ATOM      4  H   UNL     1      11.725  26.212  19.859  1.00  0.00     0.210 HD
ENDBRANCH   2   3
ENDBRANCH   1   2
BRANCH   1   5
ATOM      5  C   UNL     1       7.818  25.589  20.803  1.00  0.00     0.181 C 
BRANCH   5   6
ATOM      6  C   UNL     1       6.565  25.116  20.032  1.00  0.00     0.209 C 
BRANCH   6   7
ATOM      7  C   UNL     1       5.330  25.813  20.536  1.00  0.00     0.258 C 
ATOM      8  O   UNL     1       5.220  27.025  20.446  1.00  0.00    -0.300 OA
ENDBRANCH   6   7
BRANCH   6   9
ATOM      9  O   UNL     1       6.712  25.377  18.660  1.00  0.00    -0.383 OA
ATOM     10  H   UNL     1       6.739  24.497  18.201  1.00  0.00     0.211 HD
ENDBRANCH   6   9
ENDBRANCH   5   6
BRANCH   5  11
ATOM     11  O   UNL     1       8.541  24.457  21.226  1.00  0.00    -0.387 OA
ATOM     12  H   UNL     1       9.022  24.708  22.058  1.00  0.00     0.211 HD
ENDBRANCH   5  11
ENDBRANCH   1   5
BRANCH   1  13
ATOM     13  O   UNL     1       8.074  27.663  19.538  1.00  0.00    -0.388 OA
ATOM     14  H   UNL     1       8.328  28.371  20.188  1.00  0.00     0.211 HD
ENDBRANCH   1  13
TORSDOF 8
ENDMDL
