MODEL 1
REMARK VINA RESULT:    -1.841      0.000      0.000
REMARK INTER + INTRA:          -7.278
REMARK INTER:                  -4.854
REMARK INTRA:                  -2.424
REMARK UNBOUND:                -2.424
REMARK SMILES CCCCCCCCCCCCCCCCCCCCCCCCCCCCCC(=O)[O-]
REMARK SMILES IDX 16 1 17 2 18 3 19 4 20 5 21 6 22 7 23 8 24 9 25 10 26 11
REMARK SMILES IDX 27 12 28 13 29 14 30 15 31 16 32 17 15 18 14 19 13 20 12 21
REMARK SMILES IDX 11 22 10 23 9 24 8 25 7 26 6 27 5 28 4 29 3 30 2 31 1 32
REMARK H PARENT
REMARK Flexibility Score: inf
ROOT
ATOM      1  C   UNL     1       2.634  23.111   6.535  1.00  0.00     0.000 C 
ENDROOT
BRANCH   1   2
ATOM      2  C   UNL     1       1.579  22.046   6.215  1.00  0.00     0.000 C 
BRANCH   2   3
ATOM      3  C   UNL     1       1.022  22.229   4.794  1.00  0.00     0.000 C 
BRANCH   3   4
ATOM      4  C   UNL     1      -0.039  21.176   4.433  1.00  0.00     0.000 C 
BRANCH   4   5
ATOM      5  C   UNL     1      -1.348  21.358   5.220  1.00  0.00     0.000 C 
BRANCH   5   6
ATOM      6  C   UNL     1      -2.584  20.878   4.428  1.00  0.00     0.000 C 
BRANCH   6   7
ATOM      7  C   UNL     1      -3.041  21.853   3.325  1.00  0.00     0.000 C 
BRANCH   7   8
ATOM      8  C   UNL     1      -3.790  21.207   2.146  1.00  0.00     0.000 C 
BRANCH   8   9
ATOM      9  C   UNL     1      -5.255  21.655   1.978  1.00  0.00     0.000 C 
BRANCH   9  10
ATOM     10  C   UNL     1      -6.230  20.875   2.874  1.00  0.00     0.000 C 
BRANCH  10  11
ATOM     11  C   UNL     1      -7.549  21.646   3.040  1.00  0.00     0.000 C 
BRANCH  11  12
ATOM     12  C   UNL     1      -8.544  20.924   3.961  1.00  0.00     0.000 C 
BRANCH  12  13
ATOM     13  C   UNL     1      -9.848  21.712   4.158  1.00  0.00     0.006 C 
BRANCH  13  14
ATOM     14  C   UNL     1     -10.222  22.470   2.881  1.00  0.00     0.053 C 
BRANCH  14  15
ATOM     15  C   UNL     1     -11.628  22.165   2.473  1.00  0.00     0.041 C 
ATOM     16  O   UNL     1     -11.966  20.982   2.205  1.00  0.00    -0.550 OA
ATOM     17  O   UNL     1     -12.562  23.190   2.367  1.00  0.00    -0.550 OA
ENDBRANCH  14  15
ENDBRANCH  13  14
ENDBRANCH  12  13
ENDBRANCH  11  12
ENDBRANCH  10  11
ENDBRANCH   9  10
ENDBRANCH   8   9
ENDBRANCH   7   8
ENDBRANCH   6   7
ENDBRANCH   5   6
ENDBRANCH   4   5
ENDBRANCH   3   4
ENDBRANCH   2   3
ENDBRANCH   1   2
BRANCH   1  18
ATOM     18  C   UNL     1       3.946  22.460   7.000  1.00  0.00     0.000 C 
BRANCH  18  19
ATOM     19  C   UNL     1       4.799  23.395   7.873  1.00  0.00     0.000 C 
BRANCH  19  20
ATOM     20  C   UNL     1       6.227  23.647   7.352  1.00  0.00     0.000 C 
BRANCH  20  21
ATOM     21  C   UNL     1       6.281  24.497   6.063  1.00  0.00     0.000 C 
BRANCH  21  22
ATOM     22  C   UNL     1       6.824  23.705   4.861  1.00  0.00     0.000 C 
BRANCH  22  23
ATOM     23  C   UNL     1       6.986  22.202   5.174  1.00  0.00     0.000 C 
BRANCH  23  24
ATOM     24  C   UNL     1       6.041  21.297   4.366  1.00  0.00    -0.000 C 
BRANCH  24  25
ATOM     25  C   UNL     1       6.341  21.314   2.861  1.00  0.00    -0.000 C 
BRANCH  25  26
ATOM     26  C   UNL     1       5.045  21.376   2.040  1.00  0.00    -0.000 C 
BRANCH  26  27
ATOM     27  C   UNL     1       4.513  22.811   1.889  1.00  0.00    -0.000 C 
BRANCH  27  28
ATOM     28  C   UNL     1       3.891  23.351   3.186  1.00  0.00    -0.000 C 
BRANCH  28  29
ATOM     29  C   UNL     1       2.987  24.557   2.902  1.00  0.00    -0.000 C 
BRANCH  29  30
ATOM     30  C   UNL     1       1.840  24.171   1.957  1.00  0.00    -0.000 C 
BRANCH  30  31
ATOM     31  C   UNL     1       0.615  25.087   2.107  1.00  0.00    -0.003 C 
ATOM     32  C   UNL     1      -0.394  24.563   3.128  1.00  0.00     0.004 C 
ENDBRANCH  30  31
ENDBRANCH  29  30
ENDBRANCH  28  29
ENDBRANCH  27  28
ENDBRANCH  26  27
ENDBRANCH  25  26
ENDBRANCH  24  25
ENDBRANCH  23  24
ENDBRANCH  22  23
ENDBRANCH  21  22
ENDBRANCH  20  21
ENDBRANCH  19  20
ENDBRANCH  18  19
ENDBRANCH   1  18
TORSDOF 28
ENDMDL
MODEL 2
REMARK VINA RESULT:    -1.523      3.782     10.979
REMARK INTER + INTRA:          -6.440
REMARK INTER:                  -5.365
REMARK INTRA:                  -1.076
REMARK UNBOUND:                -2.424
REMARK SMILES CCCCCCCCCCCCCCCCCCCCCCCCCCCCCC(=O)[O-]
REMARK SMILES IDX 16 1 17 2 18 3 19 4 20 5 21 6 22 7 23 8 24 9 25 10 26 11
REMARK SMILES IDX 27 12 28 13 29 14 30 15 31 16 32 17 15 18 14 19 13 20 12 21
REMARK SMILES IDX 11 22 10 23 9 24 8 25 7 26 6 27 5 28 4 29 3 30 2 31 1 32
REMARK H PARENT
REMARK Flexibility Score: inf
ROOT
ATOM      1  C   UNL     1       1.445  23.260   6.962  1.00  0.00     0.000 C 
ENDROOT
BRANCH   1   2
ATOM      2  C   UNL     1       2.908  23.098   6.534  1.00  0.00     0.000 C 
BRANCH   2   3
ATOM      3  C   UNL     1       3.824  22.917   7.754  1.00  0.00     0.000 C 
BRANCH   3   4
ATOM      4  C   UNL     1       4.869  21.808   7.551  1.00  0.00     0.000 C 
BRANCH   4   5
ATOM      5  C   UNL     1       4.793  21.168   6.154  1.00  0.00     0.000 C 
BRANCH   5   6
ATOM      6  C   UNL     1       6.027  21.499   5.286  1.00  0.00     0.000 C 
BRANCH   6   7
ATOM      7  C   UNL     1       7.125  22.285   6.029  1.00  0.00     0.000 C 
BRANCH   7   8
ATOM      8  C   UNL     1       6.732  23.707   6.467  1.00  0.00     0.000 C 
BRANCH   8   9
ATOM      9  C   UNL     1       5.949  24.522   5.419  1.00  0.00     0.000 C 
BRANCH   9  10
ATOM     10  C   UNL     1       6.814  24.959   4.227  1.00  0.00     0.000 C 
BRANCH  10  11
ATOM     11  C   UNL     1       6.950  23.817   3.208  1.00  0.00     0.000 C 
BRANCH  11  12
ATOM     12  C   UNL     1       6.196  24.098   1.900  1.00  0.00     0.000 C 
BRANCH  12  13
ATOM     13  C   UNL     1       4.855  24.811   2.130  1.00  0.00     0.006 C 
BRANCH  13  14
ATOM     14  C   UNL     1       3.790  23.821   2.611  1.00  0.00     0.053 C 
BRANCH  14  15
ATOM     15  C   UNL     1       2.415  24.342   2.335  1.00  0.00     0.041 C 
ATOM     16  O   UNL     1       2.147  25.556   2.536  1.00  0.00    -0.550 OA
ATOM     17  O   UNL     1       1.423  23.484   1.875  1.00  0.00    -0.550 OA
ENDBRANCH  14  15
ENDBRANCH  13  14
ENDBRANCH  12  13
ENDBRANCH  11  12
ENDBRANCH  10  11
ENDBRANCH   9  10
ENDBRANCH   8   9
ENDBRANCH   7   8
ENDBRANCH   6   7
ENDBRANCH   5   6
ENDBRANCH   4   5
ENDBRANCH   3   4
ENDBRANCH   2   3
ENDBRANCH   1   2
BRANCH   1  18
ATOM     18  C   UNL     1       0.592  22.087   6.455  1.00  0.00     0.000 C 
BRANCH  18  19
ATOM     19  C   UNL     1      -0.779  22.533   5.922  1.00  0.00     0.000 C 
BRANCH  19  20
ATOM     20  C   UNL     1      -0.741  23.284   4.577  1.00  0.00     0.000 C 
BRANCH  20  21
ATOM     21  C   UNL     1      -1.856  22.863   3.595  1.00  0.00     0.000 C 
BRANCH  21  22
ATOM     22  C   UNL     1      -1.366  21.841   2.554  1.00  0.00     0.000 C 
BRANCH  22  23
ATOM     23  C   UNL     1      -2.486  20.877   2.108  1.00  0.00     0.000 C 
BRANCH  23  24
ATOM     24  C   UNL     1      -3.763  20.976   2.961  1.00  0.00    -0.000 C 
BRANCH  24  25
ATOM     25  C   UNL     1      -5.039  21.069   2.115  1.00  0.00    -0.000 C 
BRANCH  25  26
ATOM     26  C   UNL     1      -6.294  21.012   2.999  1.00  0.00    -0.000 C 
BRANCH  26  27
ATOM     27  C   UNL     1      -7.489  21.748   2.371  1.00  0.00    -0.000 C 
BRANCH  27  28
ATOM     28  C   UNL     1      -8.831  21.337   2.995  1.00  0.00    -0.000 C 
BRANCH  28  29
ATOM     29  C   UNL     1      -8.681  21.069   4.497  1.00  0.00    -0.000 C 
BRANCH  29  30
ATOM     30  C   UNL     1      -9.686  21.904   5.305  1.00  0.00    -0.000 C 
BRANCH  30  31
ATOM     31  C   UNL     1     -10.775  22.535   4.424  1.00  0.00    -0.003 C 
ATOM     32  C   UNL     1     -12.188  22.188   4.891  1.00  0.00     0.004 C 
ENDBRANCH  30  31
ENDBRANCH  29  30
ENDBRANCH  28  29
ENDBRANCH  27  28
ENDBRANCH  26  27
ENDBRANCH  25  26
ENDBRANCH  24  25
ENDBRANCH  23  24
ENDBRANCH  22  23
ENDBRANCH  21  22
ENDBRANCH  20  21
ENDBRANCH  19  20
ENDBRANCH  18  19
ENDBRANCH   1  18
TORSDOF 28
ENDMDL
MODEL 3
REMARK VINA RESULT:    -0.385      4.136      6.765
REMARK INTER + INTRA:          -3.440
REMARK INTER:                  -2.727
REMARK INTRA:                  -0.713
REMARK UNBOUND:                -2.424
REMARK SMILES CCCCCCCCCCCCCCCCCCCCCCCCCCCCCC(=O)[O-]
REMARK SMILES IDX 16 1 17 2 18 3 19 4 20 5 21 6 22 7 23 8 24 9 25 10 26 11
REMARK SMILES IDX 27 12 28 13 29 14 30 15 31 16 32 17 15 18 14 19 13 20 12 21
REMARK SMILES IDX 11 22 10 23 9 24 8 25 7 26 6 27 5 28 4 29 3 30 2 31 1 32
REMARK H PARENT
REMARK Flexibility Score: inf
ROOT
ATOM      1  C   UNL     1       4.875  24.191   7.516  1.00  0.00     0.000 C 
ENDROOT
BRANCH   1   2
ATOM      2  C   UNL     1       5.443  22.767   7.527  1.00  0.00     0.000 C 
BRANCH   2   3
ATOM      3  C   UNL     1       4.340  21.729   7.270  1.00  0.00     0.000 C 
BRANCH   3   4
ATOM      4  C   UNL     1       4.609  20.875   6.020  1.00  0.00     0.000 C 
BRANCH   4   5
ATOM      5  C   UNL     1       5.306  21.666   4.900  1.00  0.00     0.000 C 
BRANCH   5   6
ATOM      6  C   UNL     1       4.982  21.110   3.496  1.00  0.00     0.000 C 
BRANCH   6   7
ATOM      7  C   UNL     1       3.474  20.994   3.199  1.00  0.00     0.000 C 
BRANCH   7   8
ATOM      8  C   UNL     1       2.550  21.151   4.421  1.00  0.00     0.000 C 
BRANCH   8   9
ATOM      9  C   UNL     1       2.460  22.579   4.993  1.00  0.00     0.000 C 
BRANCH   9  10
ATOM     10  C   UNL     1       1.048  22.947   5.475  1.00  0.00     0.000 C 
BRANCH  10  11
ATOM     11  C   UNL     1       0.884  22.626   6.969  1.00  0.00     0.000 C 
BRANCH  11  12
ATOM     12  C   UNL     1       0.381  21.196   7.215  1.00  0.00     0.000 C 
BRANCH  12  13
ATOM     13  C   UNL     1      -1.039  21.160   7.800  1.00  0.00     0.006 C 
BRANCH  13  14
ATOM     14  C   UNL     1      -1.022  21.522   9.287  1.00  0.00     0.053 C 
BRANCH  14  15
ATOM     15  C   UNL     1      -2.414  21.677   9.814  1.00  0.00     0.041 C 
ATOM     16  O   UNL     1      -2.659  22.520  10.716  1.00  0.00    -0.550 OA
ATOM     17  O   UNL     1      -3.439  20.875   9.324  1.00  0.00    -0.550 OA
ENDBRANCH  14  15
ENDBRANCH  13  14
ENDBRANCH  12  13
ENDBRANCH  11  12
ENDBRANCH  10  11
ENDBRANCH   9  10
ENDBRANCH   8   9
ENDBRANCH   7   8
ENDBRANCH   6   7
ENDBRANCH   5   6
ENDBRANCH   4   5
ENDBRANCH   3   4
ENDBRANCH   2   3
ENDBRANCH   1   2
BRANCH   1  18
ATOM     18  C   UNL     1       4.979  24.811   6.114  1.00  0.00     0.000 C 
BRANCH  18  19
ATOM     19  C   UNL     1       6.293  24.453   5.400  1.00  0.00     0.000 C 
BRANCH  19  20
ATOM     20  C   UNL     1       7.012  25.640   4.728  1.00  0.00     0.000 C 
BRANCH  20  21
ATOM     21  C   UNL     1       7.124  25.514   3.193  1.00  0.00     0.000 C 
BRANCH  21  22
ATOM     22  C   UNL     1       6.775  24.101   2.694  1.00  0.00     0.000 C 
BRANCH  22  23
ATOM     23  C   UNL     1       5.466  24.076   1.875  1.00  0.00     0.000 C 
BRANCH  23  24
ATOM     24  C   UNL     1       4.202  24.296   2.724  1.00  0.00    -0.000 C 
BRANCH  24  25
ATOM     25  C   UNL     1       2.922  24.361   1.882  1.00  0.00    -0.000 C 
BRANCH  25  26
ATOM     26  C   UNL     1       1.909  25.342   2.491  1.00  0.00    -0.000 C 
BRANCH  26  27
ATOM     27  C   UNL     1       0.503  25.183   1.891  1.00  0.00    -0.000 C 
BRANCH  27  28
ATOM     28  C   UNL     1      -0.394  24.255   2.724  1.00  0.00    -0.000 C 
BRANCH  28  29
ATOM     29  C   UNL     1      -0.826  23.029   1.909  1.00  0.00    -0.000 C 
BRANCH  29  30
ATOM     30  C   UNL     1      -0.853  21.769   2.787  1.00  0.00    -0.000 C 
BRANCH  30  31
ATOM     31  C   UNL     1      -2.281  21.318   3.131  1.00  0.00    -0.003 C 
ATOM     32  C   UNL     1      -3.111  20.986   1.891  1.00  0.00     0.004 C 
ENDBRANCH  30  31
ENDBRANCH  29  30
ENDBRANCH  28  29
ENDBRANCH  27  28
ENDBRANCH  26  27
ENDBRANCH  25  26
ENDBRANCH  24  25
ENDBRANCH  23  24
ENDBRANCH  22  23
ENDBRANCH  21  22
ENDBRANCH  20  21
ENDBRANCH  19  20
ENDBRANCH  18  19
ENDBRANCH   1  18
TORSDOF 28
ENDMDL
MODEL 4
REMARK VINA RESULT:    -0.344      4.302     11.974
REMARK INTER + INTRA:          -3.332
REMARK INTER:                  -2.678
REMARK INTRA:                  -0.654
REMARK UNBOUND:                -2.424
REMARK SMILES CCCCCCCCCCCCCCCCCCCCCCCCCCCCCC(=O)[O-]
REMARK SMILES IDX 16 1 17 2 18 3 19 4 20 5 21 6 22 7 23 8 24 9 25 10 26 11
REMARK SMILES IDX 27 12 28 13 29 14 30 15 31 16 32 17 15 18 14 19 13 20 12 21
REMARK SMILES IDX 11 22 10 23 9 24 8 25 7 26 6 27 5 28 4 29 3 30 2 31 1 32
REMARK H PARENT
REMARK Flexibility Score: inf
ROOT
ATOM      1  C   UNL     1      -0.417  24.700   3.456  1.00  0.00     0.000 C 
ENDROOT
BRANCH   1   2
ATOM      2  C   UNL     1       0.689  23.913   2.744  1.00  0.00     0.000 C 
BRANCH   2   3
ATOM      3  C   UNL     1       0.695  22.443   3.190  1.00  0.00     0.000 C 
BRANCH   3   4
ATOM      4  C   UNL     1       1.609  22.195   4.401  1.00  0.00     0.000 C 
BRANCH   4   5
ATOM      5  C   UNL     1       1.496  23.299   5.466  1.00  0.00     0.000 C 
BRANCH   5   6
ATOM      6  C   UNL     1       2.424  23.049   6.676  1.00  0.00     0.000 C 
BRANCH   6   7
ATOM      7  C   UNL     1       2.646  21.559   6.999  1.00  0.00     0.000 C 
BRANCH   7   8
ATOM      8  C   UNL     1       4.066  21.031   6.725  1.00  0.00     0.000 C 
BRANCH   8   9
ATOM      9  C   UNL     1       4.968  21.976   5.907  1.00  0.00     0.000 C 
BRANCH   9  10
ATOM     10  C   UNL     1       5.701  21.265   4.759  1.00  0.00     0.000 C 
BRANCH  10  11
ATOM     11  C   UNL     1       5.830  22.193   3.541  1.00  0.00     0.000 C 
BRANCH  11  12
ATOM     12  C   UNL     1       4.507  22.882   3.179  1.00  0.00     0.000 C 
BRANCH  12  13
ATOM     13  C   UNL     1       4.501  24.377   3.531  1.00  0.00     0.006 C 
BRANCH  13  14
ATOM     14  C   UNL     1       4.894  25.222   2.316  1.00  0.00     0.053 C 
BRANCH  14  15
ATOM     15  C   UNL     1       3.861  26.266   2.035  1.00  0.00     0.041 C 
ATOM     16  O   UNL     1       4.191  27.479   1.962  1.00  0.00    -0.550 OA
ATOM     17  O   UNL     1       2.528  25.904   1.875  1.00  0.00    -0.550 OA
ENDBRANCH  14  15
ENDBRANCH  13  14
ENDBRANCH  12  13
ENDBRANCH  11  12
ENDBRANCH  10  11
ENDBRANCH   9  10
ENDBRANCH   8   9
ENDBRANCH   7   8
ENDBRANCH   6   7
ENDBRANCH   5   6
ENDBRANCH   4   5
ENDBRANCH   3   4
ENDBRANCH   2   3
ENDBRANCH   1   2
BRANCH   1  18
ATOM     18  C   UNL     1      -1.417  23.751   4.133  1.00  0.00     0.000 C 
BRANCH  18  19
ATOM     19  C   UNL     1      -1.965  22.681   3.175  1.00  0.00     0.000 C 
BRANCH  19  20
ATOM     20  C   UNL     1      -3.456  22.834   2.814  1.00  0.00     0.000 C 
BRANCH  20  21
ATOM     21  C   UNL     1      -4.308  21.587   3.139  1.00  0.00     0.000 C 
BRANCH  21  22
ATOM     22  C   UNL     1      -4.905  20.940   1.877  1.00  0.00     0.000 C 
BRANCH  22  23
ATOM     23  C   UNL     1      -6.446  20.876   1.925  1.00  0.00     0.000 C 
BRANCH  23  24
ATOM     24  C   UNL     1      -7.081  21.945   2.830  1.00  0.00    -0.000 C 
BRANCH  24  25
ATOM     25  C   UNL     1      -8.563  21.676   3.123  1.00  0.00    -0.000 C 
BRANCH  25  26
ATOM     26  C   UNL     1      -9.456  22.226   2.001  1.00  0.00    -0.000 C 
BRANCH  26  27
ATOM     27  C   UNL     1      -9.508  23.763   1.992  1.00  0.00    -0.000 C 
BRANCH  27  28
ATOM     28  C   UNL     1     -10.456  24.329   3.061  1.00  0.00    -0.000 C 
BRANCH  28  29
ATOM     29  C   UNL     1     -11.906  23.915   2.786  1.00  0.00    -0.000 C 
BRANCH  29  30
ATOM     30  C   UNL     1     -12.565  23.354   4.055  1.00  0.00    -0.000 C 
BRANCH  30  31
ATOM     31  C   UNL     1     -12.682  21.822   4.034  1.00  0.00    -0.003 C 
ATOM     32  C   UNL     1     -12.839  21.260   2.622  1.00  0.00     0.004 C 
ENDBRANCH  30  31
ENDBRANCH  29  30
ENDBRANCH  28  29
ENDBRANCH  27  28
ENDBRANCH  26  27
ENDBRANCH  25  26
ENDBRANCH  24  25
ENDBRANCH  23  24
ENDBRANCH  22  23
ENDBRANCH  21  22
ENDBRANCH  20  21
ENDBRANCH  19  20
ENDBRANCH  18  19
ENDBRANCH   1  18
TORSDOF 28
ENDMDL
MODEL 5
REMARK VINA RESULT:     0.881      2.495      4.748
REMARK INTER + INTRA:          -0.101
REMARK INTER:                   1.011
REMARK INTRA:                  -1.111
REMARK UNBOUND:                -2.424
REMARK SMILES CCCCCCCCCCCCCCCCCCCCCCCCCCCCCC(=O)[O-]
REMARK SMILES IDX 16 1 17 2 18 3 19 4 20 5 21 6 22 7 23 8 24 9 25 10 26 11
REMARK SMILES IDX 27 12 28 13 29 14 30 15 31 16 32 17 15 18 14 19 13 20 12 21
REMARK SMILES IDX 11 22 10 23 9 24 8 25 7 26 6 27 5 28 4 29 3 30 2 31 1 32
REMARK H PARENT
REMARK Flexibility Score: inf
ROOT
ATOM      1  C   UNL     1      -0.555  21.380   7.891  1.00  0.00     0.000 C 
ENDROOT
BRANCH   1   2
ATOM      2  C   UNL     1      -0.874  21.625   9.369  1.00  0.00     0.000 C 
BRANCH   2   3
ATOM      3  C   UNL     1      -2.357  21.354   9.668  1.00  0.00     0.000 C 
BRANCH   3   4
ATOM      4  C   UNL     1      -3.250  22.573   9.387  1.00  0.00     0.000 C 
BRANCH   4   5
ATOM      5  C   UNL     1      -4.750  22.249   9.502  1.00  0.00     0.000 C 
BRANCH   5   6
ATOM      6  C   UNL     1      -5.106  20.875   8.894  1.00  0.00     0.000 C 
BRANCH   6   7
ATOM      7  C   UNL     1      -5.215  20.879   7.357  1.00  0.00     0.000 C 
BRANCH   7   8
ATOM      8  C   UNL     1      -6.648  20.968   6.800  1.00  0.00     0.000 C 
BRANCH   8   9
ATOM      9  C   UNL     1      -6.755  21.481   5.351  1.00  0.00     0.000 C 
BRANCH   9  10
ATOM     10  C   UNL     1      -7.944  20.879   4.585  1.00  0.00     0.000 C 
BRANCH  10  11
ATOM     11  C   UNL     1      -7.835  21.189   3.084  1.00  0.00     0.000 C 
BRANCH  11  12
ATOM     12  C   UNL     1      -8.980  22.081   2.580  1.00  0.00     0.000 C 
BRANCH  12  13
ATOM     13  C   UNL     1     -10.365  21.541   2.966  1.00  0.00     0.006 C 
BRANCH  13  14
ATOM     14  C   UNL     1     -10.880  22.226   4.235  1.00  0.00     0.053 C 
BRANCH  14  15
ATOM     15  C   UNL     1     -11.948  23.221   3.908  1.00  0.00     0.041 C 
ATOM     16  O   UNL     1     -13.092  22.828   3.558  1.00  0.00    -0.550 OA
ATOM     17  O   UNL     1     -11.676  24.583   3.969  1.00  0.00    -0.550 OA
ENDBRANCH  14  15
ENDBRANCH  13  14
ENDBRANCH  12  13
ENDBRANCH  11  12
ENDBRANCH  10  11
ENDBRANCH   9  10
ENDBRANCH   8   9
ENDBRANCH   7   8
ENDBRANCH   6   7
ENDBRANCH   5   6
ENDBRANCH   4   5
ENDBRANCH   3   4
ENDBRANCH   2   3
ENDBRANCH   1   2
BRANCH   1  18
ATOM     18  C   UNL     1      -1.820  21.507   7.028  1.00  0.00     0.000 C 
BRANCH  18  19
ATOM     19  C   UNL     1      -1.517  21.496   5.521  1.00  0.00     0.000 C 
BRANCH  19  20
ATOM     20  C   UNL     1      -0.536  22.586   5.047  1.00  0.00     0.000 C 
BRANCH  20  21
ATOM     21  C   UNL     1      -0.044  22.395   3.595  1.00  0.00     0.000 C 
BRANCH  21  22
ATOM     22  C   UNL     1       0.752  21.090   3.413  1.00  0.00     0.000 C 
BRANCH  22  23
ATOM     23  C   UNL     1       1.858  21.223   2.345  1.00  0.00     0.000 C 
BRANCH  23  24
ATOM     24  C   UNL     1       3.232  21.603   2.923  1.00  0.00    -0.000 C 
BRANCH  24  25
ATOM     25  C   UNL     1       4.385  21.333   1.948  1.00  0.00    -0.000 C 
BRANCH  25  26
ATOM     26  C   UNL     1       5.741  21.382   2.667  1.00  0.00    -0.000 C 
BRANCH  26  27
ATOM     27  C   UNL     1       5.676  22.162   3.991  1.00  0.00    -0.000 C 
BRANCH  27  28
ATOM     28  C   UNL     1       6.695  23.310   4.052  1.00  0.00    -0.000 C 
BRANCH  28  29
ATOM     29  C   UNL     1       6.183  24.454   4.935  1.00  0.00    -0.000 C 
BRANCH  29  30
ATOM     30  C   UNL     1       6.522  24.200   6.412  1.00  0.00    -0.000 C 
BRANCH  30  31
ATOM     31  C   UNL     1       5.292  23.806   7.243  1.00  0.00    -0.003 C 
ATOM     32  C   UNL     1       5.505  22.522   8.043  1.00  0.00     0.004 C 
ENDBRANCH  30  31
ENDBRANCH  29  30
ENDBRANCH  28  29
ENDBRANCH  27  28
ENDBRANCH  26  27
ENDBRANCH  25  26
ENDBRANCH  24  25
ENDBRANCH  23  24
ENDBRANCH  22  23
ENDBRANCH  21  22
ENDBRANCH  20  21
ENDBRANCH  19  20
ENDBRANCH  18  19
ENDBRANCH   1  18
TORSDOF 28
ENDMDL
MODEL 6
REMARK VINA RESULT:     1.155      2.344      3.652
REMARK INTER + INTRA:           0.620
REMARK INTER:                   3.078
REMARK INTRA:                  -2.458
REMARK UNBOUND:                -2.424
REMARK SMILES CCCCCCCCCCCCCCCCCCCCCCCCCCCCCC(=O)[O-]
REMARK SMILES IDX 16 1 17 2 18 3 19 4 20 5 21 6 22 7 23 8 24 9 25 10 26 11
REMARK SMILES IDX 27 12 28 13 29 14 30 15 31 16 32 17 15 18 14 19 13 20 12 21
REMARK SMILES IDX 11 22 10 23 9 24 8 25 7 26 6 27 5 28 4 29 3 30 2 31 1 32
REMARK H PARENT
REMARK Flexibility Score: inf
ROOT
ATOM      1  C   UNL     1      -1.116  21.839   8.443  1.00  0.00     0.000 C 
ENDROOT
BRANCH   1   2
ATOM      2  C   UNL     1      -2.393  20.998   8.346  1.00  0.00     0.000 C 
BRANCH   2   3
ATOM      3  C   UNL     1      -3.554  21.665   9.100  1.00  0.00     0.000 C 
BRANCH   3   4
ATOM      4  C   UNL     1      -4.885  20.917   8.922  1.00  0.00     0.000 C 
BRANCH   4   5
ATOM      5  C   UNL     1      -5.904  21.709   8.086  1.00  0.00     0.000 C 
BRANCH   5   6
ATOM      6  C   UNL     1      -6.363  20.938   6.829  1.00  0.00     0.000 C 
BRANCH   6   7
ATOM      7  C   UNL     1      -5.553  21.268   5.560  1.00  0.00     0.000 C 
BRANCH   7   8
ATOM      8  C   UNL     1      -6.247  20.925   4.229  1.00  0.00     0.000 C 
BRANCH   8   9
ATOM      9  C   UNL     1      -7.742  21.293   4.157  1.00  0.00     0.000 C 
BRANCH   9  10
ATOM     10  C   UNL     1      -8.034  22.440   3.178  1.00  0.00     0.000 C 
BRANCH  10  11
ATOM     11  C   UNL     1      -8.731  21.912   1.915  1.00  0.00     0.000 C 
BRANCH  11  12
ATOM     12  C   UNL     1      -9.820  20.877   2.230  1.00  0.00     0.000 C 
BRANCH  12  13
ATOM     13  C   UNL     1     -11.225  21.495   2.294  1.00  0.00     0.006 C 
BRANCH  13  14
ATOM     14  C   UNL     1     -11.608  21.822   3.740  1.00  0.00     0.053 C 
BRANCH  14  15
ATOM     15  C   UNL     1     -11.888  23.283   3.900  1.00  0.00     0.041 C 
ATOM     16  O   UNL     1     -13.019  23.747   3.597  1.00  0.00    -0.550 OA
ATOM     17  O   UNL     1     -10.894  24.138   4.362  1.00  0.00    -0.550 OA
ENDBRANCH  14  15
ENDBRANCH  13  14
ENDBRANCH  12  13
ENDBRANCH  11  12
ENDBRANCH  10  11
ENDBRANCH   9  10
ENDBRANCH   8   9
ENDBRANCH   7   8
ENDBRANCH   6   7
ENDBRANCH   5   6
ENDBRANCH   4   5
ENDBRANCH   3   4
ENDBRANCH   2   3
ENDBRANCH   1   2
BRANCH   1  18
ATOM     18  C   UNL     1       0.134  20.948   8.372  1.00  0.00     0.000 C 
BRANCH  18  19
ATOM     19  C   UNL     1       1.403  21.730   7.993  1.00  0.00     0.000 C 
BRANCH  19  20
ATOM     20  C   UNL     1       1.226  22.735   6.838  1.00  0.00     0.000 C 
BRANCH  20  21
ATOM     21  C   UNL     1       2.426  23.690   6.654  1.00  0.00     0.000 C 
BRANCH  21  22
ATOM     22  C   UNL     1       3.710  22.947   6.246  1.00  0.00     0.000 C 
BRANCH  22  23
ATOM     23  C   UNL     1       4.873  23.913   5.937  1.00  0.00     0.000 C 
BRANCH  23  24
ATOM     24  C   UNL     1       4.700  24.689   4.620  1.00  0.00    -0.000 C 
BRANCH  24  25
ATOM     25  C   UNL     1       5.201  23.908   3.398  1.00  0.00    -0.000 C 
BRANCH  25  26
ATOM     26  C   UNL     1       4.249  24.079   2.205  1.00  0.00    -0.000 C 
BRANCH  26  27
ATOM     27  C   UNL     1       3.224  22.938   2.103  1.00  0.00    -0.000 C 
BRANCH  27  28
ATOM     28  C   UNL     1       1.833  23.345   2.610  1.00  0.00    -0.000 C 
BRANCH  28  29
ATOM     29  C   UNL     1       0.802  22.243   2.338  1.00  0.00    -0.000 C 
BRANCH  29  30
ATOM     30  C   UNL     1      -0.087  22.009   3.568  1.00  0.00    -0.000 C 
BRANCH  30  31
ATOM     31  C   UNL     1      -1.551  21.728   3.195  1.00  0.00    -0.003 C 
ATOM     32  C   UNL     1      -2.119  22.752   2.213  1.00  0.00     0.004 C 
ENDBRANCH  30  31
ENDBRANCH  29  30
ENDBRANCH  28  29
ENDBRANCH  27  28
ENDBRANCH  26  27
ENDBRANCH  25  26
ENDBRANCH  24  25
ENDBRANCH  23  24
ENDBRANCH  22  23
ENDBRANCH  21  22
ENDBRANCH  20  21
ENDBRANCH  19  20
ENDBRANCH  18  19
ENDBRANCH   1  18
TORSDOF 28
ENDMDL
