MODEL 1
REMARK VINA RESULT:    -2.307      0.000      0.000
REMARK INTER + INTRA:          -2.307
REMARK INTER:                  -2.307
REMARK INTRA:                   0.000
REMARK UNBOUND:                 0.000
REMARK SMILES CC(=O)[O-]
REMARK SMILES IDX 1 1 2 2 3 3 4 4
REMARK H PARENT
REMARK Flexibility Score: inf
ROOT
ATOM      1  C   UNL     1      36.687  23.663 218.978  1.00  0.00     0.063 C 
ATOM      2  C   UNL     1      35.712  24.163 219.988  1.00  0.00     0.038 C 
ATOM      3  O   UNL     1      34.494  24.271 219.692  1.00  0.00    -0.550 OA
ATOM      4  O   UNL     1      36.137  24.459 221.277  1.00  0.00    -0.550 OA
ENDROOT
TORSDOF 0
ENDMDL
MODEL 2
REMARK VINA RESULT:    -2.292      0.126      1.618
REMARK INTER + INTRA:          -2.292
REMARK INTER:                  -2.292
REMARK INTRA:                   0.000
REMARK UNBOUND:                 0.000
REMARK SMILES CC(=O)[O-]
REMARK SMILES IDX 1 1 2 2 3 3 4 4
REMARK H PARENT
REMARK Flexibility Score: inf
ROOT
ATOM      1  C   UNL     1      36.741  23.675 218.983  1.00  0.00     0.063 C 
ATOM      2  C   UNL     1      35.802  24.125 220.050  1.00  0.00     0.038 C 
ATOM      3  O   UNL     1      36.247  24.496 221.168  1.00  0.00    -0.550 OA
ATOM      4  O   UNL     1      34.438  24.186 219.796  1.00  0.00    -0.550 OA
ENDROOT
TORSDOF 0
ENDMDL
MODEL 3
REMARK VINA RESULT:    -2.209      1.956      2.222
REMARK INTER + INTRA:          -2.209
REMARK INTER:                  -2.209
REMARK INTRA:                   0.000
REMARK UNBOUND:                 0.000
REMARK SMILES CC(=O)[O-]
REMARK SMILES IDX 1 1 2 2 3 3 4 4
REMARK H PARENT
REMARK Flexibility Score: inf
ROOT
ATOM      1  C   UNL     1      36.034  24.300 219.514  1.00  0.00     0.063 C 
ATOM      2  C   UNL     1      37.126  23.518 220.160  1.00  0.00     0.038 C 
ATOM      3  O   UNL     1      37.962  22.897 219.453  1.00  0.00    -0.550 OA
ATOM      4  O   UNL     1      37.257  23.518 221.543  1.00  0.00    -0.550 OA
ENDROOT
TORSDOF 0
ENDMDL
MODEL 4
REMARK VINA RESULT:    -2.127      1.367      1.740
REMARK INTER + INTRA:          -2.127
REMARK INTER:                  -2.127
REMARK INTRA:                   0.000
REMARK UNBOUND:                 0.000
REMARK SMILES CC(=O)[O-]
REMARK SMILES IDX 1 1 2 2 3 3 4 4
REMARK H PARENT
REMARK Flexibility Score: inf
ROOT
ATOM      1  C   UNL     1      36.198  24.105 221.431  1.00  0.00     0.063 C 
ATOM      2  C   UNL     1      35.723  24.115 220.018  1.00  0.00     0.038 C 
ATOM      3  O   UNL     1      34.490  24.098 219.766  1.00  0.00    -0.550 OA
ATOM      4  O   UNL     1      36.639  24.197 218.977  1.00  0.00    -0.550 OA
ENDROOT
TORSDOF 0
ENDMDL
MODEL 5
REMARK VINA RESULT:    -2.115      1.384      2.003
REMARK INTER + INTRA:          -2.115
REMARK INTER:                  -2.115
REMARK INTRA:                   0.000
REMARK UNBOUND:                 0.000
REMARK SMILES CC(=O)[O-]
REMARK SMILES IDX 1 1 2 2 3 3 4 4
REMARK H PARENT
REMARK Flexibility Score: inf
ROOT
ATOM      1  C   UNL     1      36.458  24.036 221.253  1.00  0.00     0.063 C 
ATOM      2  C   UNL     1      35.895  24.080 219.873  1.00  0.00     0.038 C 
ATOM      3  O   UNL     1      36.652  23.944 218.877  1.00  0.00    -0.550 OA
ATOM      4  O   UNL     1      34.526  24.217 219.685  1.00  0.00    -0.550 OA
ENDROOT
TORSDOF 0
ENDMDL
MODEL 6
REMARK VINA RESULT:    -2.081      2.333      2.651
REMARK INTER + INTRA:          -2.081
REMARK INTER:                  -2.081
REMARK INTRA:                   0.000
REMARK UNBOUND:                 0.000
REMARK SMILES CC(=O)[O-]
REMARK SMILES IDX 1 1 2 2 3 3 4 4
REMARK H PARENT
REMARK Flexibility Score: inf
ROOT
ATOM      1  C   UNL     1      34.014  23.810 221.411  1.00  0.00     0.063 C 
ATOM      2  C   UNL     1      35.378  23.973 221.992  1.00  0.00     0.038 C 
ATOM      3  O   UNL     1      36.395  23.841 221.262  1.00  0.00    -0.550 OA
ATOM      4  O   UNL     1      35.528  24.324 223.327  1.00  0.00    -0.550 OA
ENDROOT
TORSDOF 0
ENDMDL
MODEL 7
REMARK VINA RESULT:    -2.043      1.951      2.610
REMARK INTER + INTRA:          -2.043
REMARK INTER:                  -2.043
REMARK INTRA:                   0.000
REMARK UNBOUND:                 0.000
REMARK SMILES CC(=O)[O-]
REMARK SMILES IDX 1 1 2 2 3 3 4 4
REMARK H PARENT
REMARK Flexibility Score: inf
ROOT
ATOM      1  C   UNL     1      36.627  23.695 221.208  1.00  0.00     0.063 C 
ATOM      2  C   UNL     1      35.413  23.951 222.033  1.00  0.00     0.038 C 
ATOM      3  O   UNL     1      35.528  24.368 223.215  1.00  0.00    -0.550 OA
ATOM      4  O   UNL     1      34.149  23.782 221.482  1.00  0.00    -0.550 OA
ENDROOT
TORSDOF 0
ENDMDL
MODEL 8
REMARK VINA RESULT:    -1.900      2.458      2.968
REMARK INTER + INTRA:          -1.900
REMARK INTER:                  -1.900
REMARK INTRA:                   0.000
REMARK UNBOUND:                 0.000
REMARK SMILES CC(=O)[O-]
REMARK SMILES IDX 1 1 2 2 3 3 4 4
REMARK H PARENT
REMARK Flexibility Score: inf
ROOT
ATOM      1  C   UNL     1      35.979  24.537 223.658  1.00  0.00     0.063 C 
ATOM      2  C   UNL     1      35.786  23.890 222.329  1.00  0.00     0.038 C 
ATOM      3  O   UNL     1      34.645  23.860 221.800  1.00  0.00    -0.550 OA
ATOM      4  O   UNL     1      36.877  23.367 221.645  1.00  0.00    -0.550 OA
ENDROOT
TORSDOF 0
ENDMDL
MODEL 9
REMARK VINA RESULT:    -1.891      3.345      3.660
REMARK INTER + INTRA:          -1.891
REMARK INTER:                  -1.891
REMARK INTRA:                   0.000
REMARK UNBOUND:                 0.000
REMARK SMILES CC(=O)[O-]
REMARK SMILES IDX 1 1 2 2 3 3 4 4
REMARK H PARENT
REMARK Flexibility Score: inf
ROOT
ATOM      1  C   UNL     1      35.572  23.988 221.970  1.00  0.00     0.063 C 
ATOM      2  C   UNL     1      36.042  23.982 223.384  1.00  0.00     0.038 C 
ATOM      3  O   UNL     1      35.794  24.960 224.137  1.00  0.00    -0.550 OA
ATOM      4  O   UNL     1      36.709  22.875 223.891  1.00  0.00    -0.550 OA
ENDROOT
TORSDOF 0
ENDMDL
