MODEL 1
REMARK VINA RESULT:    -4.095      0.000      0.000
REMARK INTER + INTRA:          -4.830
REMARK INTER:                  -4.813
REMARK INTRA:                  -0.017
REMARK UNBOUND:                -0.017
REMARK SMILES CCCCC(=O)[O-]
REMARK SMILES IDX 4 1 5 2 6 3 7 4 3 5 2 6 1 7
REMARK H PARENT
REMARK Flexibility Score: inf
ROOT
ATOM      1  C   UNL     1      53.246  21.084  50.667  1.00  0.00     0.053 C 
ENDROOT
BRANCH   1   2
ATOM      2  C   UNL     1      51.808  21.094  51.081  1.00  0.00     0.041 C 
ATOM      3  O   UNL     1      51.487  20.797  52.262  1.00  0.00    -0.550 OA
ATOM      4  O   UNL     1      50.819  21.381  50.149  1.00  0.00    -0.550 OA
ENDBRANCH   1   2
BRANCH   1   5
ATOM      5  C   UNL     1      53.427  20.286  49.373  1.00  0.00     0.006 C 
BRANCH   5   6
ATOM      6  C   UNL     1      54.903  20.233  48.963  1.00  0.00    -0.003 C 
ATOM      7  C   UNL     1      55.248  21.366  48.002  1.00  0.00     0.004 C 
ENDBRANCH   5   6
ENDBRANCH   1   5
TORSDOF 3
ENDMDL
MODEL 2
REMARK VINA RESULT:    -4.072      0.134      1.228
REMARK INTER + INTRA:          -4.803
REMARK INTER:                  -4.785
REMARK INTRA:                  -0.018
REMARK UNBOUND:                -0.017
REMARK SMILES CCCCC(=O)[O-]
REMARK SMILES IDX 4 1 5 2 6 3 7 4 3 5 2 6 1 7
REMARK H PARENT
REMARK Flexibility Score: inf
ROOT
ATOM      1  C   UNL     1      53.147  21.005  50.644  1.00  0.00     0.053 C 
ENDROOT
BRANCH   1   2
ATOM      2  C   UNL     1      51.689  20.997  50.979  1.00  0.00     0.041 C 
ATOM      3  O   UNL     1      50.839  21.347  50.119  1.00  0.00    -0.550 OA
ATOM      4  O   UNL     1      51.272  20.651  52.258  1.00  0.00    -0.550 OA
ENDBRANCH   1   2
BRANCH   1   5
ATOM      5  C   UNL     1      53.400  20.264  49.328  1.00  0.00     0.006 C 
BRANCH   5   6
ATOM      6  C   UNL     1      54.895  20.236  48.991  1.00  0.00    -0.003 C 
ATOM      7  C   UNL     1      55.262  21.354  48.020  1.00  0.00     0.004 C 
ENDBRANCH   5   6
ENDBRANCH   1   5
TORSDOF 3
ENDMDL
MODEL 3
REMARK VINA RESULT:    -3.849      1.545      2.019
REMARK INTER + INTRA:          -4.542
REMARK INTER:                  -4.523
REMARK INTRA:                  -0.019
REMARK UNBOUND:                -0.017
REMARK SMILES CCCCC(=O)[O-]
REMARK SMILES IDX 4 1 5 2 6 3 7 4 3 5 2 6 1 7
REMARK H PARENT
REMARK Flexibility Score: inf
ROOT
ATOM      1  C   UNL     1      51.496  20.850  50.639  1.00  0.00     0.053 C 
ENDROOT
BRANCH   1   2
ATOM      2  C   UNL     1      50.164  20.195  50.447  1.00  0.00     0.041 C 
ATOM      3  O   UNL     1      49.111  20.885  50.456  1.00  0.00    -0.550 OA
ATOM      4  O   UNL     1      50.082  18.815  50.309  1.00  0.00    -0.550 OA
ENDBRANCH   1   2
BRANCH   1   5
ATOM      5  C   UNL     1      52.488  20.369  49.576  1.00  0.00     0.006 C 
BRANCH   5   6
ATOM      6  C   UNL     1      53.927  20.724  49.968  1.00  0.00    -0.003 C 
ATOM      7  C   UNL     1      54.923  20.211  48.932  1.00  0.00     0.004 C 
ENDBRANCH   5   6
ENDBRANCH   1   5
TORSDOF 3
ENDMDL
MODEL 4
REMARK VINA RESULT:    -3.682      2.848      3.990
REMARK INTER + INTRA:          -4.345
REMARK INTER:                  -4.313
REMARK INTRA:                  -0.032
REMARK UNBOUND:                -0.017
REMARK SMILES CCCCC(=O)[O-]
REMARK SMILES IDX 4 1 5 2 6 3 7 4 3 5 2 6 1 7
REMARK H PARENT
REMARK Flexibility Score: inf
ROOT
ATOM      1  C   UNL     1      53.547  20.229  49.332  1.00  0.00     0.053 C 
ENDROOT
BRANCH   1   2
ATOM      2  C   UNL     1      54.919  20.377  48.754  1.00  0.00     0.041 C 
ATOM      3  O   UNL     1      55.818  19.541  49.034  1.00  0.00    -0.550 OA
ATOM      4  O   UNL     1      55.219  21.466  47.946  1.00  0.00    -0.550 OA
ENDBRANCH   1   2
BRANCH   1   5
ATOM      5  C   UNL     1      53.394  21.100  50.582  1.00  0.00     0.006 C 
BRANCH   5   6
ATOM      6  C   UNL     1      51.945  21.095  51.081  1.00  0.00    -0.003 C 
ATOM      7  C   UNL     1      50.961  21.040  49.916  1.00  0.00     0.004 C 
ENDBRANCH   5   6
ENDBRANCH   1   5
TORSDOF 3
ENDMDL
MODEL 5
REMARK VINA RESULT:    -3.467      1.463      1.903
REMARK INTER + INTRA:          -4.092
REMARK INTER:                  -4.059
REMARK INTRA:                  -0.033
REMARK UNBOUND:                -0.017
REMARK SMILES CCCCC(=O)[O-]
REMARK SMILES IDX 4 1 5 2 6 3 7 4 3 5 2 6 1 7
REMARK H PARENT
REMARK Flexibility Score: inf
ROOT
ATOM      1  C   UNL     1      51.505  20.694  51.161  1.00  0.00     0.053 C 
ENDROOT
BRANCH   1   2
ATOM      2  C   UNL     1      50.373  21.672  51.143  1.00  0.00     0.041 C 
ATOM      3  O   UNL     1      49.203  21.283  50.886  1.00  0.00    -0.550 OA
ATOM      4  O   UNL     1      50.617  23.022  51.362  1.00  0.00    -0.550 OA
ENDBRANCH   1   2
BRANCH   1   5
ATOM      5  C   UNL     1      52.186  20.636  49.791  1.00  0.00     0.006 C 
BRANCH   5   6
ATOM      6  C   UNL     1      53.687  20.918  49.911  1.00  0.00    -0.003 C 
ATOM      7  C   UNL     1      54.492  20.029  48.968  1.00  0.00     0.004 C 
ENDBRANCH   5   6
ENDBRANCH   1   5
TORSDOF 3
ENDMDL
MODEL 6
REMARK VINA RESULT:    -3.373      1.629      2.289
REMARK INTER + INTRA:          -3.982
REMARK INTER:                  -3.967
REMARK INTRA:                  -0.016
REMARK UNBOUND:                -0.017
REMARK SMILES CCCCC(=O)[O-]
REMARK SMILES IDX 4 1 5 2 6 3 7 4 3 5 2 6 1 7
REMARK H PARENT
REMARK Flexibility Score: inf
ROOT
ATOM      1  C   UNL     1      51.622  21.037  51.457  1.00  0.00     0.053 C 
ENDROOT
BRANCH   1   2
ATOM      2  C   UNL     1      51.632  21.356  52.919  1.00  0.00     0.041 C 
ATOM      3  O   UNL     1      51.516  22.547  53.308  1.00  0.00    -0.550 OA
ATOM      4  O   UNL     1      51.821  20.343  53.850  1.00  0.00    -0.550 OA
ENDBRANCH   1   2
BRANCH   1   5
ATOM      5  C   UNL     1      53.040  21.106  50.882  1.00  0.00     0.006 C 
BRANCH   5   6
ATOM      6  C   UNL     1      53.104  20.450  49.499  1.00  0.00    -0.003 C 
ATOM      7  C   UNL     1      54.541  20.111  49.116  1.00  0.00     0.004 C 
ENDBRANCH   5   6
ENDBRANCH   1   5
TORSDOF 3
ENDMDL
MODEL 7
REMARK VINA RESULT:    -3.032      2.378      3.962
REMARK INTER + INTRA:          -3.581
REMARK INTER:                  -3.534
REMARK INTRA:                  -0.046
REMARK UNBOUND:                -0.017
REMARK SMILES CCCCC(=O)[O-]
REMARK SMILES IDX 4 1 5 2 6 3 7 4 3 5 2 6 1 7
REMARK H PARENT
REMARK Flexibility Score: inf
ROOT
ATOM      1  C   UNL     1      51.890  20.374  49.774  1.00  0.00     0.053 C 
ENDROOT
BRANCH   1   2
ATOM      2  C   UNL     1      53.241  20.810  50.246  1.00  0.00     0.041 C 
ATOM      3  O   UNL     1      54.275  20.206  49.856  1.00  0.00    -0.550 OA
ATOM      4  O   UNL     1      53.356  21.853  51.156  1.00  0.00    -0.550 OA
ENDBRANCH   1   2
BRANCH   1   5
ATOM      5  C   UNL     1      50.804  21.304  50.322  1.00  0.00     0.006 C 
BRANCH   5   6
ATOM      6  C   UNL     1      49.440  20.606  50.337  1.00  0.00    -0.003 C 
ATOM      7  C   UNL     1      49.587  19.104  50.111  1.00  0.00     0.004 C 
ENDBRANCH   5   6
ENDBRANCH   1   5
TORSDOF 3
ENDMDL
MODEL 8
REMARK VINA RESULT:    -2.958     11.705     12.339
REMARK INTER + INTRA:          -3.494
REMARK INTER:                  -3.461
REMARK INTRA:                  -0.033
REMARK UNBOUND:                -0.017
REMARK SMILES CCCCC(=O)[O-]
REMARK SMILES IDX 4 1 5 2 6 3 7 4 3 5 2 6 1 7
REMARK H PARENT
REMARK Flexibility Score: inf
ROOT
ATOM      1  C   UNL     1      42.514  20.053  55.154  1.00  0.00     0.053 C 
ENDROOT
BRANCH   1   2
ATOM      2  C   UNL     1      42.815  18.598  55.330  1.00  0.00     0.041 C 
ATOM      3  O   UNL     1      43.392  17.955  54.414  1.00  0.00    -0.550 OA
ATOM      4  O   UNL     1      42.414  17.940  56.486  1.00  0.00    -0.550 OA
ENDBRANCH   1   2
BRANCH   1   5
ATOM      5  C   UNL     1      41.611  20.271  53.938  1.00  0.00     0.006 C 
BRANCH   5   6
ATOM      6  C   UNL     1      40.864  21.606  54.041  1.00  0.00    -0.003 C 
ATOM      7  C   UNL     1      41.554  22.549  55.021  1.00  0.00     0.004 C 
ENDBRANCH   5   6
ENDBRANCH   1   5
TORSDOF 3
ENDMDL
MODEL 9
REMARK VINA RESULT:    -2.941      9.786     10.414
REMARK INTER + INTRA:          -3.474
REMARK INTER:                  -3.455
REMARK INTRA:                  -0.019
REMARK UNBOUND:                -0.017
REMARK SMILES CCCCC(=O)[O-]
REMARK SMILES IDX 4 1 5 2 6 3 7 4 3 5 2 6 1 7
REMARK H PARENT
REMARK Flexibility Score: inf
ROOT
ATOM      1  C   UNL     1      44.352  18.614  53.930  1.00  0.00     0.053 C 
ENDROOT
BRANCH   1   2
ATOM      2  C   UNL     1      43.292  18.624  54.985  1.00  0.00     0.041 C 
ATOM      3  O   UNL     1      42.955  17.553  55.555  1.00  0.00    -0.550 OA
ATOM      4  O   UNL     1      42.640  19.808  55.305  1.00  0.00    -0.550 OA
ENDBRANCH   1   2
BRANCH   1   5
ATOM      5  C   UNL     1      43.759  18.212  52.576  1.00  0.00     0.006 C 
BRANCH   5   6
ATOM      6  C   UNL     1      44.821  17.562  51.683  1.00  0.00    -0.003 C 
ATOM      7  C   UNL     1      44.292  16.283  51.040  1.00  0.00     0.004 C 
ENDBRANCH   5   6
ENDBRANCH   1   5
TORSDOF 3
ENDMDL
