MODEL 1
REMARK VINA RESULT:    -7.031      0.000      0.000
REMARK INTER + INTRA:          -9.512
REMARK INTER:                  -8.880
REMARK INTRA:                  -0.632
REMARK UNBOUND:                -0.632
REMARK SMILES Oc1cc(O)cc(CCc2ccccc2O)c1
REMARK SMILES IDX 9 1 10 2 12 3 13 4 11 5 14 6 15 7 16 8 8 10 7 11 6 12 17 13
REMARK SMILES IDX 4 14 2 15 3 16 5 17 1 19
REMARK H PARENT 16 9 5 18 1 20
REMARK Flexibility Score: inf
ROOT
ATOM      1  C   UNL     1     372.526 243.948 275.964  1.00  0.00     0.044 C 
ENDROOT
BRANCH   1   2
ATOM      2  C   UNL     1     373.035 242.528 275.890  1.00  0.00    -0.006 A 
ATOM      3  C   UNL     1     374.625 240.840 276.625  1.00  0.00     0.001 A 
ATOM      4  C   UNL     1     373.964 239.877 275.860  1.00  0.00     0.004 A 
ATOM      5  C   UNL     1     374.162 242.158 276.645  1.00  0.00     0.007 A 
ATOM      6  C   UNL     1     372.838 240.229 275.113  1.00  0.00     0.046 A 
ATOM      7  C   UNL     1     372.365 241.549 275.125  1.00  0.00     0.118 A 
BRANCH   7   8
ATOM      8  O   UNL     1     371.232 241.887 274.387  1.00  0.00    -0.508 OA
ATOM      9  H   UNL     1     371.207 241.798 273.378  1.00  0.00     0.293 HD
ENDBRANCH   7   8
ENDBRANCH   1   2
BRANCH   1  10
ATOM     10  C   UNL     1     371.839 244.238 277.307  1.00  0.00     0.040 C 
BRANCH  10  11
ATOM     11  C   UNL     1     370.388 243.826 277.293  1.00  0.00    -0.040 A 
ATOM     12  C   UNL     1     370.017 242.534 277.698  1.00  0.00     0.050 A 
ATOM     13  C   UNL     1     369.393 244.751 276.938  1.00  0.00     0.050 A 
ATOM     14  C   UNL     1     368.666 242.165 277.737  1.00  0.00     0.119 A 
ATOM     15  C   UNL     1     368.043 244.386 276.978  1.00  0.00     0.119 A 
ATOM     16  C   UNL     1     367.682 243.091 277.375  1.00  0.00     0.092 A 
BRANCH  14  17
ATOM     17  O   UNL     1     368.291 240.885 278.136  1.00  0.00    -0.508 OA
ATOM     18  H   UNL     1     367.571 240.367 277.647  1.00  0.00     0.293 HD
ENDBRANCH  14  17
BRANCH  15  19
ATOM     19  O   UNL     1     367.069 245.317 276.625  1.00  0.00    -0.508 OA
ATOM     20  H   UNL     1     366.614 245.897 277.320  1.00  0.00     0.293 HD
ENDBRANCH  15  19
ENDBRANCH  10  11
ENDBRANCH   1  10
TORSDOF 6
ENDMDL
MODEL 2
REMARK VINA RESULT:    -7.022      0.086      2.036
REMARK INTER + INTRA:          -9.501
REMARK INTER:                  -8.878
REMARK INTRA:                  -0.623
REMARK UNBOUND:                -0.632
REMARK SMILES Oc1cc(O)cc(CCc2ccccc2O)c1
REMARK SMILES IDX 9 1 10 2 12 3 13 4 11 5 14 6 15 7 16 8 8 10 7 11 6 12 17 13
REMARK SMILES IDX 4 14 2 15 3 16 5 17 1 19
REMARK H PARENT 16 9 5 18 1 20
REMARK Flexibility Score: inf
ROOT
ATOM      1  C   UNL     1     372.526 243.950 275.938  1.00  0.00     0.044 C 
ENDROOT
BRANCH   1   2
ATOM      2  C   UNL     1     373.031 242.529 275.865  1.00  0.00    -0.006 A 
ATOM      3  C   UNL     1     374.627 240.841 276.588  1.00  0.00     0.001 A 
ATOM      4  C   UNL     1     373.953 239.875 275.840  1.00  0.00     0.004 A 
ATOM      5  C   UNL     1     374.168 242.161 276.606  1.00  0.00     0.007 A 
ATOM      6  C   UNL     1     372.817 240.225 275.107  1.00  0.00     0.046 A 
ATOM      7  C   UNL     1     372.347 241.547 275.117  1.00  0.00     0.118 A 
BRANCH   7   8
ATOM      8  O   UNL     1     371.204 241.882 274.394  1.00  0.00    -0.508 OA
ATOM      9  H   UNL     1     370.799 242.811 274.437  1.00  0.00     0.293 HD
ENDBRANCH   7   8
ENDBRANCH   1   2
BRANCH   1  10
ATOM     10  C   UNL     1     371.922 244.271 277.313  1.00  0.00     0.040 C 
BRANCH  10  11
ATOM     11  C   UNL     1     370.464 243.893 277.386  1.00  0.00    -0.040 A 
ATOM     12  C   UNL     1     369.474 244.824 277.035  1.00  0.00     0.050 A 
ATOM     13  C   UNL     1     370.089 242.587 277.742  1.00  0.00     0.050 A 
ATOM     14  C   UNL     1     368.121 244.458 277.051  1.00  0.00     0.119 A 
ATOM     15  C   UNL     1     368.739 242.219 277.757  1.00  0.00     0.119 A 
ATOM     16  C   UNL     1     367.757 243.157 277.414  1.00  0.00     0.092 A 
BRANCH  14  17
ATOM     17  O   UNL     1     367.134 245.377 276.705  1.00  0.00    -0.508 OA
ATOM     18  H   UNL     1     366.652 245.329 275.815  1.00  0.00     0.293 HD
ENDBRANCH  14  17
BRANCH  15  19
ATOM     19  O   UNL     1     368.386 240.919 278.111  1.00  0.00    -0.508 OA
ATOM     20  H   UNL     1     367.512 240.717 278.584  1.00  0.00     0.293 HD
ENDBRANCH  15  19
ENDBRANCH  10  11
ENDBRANCH   1  10
TORSDOF 6
ENDMDL
MODEL 3
REMARK VINA RESULT:    -6.556      1.525      2.855
REMARK INTER + INTRA:          -8.913
REMARK INTER:                  -8.350
REMARK INTRA:                  -0.563
REMARK UNBOUND:                -0.632
REMARK SMILES Oc1cc(O)cc(CCc2ccccc2O)c1
REMARK SMILES IDX 9 1 10 2 12 3 13 4 11 5 14 6 15 7 16 8 8 10 7 11 6 12 17 13
REMARK SMILES IDX 4 14 2 15 3 16 5 17 1 19
REMARK H PARENT 16 9 5 18 1 20
REMARK Flexibility Score: inf
ROOT
ATOM      1  C   UNL     1     371.432 244.165 276.597  1.00  0.00     0.044 C 
ENDROOT
BRANCH   1   2
ATOM      2  C   UNL     1     372.364 242.979 276.511  1.00  0.00    -0.006 A 
ATOM      3  C   UNL     1     372.700 240.621 276.018  1.00  0.00     0.001 A 
ATOM      4  C   UNL     1     374.070 240.763 276.244  1.00  0.00     0.004 A 
ATOM      5  C   UNL     1     371.850 241.722 276.146  1.00  0.00     0.007 A 
ATOM      6  C   UNL     1     374.594 242.007 276.598  1.00  0.00     0.046 A 
ATOM      7  C   UNL     1     373.751 243.120 276.730  1.00  0.00     0.118 A 
BRANCH   7   8
ATOM      8  O   UNL     1     374.287 244.362 277.070  1.00  0.00    -0.508 OA
ATOM      9  H   UNL     1     375.001 244.807 276.505  1.00  0.00     0.293 HD
ENDBRANCH   7   8
ENDBRANCH   1   2
BRANCH   1  10
ATOM     10  C   UNL     1     370.537 244.098 277.843  1.00  0.00     0.040 C 
BRANCH  10  11
ATOM     11  C   UNL     1     369.091 243.873 277.482  1.00  0.00    -0.040 A 
ATOM     12  C   UNL     1     368.312 244.933 276.993  1.00  0.00     0.050 A 
ATOM     13  C   UNL     1     368.531 242.588 277.571  1.00  0.00     0.050 A 
ATOM     14  C   UNL     1     366.982 244.714 276.608  1.00  0.00     0.119 A 
ATOM     15  C   UNL     1     367.205 242.367 277.184  1.00  0.00     0.119 A 
ATOM     16  C   UNL     1     366.431 243.432 276.706  1.00  0.00     0.092 A 
BRANCH  14  17
ATOM     17  O   UNL     1     366.203 245.762 276.123  1.00  0.00    -0.508 OA
ATOM     18  H   UNL     1     366.586 246.465 275.503  1.00  0.00     0.293 HD
ENDBRANCH  14  17
BRANCH  15  19
ATOM     19  O   UNL     1     366.668 241.085 277.277  1.00  0.00    -0.508 OA
ATOM     20  H   UNL     1     366.460 240.660 278.173  1.00  0.00     0.293 HD
ENDBRANCH  15  19
ENDBRANCH  10  11
ENDBRANCH   1  10
TORSDOF 6
ENDMDL
MODEL 4
REMARK VINA RESULT:    -6.496      1.292      2.771
REMARK INTER + INTRA:          -8.837
REMARK INTER:                  -8.403
REMARK INTRA:                  -0.434
REMARK UNBOUND:                -0.632
REMARK SMILES Oc1cc(O)cc(CCc2ccccc2O)c1
REMARK SMILES IDX 9 1 10 2 12 3 13 4 11 5 14 6 15 7 16 8 8 10 7 11 6 12 17 13
REMARK SMILES IDX 4 14 2 15 3 16 5 17 1 19
REMARK H PARENT 16 9 5 18 1 20
REMARK Flexibility Score: inf
ROOT
ATOM      1  C   UNL     1     370.759 244.366 276.616  1.00  0.00     0.044 C 
ENDROOT
BRANCH   1   2
ATOM      2  C   UNL     1     371.997 243.511 276.487  1.00  0.00    -0.006 A 
ATOM      3  C   UNL     1     374.382 243.219 276.873  1.00  0.00     0.001 A 
ATOM      4  C   UNL     1     374.312 241.924 276.357  1.00  0.00     0.004 A 
ATOM      5  C   UNL     1     373.231 244.009 276.943  1.00  0.00     0.007 A 
ATOM      6  C   UNL     1     373.092 241.414 275.910  1.00  0.00     0.046 A 
ATOM      7  C   UNL     1     371.930 242.198 275.974  1.00  0.00     0.118 A 
BRANCH   7   8
ATOM      8  O   UNL     1     370.714 241.674 275.538  1.00  0.00    -0.508 OA
ATOM      9  H   UNL     1     369.832 242.128 275.748  1.00  0.00     0.293 HD
ENDBRANCH   7   8
ENDBRANCH   1   2
BRANCH   1  10
ATOM     10  C   UNL     1     369.900 243.947 277.818  1.00  0.00     0.040 C 
BRANCH  10  11
ATOM     11  C   UNL     1     368.469 243.686 277.419  1.00  0.00    -0.040 A 
ATOM     12  C   UNL     1     367.688 244.718 276.876  1.00  0.00     0.050 A 
ATOM     13  C   UNL     1     367.929 242.394 277.526  1.00  0.00     0.050 A 
ATOM     14  C   UNL     1     366.375 244.465 276.455  1.00  0.00     0.119 A 
ATOM     15  C   UNL     1     366.620 242.138 277.105  1.00  0.00     0.119 A 
ATOM     16  C   UNL     1     365.843 243.176 276.572  1.00  0.00     0.092 A 
BRANCH  14  17
ATOM     17  O   UNL     1     365.593 245.484 275.917  1.00  0.00    -0.508 OA
ATOM     18  H   UNL     1     366.002 246.235 275.373  1.00  0.00     0.293 HD
ENDBRANCH  14  17
BRANCH  15  19
ATOM     19  O   UNL     1     366.102 240.850 277.216  1.00  0.00    -0.508 OA
ATOM     20  H   UNL     1     365.745 240.497 278.097  1.00  0.00     0.293 HD
ENDBRANCH  15  19
ENDBRANCH  10  11
ENDBRANCH   1  10
TORSDOF 6
ENDMDL
MODEL 5
REMARK VINA RESULT:    -6.493      1.509      2.005
REMARK INTER + INTRA:          -8.832
REMARK INTER:                  -8.280
REMARK INTRA:                  -0.553
REMARK UNBOUND:                -0.632
REMARK SMILES Oc1cc(O)cc(CCc2ccccc2O)c1
REMARK SMILES IDX 9 1 10 2 12 3 13 4 11 5 14 6 15 7 16 8 8 10 7 11 6 12 17 13
REMARK SMILES IDX 4 14 2 15 3 16 5 17 1 19
REMARK H PARENT 16 9 5 18 1 20
REMARK Flexibility Score: inf
ROOT
ATOM      1  C   UNL     1     371.445 244.165 276.553  1.00  0.00     0.044 C 
ENDROOT
BRANCH   1   2
ATOM      2  C   UNL     1     372.360 242.967 276.465  1.00  0.00    -0.006 A 
ATOM      3  C   UNL     1     372.674 240.615 275.928  1.00  0.00     0.001 A 
ATOM      4  C   UNL     1     374.040 240.732 276.191  1.00  0.00     0.004 A 
ATOM      5  C   UNL     1     371.837 241.727 276.059  1.00  0.00     0.007 A 
ATOM      6  C   UNL     1     374.573 241.960 276.585  1.00  0.00     0.046 A 
ATOM      7  C   UNL     1     373.743 243.082 276.721  1.00  0.00     0.118 A 
BRANCH   7   8
ATOM      8  O   UNL     1     374.289 244.308 277.102  1.00  0.00    -0.508 OA
ATOM      9  H   UNL     1     373.814 244.924 277.752  1.00  0.00     0.293 HD
ENDBRANCH   7   8
ENDBRANCH   1   2
BRANCH   1  10
ATOM     10  C   UNL     1     370.526 244.091 277.781  1.00  0.00     0.040 C 
BRANCH  10  11
ATOM     11  C   UNL     1     369.097 243.806 277.395  1.00  0.00    -0.040 A 
ATOM     12  C   UNL     1     368.566 242.516 277.552  1.00  0.00     0.050 A 
ATOM     13  C   UNL     1     368.267 244.843 276.938  1.00  0.00     0.050 A 
ATOM     14  C   UNL     1     367.223 242.261 277.243  1.00  0.00     0.119 A 
ATOM     15  C   UNL     1     366.926 244.591 276.631  1.00  0.00     0.119 A 
ATOM     16  C   UNL     1     366.406 243.298 276.782  1.00  0.00     0.092 A 
BRANCH  14  17
ATOM     17  O   UNL     1     366.691 240.983 277.394  1.00  0.00    -0.508 OA
ATOM     18  H   UNL     1     366.442 240.414 276.593  1.00  0.00     0.293 HD
ENDBRANCH  14  17
BRANCH  15  19
ATOM     19  O   UNL     1     366.117 245.632 276.181  1.00  0.00    -0.508 OA
ATOM     20  H   UNL     1     366.492 246.394 275.627  1.00  0.00     0.293 HD
ENDBRANCH  15  19
ENDBRANCH  10  11
ENDBRANCH   1  10
TORSDOF 6
ENDMDL
MODEL 6
REMARK VINA RESULT:    -6.491      1.772      2.946
REMARK INTER + INTRA:          -8.830
REMARK INTER:                  -8.275
REMARK INTRA:                  -0.555
REMARK UNBOUND:                -0.632
REMARK SMILES Oc1cc(O)cc(CCc2ccccc2O)c1
REMARK SMILES IDX 9 1 10 2 12 3 13 4 11 5 14 6 15 7 16 8 8 10 7 11 6 12 17 13
REMARK SMILES IDX 4 14 2 15 3 16 5 17 1 19
REMARK H PARENT 16 9 5 18 1 20
REMARK Flexibility Score: inf
ROOT
ATOM      1  C   UNL     1     370.439 242.144 275.861  1.00  0.00     0.044 C 
ENDROOT
BRANCH   1   2
ATOM      2  C   UNL     1     371.901 242.427 276.110  1.00  0.00    -0.006 A 
ATOM      3  C   UNL     1     373.653 244.021 276.664  1.00  0.00     0.001 A 
ATOM      4  C   UNL     1     374.594 242.990 276.676  1.00  0.00     0.004 A 
ATOM      5  C   UNL     1     372.312 243.743 276.387  1.00  0.00     0.007 A 
ATOM      6  C   UNL     1     374.198 241.678 276.412  1.00  0.00     0.046 A 
ATOM      7  C   UNL     1     372.855 241.387 276.132  1.00  0.00     0.118 A 
BRANCH   7   8
ATOM      8  O   UNL     1     372.467 240.071 275.884  1.00  0.00    -0.508 OA
ATOM      9  H   UNL     1     372.594 239.640 274.975  1.00  0.00     0.293 HD
ENDBRANCH   7   8
ENDBRANCH   1   2
BRANCH   1  10
ATOM     10  C   UNL     1     369.597 242.324 277.133  1.00  0.00     0.040 C 
BRANCH  10  11
ATOM     11  C   UNL     1     368.544 243.389 276.961  1.00  0.00    -0.040 A 
ATOM     12  C   UNL     1     368.829 244.724 277.288  1.00  0.00     0.050 A 
ATOM     13  C   UNL     1     367.293 243.064 276.411  1.00  0.00     0.050 A 
ATOM     14  C   UNL     1     367.869 245.723 277.080  1.00  0.00     0.119 A 
ATOM     15  C   UNL     1     366.334 244.061 276.201  1.00  0.00     0.119 A 
ATOM     16  C   UNL     1     366.623 245.390 276.538  1.00  0.00     0.092 A 
BRANCH  14  17
ATOM     17  O   UNL     1     368.144 247.050 277.404  1.00  0.00    -0.508 OA
ATOM     18  H   UNL     1     367.560 247.808 277.073  1.00  0.00     0.293 HD
ENDBRANCH  14  17
BRANCH  15  19
ATOM     19  O   UNL     1     365.099 243.721 275.652  1.00  0.00    -0.508 OA
ATOM     20  H   UNL     1     364.234 244.106 276.014  1.00  0.00     0.293 HD
ENDBRANCH  15  19
ENDBRANCH  10  11
ENDBRANCH   1  10
TORSDOF 6
ENDMDL
MODEL 7
REMARK VINA RESULT:    -6.444      1.783      2.734
REMARK INTER + INTRA:          -8.771
REMARK INTER:                  -8.225
REMARK INTRA:                  -0.546
REMARK UNBOUND:                -0.632
REMARK SMILES Oc1cc(O)cc(CCc2ccccc2O)c1
REMARK SMILES IDX 9 1 10 2 12 3 13 4 11 5 14 6 15 7 16 8 8 10 7 11 6 12 17 13
REMARK SMILES IDX 4 14 2 15 3 16 5 17 1 19
REMARK H PARENT 16 9 5 18 1 20
REMARK Flexibility Score: inf
ROOT
ATOM      1  C   UNL     1     370.414 242.072 276.025  1.00  0.00     0.044 C 
ENDROOT
BRANCH   1   2
ATOM      2  C   UNL     1     371.880 242.383 276.207  1.00  0.00    -0.006 A 
ATOM      3  C   UNL     1     373.625 244.013 276.671  1.00  0.00     0.001 A 
ATOM      4  C   UNL     1     374.585 242.999 276.650  1.00  0.00     0.004 A 
ATOM      5  C   UNL     1     372.279 243.708 276.456  1.00  0.00     0.007 A 
ATOM      6  C   UNL     1     374.201 241.678 276.414  1.00  0.00     0.046 A 
ATOM      7  C   UNL     1     372.853 241.360 276.195  1.00  0.00     0.118 A 
BRANCH   7   8
ATOM      8  O   UNL     1     372.478 240.035 275.974  1.00  0.00    -0.508 OA
ATOM      9  H   UNL     1     371.570 239.795 275.594  1.00  0.00     0.293 HD
ENDBRANCH   7   8
ENDBRANCH   1   2
BRANCH   1  10
ATOM     10  C   UNL     1     369.586 242.480 277.252  1.00  0.00     0.040 C 
BRANCH  10  11
ATOM     11  C   UNL     1     368.585 243.557 276.919  1.00  0.00    -0.040 A 
ATOM     12  C   UNL     1     367.375 243.226 276.288  1.00  0.00     0.050 A 
ATOM     13  C   UNL     1     368.825 244.889 277.296  1.00  0.00     0.050 A 
ATOM     14  C   UNL     1     366.420 244.217 276.025  1.00  0.00     0.119 A 
ATOM     15  C   UNL     1     367.872 245.879 277.036  1.00  0.00     0.119 A 
ATOM     16  C   UNL     1     366.671 245.542 276.398  1.00  0.00     0.092 A 
BRANCH  14  17
ATOM     17  O   UNL     1     365.219 243.896 275.398  1.00  0.00    -0.508 OA
ATOM     18  H   UNL     1     364.471 244.574 275.306  1.00  0.00     0.293 HD
ENDBRANCH  14  17
BRANCH  15  19
ATOM     19  O   UNL     1     368.127 247.194 277.419  1.00  0.00    -0.508 OA
ATOM     20  H   UNL     1     368.787 247.775 276.915  1.00  0.00     0.293 HD
ENDBRANCH  15  19
ENDBRANCH  10  11
ENDBRANCH   1  10
TORSDOF 6
ENDMDL
MODEL 8
REMARK VINA RESULT:    -6.355      2.140      6.157
REMARK INTER + INTRA:          -8.659
REMARK INTER:                  -8.120
REMARK INTRA:                  -0.539
REMARK UNBOUND:                -0.632
REMARK SMILES Oc1cc(O)cc(CCc2ccccc2O)c1
REMARK SMILES IDX 9 1 10 2 12 3 13 4 11 5 14 6 15 7 16 8 8 10 7 11 6 12 17 13
REMARK SMILES IDX 4 14 2 15 3 16 5 17 1 19
REMARK H PARENT 16 9 5 18 1 20
REMARK Flexibility Score: inf
ROOT
ATOM      1  C   UNL     1     369.579 242.303 276.752  1.00  0.00     0.044 C 
ENDROOT
BRANCH   1   2
ATOM      2  C   UNL     1     368.661 243.502 276.742  1.00  0.00    -0.006 A 
ATOM      3  C   UNL     1     368.286 245.847 277.267  1.00  0.00     0.001 A 
ATOM      4  C   UNL     1     367.028 245.787 276.663  1.00  0.00     0.004 A 
ATOM      5  C   UNL     1     369.101 244.713 277.304  1.00  0.00     0.007 A 
ATOM      6  C   UNL     1     366.583 244.593 276.094  1.00  0.00     0.046 A 
ATOM      7  C   UNL     1     367.392 243.448 276.125  1.00  0.00     0.118 A 
BRANCH   7   8
ATOM      8  O   UNL     1     366.944 242.264 275.541  1.00  0.00    -0.508 OA
ATOM      9  H   UNL     1     367.282 241.358 275.845  1.00  0.00     0.293 HD
ENDBRANCH   7   8
ENDBRANCH   1   2
BRANCH   1  10
ATOM     10  C   UNL     1     370.472 242.258 275.504  1.00  0.00     0.040 C 
BRANCH  10  11
ATOM     11  C   UNL     1     371.937 242.274 275.862  1.00  0.00    -0.040 A 
ATOM     12  C   UNL     1     372.578 243.486 276.163  1.00  0.00     0.050 A 
ATOM     13  C   UNL     1     372.654 241.070 275.962  1.00  0.00     0.050 A 
ATOM     14  C   UNL     1     373.925 243.498 276.548  1.00  0.00     0.119 A 
ATOM     15  C   UNL     1     373.998 241.079 276.348  1.00  0.00     0.119 A 
ATOM     16  C   UNL     1     374.633 242.294 276.638  1.00  0.00     0.092 A 
BRANCH  14  17
ATOM     17  O   UNL     1     374.567 244.697 276.846  1.00  0.00    -0.508 OA
ATOM     18  H   UNL     1     374.071 245.474 277.267  1.00  0.00     0.293 HD
ENDBRANCH  14  17
BRANCH  15  19
ATOM     19  O   UNL     1     374.693 239.876 276.444  1.00  0.00    -0.508 OA
ATOM     20  H   UNL     1     374.723 239.348 277.309  1.00  0.00     0.293 HD
ENDBRANCH  15  19
ENDBRANCH  10  11
ENDBRANCH   1  10
TORSDOF 6
ENDMDL
MODEL 9
REMARK VINA RESULT:    -6.230      1.803      6.054
REMARK INTER + INTRA:          -8.500
REMARK INTER:                  -7.965
REMARK INTRA:                  -0.535
REMARK UNBOUND:                -0.632
REMARK SMILES Oc1cc(O)cc(CCc2ccccc2O)c1
REMARK SMILES IDX 9 1 10 2 12 3 13 4 11 5 14 6 15 7 16 8 8 10 7 11 6 12 17 13
REMARK SMILES IDX 4 14 2 15 3 16 5 17 1 19
REMARK H PARENT 16 9 5 18 1 20
REMARK Flexibility Score: inf
ROOT
ATOM      1  C   UNL     1     368.844 244.902 277.373  1.00  0.00     0.044 C 
ENDROOT
BRANCH   1   2
ATOM      2  C   UNL     1     367.568 244.216 276.944  1.00  0.00    -0.006 A 
ATOM      3  C   UNL     1     366.179 242.219 276.920  1.00  0.00     0.001 A 
ATOM      4  C   UNL     1     365.172 242.922 276.255  1.00  0.00     0.004 A 
ATOM      5  C   UNL     1     367.369 242.862 277.268  1.00  0.00     0.007 A 
ATOM      6  C   UNL     1     365.352 244.269 275.937  1.00  0.00     0.046 A 
ATOM      7  C   UNL     1     366.544 244.924 276.280  1.00  0.00     0.118 A 
BRANCH   7   8
ATOM      8  O   UNL     1     366.708 246.274 275.970  1.00  0.00    -0.508 OA
ATOM      9  H   UNL     1     366.463 247.005 276.627  1.00  0.00     0.293 HD
ENDBRANCH   7   8
ENDBRANCH   1   2
BRANCH   1  10
ATOM     10  C   UNL     1     369.818 243.925 278.048  1.00  0.00     0.040 C 
BRANCH  10  11
ATOM     11  C   UNL     1     370.915 243.491 277.110  1.00  0.00    -0.040 A 
ATOM     12  C   UNL     1     372.055 244.292 276.937  1.00  0.00     0.050 A 
ATOM     13  C   UNL     1     370.836 242.252 276.452  1.00  0.00     0.050 A 
ATOM     14  C   UNL     1     373.100 243.866 276.106  1.00  0.00     0.119 A 
ATOM     15  C   UNL     1     371.879 241.824 275.625  1.00  0.00     0.119 A 
ATOM     16  C   UNL     1     373.009 242.633 275.450  1.00  0.00     0.092 A 
BRANCH  14  17
ATOM     17  O   UNL     1     374.233 244.656 275.929  1.00  0.00    -0.508 OA
ATOM     18  H   UNL     1     374.439 245.094 275.039  1.00  0.00     0.293 HD
ENDBRANCH  14  17
BRANCH  15  19
ATOM     19  O   UNL     1     371.784 240.591 274.983  1.00  0.00    -0.508 OA
ATOM     20  H   UNL     1     372.604 240.117 274.622  1.00  0.00     0.293 HD
ENDBRANCH  15  19
ENDBRANCH  10  11
ENDBRANCH   1  10
TORSDOF 6
ENDMDL
