MODEL 1
REMARK VINA RESULT:    -4.125      0.000      0.000
REMARK INTER + INTRA:         -12.815
REMARK INTER:                  -9.429
REMARK INTRA:                  -3.385
REMARK UNBOUND:                -3.385
REMARK SMILES CCCCCCCCCCCCCCCCCCCCCCCC(=O)[O-]
REMARK SMILES IDX 13 1 14 2 15 3 16 4 17 5 18 6 19 7 20 8 21 9 22 10 23 11
REMARK SMILES IDX 24 12 25 13 26 14 12 15 11 16 10 17 9 18 8 19 7 20 6 21 5 22
REMARK SMILES IDX 4 23 3 24 2 25 1 26
REMARK H PARENT
REMARK Flexibility Score: inf
ROOT
ATOM      1  C   UNL     1      25.337   8.072  10.003  1.00  0.00     0.000 C 
ENDROOT
BRANCH   1   2
ATOM      2  C   UNL     1      25.984   8.795  11.199  1.00  0.00     0.000 C 
BRANCH   2   3
ATOM      3  C   UNL     1      25.303  10.113  11.610  1.00  0.00     0.000 C 
BRANCH   3   4
ATOM      4  C   UNL     1      25.040  10.274  13.119  1.00  0.00     0.000 C 
BRANCH   4   5
ATOM      5  C   UNL     1      23.799   9.507  13.624  1.00  0.00     0.000 C 
BRANCH   5   6
ATOM      6  C   UNL     1      24.097   8.647  14.865  1.00  0.00     0.000 C 
BRANCH   6   7
ATOM      7  C   UNL     1      25.230   7.637  14.623  1.00  0.00     0.000 C 
BRANCH   7   8
ATOM      8  C   UNL     1      24.708   6.207  14.388  1.00  0.00     0.000 C 
BRANCH   8   9
ATOM      9  C   UNL     1      24.360   5.938  12.915  1.00  0.00     0.000 C 
BRANCH   9  10
ATOM     10  C   UNL     1      25.440   5.112  12.195  1.00  0.00     0.006 C 
BRANCH  10  11
ATOM     11  C   UNL     1      26.100   4.088  13.127  1.00  0.00     0.053 C 
BRANCH  11  12
ATOM     12  C   UNL     1      25.440   2.746  13.032  1.00  0.00     0.041 C 
ATOM     13  O   UNL     1      24.335   2.540  13.600  1.00  0.00    -0.550 OA
ATOM     14  O   UNL     1      26.060   1.714  12.339  1.00  0.00    -0.550 OA
ENDBRANCH  11  12
ENDBRANCH  10  11
ENDBRANCH   9  10
ENDBRANCH   8   9
ENDBRANCH   7   8
ENDBRANCH   6   7
ENDBRANCH   5   6
ENDBRANCH   4   5
ENDBRANCH   3   4
ENDBRANCH   2   3
ENDBRANCH   1   2
BRANCH   1  15
ATOM     15  C   UNL     1      24.054   8.759   9.510  1.00  0.00     0.000 C 
BRANCH  15  16
ATOM     16  C   UNL     1      22.807   8.038  10.043  1.00  0.00     0.000 C 
BRANCH  16  17
ATOM     17  C   UNL     1      21.760   9.008  10.622  1.00  0.00     0.000 C 
BRANCH  17  18
ATOM     18  C   UNL     1      20.788   8.385  11.644  1.00  0.00    -0.000 C 
BRANCH  18  19
ATOM     19  C   UNL     1      19.400   8.018  11.090  1.00  0.00    -0.000 C 
BRANCH  19  20
ATOM     20  C   UNL     1      18.955   6.601  11.490  1.00  0.00    -0.000 C 
BRANCH  20  21
ATOM     21  C   UNL     1      19.303   5.542  10.429  1.00  0.00    -0.000 C 
BRANCH  21  22
ATOM     22  C   UNL     1      19.939   6.093   9.136  1.00  0.00    -0.000 C 
BRANCH  22  23
ATOM     23  C   UNL     1      18.942   6.572   8.062  1.00  0.00    -0.000 C 
BRANCH  23  24
ATOM     24  C   UNL     1      19.583   7.242   6.834  1.00  0.00    -0.000 C 
BRANCH  24  25
ATOM     25  C   UNL     1      19.539   8.775   6.902  1.00  0.00    -0.003 C 
ATOM     26  C   UNL     1      20.947   9.363   6.943  1.00  0.00     0.004 C 
ENDBRANCH  24  25
ENDBRANCH  23  24
ENDBRANCH  22  23
ENDBRANCH  21  22
ENDBRANCH  20  21
ENDBRANCH  19  20
ENDBRANCH  18  19
ENDBRANCH  17  18
ENDBRANCH  16  17
ENDBRANCH  15  16
ENDBRANCH   1  15
TORSDOF 22
ENDMDL
MODEL 2
REMARK VINA RESULT:    -4.116      3.195      7.125
REMARK INTER + INTRA:         -12.794
REMARK INTER:                  -9.427
REMARK INTRA:                  -3.368
REMARK UNBOUND:                -3.385
REMARK SMILES CCCCCCCCCCCCCCCCCCCCCCCC(=O)[O-]
REMARK SMILES IDX 13 1 14 2 15 3 16 4 17 5 18 6 19 7 20 8 21 9 22 10 23 11
REMARK SMILES IDX 24 12 25 13 26 14 12 15 11 16 10 17 9 18 8 19 7 20 6 21 5 22
REMARK SMILES IDX 4 23 3 24 2 25 1 26
REMARK H PARENT
REMARK Flexibility Score: inf
ROOT
ATOM      1  C   UNL     1      25.368   6.749   9.493  1.00  0.00     0.000 C 
ENDROOT
BRANCH   1   2
ATOM      2  C   UNL     1      25.231   8.214   9.950  1.00  0.00     0.000 C 
BRANCH   2   3
ATOM      3  C   UNL     1      23.920   8.907   9.534  1.00  0.00     0.000 C 
BRANCH   3   4
ATOM      4  C   UNL     1      22.631   8.146   9.895  1.00  0.00     0.000 C 
BRANCH   4   5
ATOM      5  C   UNL     1      21.695   8.915  10.852  1.00  0.00     0.000 C 
BRANCH   5   6
ATOM      6  C   UNL     1      20.834   7.980  11.719  1.00  0.00     0.000 C 
BRANCH   6   7
ATOM      7  C   UNL     1      19.361   7.958  11.278  1.00  0.00     0.000 C 
BRANCH   7   8
ATOM      8  C   UNL     1      18.807   6.528  11.139  1.00  0.00     0.000 C 
BRANCH   8   9
ATOM      9  C   UNL     1      19.461   5.749   9.987  1.00  0.00     0.000 C 
BRANCH   9  10
ATOM     10  C   UNL     1      18.957   6.202   8.606  1.00  0.00     0.006 C 
BRANCH  10  11
ATOM     11  C   UNL     1      20.074   6.828   7.761  1.00  0.00     0.053 C 
BRANCH  11  12
ATOM     12  C   UNL     1      19.772   8.254   7.413  1.00  0.00     0.041 C 
ATOM     13  O   UNL     1      18.784   8.839   7.931  1.00  0.00    -0.550 OA
ATOM     14  O   UNL     1      20.566   8.929   6.494  1.00  0.00    -0.550 OA
ENDBRANCH  11  12
ENDBRANCH  10  11
ENDBRANCH   9  10
ENDBRANCH   8   9
ENDBRANCH   7   8
ENDBRANCH   6   7
ENDBRANCH   5   6
ENDBRANCH   4   5
ENDBRANCH   3   4
ENDBRANCH   2   3
ENDBRANCH   1   2
BRANCH   1  15
ATOM     15  C   UNL     1      25.967   5.837  10.575  1.00  0.00     0.000 C 
BRANCH  15  16
ATOM     16  C   UNL     1      25.801   6.459  11.969  1.00  0.00     0.000 C 
BRANCH  16  17
ATOM     17  C   UNL     1      24.505   6.013  12.670  1.00  0.00     0.000 C 
BRANCH  17  18
ATOM     18  C   UNL     1      23.825   7.095  13.533  1.00  0.00    -0.000 C 
BRANCH  18  19
ATOM     19  C   UNL     1      24.602   7.514  14.793  1.00  0.00    -0.000 C 
BRANCH  19  20
ATOM     20  C   UNL     1      24.935   9.016  14.815  1.00  0.00    -0.000 C 
BRANCH  20  21
ATOM     21  C   UNL     1      24.175   9.813  13.741  1.00  0.00    -0.000 C 
BRANCH  21  22
ATOM     22  C   UNL     1      25.065  10.536  12.709  1.00  0.00    -0.000 C 
BRANCH  22  23
ATOM     23  C   UNL     1      25.236  12.052  12.933  1.00  0.00    -0.000 C 
BRANCH  23  24
ATOM     24  C   UNL     1      25.802  12.445  14.310  1.00  0.00    -0.000 C 
BRANCH  24  25
ATOM     25  C   UNL     1      25.269  13.796  14.809  1.00  0.00    -0.003 C 
ATOM     26  C   UNL     1      24.073  14.254  13.978  1.00  0.00     0.004 C 
ENDBRANCH  24  25
ENDBRANCH  23  24
ENDBRANCH  22  23
ENDBRANCH  21  22
ENDBRANCH  20  21
ENDBRANCH  19  20
ENDBRANCH  18  19
ENDBRANCH  17  18
ENDBRANCH  16  17
ENDBRANCH  15  16
ENDBRANCH   1  15
TORSDOF 22
ENDMDL
MODEL 3
REMARK VINA RESULT:    -4.114      1.755      6.172
REMARK INTER + INTRA:         -12.792
REMARK INTER:                 -10.043
REMARK INTRA:                  -2.749
REMARK UNBOUND:                -3.385
REMARK SMILES CCCCCCCCCCCCCCCCCCCCCCCC(=O)[O-]
REMARK SMILES IDX 13 1 14 2 15 3 16 4 17 5 18 6 19 7 20 8 21 9 22 10 23 11
REMARK SMILES IDX 24 12 25 13 26 14 12 15 11 16 10 17 9 18 8 19 7 20 6 21 5 22
REMARK SMILES IDX 4 23 3 24 2 25 1 26
REMARK H PARENT
REMARK Flexibility Score: inf
ROOT
ATOM      1  C   UNL     1      19.339   7.279   7.362  1.00  0.00     0.000 C 
ENDROOT
BRANCH   1   2
ATOM      2  C   UNL     1      19.952   6.313   8.393  1.00  0.00     0.000 C 
BRANCH   2   3
ATOM      3  C   UNL     1      18.955   5.724   9.408  1.00  0.00     0.000 C 
BRANCH   3   4
ATOM      4  C   UNL     1      19.316   5.946  10.888  1.00  0.00     0.000 C 
BRANCH   4   5
ATOM      5  C   UNL     1      19.001   7.366  11.405  1.00  0.00     0.000 C 
BRANCH   5   6
ATOM      6  C   UNL     1      20.258   8.249  11.516  1.00  0.00     0.000 C 
BRANCH   6   7
ATOM      7  C   UNL     1      21.482   7.471  12.023  1.00  0.00     0.000 C 
BRANCH   7   8
ATOM      8  C   UNL     1      22.288   8.256  13.074  1.00  0.00     0.000 C 
BRANCH   8   9
ATOM      9  C   UNL     1      23.659   7.625  13.362  1.00  0.00     0.000 C 
BRANCH   9  10
ATOM     10  C   UNL     1      23.734   6.151  12.929  1.00  0.00     0.006 C 
BRANCH  10  11
ATOM     11  C   UNL     1      24.992   5.454  13.463  1.00  0.00     0.053 C 
BRANCH  11  12
ATOM     12  C   UNL     1      24.751   4.000  13.728  1.00  0.00     0.041 C 
ATOM     13  O   UNL     1      25.693   3.170  13.625  1.00  0.00    -0.550 OA
ATOM     14  O   UNL     1      23.477   3.556  14.060  1.00  0.00    -0.550 OA
ENDBRANCH  11  12
ENDBRANCH  10  11
ENDBRANCH   9  10
ENDBRANCH   8   9
ENDBRANCH   7   8
ENDBRANCH   6   7
ENDBRANCH   5   6
ENDBRANCH   4   5
ENDBRANCH   3   4
ENDBRANCH   2   3
ENDBRANCH   1   2
BRANCH   1  15
ATOM     15  C   UNL     1      20.110   8.604   7.250  1.00  0.00     0.000 C 
BRANCH  15  16
ATOM     16  C   UNL     1      20.851   8.919   8.557  1.00  0.00     0.000 C 
BRANCH  16  17
ATOM     17  C   UNL     1      22.330   9.283   8.331  1.00  0.00     0.000 C 
BRANCH  17  18
ATOM     18  C   UNL     1      23.131   9.586   9.613  1.00  0.00    -0.000 C 
BRANCH  18  19
ATOM     19  C   UNL     1      24.324   8.650   9.878  1.00  0.00    -0.000 C 
BRANCH  19  20
ATOM     20  C   UNL     1      25.437   9.323  10.699  1.00  0.00    -0.000 C 
BRANCH  20  21
ATOM     21  C   UNL     1      24.929  10.510  11.537  1.00  0.00    -0.000 C 
BRANCH  21  22
ATOM     22  C   UNL     1      25.628  10.698  12.899  1.00  0.00    -0.000 C 
BRANCH  22  23
ATOM     23  C   UNL     1      25.231  11.971  13.673  1.00  0.00    -0.000 C 
BRANCH  23  24
ATOM     24  C   UNL     1      25.693  13.292  13.031  1.00  0.00    -0.000 C 
BRANCH  24  25
ATOM     25  C   UNL     1      24.947  14.515  13.584  1.00  0.00    -0.003 C 
ATOM     26  C   UNL     1      23.907  14.099  14.621  1.00  0.00     0.004 C 
ENDBRANCH  24  25
ENDBRANCH  23  24
ENDBRANCH  22  23
ENDBRANCH  21  22
ENDBRANCH  20  21
ENDBRANCH  19  20
ENDBRANCH  18  19
ENDBRANCH  17  18
ENDBRANCH  16  17
ENDBRANCH  15  16
ENDBRANCH   1  15
TORSDOF 22
ENDMDL
MODEL 4
REMARK VINA RESULT:    -3.888      3.573      7.308
REMARK INTER + INTRA:         -12.275
REMARK INTER:                  -9.699
REMARK INTRA:                  -2.575
REMARK UNBOUND:                -3.385
REMARK SMILES CCCCCCCCCCCCCCCCCCCCCCCC(=O)[O-]
REMARK SMILES IDX 13 1 14 2 15 3 16 4 17 5 18 6 19 7 20 8 21 9 22 10 23 11
REMARK SMILES IDX 24 12 25 13 26 14 12 15 11 16 10 17 9 18 8 19 7 20 6 21 5 22
REMARK SMILES IDX 4 23 3 24 2 25 1 26
REMARK H PARENT
REMARK Flexibility Score: inf
ROOT
ATOM      1  C   UNL     1      19.070   6.181   9.016  1.00  0.00     0.000 C 
ENDROOT
BRANCH   1   2
ATOM      2  C   UNL     1      20.279   6.769   8.265  1.00  0.00     0.000 C 
BRANCH   2   3
ATOM      3  C   UNL     1      20.188   8.276   7.959  1.00  0.00     0.000 C 
BRANCH   3   4
ATOM      4  C   UNL     1      21.140   9.170   8.774  1.00  0.00     0.000 C 
BRANCH   4   5
ATOM      5  C   UNL     1      22.614   8.712   8.740  1.00  0.00     0.000 C 
BRANCH   5   6
ATOM      6  C   UNL     1      23.475   9.404   9.813  1.00  0.00     0.000 C 
BRANCH   6   7
ATOM      7  C   UNL     1      24.821   8.695  10.035  1.00  0.00     0.000 C 
BRANCH   7   8
ATOM      8  C   UNL     1      25.664   9.360  11.139  1.00  0.00     0.000 C 
BRANCH   8   9
ATOM      9  C   UNL     1      24.974  10.589  11.752  1.00  0.00     0.000 C 
BRANCH   9  10
ATOM     10  C   UNL     1      25.800  11.230  12.880  1.00  0.00     0.006 C 
BRANCH  10  11
ATOM     11  C   UNL     1      24.930  12.063  13.831  1.00  0.00     0.053 C 
BRANCH  11  12
ATOM     12  C   UNL     1      24.887  13.504  13.423  1.00  0.00     0.041 C 
ATOM     13  O   UNL     1      23.920  14.233  13.769  1.00  0.00    -0.550 OA
ATOM     14  O   UNL     1      25.900  14.034  12.635  1.00  0.00    -0.550 OA
ENDBRANCH  11  12
ENDBRANCH  10  11
ENDBRANCH   9  10
ENDBRANCH   8   9
ENDBRANCH   7   8
ENDBRANCH   6   7
ENDBRANCH   5   6
ENDBRANCH   4   5
ENDBRANCH   3   4
ENDBRANCH   2   3
ENDBRANCH   1   2
BRANCH   1  15
ATOM     15  C   UNL     1      19.345   5.955  10.511  1.00  0.00     0.000 C 
BRANCH  15  16
ATOM     16  C   UNL     1      19.086   7.236  11.316  1.00  0.00     0.000 C 
BRANCH  16  17
ATOM     17  C   UNL     1      20.385   7.948  11.737  1.00  0.00     0.000 C 
BRANCH  17  18
ATOM     18  C   UNL     1      21.604   7.024  11.926  1.00  0.00    -0.000 C 
BRANCH  18  19
ATOM     19  C   UNL     1      22.702   7.568  12.858  1.00  0.00    -0.000 C 
BRANCH  19  20
ATOM     20  C   UNL     1      23.927   6.642  12.939  1.00  0.00    -0.000 C 
BRANCH  20  21
ATOM     21  C   UNL     1      24.300   6.269  14.385  1.00  0.00    -0.000 C 
BRANCH  21  22
ATOM     22  C   UNL     1      24.890   4.855  14.566  1.00  0.00    -0.000 C 
BRANCH  22  23
ATOM     23  C   UNL     1      24.123   3.724  13.851  1.00  0.00    -0.000 C 
BRANCH  23  24
ATOM     24  C   UNL     1      24.886   2.392  13.742  1.00  0.00    -0.000 C 
BRANCH  24  25
ATOM     25  C   UNL     1      25.982   2.421  12.667  1.00  0.00    -0.003 C 
ATOM     26  C   UNL     1      26.036   1.100  11.903  1.00  0.00     0.004 C 
ENDBRANCH  24  25
ENDBRANCH  23  24
ENDBRANCH  22  23
ENDBRANCH  21  22
ENDBRANCH  20  21
ENDBRANCH  19  20
ENDBRANCH  18  19
ENDBRANCH  17  18
ENDBRANCH  16  17
ENDBRANCH  15  16
ENDBRANCH   1  15
TORSDOF 22
ENDMDL
MODEL 5
REMARK VINA RESULT:    -3.878      6.257      8.324
REMARK INTER + INTRA:         -12.251
REMARK INTER:                 -10.247
REMARK INTRA:                  -2.004
REMARK UNBOUND:                -3.385
REMARK SMILES CCCCCCCCCCCCCCCCCCCCCCCC(=O)[O-]
REMARK SMILES IDX 13 1 14 2 15 3 16 4 17 5 18 6 19 7 20 8 21 9 22 10 23 11
REMARK SMILES IDX 24 12 25 13 26 14 12 15 11 16 10 17 9 18 8 19 7 20 6 21 5 22
REMARK SMILES IDX 4 23 3 24 2 25 1 26
REMARK H PARENT
REMARK Flexibility Score: inf
ROOT
ATOM      1  C   UNL     1      25.640   8.502  11.943  1.00  0.00     0.000 C 
ENDROOT
BRANCH   1   2
ATOM      2  C   UNL     1      25.793   9.957  11.461  1.00  0.00     0.000 C 
BRANCH   2   3
ATOM      3  C   UNL     1      24.989  10.997  12.262  1.00  0.00     0.000 C 
BRANCH   3   4
ATOM      4  C   UNL     1      25.654  12.379  12.398  1.00  0.00     0.000 C 
BRANCH   4   5
ATOM      5  C   UNL     1      25.448  13.041  13.778  1.00  0.00     0.000 C 
BRANCH   5   6
ATOM      6  C   UNL     1      25.452  14.579  13.704  1.00  0.00     0.000 C 
BRANCH   6   7
ATOM      7  C   UNL     1      24.252  15.207  14.432  1.00  0.00     0.000 C 
BRANCH   7   8
ATOM      8  C   UNL     1      24.354  16.741  14.525  1.00  0.00     0.000 C 
BRANCH   8   9
ATOM      9  C   UNL     1      22.999  17.408  14.808  1.00  0.00     0.000 C 
BRANCH   9  10
ATOM     10  C   UNL     1      22.873  18.792  14.148  1.00  0.00     0.006 C 
BRANCH  10  11
ATOM     11  C   UNL     1      21.438  19.333  14.213  1.00  0.00     0.053 C 
BRANCH  11  12
ATOM     12  C   UNL     1      20.699  19.098  12.931  1.00  0.00     0.041 C 
ATOM     13  O   UNL     1      20.978  19.771  11.904  1.00  0.00    -0.550 OA
ATOM     14  O   UNL     1      19.681  18.155  12.879  1.00  0.00    -0.550 OA
ENDBRANCH  11  12
ENDBRANCH  10  11
ENDBRANCH   9  10
ENDBRANCH   8   9
ENDBRANCH   7   8
ENDBRANCH   6   7
ENDBRANCH   5   6
ENDBRANCH   4   5
ENDBRANCH   3   4
ENDBRANCH   2   3
ENDBRANCH   1   2
BRANCH   1  15
ATOM     15  C   UNL     1      25.945   7.471  10.846  1.00  0.00     0.000 C 
BRANCH  15  16
ATOM     16  C   UNL     1      25.020   7.670   9.636  1.00  0.00     0.000 C 
BRANCH  16  17
ATOM     17  C   UNL     1      23.528   7.613  10.010  1.00  0.00     0.000 C 
BRANCH  17  18
ATOM     18  C   UNL     1      22.674   8.775   9.466  1.00  0.00    -0.000 C 
BRANCH  18  19
ATOM     19  C   UNL     1      21.545   9.252  10.398  1.00  0.00    -0.000 C 
BRANCH  19  20
ATOM     20  C   UNL     1      21.072   8.158  11.369  1.00  0.00    -0.000 C 
BRANCH  20  21
ATOM     21  C   UNL     1      19.555   7.909  11.297  1.00  0.00    -0.000 C 
BRANCH  21  22
ATOM     22  C   UNL     1      19.144   6.453  10.992  1.00  0.00    -0.000 C 
BRANCH  22  23
ATOM     23  C   UNL     1      19.713   5.867   9.684  1.00  0.00    -0.000 C 
BRANCH  23  24
ATOM     24  C   UNL     1      19.030   6.367   8.398  1.00  0.00    -0.000 C 
BRANCH  24  25
ATOM     25  C   UNL     1      19.944   7.261   7.549  1.00  0.00    -0.003 C 
ATOM     26  C   UNL     1      19.227   8.544   7.137  1.00  0.00     0.004 C 
ENDBRANCH  24  25
ENDBRANCH  23  24
ENDBRANCH  22  23
ENDBRANCH  21  22
ENDBRANCH  20  21
ENDBRANCH  19  20
ENDBRANCH  18  19
ENDBRANCH  17  18
ENDBRANCH  16  17
ENDBRANCH  15  16
ENDBRANCH   1  15
TORSDOF 22
ENDMDL
MODEL 6
REMARK VINA RESULT:    -3.830      3.478      5.230
REMARK INTER + INTRA:         -12.141
REMARK INTER:                  -8.738
REMARK INTRA:                  -3.403
REMARK UNBOUND:                -3.385
REMARK SMILES CCCCCCCCCCCCCCCCCCCCCCCC(=O)[O-]
REMARK SMILES IDX 13 1 14 2 15 3 16 4 17 5 18 6 19 7 20 8 21 9 22 10 23 11
REMARK SMILES IDX 24 12 25 13 26 14 12 15 11 16 10 17 9 18 8 19 7 20 6 21 5 22
REMARK SMILES IDX 4 23 3 24 2 25 1 26
REMARK H PARENT
REMARK Flexibility Score: inf
ROOT
ATOM      1  C   UNL     1      25.553   8.914  10.769  1.00  0.00     0.000 C 
ENDROOT
BRANCH   1   2
ATOM      2  C   UNL     1      25.624   7.558  10.043  1.00  0.00     0.000 C 
BRANCH   2   3
ATOM      3  C   UNL     1      25.300   6.333  10.918  1.00  0.00     0.000 C 
BRANCH   3   4
ATOM      4  C   UNL     1      25.394   6.567  12.437  1.00  0.00     0.000 C 
BRANCH   4   5
ATOM      5  C   UNL     1      24.102   6.215  13.207  1.00  0.00     0.000 C 
BRANCH   5   6
ATOM      6  C   UNL     1      22.871   6.970  12.674  1.00  0.00     0.000 C 
BRANCH   6   7
ATOM      7  C   UNL     1      22.778   8.405  13.218  1.00  0.00     0.000 C 
BRANCH   7   8
ATOM      8  C   UNL     1      23.493   8.571  14.572  1.00  0.00     0.000 C 
BRANCH   8   9
ATOM      9  C   UNL     1      24.771   9.418  14.466  1.00  0.00     0.000 C 
BRANCH   9  10
ATOM     10  C   UNL     1      24.476  10.924  14.367  1.00  0.00     0.006 C 
BRANCH  10  11
ATOM     11  C   UNL     1      25.415  11.633  13.382  1.00  0.00     0.053 C 
BRANCH  11  12
ATOM     12  C   UNL     1      25.158  13.109  13.336  1.00  0.00     0.041 C 
ATOM     13  O   UNL     1      24.230  13.614  14.022  1.00  0.00    -0.550 OA
ATOM     14  O   UNL     1      25.925  13.923  12.512  1.00  0.00    -0.550 OA
ENDBRANCH  11  12
ENDBRANCH  10  11
ENDBRANCH   9  10
ENDBRANCH   8   9
ENDBRANCH   7   8
ENDBRANCH   6   7
ENDBRANCH   5   6
ENDBRANCH   4   5
ENDBRANCH   3   4
ENDBRANCH   2   3
ENDBRANCH   1   2
BRANCH   1  15
ATOM     15  C   UNL     1      24.299   9.724  10.405  1.00  0.00     0.000 C 
BRANCH  15  16
ATOM     16  C   UNL     1      23.290   8.856   9.639  1.00  0.00     0.000 C 
BRANCH  16  17
ATOM     17  C   UNL     1      22.155   9.680   9.005  1.00  0.00     0.000 C 
BRANCH  17  18
ATOM     18  C   UNL     1      22.203   9.783   7.468  1.00  0.00    -0.000 C 
BRANCH  18  19
ATOM     19  C   UNL     1      20.930   9.317   6.738  1.00  0.00    -0.000 C 
BRANCH  19  20
ATOM     20  C   UNL     1      19.839   8.822   7.702  1.00  0.00    -0.000 C 
BRANCH  20  21
ATOM     21  C   UNL     1      19.018   7.654   7.127  1.00  0.00    -0.000 C 
BRANCH  21  22
ATOM     22  C   UNL     1      19.186   6.308   7.861  1.00  0.00    -0.000 C 
BRANCH  22  23
ATOM     23  C   UNL     1      20.085   6.349   9.114  1.00  0.00    -0.000 C 
BRANCH  23  24
ATOM     24  C   UNL     1      19.447   5.768  10.389  1.00  0.00    -0.000 C 
BRANCH  24  25
ATOM     25  C   UNL     1      18.826   6.847  11.288  1.00  0.00    -0.003 C 
ATOM     26  C   UNL     1      19.657   8.127  11.261  1.00  0.00     0.004 C 
ENDBRANCH  24  25
ENDBRANCH  23  24
ENDBRANCH  22  23
ENDBRANCH  21  22
ENDBRANCH  20  21
ENDBRANCH  19  20
ENDBRANCH  18  19
ENDBRANCH  17  18
ENDBRANCH  16  17
ENDBRANCH  15  16
ENDBRANCH   1  15
TORSDOF 22
ENDMDL
MODEL 7
REMARK VINA RESULT:    -3.608      1.408      5.246
REMARK INTER + INTRA:         -11.634
REMARK INTER:                  -9.270
REMARK INTRA:                  -2.364
REMARK UNBOUND:                -3.385
REMARK SMILES CCCCCCCCCCCCCCCCCCCCCCCC(=O)[O-]
REMARK SMILES IDX 13 1 14 2 15 3 16 4 17 5 18 6 19 7 20 8 21 9 22 10 23 11
REMARK SMILES IDX 24 12 25 13 26 14 12 15 11 16 10 17 9 18 8 19 7 20 6 21 5 22
REMARK SMILES IDX 4 23 3 24 2 25 1 26
REMARK H PARENT
REMARK Flexibility Score: inf
ROOT
ATOM      1  C   UNL     1      19.688   7.469   7.807  1.00  0.00     0.000 C 
ENDROOT
BRANCH   1   2
ATOM      2  C   UNL     1      20.532   8.743   8.002  1.00  0.00     0.000 C 
BRANCH   2   3
ATOM      3  C   UNL     1      21.592   8.659   9.116  1.00  0.00     0.000 C 
BRANCH   3   4
ATOM      4  C   UNL     1      22.810   9.582   8.935  1.00  0.00     0.000 C 
BRANCH   4   5
ATOM      5  C   UNL     1      24.121   9.014   9.522  1.00  0.00     0.000 C 
BRANCH   5   6
ATOM      6  C   UNL     1      24.149   7.474   9.528  1.00  0.00     0.000 C 
BRANCH   6   7
ATOM      7  C   UNL     1      25.580   6.912   9.536  1.00  0.00     0.000 C 
BRANCH   7   8
ATOM      8  C   UNL     1      25.721   5.670  10.436  1.00  0.00     0.000 C 
BRANCH   8   9
ATOM      9  C   UNL     1      25.403   5.966  11.910  1.00  0.00     0.000 C 
BRANCH   9  10
ATOM     10  C   UNL     1      25.735   4.783  12.835  1.00  0.00     0.006 C 
BRANCH  10  11
ATOM     11  C   UNL     1      24.473   4.060  13.323  1.00  0.00     0.053 C 
BRANCH  11  12
ATOM     12  C   UNL     1      24.799   2.741  13.954  1.00  0.00     0.041 C 
ATOM     13  O   UNL     1      25.267   2.694  15.122  1.00  0.00    -0.550 OA
ATOM     14  O   UNL     1      24.613   1.564  13.240  1.00  0.00    -0.550 OA
ENDBRANCH  11  12
ENDBRANCH  10  11
ENDBRANCH   9  10
ENDBRANCH   8   9
ENDBRANCH   7   8
ENDBRANCH   6   7
ENDBRANCH   5   6
ENDBRANCH   4   5
ENDBRANCH   3   4
ENDBRANCH   2   3
ENDBRANCH   1   2
BRANCH   1  15
ATOM     15  C   UNL     1      20.106   6.324   8.743  1.00  0.00     0.000 C 
BRANCH  15  16
ATOM     16  C   UNL     1      19.013   6.042   9.784  1.00  0.00     0.000 C 
BRANCH  16  17
ATOM     17  C   UNL     1      19.374   6.571  11.185  1.00  0.00     0.000 C 
BRANCH  17  18
ATOM     18  C   UNL     1      20.875   6.832  11.417  1.00  0.00    -0.000 C 
BRANCH  18  19
ATOM     19  C   UNL     1      21.206   8.133  12.170  1.00  0.00    -0.000 C 
BRANCH  19  20
ATOM     20  C   UNL     1      22.479   8.019  13.025  1.00  0.00    -0.000 C 
BRANCH  20  21
ATOM     21  C   UNL     1      23.511   9.117  12.714  1.00  0.00    -0.000 C 
BRANCH  21  22
ATOM     22  C   UNL     1      24.888   8.932  13.383  1.00  0.00    -0.000 C 
BRANCH  22  23
ATOM     23  C   UNL     1      25.949   9.989  13.013  1.00  0.00    -0.000 C 
BRANCH  23  24
ATOM     24  C   UNL     1      25.415  11.192  12.215  1.00  0.00    -0.000 C 
BRANCH  24  25
ATOM     25  C   UNL     1      25.780  12.539  12.853  1.00  0.00    -0.003 C 
ATOM     26  C   UNL     1      24.725  12.969  13.869  1.00  0.00     0.004 C 
ENDBRANCH  24  25
ENDBRANCH  23  24
ENDBRANCH  22  23
ENDBRANCH  21  22
ENDBRANCH  20  21
ENDBRANCH  19  20
ENDBRANCH  18  19
ENDBRANCH  17  18
ENDBRANCH  16  17
ENDBRANCH  15  16
ENDBRANCH   1  15
TORSDOF 22
ENDMDL
MODEL 8
REMARK VINA RESULT:    -3.605      3.185      7.118
REMARK INTER + INTRA:         -11.626
REMARK INTER:                  -8.657
REMARK INTRA:                  -2.969
REMARK UNBOUND:                -3.385
REMARK SMILES CCCCCCCCCCCCCCCCCCCCCCCC(=O)[O-]
REMARK SMILES IDX 13 1 14 2 15 3 16 4 17 5 18 6 19 7 20 8 21 9 22 10 23 11
REMARK SMILES IDX 24 12 25 13 26 14 12 15 11 16 10 17 9 18 8 19 7 20 6 21 5 22
REMARK SMILES IDX 4 23 3 24 2 25 1 26
REMARK H PARENT
REMARK Flexibility Score: inf
ROOT
ATOM      1  C   UNL     1      26.116  10.570  11.872  1.00  0.00     0.000 C 
ENDROOT
BRANCH   1   2
ATOM      2  C   UNL     1      24.725  10.263  11.286  1.00  0.00     0.000 C 
BRANCH   2   3
ATOM      3  C   UNL     1      24.648   8.990  10.423  1.00  0.00     0.000 C 
BRANCH   3   4
ATOM      4  C   UNL     1      23.234   8.411  10.232  1.00  0.00     0.000 C 
BRANCH   4   5
ATOM      5  C   UNL     1      22.331   8.538  11.478  1.00  0.00     0.000 C 
BRANCH   5   6
ATOM      6  C   UNL     1      21.680   7.201  11.878  1.00  0.00     0.000 C 
BRANCH   6   7
ATOM      7  C   UNL     1      20.158   7.199  11.663  1.00  0.00     0.000 C 
BRANCH   7   8
ATOM      8  C   UNL     1      19.656   5.902  11.001  1.00  0.00     0.000 C 
BRANCH   8   9
ATOM      9  C   UNL     1      19.314   6.090   9.514  1.00  0.00     0.000 C 
BRANCH   9  10
ATOM     10  C   UNL     1      19.544   7.533   9.033  1.00  0.00     0.006 C 
BRANCH  10  11
ATOM     11  C   UNL     1      20.574   7.606   7.898  1.00  0.00     0.053 C 
BRANCH  11  12
ATOM     12  C   UNL     1      20.085   8.449   6.760  1.00  0.00     0.041 C 
ATOM     13  O   UNL     1      20.781   9.409   6.335  1.00  0.00    -0.550 OA
ATOM     14  O   UNL     1      18.846   8.191   6.186  1.00  0.00    -0.550 OA
ENDBRANCH  11  12
ENDBRANCH  10  11
ENDBRANCH   9  10
ENDBRANCH   8   9
ENDBRANCH   7   8
ENDBRANCH   6   7
ENDBRANCH   5   6
ENDBRANCH   4   5
ENDBRANCH   3   4
ENDBRANCH   2   3
ENDBRANCH   1   2
BRANCH   1  15
ATOM     15  C   UNL     1      26.055  11.122  13.305  1.00  0.00     0.000 C 
BRANCH  15  16
ATOM     16  C   UNL     1      24.608  11.443  13.707  1.00  0.00     0.000 C 
BRANCH  16  17
ATOM     17  C   UNL     1      24.149  10.666  14.954  1.00  0.00     0.000 C 
BRANCH  17  18
ATOM     18  C   UNL     1      23.567   9.266  14.673  1.00  0.00    -0.000 C 
BRANCH  18  19
ATOM     19  C   UNL     1      24.505   8.089  14.995  1.00  0.00    -0.000 C 
BRANCH  19  20
ATOM     20  C   UNL     1      25.205   7.527  13.746  1.00  0.00    -0.000 C 
BRANCH  20  21
ATOM     21  C   UNL     1      25.465   6.013  13.835  1.00  0.00    -0.000 C 
BRANCH  21  22
ATOM     22  C   UNL     1      25.702   5.307  12.484  1.00  0.00    -0.000 C 
BRANCH  22  23
ATOM     23  C   UNL     1      25.645   3.767  12.526  1.00  0.00    -0.000 C 
BRANCH  23  24
ATOM     24  C   UNL     1      24.710   3.181  13.600  1.00  0.00    -0.000 C 
BRANCH  24  25
ATOM     25  C   UNL     1      24.771   1.648  13.669  1.00  0.00    -0.003 C 
ATOM     26  C   UNL     1      25.666   1.085  12.568  1.00  0.00     0.004 C 
ENDBRANCH  24  25
ENDBRANCH  23  24
ENDBRANCH  22  23
ENDBRANCH  21  22
ENDBRANCH  20  21
ENDBRANCH  19  20
ENDBRANCH  18  19
ENDBRANCH  17  18
ENDBRANCH  16  17
ENDBRANCH  15  16
ENDBRANCH   1  15
TORSDOF 22
ENDMDL
MODEL 9
REMARK VINA RESULT:    -3.548      3.918      7.425
REMARK INTER + INTRA:         -11.497
REMARK INTER:                  -9.309
REMARK INTRA:                  -2.188
REMARK UNBOUND:                -3.385
REMARK SMILES CCCCCCCCCCCCCCCCCCCCCCCC(=O)[O-]
REMARK SMILES IDX 13 1 14 2 15 3 16 4 17 5 18 6 19 7 20 8 21 9 22 10 23 11
REMARK SMILES IDX 24 12 25 13 26 14 12 15 11 16 10 17 9 18 8 19 7 20 6 21 5 22
REMARK SMILES IDX 4 23 3 24 2 25 1 26
REMARK H PARENT
REMARK Flexibility Score: inf
ROOT
ATOM      1  C   UNL     1      19.376   7.255   7.627  1.00  0.00     0.000 C 
ENDROOT
BRANCH   1   2
ATOM      2  C   UNL     1      20.111   8.605   7.532  1.00  0.00     0.000 C 
BRANCH   2   3
ATOM      3  C   UNL     1      21.033   8.930   8.722  1.00  0.00     0.000 C 
BRANCH   3   4
ATOM      4  C   UNL     1      22.498   9.231   8.355  1.00  0.00     0.000 C 
BRANCH   4   5
ATOM      5  C   UNL     1      23.514   8.825   9.445  1.00  0.00     0.000 C 
BRANCH   5   6
ATOM      6  C   UNL     1      23.662   9.892  10.545  1.00  0.00     0.000 C 
BRANCH   6   7
ATOM      7  C   UNL     1      25.107  10.017  11.053  1.00  0.00     0.000 C 
BRANCH   7   8
ATOM      8  C   UNL     1      25.187  10.633  12.462  1.00  0.00     0.000 C 
BRANCH   8   9
ATOM      9  C   UNL     1      26.059  11.897  12.508  1.00  0.00     0.000 C 
BRANCH   9  10
ATOM     10  C   UNL     1      25.715  12.809  13.698  1.00  0.00     0.006 C 
BRANCH  10  11
ATOM     11  C   UNL     1      25.220  14.189  13.243  1.00  0.00     0.053 C 
BRANCH  11  12
ATOM     12  C   UNL     1      24.255  14.781  14.223  1.00  0.00     0.041 C 
ATOM     13  O   UNL     1      23.518  14.034  14.920  1.00  0.00    -0.550 OA
ATOM     14  O   UNL     1      24.148  16.161  14.347  1.00  0.00    -0.550 OA
ENDBRANCH  11  12
ENDBRANCH  10  11
ENDBRANCH   9  10
ENDBRANCH   8   9
ENDBRANCH   7   8
ENDBRANCH   6   7
ENDBRANCH   5   6
ENDBRANCH   4   5
ENDBRANCH   3   4
ENDBRANCH   2   3
ENDBRANCH   1   2
BRANCH   1  15
ATOM     15  C   UNL     1      19.984   6.313   8.677  1.00  0.00     0.000 C 
BRANCH  15  16
ATOM     16  C   UNL     1      18.928   5.886   9.708  1.00  0.00     0.000 C 
BRANCH  16  17
ATOM     17  C   UNL     1      19.211   6.442  11.116  1.00  0.00     0.000 C 
BRANCH  17  18
ATOM     18  C   UNL     1      20.694   6.732  11.417  1.00  0.00    -0.000 C 
BRANCH  18  19
ATOM     19  C   UNL     1      20.969   8.066  12.133  1.00  0.00    -0.000 C 
BRANCH  19  20
ATOM     20  C   UNL     1      22.299   8.065  12.905  1.00  0.00    -0.000 C 
BRANCH  20  21
ATOM     21  C   UNL     1      23.010   6.700  12.871  1.00  0.00    -0.000 C 
BRANCH  21  22
ATOM     22  C   UNL     1      24.515   6.752  12.538  1.00  0.00    -0.000 C 
BRANCH  22  23
ATOM     23  C   UNL     1      25.463   6.569  13.741  1.00  0.00    -0.000 C 
BRANCH  23  24
ATOM     24  C   UNL     1      25.586   5.123  14.256  1.00  0.00    -0.000 C 
BRANCH  24  25
ATOM     25  C   UNL     1      24.819   4.116  13.387  1.00  0.00    -0.003 C 
ATOM     26  C   UNL     1      25.061   2.686  13.863  1.00  0.00     0.004 C 
ENDBRANCH  24  25
ENDBRANCH  23  24
ENDBRANCH  22  23
ENDBRANCH  21  22
ENDBRANCH  20  21
ENDBRANCH  19  20
ENDBRANCH  18  19
ENDBRANCH  17  18
ENDBRANCH  16  17
ENDBRANCH  15  16
ENDBRANCH   1  15
TORSDOF 22
ENDMDL
