MODEL 1
REMARK VINA RESULT:    -4.210      0.000      0.000
REMARK INTER + INTRA:          -8.576
REMARK INTER:                  -7.164
REMARK INTRA:                  -1.412
REMARK UNBOUND:                -1.412
REMARK SMILES CCCCCCCCCCCCCC(=O)[O-]
REMARK SMILES IDX 8 1 9 2 10 3 11 4 12 5 13 6 14 7 15 8 16 9 7 10 6 11 5 12
REMARK SMILES IDX 4 13 3 14 2 15 1 16
REMARK H PARENT
REMARK Flexibility Score: inf
ROOT
ATOM      1  C   UNL     1      32.676   8.430  28.441  1.00  0.00     0.000 C 
ENDROOT
BRANCH   1   2
ATOM      2  C   UNL     1      31.702   9.168  27.506  1.00  0.00     0.000 C 
BRANCH   2   3
ATOM      3  C   UNL     1      30.278   9.262  28.080  1.00  0.00     0.000 C 
BRANCH   3   4
ATOM      4  C   UNL     1      29.494  10.460  27.520  1.00  0.00     0.000 C 
BRANCH   4   5
ATOM      5  C   UNL     1      28.616  11.143  28.583  1.00  0.00     0.006 C 
BRANCH   5   6
ATOM      6  C   UNL     1      28.833  10.550  29.981  1.00  0.00     0.053 C 
BRANCH   6   7
ATOM      7  C   UNL     1      28.735  11.596  31.050  1.00  0.00     0.041 C 
ATOM      8  O   UNL     1      27.783  12.422  31.045  1.00  0.00    -0.550 OA
ATOM      9  O   UNL     1      29.678  11.640  32.069  1.00  0.00    -0.550 OA
ENDBRANCH   6   7
ENDBRANCH   5   6
ENDBRANCH   4   5
ENDBRANCH   3   4
ENDBRANCH   2   3
ENDBRANCH   1   2
BRANCH   1  10
ATOM     10  C   UNL     1      33.084   9.203  29.712  1.00  0.00     0.000 C 
BRANCH  10  11
ATOM     11  C   UNL     1      33.465   8.326  30.919  1.00  0.00    -0.000 C 
BRANCH  11  12
ATOM     12  C   UNL     1      32.459   8.357  32.086  1.00  0.00    -0.000 C 
BRANCH  12  13
ATOM     13  C   UNL     1      31.018   7.989  31.675  1.00  0.00    -0.000 C 
BRANCH  13  14
ATOM     14  C   UNL     1      30.893   6.528  31.206  1.00  0.00    -0.000 C 
BRANCH  14  15
ATOM     15  C   UNL     1      29.863   6.356  30.079  1.00  0.00    -0.003 C 
ATOM     16  C   UNL     1      29.499   4.892  29.833  1.00  0.00     0.004 C 
ENDBRANCH  14  15
ENDBRANCH  13  14
ENDBRANCH  12  13
ENDBRANCH  11  12
ENDBRANCH  10  11
ENDBRANCH   1  10
TORSDOF 12
ENDMDL
MODEL 2
REMARK VINA RESULT:    -4.089      1.599      3.063
REMARK INTER + INTRA:          -8.370
REMARK INTER:                  -6.580
REMARK INTRA:                  -1.790
REMARK UNBOUND:                -1.412
REMARK SMILES CCCCCCCCCCCCCC(=O)[O-]
REMARK SMILES IDX 8 1 9 2 10 3 11 4 12 5 13 6 14 7 15 8 16 9 7 10 6 11 5 12
REMARK SMILES IDX 4 13 3 14 2 15 1 16
REMARK H PARENT
REMARK Flexibility Score: inf
ROOT
ATOM      1  C   UNL     1      33.345   9.365  30.948  1.00  0.00     0.000 C 
ENDROOT
BRANCH   1   2
ATOM      2  C   UNL     1      33.656  10.833  31.294  1.00  0.00     0.000 C 
BRANCH   2   3
ATOM      3  C   UNL     1      32.406  11.624  31.717  1.00  0.00     0.000 C 
BRANCH   3   4
ATOM      4  C   UNL     1      31.256  10.711  32.170  1.00  0.00     0.000 C 
BRANCH   4   5
ATOM      5  C   UNL     1      29.876  11.372  32.010  1.00  0.00     0.006 C 
BRANCH   5   6
ATOM      6  C   UNL     1      29.675  11.961  30.608  1.00  0.00     0.053 C 
BRANCH   6   7
ATOM      7  C   UNL     1      28.256  11.825  30.146  1.00  0.00     0.041 C 
ATOM      8  O   UNL     1      27.305  12.121  30.917  1.00  0.00    -0.550 OA
ATOM      9  O   UNL     1      27.984  11.398  28.852  1.00  0.00    -0.550 OA
ENDBRANCH   6   7
ENDBRANCH   5   6
ENDBRANCH   4   5
ENDBRANCH   3   4
ENDBRANCH   2   3
ENDBRANCH   1   2
BRANCH   1  10
ATOM     10  C   UNL     1      33.881   8.881  29.585  1.00  0.00     0.000 C 
BRANCH  10  11
ATOM     11  C   UNL     1      32.803   8.479  28.562  1.00  0.00    -0.000 C 
BRANCH  11  12
ATOM     12  C   UNL     1      31.530   9.346  28.587  1.00  0.00    -0.000 C 
BRANCH  12  13
ATOM     13  C   UNL     1      30.297   8.625  29.171  1.00  0.00    -0.000 C 
BRANCH  13  14
ATOM     14  C   UNL     1      30.272   7.125  28.826  1.00  0.00    -0.000 C 
BRANCH  14  15
ATOM     15  C   UNL     1      30.134   6.235  30.071  1.00  0.00    -0.003 C 
ATOM     16  C   UNL     1      30.775   6.856  31.312  1.00  0.00     0.004 C 
ENDBRANCH  14  15
ENDBRANCH  13  14
ENDBRANCH  12  13
ENDBRANCH  11  12
ENDBRANCH  10  11
ENDBRANCH   1  10
TORSDOF 12
ENDMDL
MODEL 3
REMARK VINA RESULT:    -4.059      1.529      3.053
REMARK INTER + INTRA:          -8.319
REMARK INTER:                  -6.356
REMARK INTRA:                  -1.963
REMARK UNBOUND:                -1.412
REMARK SMILES CCCCCCCCCCCCCC(=O)[O-]
REMARK SMILES IDX 8 1 9 2 10 3 11 4 12 5 13 6 14 7 15 8 16 9 7 10 6 11 5 12
REMARK SMILES IDX 4 13 3 14 2 15 1 16
REMARK H PARENT
REMARK Flexibility Score: inf
ROOT
ATOM      1  C   UNL     1      32.831   8.843  28.928  1.00  0.00     0.000 C 
ENDROOT
BRANCH   1   2
ATOM      2  C   UNL     1      32.958   9.709  30.194  1.00  0.00     0.000 C 
BRANCH   2   3
ATOM      3  C   UNL     1      31.848  10.767  30.308  1.00  0.00     0.000 C 
BRANCH   3   4
ATOM      4  C   UNL     1      31.414  11.012  31.762  1.00  0.00     0.000 C 
BRANCH   4   5
ATOM      5  C   UNL     1      29.921  10.717  31.994  1.00  0.00     0.006 C 
BRANCH   5   6
ATOM      6  C   UNL     1      29.084  10.943  30.729  1.00  0.00     0.053 C 
BRANCH   6   7
ATOM      7  C   UNL     1      28.407  12.280  30.741  1.00  0.00     0.041 C 
ATOM      8  O   UNL     1      28.922  13.258  30.136  1.00  0.00    -0.550 OA
ATOM      9  O   UNL     1      27.193  12.439  31.398  1.00  0.00    -0.550 OA
ENDBRANCH   6   7
ENDBRANCH   5   6
ENDBRANCH   4   5
ENDBRANCH   3   4
ENDBRANCH   2   3
ENDBRANCH   1   2
BRANCH   1  10
ATOM     10  C   UNL     1      31.412   8.759  28.327  1.00  0.00     0.000 C 
BRANCH  10  11
ATOM     11  C   UNL     1      30.621   7.489  28.692  1.00  0.00    -0.000 C 
BRANCH  11  12
ATOM     12  C   UNL     1      30.055   7.468  30.124  1.00  0.00    -0.000 C 
BRANCH  12  13
ATOM     13  C   UNL     1      30.866   6.588  31.100  1.00  0.00    -0.000 C 
BRANCH  13  14
ATOM     14  C   UNL     1      31.053   7.252  32.476  1.00  0.00    -0.000 C 
BRANCH  14  15
ATOM     15  C   UNL     1      32.532   7.399  32.864  1.00  0.00    -0.003 C 
ATOM     16  C   UNL     1      32.873   6.677  34.168  1.00  0.00     0.004 C 
ENDBRANCH  14  15
ENDBRANCH  13  14
ENDBRANCH  12  13
ENDBRANCH  11  12
ENDBRANCH  10  11
ENDBRANCH   1  10
TORSDOF 12
ENDMDL
MODEL 4
REMARK VINA RESULT:    -4.057      1.750      3.564
REMARK INTER + INTRA:          -8.314
REMARK INTER:                  -6.395
REMARK INTRA:                  -1.919
REMARK UNBOUND:                -1.412
REMARK SMILES CCCCCCCCCCCCCC(=O)[O-]
REMARK SMILES IDX 8 1 9 2 10 3 11 4 12 5 13 6 14 7 15 8 16 9 7 10 6 11 5 12
REMARK SMILES IDX 4 13 3 14 2 15 1 16
REMARK H PARENT
REMARK Flexibility Score: inf
ROOT
ATOM      1  C   UNL     1      32.261   9.213  32.898  1.00  0.00     0.000 C 
ENDROOT
BRANCH   1   2
ATOM      2  C   UNL     1      33.112  10.360  32.321  1.00  0.00     0.000 C 
BRANCH   2   3
ATOM      3  C   UNL     1      32.449  11.046  31.115  1.00  0.00     0.000 C 
BRANCH   3   4
ATOM      4  C   UNL     1      30.919  11.113  31.243  1.00  0.00     0.000 C 
BRANCH   4   5
ATOM      5  C   UNL     1      30.309  12.293  30.466  1.00  0.00     0.006 C 
BRANCH   5   6
ATOM      6  C   UNL     1      30.153  11.983  28.971  1.00  0.00     0.053 C 
BRANCH   6   7
ATOM      7  C   UNL     1      28.823  11.362  28.669  1.00  0.00     0.041 C 
ATOM      8  O   UNL     1      28.650  10.724  27.597  1.00  0.00    -0.550 OA
ATOM      9  O   UNL     1      27.784  11.463  29.585  1.00  0.00    -0.550 OA
ENDBRANCH   6   7
ENDBRANCH   5   6
ENDBRANCH   4   5
ENDBRANCH   3   4
ENDBRANCH   2   3
ENDBRANCH   1   2
BRANCH   1  10
ATOM     10  C   UNL     1      32.395   7.861  32.168  1.00  0.00     0.000 C 
BRANCH  10  11
ATOM     11  C   UNL     1      31.116   7.004  32.137  1.00  0.00    -0.000 C 
BRANCH  11  12
ATOM     12  C   UNL     1      30.622   6.629  30.728  1.00  0.00    -0.000 C 
BRANCH  12  13
ATOM     13  C   UNL     1      30.106   7.831  29.908  1.00  0.00    -0.000 C 
BRANCH  13  14
ATOM     14  C   UNL     1      30.634   7.830  28.463  1.00  0.00    -0.000 C 
BRANCH  14  15
ATOM     15  C   UNL     1      31.705   8.906  28.225  1.00  0.00    -0.003 C 
ATOM     16  C   UNL     1      33.110   8.430  28.595  1.00  0.00     0.004 C 
ENDBRANCH  14  15
ENDBRANCH  13  14
ENDBRANCH  12  13
ENDBRANCH  11  12
ENDBRANCH  10  11
ENDBRANCH   1  10
TORSDOF 12
ENDMDL
MODEL 5
REMARK VINA RESULT:    -4.041      1.575      2.720
REMARK INTER + INTRA:          -8.287
REMARK INTER:                  -6.307
REMARK INTRA:                  -1.981
REMARK UNBOUND:                -1.412
REMARK SMILES CCCCCCCCCCCCCC(=O)[O-]
REMARK SMILES IDX 8 1 9 2 10 3 11 4 12 5 13 6 14 7 15 8 16 9 7 10 6 11 5 12
REMARK SMILES IDX 4 13 3 14 2 15 1 16
REMARK H PARENT
REMARK Flexibility Score: inf
ROOT
ATOM      1  C   UNL     1      30.948  10.309  28.438  1.00  0.00     0.000 C 
ENDROOT
BRANCH   1   2
ATOM      2  C   UNL     1      29.440  10.296  28.126  1.00  0.00     0.000 C 
BRANCH   2   3
ATOM      3  C   UNL     1      28.588  10.861  29.275  1.00  0.00     0.000 C 
BRANCH   3   4
ATOM      4  C   UNL     1      29.124  10.460  30.659  1.00  0.00     0.000 C 
BRANCH   4   5
ATOM      5  C   UNL     1      29.315  11.668  31.594  1.00  0.00     0.006 C 
BRANCH   5   6
ATOM      6  C   UNL     1      30.785  11.870  31.984  1.00  0.00     0.053 C 
BRANCH   6   7
ATOM      7  C   UNL     1      31.391  13.046  31.280  1.00  0.00     0.041 C 
ATOM      8  O   UNL     1      32.472  13.545  31.692  1.00  0.00    -0.550 OA
ATOM      9  O   UNL     1      30.776  13.572  30.151  1.00  0.00    -0.550 OA
ENDBRANCH   6   7
ENDBRANCH   5   6
ENDBRANCH   4   5
ENDBRANCH   3   4
ENDBRANCH   2   3
ENDBRANCH   1   2
BRANCH   1  10
ATOM     10  C   UNL     1      31.760   9.155  27.816  1.00  0.00     0.000 C 
BRANCH  10  11
ATOM     11  C   UNL     1      32.783   8.492  28.757  1.00  0.00    -0.000 C 
BRANCH  11  12
ATOM     12  C   UNL     1      32.958   9.190  30.119  1.00  0.00    -0.000 C 
BRANCH  12  13
ATOM     13  C   UNL     1      32.834   8.237  31.327  1.00  0.00    -0.000 C 
BRANCH  13  14
ATOM     14  C   UNL     1      31.371   7.958  31.712  1.00  0.00    -0.000 C 
BRANCH  14  15
ATOM     15  C   UNL     1      30.853   6.629  31.140  1.00  0.00    -0.003 C 
ATOM     16  C   UNL     1      29.752   6.826  30.098  1.00  0.00     0.004 C 
ENDBRANCH  14  15
ENDBRANCH  13  14
ENDBRANCH  12  13
ENDBRANCH  11  12
ENDBRANCH  10  11
ENDBRANCH   1  10
TORSDOF 12
ENDMDL
MODEL 6
REMARK VINA RESULT:    -4.040      2.126      4.153
REMARK INTER + INTRA:          -8.286
REMARK INTER:                  -6.642
REMARK INTRA:                  -1.644
REMARK UNBOUND:                -1.412
REMARK SMILES CCCCCCCCCCCCCC(=O)[O-]
REMARK SMILES IDX 8 1 9 2 10 3 11 4 12 5 13 6 14 7 15 8 16 9 7 10 6 11 5 12
REMARK SMILES IDX 4 13 3 14 2 15 1 16
REMARK H PARENT
REMARK Flexibility Score: inf
ROOT
ATOM      1  C   UNL     1      31.387   7.185  31.903  1.00  0.00     0.000 C 
ENDROOT
BRANCH   1   2
ATOM      2  C   UNL     1      30.628   6.548  30.725  1.00  0.00     0.000 C 
BRANCH   2   3
ATOM      3  C   UNL     1      29.872   7.581  29.872  1.00  0.00     0.000 C 
BRANCH   3   4
ATOM      4  C   UNL     1      30.587   7.887  28.546  1.00  0.00     0.000 C 
BRANCH   4   5
ATOM      5  C   UNL     1      31.138   9.323  28.486  1.00  0.00     0.006 C 
BRANCH   5   6
ATOM      6  C   UNL     1      30.259  10.313  29.262  1.00  0.00     0.053 C 
BRANCH   6   7
ATOM      7  C   UNL     1      29.140  10.842  28.418  1.00  0.00     0.041 C 
ATOM      8  O   UNL     1      28.089  11.279  28.958  1.00  0.00    -0.550 OA
ATOM      9  O   UNL     1      29.270  10.881  27.035  1.00  0.00    -0.550 OA
ENDBRANCH   6   7
ENDBRANCH   5   6
ENDBRANCH   4   5
ENDBRANCH   3   4
ENDBRANCH   2   3
ENDBRANCH   1   2
BRANCH   1  10
ATOM     10  C   UNL     1      32.742   7.828  31.543  1.00  0.00     0.000 C 
BRANCH  10  11
ATOM     11  C   UNL     1      32.845   9.339  31.824  1.00  0.00    -0.000 C 
BRANCH  11  12
ATOM     12  C   UNL     1      33.860  10.094  30.945  1.00  0.00    -0.000 C 
BRANCH  12  13
ATOM     13  C   UNL     1      34.691   9.175  30.025  1.00  0.00    -0.000 C 
BRANCH  13  14
ATOM     14  C   UNL     1      36.193   9.209  30.358  1.00  0.00    -0.000 C 
BRANCH  14  15
ATOM     15  C   UNL     1      36.733   7.837  30.794  1.00  0.00    -0.003 C 
ATOM     16  C   UNL     1      36.279   7.447  32.200  1.00  0.00     0.004 C 
ENDBRANCH  14  15
ENDBRANCH  13  14
ENDBRANCH  12  13
ENDBRANCH  11  12
ENDBRANCH  10  11
ENDBRANCH   1  10
TORSDOF 12
ENDMDL
MODEL 7
REMARK VINA RESULT:    -3.982      1.551      3.903
REMARK INTER + INTRA:          -8.187
REMARK INTER:                  -6.234
REMARK INTRA:                  -1.953
REMARK UNBOUND:                -1.412
REMARK SMILES CCCCCCCCCCCCCC(=O)[O-]
REMARK SMILES IDX 8 1 9 2 10 3 11 4 12 5 13 6 14 7 15 8 16 9 7 10 6 11 5 12
REMARK SMILES IDX 4 13 3 14 2 15 1 16
REMARK H PARENT
REMARK Flexibility Score: inf
ROOT
ATOM      1  C   UNL     1      32.001   7.661  32.308  1.00  0.00     0.000 C 
ENDROOT
BRANCH   1   2
ATOM      2  C   UNL     1      31.492   8.900  33.067  1.00  0.00     0.000 C 
BRANCH   2   3
ATOM      3  C   UNL     1      31.367  10.142  32.168  1.00  0.00     0.000 C 
BRANCH   3   4
ATOM      4  C   UNL     1      29.933  10.693  32.122  1.00  0.00     0.000 C 
BRANCH   4   5
ATOM      5  C   UNL     1      29.812  11.961  31.258  1.00  0.00     0.006 C 
BRANCH   5   6
ATOM      6  C   UNL     1      30.034  11.669  29.768  1.00  0.00     0.053 C 
BRANCH   6   7
ATOM      7  C   UNL     1      28.739  11.481  29.039  1.00  0.00     0.041 C 
ATOM      8  O   UNL     1      27.644  11.599  29.649  1.00  0.00    -0.550 OA
ATOM      9  O   UNL     1      28.742  11.203  27.678  1.00  0.00    -0.550 OA
ENDBRANCH   6   7
ENDBRANCH   5   6
ENDBRANCH   4   5
ENDBRANCH   3   4
ENDBRANCH   2   3
ENDBRANCH   1   2
BRANCH   1  10
ATOM     10  C   UNL     1      30.914   6.643  31.904  1.00  0.00     0.000 C 
BRANCH  10  11
ATOM     11  C   UNL     1      30.634   6.549  30.393  1.00  0.00    -0.000 C 
BRANCH  11  12
ATOM     12  C   UNL     1      29.958   7.790  29.780  1.00  0.00    -0.000 C 
BRANCH  12  13
ATOM     13  C   UNL     1      30.553   8.215  28.421  1.00  0.00    -0.000 C 
BRANCH  13  14
ATOM     14  C   UNL     1      32.085   8.071  28.376  1.00  0.00    -0.000 C 
BRANCH  14  15
ATOM     15  C   UNL     1      32.809   9.245  29.053  1.00  0.00    -0.003 C 
ATOM     16  C   UNL     1      34.165   8.844  29.632  1.00  0.00     0.004 C 
ENDBRANCH  14  15
ENDBRANCH  13  14
ENDBRANCH  12  13
ENDBRANCH  11  12
ENDBRANCH  10  11
ENDBRANCH   1  10
TORSDOF 12
ENDMDL
MODEL 8
REMARK VINA RESULT:    -3.962      8.189     10.868
REMARK INTER + INTRA:          -8.154
REMARK INTER:                  -6.070
REMARK INTRA:                  -2.084
REMARK UNBOUND:                -1.412
REMARK SMILES CCCCCCCCCCCCCC(=O)[O-]
REMARK SMILES IDX 8 1 9 2 10 3 11 4 12 5 13 6 14 7 15 8 16 9 7 10 6 11 5 12
REMARK SMILES IDX 4 13 3 14 2 15 1 16
REMARK H PARENT
REMARK Flexibility Score: inf
ROOT
ATOM      1  C   UNL     1      22.734   4.030  25.136  1.00  0.00     0.000 C 
ENDROOT
BRANCH   1   2
ATOM      2  C   UNL     1      22.204   4.737  26.396  1.00  0.00     0.000 C 
BRANCH   2   3
ATOM      3  C   UNL     1      23.095   4.509  27.629  1.00  0.00     0.000 C 
BRANCH   3   4
ATOM      4  C   UNL     1      24.239   3.519  27.354  1.00  0.00     0.000 C 
BRANCH   4   5
ATOM      5  C   UNL     1      24.627   2.700  28.597  1.00  0.00     0.006 C 
BRANCH   5   6
ATOM      6  C   UNL     1      24.258   3.420  29.902  1.00  0.00     0.053 C 
BRANCH   6   7
ATOM      7  C   UNL     1      25.468   3.713  30.736  1.00  0.00     0.041 C 
ATOM      8  O   UNL     1      25.353   3.906  31.975  1.00  0.00    -0.550 OA
ATOM      9  O   UNL     1      26.727   3.744  30.148  1.00  0.00    -0.550 OA
ENDBRANCH   6   7
ENDBRANCH   5   6
ENDBRANCH   4   5
ENDBRANCH   3   4
ENDBRANCH   2   3
ENDBRANCH   1   2
BRANCH   1  10
ATOM     10  C   UNL     1      21.664   3.333  24.271  1.00  0.00     0.000 C 
BRANCH  10  11
ATOM     11  C   UNL     1      22.020   1.906  23.812  1.00  0.00    -0.000 C 
BRANCH  11  12
ATOM     12  C   UNL     1      23.041   1.175  24.704  1.00  0.00    -0.000 C 
BRANCH  12  13
ATOM     13  C   UNL     1      22.438   0.001  25.506  1.00  0.00    -0.000 C 
BRANCH  13  14
ATOM     14  C   UNL     1      22.291   0.323  27.003  1.00  0.00    -0.000 C 
BRANCH  14  15
ATOM     15  C   UNL     1      21.062   1.195  27.302  1.00  0.00    -0.003 C 
ATOM     16  C   UNL     1      21.000   1.644  28.762  1.00  0.00     0.004 C 
ENDBRANCH  14  15
ENDBRANCH  13  14
ENDBRANCH  12  13
ENDBRANCH  11  12
ENDBRANCH  10  11
ENDBRANCH   1  10
TORSDOF 12
ENDMDL
MODEL 9
REMARK VINA RESULT:    -3.953      3.090      5.708
REMARK INTER + INTRA:          -8.137
REMARK INTER:                  -6.387
REMARK INTRA:                  -1.750
REMARK UNBOUND:                -1.412
REMARK SMILES CCCCCCCCCCCCCC(=O)[O-]
REMARK SMILES IDX 8 1 9 2 10 3 11 4 12 5 13 6 14 7 15 8 16 9 7 10 6 11 5 12
REMARK SMILES IDX 4 13 3 14 2 15 1 16
REMARK H PARENT
REMARK Flexibility Score: inf
ROOT
ATOM      1  C   UNL     1      30.395   7.861  30.623  1.00  0.00     0.000 C 
ENDROOT
BRANCH   1   2
ATOM      2  C   UNL     1      31.353   7.059  31.523  1.00  0.00     0.000 C 
BRANCH   2   3
ATOM      3  C   UNL     1      32.733   7.724  31.669  1.00  0.00     0.000 C 
BRANCH   3   4
ATOM      4  C   UNL     1      32.643   9.257  31.742  1.00  0.00     0.000 C 
BRANCH   4   5
ATOM      5  C   UNL     1      33.542   9.954  30.705  1.00  0.00     0.006 C 
BRANCH   5   6
ATOM      6  C   UNL     1      34.413   8.957  29.931  1.00  0.00     0.053 C 
BRANCH   6   7
ATOM      7  C   UNL     1      35.856   9.059  30.322  1.00  0.00     0.041 C 
ATOM      8  O   UNL     1      36.502   8.026  30.644  1.00  0.00    -0.550 OA
ATOM      9  O   UNL     1      36.496  10.292  30.302  1.00  0.00    -0.550 OA
ENDBRANCH   6   7
ENDBRANCH   5   6
ENDBRANCH   4   5
ENDBRANCH   3   4
ENDBRANCH   2   3
ENDBRANCH   1   2
BRANCH   1  10
ATOM     10  C   UNL     1      30.330   7.399  29.153  1.00  0.00     0.000 C 
BRANCH  10  11
ATOM     11  C   UNL     1      31.212   8.200  28.175  1.00  0.00    -0.000 C 
BRANCH  11  12
ATOM     12  C   UNL     1      30.956   9.719  28.168  1.00  0.00    -0.000 C 
BRANCH  12  13
ATOM     13  C   UNL     1      29.586  10.116  27.578  1.00  0.00    -0.000 C 
BRANCH  13  14
ATOM     14  C   UNL     1      28.915  11.257  28.362  1.00  0.00    -0.000 C 
BRANCH  14  15
ATOM     15  C   UNL     1      28.660  10.894  29.834  1.00  0.00    -0.003 C 
ATOM     16  C   UNL     1      29.445  11.778  30.802  1.00  0.00     0.004 C 
ENDBRANCH  14  15
ENDBRANCH  13  14
ENDBRANCH  12  13
ENDBRANCH  11  12
ENDBRANCH  10  11
ENDBRANCH   1  10
TORSDOF 12
ENDMDL
