MODEL 1
REMARK VINA RESULT:    -3.030      0.000      0.000
REMARK INTER + INTRA:          -4.346
REMARK INTER:                  -3.916
REMARK INTRA:                  -0.429
REMARK UNBOUND:                -0.429
REMARK SMILES CCCCCCC(C)=O
REMARK SMILES IDX 4 1 3 2 2 3 1 4 5 5 6 6 7 7 9 8 8 9
REMARK H PARENT
REMARK Flexibility Score: inf
ROOT
ATOM      1  C   UNL     1     119.048 117.713 114.431  1.00  0.00     0.000 C 
ENDROOT
BRANCH   1   2
ATOM      2  C   UNL     1     119.914 118.470 113.408  1.00  0.00    -0.000 C 
BRANCH   2   3
ATOM      3  C   UNL     1     119.850 117.917 111.973  1.00  0.00    -0.003 C 
ATOM      4  C   UNL     1     119.250 116.513 111.899  1.00  0.00     0.004 C 
ENDBRANCH   2   3
ENDBRANCH   1   2
BRANCH   1   5
ATOM      5  C   UNL     1     117.768 118.473 114.810  1.00  0.00     0.008 C 
BRANCH   5   6
ATOM      6  C   UNL     1     116.572 117.980 113.986  1.00  0.00     0.075 C 
BRANCH   6   7
ATOM      7  C   UNL     1     116.035 119.085 113.114  1.00  0.00     0.129 C 
ATOM      8  O   UNL     1     116.623 119.377 112.083  1.00  0.00    -0.300 OA
ATOM      9  C   UNL     1     114.784 119.829 113.477  1.00  0.00     0.087 C 
ENDBRANCH   6   7
ENDBRANCH   5   6
ENDBRANCH   1   5
TORSDOF 5
ENDMDL
MODEL 2
REMARK VINA RESULT:    -3.029      2.958      4.113
REMARK INTER + INTRA:          -4.343
REMARK INTER:                  -3.918
REMARK INTRA:                  -0.425
REMARK UNBOUND:                -0.429
REMARK SMILES CCCCCCC(C)=O
REMARK SMILES IDX 4 1 3 2 2 3 1 4 5 5 6 6 7 7 9 8 8 9
REMARK H PARENT
REMARK Flexibility Score: inf
ROOT
ATOM      1  C   UNL     1     117.789 114.118 114.397  1.00  0.00     0.000 C 
ENDROOT
BRANCH   1   2
ATOM      2  C   UNL     1     118.556 113.284 113.355  1.00  0.00    -0.000 C 
BRANCH   2   3
ATOM      3  C   UNL     1     117.869 113.175 111.982  1.00  0.00    -0.003 C 
ATOM      4  C   UNL     1     116.607 114.031 111.875  1.00  0.00     0.004 C 
ENDBRANCH   2   3
ENDBRANCH   1   2
BRANCH   1   5
ATOM      5  C   UNL     1     118.530 115.402 114.799  1.00  0.00     0.008 C 
BRANCH   5   6
ATOM      6  C   UNL     1     118.003 116.609 114.014  1.00  0.00     0.075 C 
BRANCH   6   7
ATOM      7  C   UNL     1     119.055 117.133 113.072  1.00  0.00     0.129 C 
ATOM      8  O   UNL     1     119.300 116.520 112.044  1.00  0.00    -0.300 OA
ATOM      9  C   UNL     1     119.804 118.400 113.364  1.00  0.00     0.087 C 
ENDBRANCH   6   7
ENDBRANCH   5   6
ENDBRANCH   1   5
TORSDOF 5
ENDMDL
MODEL 3
REMARK VINA RESULT:    -2.971      4.004      4.457
REMARK INTER + INTRA:          -4.269
REMARK INTER:                  -3.842
REMARK INTRA:                  -0.426
REMARK UNBOUND:                -0.429
REMARK SMILES CCCCCCC(C)=O
REMARK SMILES IDX 4 1 3 2 2 3 1 4 5 5 6 6 7 7 9 8 8 9
REMARK H PARENT
REMARK Flexibility Score: inf
ROOT
ATOM      1  C   UNL     1     117.082 113.680 115.329  1.00  0.00     0.000 C 
ENDROOT
BRANCH   1   2
ATOM      2  C   UNL     1     118.252 114.172 114.459  1.00  0.00    -0.000 C 
BRANCH   2   3
ATOM      3  C   UNL     1     118.565 113.287 113.238  1.00  0.00    -0.003 C 
ATOM      4  C   UNL     1     118.396 114.021 111.908  1.00  0.00     0.004 C 
ENDBRANCH   2   3
ENDBRANCH   1   2
BRANCH   1   5
ATOM      5  C   UNL     1     115.967 114.726 115.479  1.00  0.00     0.008 C 
BRANCH   5   6
ATOM      6  C   UNL     1     115.723 115.462 114.156  1.00  0.00     0.075 C 
BRANCH   6   7
ATOM      7  C   UNL     1     114.680 114.750 113.335  1.00  0.00     0.129 C 
ATOM      8  O   UNL     1     114.998 114.243 112.269  1.00  0.00    -0.300 OA
ATOM      9  C   UNL     1     113.259 114.639 113.802  1.00  0.00     0.087 C 
ENDBRANCH   6   7
ENDBRANCH   5   6
ENDBRANCH   1   5
TORSDOF 5
ENDMDL
MODEL 4
REMARK VINA RESULT:    -2.954      1.457      3.864
REMARK INTER + INTRA:          -4.247
REMARK INTER:                  -3.837
REMARK INTRA:                  -0.409
REMARK UNBOUND:                -0.429
REMARK SMILES CCCCCCC(C)=O
REMARK SMILES IDX 4 1 3 2 2 3 1 4 5 5 6 6 7 7 9 8 8 9
REMARK H PARENT
REMARK Flexibility Score: inf
ROOT
ATOM      1  C   UNL     1     115.138 118.853 114.505  1.00  0.00     0.000 C 
ENDROOT
BRANCH   1   2
ATOM      2  C   UNL     1     114.791 119.761 113.311  1.00  0.00    -0.000 C 
BRANCH   2   3
ATOM      3  C   UNL     1     114.833 119.066 111.937  1.00  0.00    -0.003 C 
ATOM      4  C   UNL     1     114.692 117.547 112.031  1.00  0.00     0.004 C 
ENDBRANCH   2   3
ENDBRANCH   1   2
BRANCH   1   5
ATOM      5  C   UNL     1     116.581 119.038 114.997  1.00  0.00     0.008 C 
BRANCH   5   6
ATOM      6  C   UNL     1     117.482 117.903 114.496  1.00  0.00     0.075 C 
BRANCH   6   7
ATOM      7  C   UNL     1     118.520 118.431 113.539  1.00  0.00     0.129 C 
ATOM      8  O   UNL     1     118.167 118.881 112.459  1.00  0.00    -0.300 OA
ATOM      9  C   UNL     1     119.979 118.425 113.887  1.00  0.00     0.087 C 
ENDBRANCH   6   7
ENDBRANCH   5   6
ENDBRANCH   1   5
TORSDOF 5
ENDMDL
MODEL 5
REMARK VINA RESULT:    -2.897      1.803      4.358
REMARK INTER + INTRA:          -4.174
REMARK INTER:                  -3.638
REMARK INTRA:                  -0.535
REMARK UNBOUND:                -0.429
REMARK SMILES CCCCCCC(C)=O
REMARK SMILES IDX 4 1 3 2 2 3 1 4 5 5 6 6 7 7 9 8 8 9
REMARK H PARENT
REMARK Flexibility Score: inf
ROOT
ATOM      1  C   UNL     1     114.900 119.294 112.355  1.00  0.00     0.000 C 
ENDROOT
BRANCH   1   2
ATOM      2  C   UNL     1     114.717 119.962 113.730  1.00  0.00    -0.000 C 
BRANCH   2   3
ATOM      3  C   UNL     1     114.954 119.034 114.935  1.00  0.00    -0.003 C 
ATOM      4  C   UNL     1     116.063 119.529 115.863  1.00  0.00     0.004 C 
ENDBRANCH   2   3
ENDBRANCH   1   2
BRANCH   1   5
ATOM      5  C   UNL     1     115.961 118.184 112.365  1.00  0.00     0.008 C 
BRANCH   5   6
ATOM      6  C   UNL     1     117.346 118.746 112.021  1.00  0.00     0.075 C 
BRANCH   6   7
ATOM      7  C   UNL     1     118.373 118.282 113.020  1.00  0.00     0.129 C 
ATOM      8  O   UNL     1     119.421 118.900 113.136  1.00  0.00    -0.300 OA
ATOM      9  C   UNL     1     118.134 117.082 113.888  1.00  0.00     0.087 C 
ENDBRANCH   6   7
ENDBRANCH   5   6
ENDBRANCH   1   5
TORSDOF 5
ENDMDL
MODEL 6
REMARK VINA RESULT:    -2.878      1.359      2.206
REMARK INTER + INTRA:          -4.149
REMARK INTER:                  -3.667
REMARK INTRA:                  -0.481
REMARK UNBOUND:                -0.429
REMARK SMILES CCCCCCC(C)=O
REMARK SMILES IDX 4 1 3 2 2 3 1 4 5 5 6 6 7 7 9 8 8 9
REMARK H PARENT
REMARK Flexibility Score: inf
ROOT
ATOM      1  C   UNL     1     118.245 116.895 112.517  1.00  0.00     0.000 C 
ENDROOT
BRANCH   1   2
ATOM      2  C   UNL     1     119.355 117.910 112.188  1.00  0.00    -0.000 C 
BRANCH   2   3
ATOM      3  C   UNL     1     119.996 118.587 113.414  1.00  0.00    -0.003 C 
ATOM      4  C   UNL     1     119.450 118.060 114.741  1.00  0.00     0.004 C 
ENDBRANCH   2   3
ENDBRANCH   1   2
BRANCH   1   5
ATOM      5  C   UNL     1     116.897 117.254 111.875  1.00  0.00     0.008 C 
BRANCH   5   6
ATOM      6  C   UNL     1     116.620 118.758 111.986  1.00  0.00     0.075 C 
BRANCH   6   7
ATOM      7  C   UNL     1     115.538 119.027 113.000  1.00  0.00     0.129 C 
ATOM      8  O   UNL     1     114.371 119.062 112.638  1.00  0.00    -0.300 OA
ATOM      9  C   UNL     1     115.860 119.241 114.449  1.00  0.00     0.087 C 
ENDBRANCH   6   7
ENDBRANCH   5   6
ENDBRANCH   1   5
TORSDOF 5
ENDMDL
MODEL 7
REMARK VINA RESULT:    -2.867      2.504      4.496
REMARK INTER + INTRA:          -4.135
REMARK INTER:                  -3.919
REMARK INTRA:                  -0.216
REMARK UNBOUND:                -0.429
REMARK SMILES CCCCCCC(C)=O
REMARK SMILES IDX 4 1 3 2 2 3 1 4 5 5 6 6 7 7 9 8 8 9
REMARK H PARENT
REMARK Flexibility Score: inf
ROOT
ATOM      1  C   UNL     1     114.632 118.456 112.268  1.00  0.00     0.000 C 
ENDROOT
BRANCH   1   2
ATOM      2  C   UNL     1     114.731 117.044 112.876  1.00  0.00    -0.000 C 
BRANCH   2   3
ATOM      3  C   UNL     1     113.973 115.952 112.099  1.00  0.00    -0.003 C 
ATOM      4  C   UNL     1     113.573 114.764 112.974  1.00  0.00     0.004 C 
ENDBRANCH   2   3
ENDBRANCH   1   2
BRANCH   1   5
ATOM      5  C   UNL     1     115.848 119.334 112.596  1.00  0.00     0.008 C 
BRANCH   5   6
ATOM      6  C   UNL     1     117.103 118.826 111.875  1.00  0.00     0.075 C 
BRANCH   6   7
ATOM      7  C   UNL     1     118.193 118.506 112.865  1.00  0.00     0.129 C 
ATOM      8  O   UNL     1     117.946 118.541 114.061  1.00  0.00    -0.300 OA
ATOM      9  C   UNL     1     119.574 118.133 112.414  1.00  0.00     0.087 C 
ENDBRANCH   6   7
ENDBRANCH   5   6
ENDBRANCH   1   5
TORSDOF 5
ENDMDL
MODEL 8
REMARK VINA RESULT:    -0.659      2.674      3.993
REMARK INTER + INTRA:          -1.281
REMARK INTER:                  -0.751
REMARK INTRA:                  -0.529
REMARK UNBOUND:                -0.429
REMARK SMILES CCCCCCC(C)=O
REMARK SMILES IDX 4 1 3 2 2 3 1 4 5 5 6 6 7 7 9 8 8 9
REMARK H PARENT
REMARK Flexibility Score: inf
ROOT
ATOM      1  C   UNL     1     117.027 118.364 113.328  1.00  0.00     0.000 C 
ENDROOT
BRANCH   1   2
ATOM      2  C   UNL     1     116.726 119.049 111.982  1.00  0.00    -0.000 C 
BRANCH   2   3
ATOM      3  C   UNL     1     115.479 119.952 111.981  1.00  0.00    -0.003 C 
ATOM      4  C   UNL     1     114.744 119.957 113.321  1.00  0.00     0.004 C 
ENDBRANCH   2   3
ENDBRANCH   1   2
BRANCH   1   5
ATOM      5  C   UNL     1     117.186 116.841 113.201  1.00  0.00     0.008 C 
BRANCH   5   6
ATOM      6  C   UNL     1     116.603 116.337 111.875  1.00  0.00     0.075 C 
BRANCH   6   7
ATOM      7  C   UNL     1     115.315 115.591 112.109  1.00  0.00     0.129 C 
ATOM      8  O   UNL     1     115.340 114.375 112.235  1.00  0.00    -0.300 OA
ATOM      9  C   UNL     1     114.001 116.308 112.201  1.00  0.00     0.087 C 
ENDBRANCH   6   7
ENDBRANCH   5   6
ENDBRANCH   1   5
TORSDOF 5
ENDMDL
