MODEL 1
REMARK VINA RESULT:    -4.235      0.000      0.000
REMARK INTER + INTRA:          -7.466
REMARK INTER:                  -6.463
REMARK INTRA:                  -1.002
REMARK UNBOUND:                -1.002
REMARK SMILES O=C([O-])CCCCCCCCC(=O)[O-]
REMARK SMILES IDX 7 1 6 2 5 3 4 4 2 5 1 6 3 7 8 8 9 9 10 10 11 11 12 12 13 13
REMARK SMILES IDX 14 14
REMARK H PARENT
REMARK Flexibility Score: inf
ROOT
ATOM      1  C   UNL     1      -9.618 -26.965  31.775  1.00  0.00     0.000 C 
ENDROOT
BRANCH   1   2
ATOM      2  C   UNL     1      -8.594 -28.089  31.521  1.00  0.00     0.000 C 
BRANCH   2   3
ATOM      3  C   UNL     1      -7.117 -27.665  31.651  1.00  0.00     0.006 C 
BRANCH   3   4
ATOM      4  C   UNL     1      -6.385 -27.497  30.311  1.00  0.00     0.053 C 
BRANCH   4   5
ATOM      5  C   UNL     1      -5.154 -26.654  30.445  1.00  0.00     0.041 C 
ATOM      6  O   UNL     1      -5.228 -25.501  30.945  1.00  0.00    -0.550 OA
ATOM      7  O   UNL     1      -3.932 -27.128  29.986  1.00  0.00    -0.550 OA
ENDBRANCH   4   5
ENDBRANCH   3   4
ENDBRANCH   2   3
ENDBRANCH   1   2
BRANCH   1   8
ATOM      8  C   UNL     1      -9.017 -25.553  31.932  1.00  0.00     0.000 C 
BRANCH   8   9
ATOM      9  C   UNL     1      -9.081 -24.677  30.668  1.00  0.00     0.000 C 
BRANCH   9  10
ATOM     10  C   UNL     1     -10.002 -25.261  29.583  1.00  0.00     0.006 C 
BRANCH  10  11
ATOM     11  C   UNL     1      -9.240 -25.587  28.292  1.00  0.00     0.053 C 
BRANCH  11  12
ATOM     12  C   UNL     1      -9.286 -27.050  27.976  1.00  0.00     0.041 C 
ATOM     13  O   UNL     1      -8.313 -27.605  27.401  1.00  0.00    -0.550 OA
ATOM     14  O   UNL     1     -10.418 -27.795  28.283  1.00  0.00    -0.550 OA
ENDBRANCH  11  12
ENDBRANCH  10  11
ENDBRANCH   9  10
ENDBRANCH   8   9
ENDBRANCH   1   8
TORSDOF 9
ENDMDL
MODEL 2
REMARK VINA RESULT:    -4.187      1.396      4.675
REMARK INTER + INTRA:          -7.393
REMARK INTER:                  -6.473
REMARK INTRA:                  -0.920
REMARK UNBOUND:                -1.002
REMARK SMILES O=C([O-])CCCCCCCCC(=O)[O-]
REMARK SMILES IDX 7 1 6 2 5 3 4 4 2 5 1 6 3 7 8 8 9 9 10 10 11 11 12 12 13 13
REMARK SMILES IDX 14 14
REMARK H PARENT
REMARK Flexibility Score: inf
ROOT
ATOM      1  C   UNL     1     -10.711 -26.156  30.684  1.00  0.00     0.000 C 
ENDROOT
BRANCH   1   2
ATOM      2  C   UNL     1      -9.951 -25.324  29.632  1.00  0.00     0.000 C 
BRANCH   2   3
ATOM      3  C   UNL     1     -10.237 -25.711  28.166  1.00  0.00     0.006 C 
BRANCH   3   4
ATOM      4  C   UNL     1     -10.456 -27.215  27.938  1.00  0.00     0.053 C 
BRANCH   4   5
ATOM      5  C   UNL     1      -9.276 -27.860  27.279  1.00  0.00     0.041 C 
ATOM      6  O   UNL     1      -8.107 -27.500  27.580  1.00  0.00    -0.550 OA
ATOM      7  O   UNL     1      -9.467 -28.835  26.308  1.00  0.00    -0.550 OA
ENDBRANCH   4   5
ENDBRANCH   3   4
ENDBRANCH   2   3
ENDBRANCH   1   2
BRANCH   1   8
ATOM      8  C   UNL     1      -9.825 -26.828  31.753  1.00  0.00     0.000 C 
BRANCH   8   9
ATOM      9  C   UNL     1      -8.777 -27.811  31.202  1.00  0.00     0.000 C 
BRANCH   9  10
ATOM     10  C   UNL     1      -7.347 -27.479  31.663  1.00  0.00     0.006 C 
BRANCH  10  11
ATOM     11  C   UNL     1      -6.629 -26.538  30.687  1.00  0.00     0.053 C 
BRANCH  11  12
ATOM     12  C   UNL     1      -6.299 -25.224  31.325  1.00  0.00     0.041 C 
ATOM     13  O   UNL     1      -7.108 -24.262  31.251  1.00  0.00    -0.550 OA
ATOM     14  O   UNL     1      -5.080 -25.049  31.971  1.00  0.00    -0.550 OA
ENDBRANCH  11  12
ENDBRANCH  10  11
ENDBRANCH   9  10
ENDBRANCH   8   9
ENDBRANCH   1   8
TORSDOF 9
ENDMDL
MODEL 3
REMARK VINA RESULT:    -4.180      2.800      4.028
REMARK INTER + INTRA:          -7.381
REMARK INTER:                  -6.498
REMARK INTRA:                  -0.883
REMARK UNBOUND:                -1.002
REMARK SMILES O=C([O-])CCCCCCCCC(=O)[O-]
REMARK SMILES IDX 7 1 6 2 5 3 4 4 2 5 1 6 3 7 8 8 9 9 10 10 11 11 12 12 13 13
REMARK SMILES IDX 14 14
REMARK H PARENT
REMARK Flexibility Score: inf
ROOT
ATOM      1  C   UNL     1      -7.472 -27.229  28.712  1.00  0.00     0.000 C 
ENDROOT
BRANCH   1   2
ATOM      2  C   UNL     1      -7.856 -27.012  30.189  1.00  0.00     0.000 C 
BRANCH   2   3
ATOM      3  C   UNL     1      -7.667 -25.571  30.707  1.00  0.00     0.006 C 
BRANCH   3   4
ATOM      4  C   UNL     1      -8.942 -24.928  31.273  1.00  0.00     0.053 C 
BRANCH   4   5
ATOM      5  C   UNL     1      -9.296 -25.476  32.621  1.00  0.00     0.041 C 
ATOM      6  O   UNL     1      -8.392 -25.717  33.464  1.00  0.00    -0.550 OA
ATOM      7  O   UNL     1     -10.620 -25.753  32.934  1.00  0.00    -0.550 OA
ENDBRANCH   4   5
ENDBRANCH   3   4
ENDBRANCH   2   3
ENDBRANCH   1   2
BRANCH   1   8
ATOM      8  C   UNL     1      -8.658 -27.291  27.729  1.00  0.00     0.000 C 
BRANCH   8   9
ATOM      9  C   UNL     1     -10.049 -27.259  28.387  1.00  0.00     0.000 C 
BRANCH   9  10
ATOM     10  C   UNL     1     -10.771 -25.914  28.192  1.00  0.00     0.006 C 
BRANCH  10  11
ATOM     11  C   UNL     1      -9.968 -24.950  27.309  1.00  0.00     0.053 C 
BRANCH  11  12
ATOM     12  C   UNL     1     -10.754 -24.508  26.113  1.00  0.00     0.041 C 
ATOM     13  O   UNL     1     -11.008 -25.321  25.186  1.00  0.00    -0.550 OA
ATOM     14  O   UNL     1     -11.175 -23.188  26.005  1.00  0.00    -0.550 OA
ENDBRANCH  11  12
ENDBRANCH  10  11
ENDBRANCH   9  10
ENDBRANCH   8   9
ENDBRANCH   1   8
TORSDOF 9
ENDMDL
MODEL 4
REMARK VINA RESULT:    -4.168      1.620      3.930
REMARK INTER + INTRA:          -7.363
REMARK INTER:                  -6.285
REMARK INTRA:                  -1.078
REMARK UNBOUND:                -1.002
REMARK SMILES O=C([O-])CCCCCCCCC(=O)[O-]
REMARK SMILES IDX 7 1 6 2 5 3 4 4 2 5 1 6 3 7 8 8 9 9 10 10 11 11 12 12 13 13
REMARK SMILES IDX 14 14
REMARK H PARENT
REMARK Flexibility Score: inf
ROOT
ATOM      1  C   UNL     1      -9.567 -25.403  32.247  1.00  0.00     0.000 C 
ENDROOT
BRANCH   1   2
ATOM      2  C   UNL     1     -10.515 -26.406  31.559  1.00  0.00     0.000 C 
BRANCH   2   3
ATOM      3  C   UNL     1     -10.658 -26.226  30.034  1.00  0.00     0.006 C 
BRANCH   3   4
ATOM      4  C   UNL     1      -9.998 -27.335  29.200  1.00  0.00     0.053 C 
BRANCH   4   5
ATOM      5  C   UNL     1      -9.025 -26.784  28.203  1.00  0.00     0.041 C 
ATOM      6  O   UNL     1      -8.974 -25.545  27.986  1.00  0.00    -0.550 OA
ATOM      7  O   UNL     1      -8.199 -27.642  27.488  1.00  0.00    -0.550 OA
ENDBRANCH   4   5
ENDBRANCH   3   4
ENDBRANCH   2   3
ENDBRANCH   1   2
BRANCH   1   8
ATOM      8  C   UNL     1      -8.922 -24.363  31.309  1.00  0.00     0.000 C 
BRANCH   8   9
ATOM      9  C   UNL     1      -7.383 -24.362  31.301  1.00  0.00     0.000 C 
BRANCH   9  10
ATOM     10  C   UNL     1      -6.780 -25.146  32.479  1.00  0.00     0.006 C 
BRANCH  10  11
ATOM     11  C   UNL     1      -5.748 -26.182  32.016  1.00  0.00     0.053 C 
BRANCH  11  12
ATOM     12  C   UNL     1      -6.297 -27.071  30.943  1.00  0.00     0.041 C 
ATOM     13  O   UNL     1      -7.211 -27.894  31.208  1.00  0.00    -0.550 OA
ATOM     14  O   UNL     1      -5.774 -27.015  29.656  1.00  0.00    -0.550 OA
ENDBRANCH  11  12
ENDBRANCH  10  11
ENDBRANCH   9  10
ENDBRANCH   8   9
ENDBRANCH   1   8
TORSDOF 9
ENDMDL
MODEL 5
REMARK VINA RESULT:    -4.136      2.029      4.821
REMARK INTER + INTRA:          -7.314
REMARK INTER:                  -6.423
REMARK INTRA:                  -0.891
REMARK UNBOUND:                -1.002
REMARK SMILES O=C([O-])CCCCCCCCC(=O)[O-]
REMARK SMILES IDX 7 1 6 2 5 3 4 4 2 5 1 6 3 7 8 8 9 9 10 10 11 11 12 12 13 13
REMARK SMILES IDX 14 14
REMARK H PARENT
REMARK Flexibility Score: inf
ROOT
ATOM      1  C   UNL     1      -9.250 -27.460  30.288  1.00  0.00     0.000 C 
ENDROOT
BRANCH   1   2
ATOM      2  C   UNL     1      -8.019 -27.162  29.409  1.00  0.00     0.000 C 
BRANCH   2   3
ATOM      3  C   UNL     1      -8.256 -27.297  27.890  1.00  0.00     0.006 C 
BRANCH   3   4
ATOM      4  C   UNL     1      -9.714 -27.578  27.498  1.00  0.00     0.053 C 
BRANCH   4   5
ATOM      5  C   UNL     1     -10.386 -26.366  26.929  1.00  0.00     0.041 C 
ATOM      6  O   UNL     1     -11.478 -26.479  26.312  1.00  0.00    -0.550 OA
ATOM      7  O   UNL     1      -9.789 -25.118  27.049  1.00  0.00    -0.550 OA
ENDBRANCH   4   5
ENDBRANCH   3   4
ENDBRANCH   2   3
ENDBRANCH   1   2
BRANCH   1   8
ATOM      8  C   UNL     1      -9.955 -26.217  30.870  1.00  0.00     0.000 C 
BRANCH   8   9
ATOM      9  C   UNL     1      -9.329 -24.869  30.471  1.00  0.00     0.000 C 
BRANCH   9  10
ATOM     10  C   UNL     1      -8.499 -24.239  31.603  1.00  0.00     0.006 C 
BRANCH  10  11
ATOM     11  C   UNL     1      -6.994 -24.284  31.311  1.00  0.00     0.053 C 
BRANCH  11  12
ATOM     12  C   UNL     1      -6.276 -25.213  32.242  1.00  0.00     0.041 C 
ATOM     13  O   UNL     1      -5.047 -25.061  32.466  1.00  0.00    -0.550 OA
ATOM     14  O   UNL     1      -6.957 -26.270  32.834  1.00  0.00    -0.550 OA
ENDBRANCH  11  12
ENDBRANCH  10  11
ENDBRANCH   9  10
ENDBRANCH   8   9
ENDBRANCH   1   8
TORSDOF 9
ENDMDL
MODEL 6
REMARK VINA RESULT:    -4.123      1.632      2.184
REMARK INTER + INTRA:          -7.295
REMARK INTER:                  -6.348
REMARK INTRA:                  -0.946
REMARK UNBOUND:                -1.002
REMARK SMILES O=C([O-])CCCCCCCCC(=O)[O-]
REMARK SMILES IDX 7 1 6 2 5 3 4 4 2 5 1 6 3 7 8 8 9 9 10 10 11 11 12 12 13 13
REMARK SMILES IDX 14 14
REMARK H PARENT
REMARK Flexibility Score: inf
ROOT
ATOM      1  C   UNL     1      -8.733 -24.634  31.641  1.00  0.00     0.000 C 
ENDROOT
BRANCH   1   2
ATOM      2  C   UNL     1      -7.286 -24.805  31.138  1.00  0.00     0.000 C 
BRANCH   2   3
ATOM      3  C   UNL     1      -6.732 -26.243  31.224  1.00  0.00     0.006 C 
BRANCH   3   4
ATOM      4  C   UNL     1      -5.415 -26.462  30.466  1.00  0.00     0.053 C 
BRANCH   4   5
ATOM      5  C   UNL     1      -5.086 -27.916  30.320  1.00  0.00     0.041 C 
ATOM      6  O   UNL     1      -4.742 -28.378  29.200  1.00  0.00    -0.550 OA
ATOM      7  O   UNL     1      -5.192 -28.767  31.413  1.00  0.00    -0.550 OA
ENDBRANCH   4   5
ENDBRANCH   3   4
ENDBRANCH   2   3
ENDBRANCH   1   2
BRANCH   1   8
ATOM      8  C   UNL     1      -9.437 -25.938  32.067  1.00  0.00     0.000 C 
BRANCH   8   9
ATOM      9  C   UNL     1     -10.793 -26.196  31.386  1.00  0.00     0.000 C 
BRANCH   9  10
ATOM     10  C   UNL     1     -10.702 -26.176  29.851  1.00  0.00     0.006 C 
BRANCH  10  11
ATOM     11  C   UNL     1      -9.785 -27.282  29.311  1.00  0.00     0.053 C 
BRANCH  11  12
ATOM     12  C   UNL     1      -8.802 -26.749  28.314  1.00  0.00     0.041 C 
ATOM     13  O   UNL     1      -8.908 -25.570  27.887  1.00  0.00    -0.550 OA
ATOM     14  O   UNL     1      -7.790 -27.569  27.828  1.00  0.00    -0.550 OA
ENDBRANCH  11  12
ENDBRANCH  10  11
ENDBRANCH   9  10
ENDBRANCH   8   9
ENDBRANCH   1   8
TORSDOF 9
ENDMDL
MODEL 7
REMARK VINA RESULT:    -4.121      1.490      5.057
REMARK INTER + INTRA:          -7.292
REMARK INTER:                  -6.265
REMARK INTRA:                  -1.027
REMARK UNBOUND:                -1.002
REMARK SMILES O=C([O-])CCCCCCCCC(=O)[O-]
REMARK SMILES IDX 7 1 6 2 5 3 4 4 2 5 1 6 3 7 8 8 9 9 10 10 11 11 12 12 13 13
REMARK SMILES IDX 14 14
REMARK H PARENT
REMARK Flexibility Score: inf
ROOT
ATOM      1  C   UNL     1      -9.827 -25.273  29.705  1.00  0.00     0.000 C 
ENDROOT
BRANCH   1   2
ATOM      2  C   UNL     1      -9.181 -25.635  28.353  1.00  0.00     0.000 C 
BRANCH   2   3
ATOM      3  C   UNL     1      -9.170 -27.140  28.018  1.00  0.00     0.006 C 
BRANCH   3   4
ATOM      4  C   UNL     1      -9.973 -27.518  26.765  1.00  0.00     0.053 C 
BRANCH   4   5
ATOM      5  C   UNL     1     -11.376 -26.994  26.818  1.00  0.00     0.041 C 
ATOM      6  O   UNL     1     -11.736 -26.069  26.044  1.00  0.00    -0.550 OA
ATOM      7  O   UNL     1     -12.275 -27.504  27.746  1.00  0.00    -0.550 OA
ENDBRANCH   4   5
ENDBRANCH   3   4
ENDBRANCH   2   3
ENDBRANCH   1   2
BRANCH   1   8
ATOM      8  C   UNL     1     -10.405 -26.465  30.494  1.00  0.00     0.000 C 
BRANCH   8   9
ATOM      9  C   UNL     1      -9.597 -26.873  31.739  1.00  0.00     0.000 C 
BRANCH   9  10
ATOM     10  C   UNL     1      -8.671 -28.074  31.481  1.00  0.00     0.006 C 
BRANCH  10  11
ATOM     11  C   UNL     1      -7.204 -27.752  31.794  1.00  0.00     0.053 C 
BRANCH  11  12
ATOM     12  C   UNL     1      -6.578 -26.915  30.721  1.00  0.00     0.041 C 
ATOM     13  O   UNL     1      -6.118 -27.457  29.682  1.00  0.00    -0.550 OA
ATOM     14  O   UNL     1      -6.471 -25.539  30.883  1.00  0.00    -0.550 OA
ENDBRANCH  11  12
ENDBRANCH  10  11
ENDBRANCH   9  10
ENDBRANCH   8   9
ENDBRANCH   1   8
TORSDOF 9
ENDMDL
MODEL 8
REMARK VINA RESULT:    -4.096      2.227      5.060
REMARK INTER + INTRA:          -7.253
REMARK INTER:                  -6.505
REMARK INTRA:                  -0.748
REMARK UNBOUND:                -1.002
REMARK SMILES O=C([O-])CCCCCCCCC(=O)[O-]
REMARK SMILES IDX 7 1 6 2 5 3 4 4 2 5 1 6 3 7 8 8 9 9 10 10 11 11 12 12 13 13
REMARK SMILES IDX 14 14
REMARK H PARENT
REMARK Flexibility Score: inf
ROOT
ATOM      1  C   UNL     1      -9.662 -24.941  30.136  1.00  0.00     0.000 C 
ENDROOT
BRANCH   1   2
ATOM      2  C   UNL     1     -10.501 -26.107  29.576  1.00  0.00     0.000 C 
BRANCH   2   3
ATOM      3  C   UNL     1     -10.684 -26.101  28.045  1.00  0.00     0.006 C 
BRANCH   3   4
ATOM      4  C   UNL     1      -9.976 -24.942  27.326  1.00  0.00     0.053 C 
BRANCH   4   5
ATOM      5  C   UNL     1     -10.733 -24.486  26.117  1.00  0.00     0.041 C 
ATOM      6  O   UNL     1     -11.010 -25.301  25.198  1.00  0.00    -0.550 OA
ATOM      7  O   UNL     1     -11.103 -23.153  25.989  1.00  0.00    -0.550 OA
ENDBRANCH   4   5
ENDBRANCH   3   4
ENDBRANCH   2   3
ENDBRANCH   1   2
BRANCH   1   8
ATOM      8  C   UNL     1      -8.858 -25.265  31.411  1.00  0.00     0.000 C 
BRANCH   8   9
ATOM      9  C   UNL     1      -7.342 -25.020  31.304  1.00  0.00     0.000 C 
BRANCH   9  10
ATOM     10  C   UNL     1      -6.510 -26.259  31.679  1.00  0.00     0.006 C 
BRANCH  10  11
ATOM     11  C   UNL     1      -6.824 -27.461  30.780  1.00  0.00     0.053 C 
BRANCH  11  12
ATOM     12  C   UNL     1      -6.402 -27.219  29.363  1.00  0.00     0.041 C 
ATOM     13  O   UNL     1      -7.260 -27.192  28.442  1.00  0.00    -0.550 OA
ATOM     14  O   UNL     1      -5.057 -27.059  29.055  1.00  0.00    -0.550 OA
ENDBRANCH  11  12
ENDBRANCH  10  11
ENDBRANCH   9  10
ENDBRANCH   8   9
ENDBRANCH   1   8
TORSDOF 9
ENDMDL
MODEL 9
REMARK VINA RESULT:    -4.094      1.883      2.485
REMARK INTER + INTRA:          -7.251
REMARK INTER:                  -6.235
REMARK INTRA:                  -1.016
REMARK UNBOUND:                -1.002
REMARK SMILES O=C([O-])CCCCCCCCC(=O)[O-]
REMARK SMILES IDX 7 1 6 2 5 3 4 4 2 5 1 6 3 7 8 8 9 9 10 10 11 11 12 12 13 13
REMARK SMILES IDX 14 14
REMARK H PARENT
REMARK Flexibility Score: inf
ROOT
ATOM      1  C   UNL     1     -10.123 -26.209  32.079  1.00  0.00     0.000 C 
ENDROOT
BRANCH   1   2
ATOM      2  C   UNL     1      -8.623 -26.041  32.396  1.00  0.00     0.000 C 
BRANCH   2   3
ATOM      3  C   UNL     1      -8.099 -24.592  32.319  1.00  0.00     0.006 C 
BRANCH   3   4
ATOM      4  C   UNL     1      -7.051 -24.354  31.221  1.00  0.00     0.053 C 
BRANCH   4   5
ATOM      5  C   UNL     1      -5.843 -25.220  31.402  1.00  0.00     0.041 C 
ATOM      6  O   UNL     1      -5.068 -25.031  32.377  1.00  0.00    -0.550 OA
ATOM      7  O   UNL     1      -5.552 -26.213  30.475  1.00  0.00    -0.550 OA
ENDBRANCH   4   5
ENDBRANCH   3   4
ENDBRANCH   2   3
ENDBRANCH   1   2
BRANCH   1   8
ATOM      8  C   UNL     1     -10.453 -26.483  30.598  1.00  0.00     0.000 C 
BRANCH   8   9
ATOM      9  C   UNL     1      -9.366 -27.247  29.821  1.00  0.00     0.000 C 
BRANCH   9  10
ATOM     10  C   UNL     1      -8.783 -26.431  28.654  1.00  0.00     0.006 C 
BRANCH  10  11
ATOM     11  C   UNL     1      -9.552 -25.124  28.421  1.00  0.00     0.053 C 
BRANCH  11  12
ATOM     12  C   UNL     1     -10.092 -25.039  27.027  1.00  0.00     0.041 C 
ATOM     13  O   UNL     1     -10.442 -26.083  26.418  1.00  0.00    -0.550 OA
ATOM     14  O   UNL     1     -10.174 -23.808  26.385  1.00  0.00    -0.550 OA
ENDBRANCH  11  12
ENDBRANCH  10  11
ENDBRANCH   9  10
ENDBRANCH   8   9
ENDBRANCH   1   8
TORSDOF 9
ENDMDL
