MODEL 1
REMARK VINA RESULT:    -4.195      0.000      0.000
REMARK INTER + INTRA:          -4.798
REMARK INTER:                  -4.685
REMARK INTRA:                  -0.113
REMARK UNBOUND:                -0.113
REMARK SMILES COc1cc2ccc(=O)oc2cc1OC
REMARK SMILES IDX 3 1 13 2 12 3 11 4 5 5 4 6 6 7 7 8 8 9 9 10 10 11 2 12 1 13
REMARK SMILES IDX 14 14 15 15
REMARK H PARENT
REMARK Flexibility Score: inf
ROOT
ATOM      1  C   UNL     1      10.088  10.041 -23.885  1.00  0.00     0.161 A 
ATOM      2  C   UNL     1      11.288   9.859 -23.175  1.00  0.00     0.164 A 
ATOM      3  C   UNL     1      11.249   9.599 -21.791  1.00  0.00     0.098 A 
ATOM      4  C   UNL     1      10.027   9.521 -21.119  1.00  0.00     0.142 A 
ATOM      5  C   UNL     1       8.823   9.705 -21.830  1.00  0.00     0.022 A 
ATOM      6  C   UNL     1       8.855   9.962 -23.206  1.00  0.00     0.062 A 
ATOM      7  C   UNL     1       7.615   9.621 -21.129  1.00  0.00     0.019 A 
ATOM      8  C   UNL     1       7.635   9.361 -19.759  1.00  0.00     0.094 A 
ATOM      9  C   UNL     1       8.868   9.191 -19.120  1.00  0.00     0.336 A 
ATOM     10  O   UNL     1       8.908   8.957 -17.884  1.00  0.00    -0.246 OA
ATOM     11  O   UNL     1      10.001   9.276 -19.811  1.00  0.00    -0.423 OA
ENDROOT
BRANCH   1  12
ATOM     12  O   UNL     1      10.164  10.298 -25.263  1.00  0.00    -0.493 OA
ATOM     13  C   UNL     1       9.078  10.763 -26.058  1.00  0.00     0.278 C 
ENDBRANCH   1  12
BRANCH   2  14
ATOM     14  O   UNL     1      12.498   9.943 -23.882  1.00  0.00    -0.493 OA
ATOM     15  C   UNL     1      13.487   8.920 -23.915  1.00  0.00     0.278 C 
ENDBRANCH   2  14
TORSDOF 2
ENDMDL
MODEL 2
REMARK VINA RESULT:    -4.161     20.926     22.264
REMARK INTER + INTRA:          -4.760
REMARK INTER:                  -4.597
REMARK INTRA:                  -0.163
REMARK UNBOUND:                -0.113
REMARK SMILES COc1cc2ccc(=O)oc2cc1OC
REMARK SMILES IDX 3 1 13 2 12 3 11 4 5 5 4 6 6 7 7 8 8 9 9 10 10 11 2 12 1 13
REMARK SMILES IDX 14 14 15 15
REMARK H PARENT
REMARK Flexibility Score: inf
ROOT
ATOM      1  C   UNL     1      -2.707  -5.408 -28.969  1.00  0.00     0.161 A 
ATOM      2  C   UNL     1      -3.010  -6.570 -29.699  1.00  0.00     0.164 A 
ATOM      3  C   UNL     1      -3.453  -6.463 -31.032  1.00  0.00     0.098 A 
ATOM      4  C   UNL     1      -3.592  -5.210 -31.633  1.00  0.00     0.142 A 
ATOM      5  C   UNL     1      -3.289  -4.043 -30.902  1.00  0.00     0.022 A 
ATOM      6  C   UNL     1      -2.847  -4.144 -29.577  1.00  0.00     0.062 A 
ATOM      7  C   UNL     1      -3.439  -2.803 -31.532  1.00  0.00     0.019 A 
ATOM      8  C   UNL     1      -3.880  -2.755 -32.853  1.00  0.00     0.094 A 
ATOM      9  C   UNL     1      -4.163  -3.954 -33.516  1.00  0.00     0.336 A 
ATOM     10  O   UNL     1      -4.563  -3.933 -34.709  1.00  0.00    -0.246 OA
ATOM     11  O   UNL     1      -4.012  -5.120 -32.893  1.00  0.00    -0.423 OA
ENDROOT
BRANCH   1  12
ATOM     12  O   UNL     1      -2.268  -5.552 -27.643  1.00  0.00    -0.493 OA
ATOM     13  C   UNL     1      -3.097  -5.395 -26.497  1.00  0.00     0.278 C 
ENDBRANCH   1  12
BRANCH   2  14
ATOM     14  O   UNL     1      -2.859  -7.813 -29.063  1.00  0.00    -0.493 OA
ATOM     15  C   UNL     1      -3.936  -8.621 -28.602  1.00  0.00     0.278 C 
ENDBRANCH   2  14
TORSDOF 2
ENDMDL
MODEL 3
REMARK VINA RESULT:    -3.921     19.671     21.110
REMARK INTER + INTRA:          -4.493
REMARK INTER:                  -4.338
REMARK INTRA:                  -0.154
REMARK UNBOUND:                -0.113
REMARK SMILES COc1cc2ccc(=O)oc2cc1OC
REMARK SMILES IDX 3 1 13 2 12 3 11 4 5 5 4 6 6 7 7 8 8 9 9 10 10 11 2 12 1 13
REMARK SMILES IDX 14 14 15 15
REMARK H PARENT
REMARK Flexibility Score: inf
ROOT
ATOM      1  C   UNL     1      -2.912  -5.665 -25.519  1.00  0.00     0.161 A 
ATOM      2  C   UNL     1      -4.166  -5.040 -25.409  1.00  0.00     0.164 A 
ATOM      3  C   UNL     1      -4.778  -4.494 -26.555  1.00  0.00     0.098 A 
ATOM      4  C   UNL     1      -4.147  -4.570 -27.799  1.00  0.00     0.142 A 
ATOM      5  C   UNL     1      -2.888  -5.195 -27.910  1.00  0.00     0.022 A 
ATOM      6  C   UNL     1      -2.275  -5.740 -26.775  1.00  0.00     0.062 A 
ATOM      7  C   UNL     1      -2.281  -5.254 -29.169  1.00  0.00     0.019 A 
ATOM      8  C   UNL     1      -2.932  -4.698 -30.270  1.00  0.00     0.094 A 
ATOM      9  C   UNL     1      -4.179  -4.092 -30.083  1.00  0.00     0.336 A 
ATOM     10  O   UNL     1      -4.783  -3.584 -31.064  1.00  0.00    -0.246 OA
ATOM     11  O   UNL     1      -4.733  -4.050 -28.875  1.00  0.00    -0.423 OA
ENDROOT
BRANCH   1  12
ATOM     12  O   UNL     1      -2.331  -6.198 -24.357  1.00  0.00    -0.493 OA
ATOM     13  C   UNL     1      -1.231  -5.618 -23.665  1.00  0.00     0.278 C 
ENDBRANCH   1  12
BRANCH   2  14
ATOM     14  O   UNL     1      -4.772  -4.983 -24.144  1.00  0.00    -0.493 OA
ATOM     15  C   UNL     1      -4.978  -3.786 -23.401  1.00  0.00     0.278 C 
ENDBRANCH   2  14
TORSDOF 2
ENDMDL
MODEL 4
REMARK VINA RESULT:    -3.799     20.900     22.228
REMARK INTER + INTRA:          -4.357
REMARK INTER:                  -4.191
REMARK INTRA:                  -0.166
REMARK UNBOUND:                -0.113
REMARK SMILES COc1cc2ccc(=O)oc2cc1OC
REMARK SMILES IDX 3 1 13 2 12 3 11 4 5 5 4 6 6 7 7 8 8 9 9 10 10 11 2 12 1 13
REMARK SMILES IDX 14 14 15 15
REMARK H PARENT
REMARK Flexibility Score: inf
ROOT
ATOM      1  C   UNL     1      -3.150  -6.567 -29.982  1.00  0.00     0.161 A 
ATOM      2  C   UNL     1      -2.812  -5.387 -29.296  1.00  0.00     0.164 A 
ATOM      3  C   UNL     1      -2.918  -4.143 -29.949  1.00  0.00     0.098 A 
ATOM      4  C   UNL     1      -3.355  -4.075 -31.274  1.00  0.00     0.142 A 
ATOM      5  C   UNL     1      -3.693  -5.257 -31.964  1.00  0.00     0.022 A 
ATOM      6  C   UNL     1      -3.591  -6.496 -31.319  1.00  0.00     0.062 A 
ATOM      7  C   UNL     1      -4.127  -5.155 -33.290  1.00  0.00     0.019 A 
ATOM      8  C   UNL     1      -4.213  -3.899 -33.888  1.00  0.00     0.094 A 
ATOM      9  C   UNL     1      -3.860  -2.769 -33.142  1.00  0.00     0.336 A 
ATOM     10  O   UNL     1      -3.930  -1.626 -33.664  1.00  0.00    -0.246 OA
ATOM     11  O   UNL     1      -3.450  -2.895 -31.883  1.00  0.00    -0.423 OA
ENDROOT
BRANCH   1  12
ATOM     12  O   UNL     1      -3.034  -7.788 -29.300  1.00  0.00    -0.493 OA
ATOM     13  C   UNL     1      -4.127  -8.505 -28.736  1.00  0.00     0.278 C 
ENDBRANCH   1  12
BRANCH   2  14
ATOM     14  O   UNL     1      -2.377  -5.493 -27.965  1.00  0.00    -0.493 OA
ATOM     15  C   UNL     1      -3.195  -5.248 -26.826  1.00  0.00     0.278 C 
ENDBRANCH   2  14
TORSDOF 2
ENDMDL
MODEL 5
REMARK VINA RESULT:    -3.783      1.205      2.869
REMARK INTER + INTRA:          -4.339
REMARK INTER:                  -4.222
REMARK INTRA:                  -0.117
REMARK UNBOUND:                -0.113
REMARK SMILES COc1cc2ccc(=O)oc2cc1OC
REMARK SMILES IDX 3 1 13 2 12 3 11 4 5 5 4 6 6 7 7 8 8 9 9 10 10 11 2 12 1 13
REMARK SMILES IDX 14 14 15 15
REMARK H PARENT
REMARK Flexibility Score: inf
ROOT
ATOM      1  C   UNL     1      11.155   9.919 -23.159  1.00  0.00     0.161 A 
ATOM      2  C   UNL     1       9.974  10.039 -23.911  1.00  0.00     0.164 A 
ATOM      3  C   UNL     1       8.725  10.025 -23.259  1.00  0.00     0.098 A 
ATOM      4  C   UNL     1       8.653   9.892 -21.870  1.00  0.00     0.142 A 
ATOM      5  C   UNL     1       9.837   9.771 -21.115  1.00  0.00     0.022 A 
ATOM      6  C   UNL     1      11.081   9.785 -21.757  1.00  0.00     0.062 A 
ATOM      7  C   UNL     1       9.732   9.639 -19.726  1.00  0.00     0.019 A 
ATOM      8  C   UNL     1       8.470   9.631 -19.133  1.00  0.00     0.094 A 
ATOM      9  C   UNL     1       7.339   9.755 -19.946  1.00  0.00     0.336 A 
ATOM     10  O   UNL     1       6.191   9.750 -19.430  1.00  0.00    -0.246 OA
ATOM     11  O   UNL     1       7.468   9.879 -21.264  1.00  0.00    -0.423 OA
ENDROOT
BRANCH   1  12
ATOM     12  O   UNL     1      12.382   9.937 -23.841  1.00  0.00    -0.493 OA
ATOM     13  C   UNL     1      13.343   8.887 -23.803  1.00  0.00     0.278 C 
ENDBRANCH   1  12
BRANCH   2  14
ATOM     14  O   UNL     1      10.083  10.171 -25.305  1.00  0.00    -0.493 OA
ATOM     15  C   UNL     1       9.119  10.811 -26.133  1.00  0.00     0.278 C 
ENDBRANCH   2  14
TORSDOF 2
ENDMDL
MODEL 6
REMARK VINA RESULT:    -3.724     19.985     20.907
REMARK INTER + INTRA:          -4.273
REMARK INTER:                  -4.153
REMARK INTRA:                  -0.120
REMARK UNBOUND:                -0.113
REMARK SMILES COc1cc2ccc(=O)oc2cc1OC
REMARK SMILES IDX 3 1 13 2 12 3 11 4 5 5 4 6 6 7 7 8 8 9 9 10 10 11 2 12 1 13
REMARK SMILES IDX 14 14 15 15
REMARK H PARENT
REMARK Flexibility Score: inf
ROOT
ATOM      1  C   UNL     1      -3.222  -5.843 -28.757  1.00  0.00     0.161 A 
ATOM      2  C   UNL     1      -4.264  -4.902 -28.821  1.00  0.00     0.164 A 
ATOM      3  C   UNL     1      -4.700  -4.260 -27.644  1.00  0.00     0.098 A 
ATOM      4  C   UNL     1      -4.104  -4.554 -26.416  1.00  0.00     0.142 A 
ATOM      5  C   UNL     1      -3.059  -5.499 -26.351  1.00  0.00     0.022 A 
ATOM      6  C   UNL     1      -2.621  -6.138 -27.516  1.00  0.00     0.062 A 
ATOM      7  C   UNL     1      -2.484  -5.771 -25.105  1.00  0.00     0.019 A 
ATOM      8  C   UNL     1      -2.954  -5.107 -23.973  1.00  0.00     0.094 A 
ATOM      9  C   UNL     1      -3.994  -4.183 -24.114  1.00  0.00     0.336 A 
ATOM     10  O   UNL     1      -4.434  -3.573 -23.104  1.00  0.00    -0.246 OA
ATOM     11  O   UNL     1      -4.524  -3.943 -25.310  1.00  0.00    -0.423 OA
ENDROOT
BRANCH   1  12
ATOM     12  O   UNL     1      -2.812  -6.462 -29.949  1.00  0.00    -0.493 OA
ATOM     13  C   UNL     1      -3.166  -7.787 -30.333  1.00  0.00     0.278 C 
ENDBRANCH   1  12
BRANCH   2  14
ATOM     14  O   UNL     1      -4.840  -4.631 -30.072  1.00  0.00    -0.493 OA
ATOM     15  C   UNL     1      -4.425  -3.582 -30.942  1.00  0.00     0.278 C 
ENDBRANCH   2  14
TORSDOF 2
ENDMDL
MODEL 7
REMARK VINA RESULT:    -3.680     19.504     20.808
REMARK INTER + INTRA:          -4.223
REMARK INTER:                  -4.073
REMARK INTRA:                  -0.150
REMARK UNBOUND:                -0.113
REMARK SMILES COc1cc2ccc(=O)oc2cc1OC
REMARK SMILES IDX 3 1 13 2 12 3 11 4 5 5 4 6 6 7 7 8 8 9 9 10 10 11 2 12 1 13
REMARK SMILES IDX 14 14 15 15
REMARK H PARENT
REMARK Flexibility Score: inf
ROOT
ATOM      1  C   UNL     1      -3.330  -5.756 -24.969  1.00  0.00     0.161 A 
ATOM      2  C   UNL     1      -2.065  -6.103 -25.474  1.00  0.00     0.164 A 
ATOM      3  C   UNL     1      -1.761  -5.861 -26.828  1.00  0.00     0.098 A 
ATOM      4  C   UNL     1      -2.710  -5.279 -27.672  1.00  0.00     0.142 A 
ATOM      5  C   UNL     1      -3.979  -4.930 -27.167  1.00  0.00     0.022 A 
ATOM      6  C   UNL     1      -4.286  -5.168 -25.822  1.00  0.00     0.062 A 
ATOM      7  C   UNL     1      -4.907  -4.349 -28.038  1.00  0.00     0.019 A 
ATOM      8  C   UNL     1      -4.554  -4.132 -29.369  1.00  0.00     0.094 A 
ATOM      9  C   UNL     1      -3.276  -4.504 -29.800  1.00  0.00     0.336 A 
ATOM     10  O   UNL     1      -2.938  -4.317 -30.998  1.00  0.00    -0.246 OA
ATOM     11  O   UNL     1      -2.414  -5.055 -28.951  1.00  0.00    -0.423 OA
ENDROOT
BRANCH   1  12
ATOM     12  O   UNL     1      -3.597  -6.010 -23.614  1.00  0.00    -0.493 OA
ATOM     13  C   UNL     1      -3.557  -5.028 -22.585  1.00  0.00     0.278 C 
ENDBRANCH   1  12
BRANCH   2  14
ATOM     14  O   UNL     1      -1.136  -6.686 -24.597  1.00  0.00    -0.493 OA
ATOM     15  C   UNL     1      -0.141  -5.965 -23.878  1.00  0.00     0.278 C 
ENDBRANCH   2  14
TORSDOF 2
ENDMDL
MODEL 8
REMARK VINA RESULT:    -3.603     20.114     20.777
REMARK INTER + INTRA:          -4.137
REMARK INTER:                  -4.087
REMARK INTRA:                  -0.050
REMARK UNBOUND:                -0.113
REMARK SMILES COc1cc2ccc(=O)oc2cc1OC
REMARK SMILES IDX 3 1 13 2 12 3 11 4 5 5 4 6 6 7 7 8 8 9 9 10 10 11 2 12 1 13
REMARK SMILES IDX 14 14 15 15
REMARK H PARENT
REMARK Flexibility Score: inf
ROOT
ATOM      1  C   UNL     1      -4.205  -4.659 -29.124  1.00  0.00     0.161 A 
ATOM      2  C   UNL     1      -3.084  -5.507 -29.132  1.00  0.00     0.164 A 
ATOM      3  C   UNL     1      -2.504  -5.912 -27.914  1.00  0.00     0.098 A 
ATOM      4  C   UNL     1      -3.034  -5.475 -26.697  1.00  0.00     0.142 A 
ATOM      5  C   UNL     1      -4.158  -4.623 -26.688  1.00  0.00     0.022 A 
ATOM      6  C   UNL     1      -4.740  -4.219 -27.896  1.00  0.00     0.062 A 
ATOM      7  C   UNL     1      -4.666  -4.203 -25.454  1.00  0.00     0.019 A 
ATOM      8  C   UNL     1      -4.052  -4.634 -24.278  1.00  0.00     0.094 A 
ATOM      9  C   UNL     1      -2.940  -5.477 -24.366  1.00  0.00     0.336 A 
ATOM     10  O   UNL     1      -2.371  -5.877 -23.316  1.00  0.00    -0.246 OA
ATOM     11  O   UNL     1      -2.478  -5.862 -25.552  1.00  0.00    -0.423 OA
ENDROOT
BRANCH   1  12
ATOM     12  O   UNL     1      -4.759  -4.277 -30.356  1.00  0.00    -0.493 OA
ATOM     13  C   UNL     1      -4.267  -3.215 -31.167  1.00  0.00     0.278 C 
ENDBRANCH   1  12
BRANCH   2  14
ATOM     14  O   UNL     1      -2.578  -5.927 -30.372  1.00  0.00    -0.493 OA
ATOM     15  C   UNL     1      -2.916  -7.155 -31.009  1.00  0.00     0.278 C 
ENDBRANCH   2  14
TORSDOF 2
ENDMDL
