MODEL 1
REMARK VINA RESULT:    -4.098      0.000      0.000
REMARK INTER + INTRA:          -9.958
REMARK INTER:                  -7.692
REMARK INTRA:                  -2.266
REMARK UNBOUND:                -2.266
REMARK SMILES O=C([O-])CCCCCCCCCCCCCCC(=O)[O-]
REMARK SMILES IDX 10 1 9 2 8 3 7 4 6 5 5 6 4 7 2 8 1 9 3 10 11 11 12 12 13 13
REMARK SMILES IDX 14 14 15 15 16 16 17 17 18 18 19 19 20 20
REMARK H PARENT
REMARK Flexibility Score: inf
ROOT
ATOM      1  C   UNL     1     -21.124 -12.641 -20.691  1.00  0.00     0.000 C 
ENDROOT
BRANCH   1   2
ATOM      2  C   UNL     1     -22.512 -12.758 -20.039  1.00  0.00     0.000 C 
BRANCH   2   3
ATOM      3  C   UNL     1     -22.581 -12.034 -18.678  1.00  0.00     0.000 C 
BRANCH   3   4
ATOM      4  C   UNL     1     -23.016 -12.944 -17.512  1.00  0.00     0.000 C 
BRANCH   4   5
ATOM      5  C   UNL     1     -23.012 -12.271 -16.129  1.00  0.00     0.000 C 
BRANCH   5   6
ATOM      6  C   UNL     1     -22.673 -13.251 -14.992  1.00  0.00     0.006 C 
BRANCH   6   7
ATOM      7  C   UNL     1     -23.444 -14.572 -15.117  1.00  0.00     0.053 C 
BRANCH   7   8
ATOM      8  C   UNL     1     -24.609 -14.629 -14.179  1.00  0.00     0.041 C 
ATOM      9  O   UNL     1     -25.262 -13.583 -13.915  1.00  0.00    -0.550 OA
ATOM     10  O   UNL     1     -24.953 -15.828 -13.566  1.00  0.00    -0.550 OA
ENDBRANCH   7   8
ENDBRANCH   6   7
ENDBRANCH   5   6
ENDBRANCH   4   5
ENDBRANCH   3   4
ENDBRANCH   2   3
ENDBRANCH   1   2
BRANCH   1  11
ATOM     11  C   UNL     1     -20.025 -12.243 -19.691  1.00  0.00     0.000 C 
BRANCH  11  12
ATOM     12  C   UNL     1     -19.151 -13.431 -19.235  1.00  0.00     0.000 C 
BRANCH  12  13
ATOM     13  C   UNL     1     -19.224 -13.653 -17.713  1.00  0.00     0.000 C 
BRANCH  13  14
ATOM     14  C   UNL     1     -20.066 -14.882 -17.327  1.00  0.00     0.000 C 
BRANCH  14  15
ATOM     15  C   UNL     1     -20.243 -15.924 -18.446  1.00  0.00     0.000 C 
BRANCH  15  16
ATOM     16  C   UNL     1     -21.714 -16.114 -18.856  1.00  0.00     0.006 C 
BRANCH  16  17
ATOM     17  C   UNL     1     -21.881 -17.213 -19.914  1.00  0.00     0.053 C 
BRANCH  17  18
ATOM     18  C   UNL     1     -21.716 -16.679 -21.304  1.00  0.00     0.041 C 
ATOM     19  O   UNL     1     -20.767 -17.080 -22.028  1.00  0.00    -0.550 OA
ATOM     20  O   UNL     1     -22.626 -15.758 -21.808  1.00  0.00    -0.550 OA
ENDBRANCH  17  18
ENDBRANCH  16  17
ENDBRANCH  15  16
ENDBRANCH  14  15
ENDBRANCH  13  14
ENDBRANCH  12  13
ENDBRANCH  11  12
ENDBRANCH   1  11
TORSDOF 15
ENDMDL
MODEL 2
REMARK VINA RESULT:    -4.069      2.256      2.658
REMARK INTER + INTRA:          -9.902
REMARK INTER:                  -7.588
REMARK INTRA:                  -2.314
REMARK UNBOUND:                -2.266
REMARK SMILES O=C([O-])CCCCCCCCCCCCCCC(=O)[O-]
REMARK SMILES IDX 10 1 9 2 8 3 7 4 6 5 5 6 4 7 2 8 1 9 3 10 11 11 12 12 13 13
REMARK SMILES IDX 14 14 15 15 16 16 17 17 18 18 19 19 20 20
REMARK H PARENT
REMARK Flexibility Score: inf
ROOT
ATOM      1  C   UNL     1     -21.131 -13.074 -20.931  1.00  0.00     0.000 C 
ENDROOT
BRANCH   1   2
ATOM      2  C   UNL     1     -22.521 -13.179 -20.280  1.00  0.00     0.000 C 
BRANCH   2   3
ATOM      3  C   UNL     1     -22.627 -12.339 -18.990  1.00  0.00     0.000 C 
BRANCH   3   4
ATOM      4  C   UNL     1     -22.988 -13.165 -17.739  1.00  0.00     0.000 C 
BRANCH   4   5
ATOM      5  C   UNL     1     -22.756 -12.446 -16.399  1.00  0.00     0.000 C 
BRANCH   5   6
ATOM      6  C   UNL     1     -22.679 -13.418 -15.209  1.00  0.00     0.006 C 
BRANCH   6   7
ATOM      7  C   UNL     1     -23.961 -13.405 -14.366  1.00  0.00     0.053 C 
BRANCH   7   8
ATOM      8  C   UNL     1     -24.659 -14.729 -14.393  1.00  0.00     0.041 C 
ATOM      9  O   UNL     1     -24.065 -15.750 -14.832  1.00  0.00    -0.550 OA
ATOM     10  O   UNL     1     -25.978 -14.830 -13.968  1.00  0.00    -0.550 OA
ENDBRANCH   7   8
ENDBRANCH   6   7
ENDBRANCH   5   6
ENDBRANCH   4   5
ENDBRANCH   3   4
ENDBRANCH   2   3
ENDBRANCH   1   2
BRANCH   1  11
ATOM     11  C   UNL     1     -20.100 -12.376 -20.029  1.00  0.00     0.000 C 
BRANCH  11  12
ATOM     12  C   UNL     1     -19.070 -13.346 -19.411  1.00  0.00     0.000 C 
BRANCH  12  13
ATOM     13  C   UNL     1     -19.217 -13.449 -17.882  1.00  0.00     0.000 C 
BRANCH  13  14
ATOM     14  C   UNL     1     -19.760 -14.815 -17.424  1.00  0.00     0.000 C 
BRANCH  14  15
ATOM     15  C   UNL     1     -20.329 -15.697 -18.550  1.00  0.00     0.000 C 
BRANCH  15  16
ATOM     16  C   UNL     1     -21.363 -16.717 -18.044  1.00  0.00     0.006 C 
BRANCH  16  17
ATOM     17  C   UNL     1     -21.203 -17.007 -16.545  1.00  0.00     0.053 C 
BRANCH  17  18
ATOM     18  C   UNL     1     -20.420 -18.261 -16.301  1.00  0.00     0.041 C 
ATOM     19  O   UNL     1     -19.296 -18.207 -15.736  1.00  0.00    -0.550 OA
ATOM     20  O   UNL     1     -20.945 -19.493 -16.673  1.00  0.00    -0.550 OA
ENDBRANCH  17  18
ENDBRANCH  16  17
ENDBRANCH  15  16
ENDBRANCH  14  15
ENDBRANCH  13  14
ENDBRANCH  12  13
ENDBRANCH  11  12
ENDBRANCH   1  11
TORSDOF 15
ENDMDL
MODEL 3
REMARK VINA RESULT:    -4.066      1.520      5.287
REMARK INTER + INTRA:          -9.898
REMARK INTER:                  -7.394
REMARK INTRA:                  -2.503
REMARK UNBOUND:                -2.266
REMARK SMILES O=C([O-])CCCCCCCCCCCCCCC(=O)[O-]
REMARK SMILES IDX 10 1 9 2 8 3 7 4 6 5 5 6 4 7 2 8 1 9 3 10 11 11 12 12 13 13
REMARK SMILES IDX 14 14 15 15 16 16 17 17 18 18 19 19 20 20
REMARK H PARENT
REMARK Flexibility Score: inf
ROOT
ATOM      1  C   UNL     1     -18.888 -13.412 -20.357  1.00  0.00     0.000 C 
ENDROOT
BRANCH   1   2
ATOM      2  C   UNL     1     -18.117 -14.167 -19.260  1.00  0.00     0.000 C 
BRANCH   2   3
ATOM      3  C   UNL     1     -18.914 -14.256 -17.941  1.00  0.00     0.000 C 
BRANCH   3   4
ATOM      4  C   UNL     1     -19.263 -15.698 -17.523  1.00  0.00     0.000 C 
BRANCH   4   5
ATOM      5  C   UNL     1     -20.768 -16.016 -17.489  1.00  0.00     0.000 C 
BRANCH   5   6
ATOM      6  C   UNL     1     -21.413 -15.988 -18.885  1.00  0.00     0.006 C 
BRANCH   6   7
ATOM      7  C   UNL     1     -22.927 -15.748 -18.819  1.00  0.00     0.053 C 
BRANCH   7   8
ATOM      8  C   UNL     1     -23.684 -17.021 -18.599  1.00  0.00     0.041 C 
ATOM      9  O   UNL     1     -24.059 -17.713 -19.584  1.00  0.00    -0.550 OA
ATOM     10  O   UNL     1     -24.009 -17.426 -17.311  1.00  0.00    -0.550 OA
ENDBRANCH   7   8
ENDBRANCH   6   7
ENDBRANCH   5   6
ENDBRANCH   4   5
ENDBRANCH   3   4
ENDBRANCH   2   3
ENDBRANCH   1   2
BRANCH   1  11
ATOM     11  C   UNL     1     -19.898 -12.401 -19.789  1.00  0.00     0.000 C 
BRANCH  11  12
ATOM     12  C   UNL     1     -21.320 -12.563 -20.369  1.00  0.00     0.000 C 
BRANCH  12  13
ATOM     13  C   UNL     1     -22.408 -12.216 -19.338  1.00  0.00     0.000 C 
BRANCH  13  14
ATOM     14  C   UNL     1     -21.896 -12.260 -17.887  1.00  0.00     0.000 C 
BRANCH  14  15
ATOM     15  C   UNL     1     -22.974 -12.553 -16.827  1.00  0.00     0.000 C 
BRANCH  15  16
ATOM     16  C   UNL     1     -22.426 -13.328 -15.617  1.00  0.00     0.006 C 
BRANCH  16  17
ATOM     17  C   UNL     1     -23.281 -14.557 -15.281  1.00  0.00     0.053 C 
BRANCH  17  18
ATOM     18  C   UNL     1     -24.270 -14.268 -14.193  1.00  0.00     0.041 C 
ATOM     19  O   UNL     1     -24.549 -13.078 -13.891  1.00  0.00    -0.550 OA
ATOM     20  O   UNL     1     -24.904 -15.313 -13.533  1.00  0.00    -0.550 OA
ENDBRANCH  17  18
ENDBRANCH  16  17
ENDBRANCH  15  16
ENDBRANCH  14  15
ENDBRANCH  13  14
ENDBRANCH  12  13
ENDBRANCH  11  12
ENDBRANCH   1  11
TORSDOF 15
ENDMDL
MODEL 4
REMARK VINA RESULT:    -3.996      2.885      5.563
REMARK INTER + INTRA:          -9.765
REMARK INTER:                  -7.835
REMARK INTRA:                  -1.930
REMARK UNBOUND:                -2.266
REMARK SMILES O=C([O-])CCCCCCCCCCCCCCC(=O)[O-]
REMARK SMILES IDX 10 1 9 2 8 3 7 4 6 5 5 6 4 7 2 8 1 9 3 10 11 11 12 12 13 13
REMARK SMILES IDX 14 14 15 15 16 16 17 17 18 18 19 19 20 20
REMARK H PARENT
REMARK Flexibility Score: inf
ROOT
ATOM      1  C   UNL     1     -25.100 -13.916 -13.976  1.00  0.00     0.000 C 
ENDROOT
BRANCH   1   2
ATOM      2  C   UNL     1     -24.392 -12.588 -14.297  1.00  0.00     0.000 C 
BRANCH   2   3
ATOM      3  C   UNL     1     -23.076 -12.801 -15.076  1.00  0.00     0.000 C 
BRANCH   3   4
ATOM      4  C   UNL     1     -23.056 -12.121 -16.459  1.00  0.00     0.000 C 
BRANCH   4   5
ATOM      5  C   UNL     1     -22.065 -12.729 -17.467  1.00  0.00     0.000 C 
BRANCH   5   6
ATOM      6  C   UNL     1     -22.768 -13.457 -18.626  1.00  0.00     0.006 C 
BRANCH   6   7
ATOM      7  C   UNL     1     -22.492 -12.791 -19.980  1.00  0.00     0.053 C 
BRANCH   7   8
ATOM      8  C   UNL     1     -21.668 -13.664 -20.874  1.00  0.00     0.041 C 
ATOM      9  O   UNL     1     -20.496 -13.324 -21.188  1.00  0.00    -0.550 OA
ATOM     10  O   UNL     1     -22.206 -14.836 -21.391  1.00  0.00    -0.550 OA
ENDBRANCH   7   8
ENDBRANCH   6   7
ENDBRANCH   5   6
ENDBRANCH   4   5
ENDBRANCH   3   4
ENDBRANCH   2   3
ENDBRANCH   1   2
BRANCH   1  11
ATOM     11  C   UNL     1     -24.170 -15.134 -14.099  1.00  0.00     0.000 C 
BRANCH  11  12
ATOM     12  C   UNL     1     -24.774 -16.284 -14.935  1.00  0.00     0.000 C 
BRANCH  12  13
ATOM     13  C   UNL     1     -23.712 -16.997 -15.791  1.00  0.00     0.000 C 
BRANCH  13  14
ATOM     14  C   UNL     1     -22.459 -16.136 -16.033  1.00  0.00     0.000 C 
BRANCH  14  15
ATOM     15  C   UNL     1     -21.573 -16.596 -17.205  1.00  0.00     0.000 C 
BRANCH  15  16
ATOM     16  C   UNL     1     -20.155 -16.003 -17.148  1.00  0.00     0.006 C 
BRANCH  16  17
ATOM     17  C   UNL     1     -19.592 -15.715 -18.547  1.00  0.00     0.053 C 
BRANCH  17  18
ATOM     18  C   UNL     1     -18.553 -14.636 -18.519  1.00  0.00     0.041 C 
ATOM     19  O   UNL     1     -17.591 -14.662 -19.330  1.00  0.00    -0.550 OA
ATOM     20  O   UNL     1     -18.664 -13.587 -17.614  1.00  0.00    -0.550 OA
ENDBRANCH  17  18
ENDBRANCH  16  17
ENDBRANCH  15  16
ENDBRANCH  14  15
ENDBRANCH  13  14
ENDBRANCH  12  13
ENDBRANCH  11  12
ENDBRANCH   1  11
TORSDOF 15
ENDMDL
MODEL 5
REMARK VINA RESULT:    -3.934      1.902      2.654
REMARK INTER + INTRA:          -9.650
REMARK INTER:                  -7.472
REMARK INTRA:                  -2.178
REMARK UNBOUND:                -2.266
REMARK SMILES O=C([O-])CCCCCCCCCCCCCCC(=O)[O-]
REMARK SMILES IDX 10 1 9 2 8 3 7 4 6 5 5 6 4 7 2 8 1 9 3 10 11 11 12 12 13 13
REMARK SMILES IDX 14 14 15 15 16 16 17 17 18 18 19 19 20 20
REMARK H PARENT
REMARK Flexibility Score: inf
ROOT
ATOM      1  C   UNL     1     -22.231 -14.154 -20.674  1.00  0.00     0.000 C 
ENDROOT
BRANCH   1   2
ATOM      2  C   UNL     1     -22.597 -12.876 -19.898  1.00  0.00     0.000 C 
BRANCH   2   3
ATOM      3  C   UNL     1     -22.945 -13.168 -18.423  1.00  0.00     0.000 C 
BRANCH   3   4
ATOM      4  C   UNL     1     -22.553 -12.033 -17.456  1.00  0.00     0.000 C 
BRANCH   4   5
ATOM      5  C   UNL     1     -23.026 -12.226 -16.005  1.00  0.00     0.000 C 
BRANCH   5   6
ATOM      6  C   UNL     1     -22.540 -13.550 -15.392  1.00  0.00     0.006 C 
BRANCH   6   7
ATOM      7  C   UNL     1     -23.594 -14.186 -14.475  1.00  0.00     0.053 C 
BRANCH   7   8
ATOM      8  C   UNL     1     -23.933 -15.581 -14.899  1.00  0.00     0.041 C 
ATOM      9  O   UNL     1     -24.489 -16.371 -14.090  1.00  0.00    -0.550 OA
ATOM     10  O   UNL     1     -23.602 -16.022 -16.174  1.00  0.00    -0.550 OA
ENDBRANCH   7   8
ENDBRANCH   6   7
ENDBRANCH   5   6
ENDBRANCH   4   5
ENDBRANCH   3   4
ENDBRANCH   2   3
ENDBRANCH   1   2
BRANCH   1  11
ATOM     11  C   UNL     1     -20.987 -13.979 -21.560  1.00  0.00     0.000 C 
BRANCH  11  12
ATOM     12  C   UNL     1     -19.992 -12.928 -21.021  1.00  0.00     0.000 C 
BRANCH  12  13
ATOM     13  C   UNL     1     -19.013 -13.529 -19.997  1.00  0.00     0.000 C 
BRANCH  13  14
ATOM     14  C   UNL     1     -19.189 -12.941 -18.585  1.00  0.00     0.000 C 
BRANCH  14  15
ATOM     15  C   UNL     1     -19.144 -13.973 -17.443  1.00  0.00     0.000 C 
BRANCH  15  16
ATOM     16  C   UNL     1     -20.070 -15.176 -17.689  1.00  0.00     0.006 C 
BRANCH  16  17
ATOM     17  C   UNL     1     -19.373 -16.512 -17.397  1.00  0.00     0.053 C 
BRANCH  17  18
ATOM     18  C   UNL     1     -18.544 -16.974 -18.556  1.00  0.00     0.041 C 
ATOM     19  O   UNL     1     -19.081 -17.593 -19.512  1.00  0.00    -0.550 OA
ATOM     20  O   UNL     1     -17.183 -16.695 -18.594  1.00  0.00    -0.550 OA
ENDBRANCH  17  18
ENDBRANCH  16  17
ENDBRANCH  15  16
ENDBRANCH  14  15
ENDBRANCH  13  14
ENDBRANCH  12  13
ENDBRANCH  11  12
ENDBRANCH   1  11
TORSDOF 15
ENDMDL
MODEL 6
REMARK VINA RESULT:    -3.921      2.132      5.789
REMARK INTER + INTRA:          -9.624
REMARK INTER:                  -7.452
REMARK INTRA:                  -2.172
REMARK UNBOUND:                -2.266
REMARK SMILES O=C([O-])CCCCCCCCCCCCCCC(=O)[O-]
REMARK SMILES IDX 10 1 9 2 8 3 7 4 6 5 5 6 4 7 2 8 1 9 3 10 11 11 12 12 13 13
REMARK SMILES IDX 14 14 15 15 16 16 17 17 18 18 19 19 20 20
REMARK H PARENT
REMARK Flexibility Score: inf
ROOT
ATOM      1  C   UNL     1     -21.871 -14.824 -20.993  1.00  0.00     0.000 C 
ENDROOT
BRANCH   1   2
ATOM      2  C   UNL     1     -23.007 -13.929 -20.470  1.00  0.00     0.000 C 
BRANCH   2   3
ATOM      3  C   UNL     1     -22.492 -12.829 -19.516  1.00  0.00     0.000 C 
BRANCH   3   4
ATOM      4  C   UNL     1     -22.939 -13.015 -18.053  1.00  0.00     0.000 C 
BRANCH   4   5
ATOM      5  C   UNL     1     -21.796 -13.254 -17.052  1.00  0.00     0.000 C 
BRANCH   5   6
ATOM      6  C   UNL     1     -20.426 -13.398 -17.736  1.00  0.00     0.006 C 
BRANCH   6   7
ATOM      7  C   UNL     1     -19.852 -14.813 -17.591  1.00  0.00     0.053 C 
BRANCH   7   8
ATOM      8  C   UNL     1     -18.505 -14.937 -18.232  1.00  0.00     0.041 C 
ATOM      9  O   UNL     1     -18.120 -14.078 -19.069  1.00  0.00    -0.550 OA
ATOM     10  O   UNL     1     -17.688 -16.021 -17.933  1.00  0.00    -0.550 OA
ENDBRANCH   7   8
ENDBRANCH   6   7
ENDBRANCH   5   6
ENDBRANCH   4   5
ENDBRANCH   3   4
ENDBRANCH   2   3
ENDBRANCH   1   2
BRANCH   1  11
ATOM     11  C   UNL     1     -22.197 -16.324 -20.893  1.00  0.00     0.000 C 
BRANCH  11  12
ATOM     12  C   UNL     1     -23.255 -16.651 -19.816  1.00  0.00     0.000 C 
BRANCH  12  13
ATOM     13  C   UNL     1     -22.618 -16.917 -18.441  1.00  0.00     0.000 C 
BRANCH  13  14
ATOM     14  C   UNL     1     -23.651 -16.965 -17.301  1.00  0.00     0.000 C 
BRANCH  14  15
ATOM     15  C   UNL     1     -23.127 -16.498 -15.930  1.00  0.00     0.000 C 
BRANCH  15  16
ATOM     16  C   UNL     1     -24.224 -15.862 -15.059  1.00  0.00     0.006 C 
BRANCH  16  17
ATOM     17  C   UNL     1     -23.706 -14.649 -14.273  1.00  0.00     0.053 C 
BRANCH  17  18
ATOM     18  C   UNL     1     -24.801 -13.674 -13.969  1.00  0.00     0.041 C 
ATOM     19  O   UNL     1     -25.997 -14.063 -13.903  1.00  0.00    -0.550 OA
ATOM     20  O   UNL     1     -24.498 -12.339 -13.731  1.00  0.00    -0.550 OA
ENDBRANCH  17  18
ENDBRANCH  16  17
ENDBRANCH  15  16
ENDBRANCH  14  15
ENDBRANCH  13  14
ENDBRANCH  12  13
ENDBRANCH  11  12
ENDBRANCH   1  11
TORSDOF 15
ENDMDL
MODEL 7
REMARK VINA RESULT:    -3.911      1.858      3.151
REMARK INTER + INTRA:          -9.606
REMARK INTER:                  -7.146
REMARK INTRA:                  -2.460
REMARK UNBOUND:                -2.266
REMARK SMILES O=C([O-])CCCCCCCCCCCCCCC(=O)[O-]
REMARK SMILES IDX 10 1 9 2 8 3 7 4 6 5 5 6 4 7 2 8 1 9 3 10 11 11 12 12 13 13
REMARK SMILES IDX 14 14 15 15 16 16 17 17 18 18 19 19 20 20
REMARK H PARENT
REMARK Flexibility Score: inf
ROOT
ATOM      1  C   UNL     1     -19.980 -12.401 -19.524  1.00  0.00     0.000 C 
ENDROOT
BRANCH   1   2
ATOM      2  C   UNL     1     -19.169 -13.380 -18.657  1.00  0.00     0.000 C 
BRANCH   2   3
ATOM      3  C   UNL     1     -19.960 -13.861 -17.422  1.00  0.00     0.000 C 
BRANCH   3   4
ATOM      4  C   UNL     1     -20.234 -15.377 -17.411  1.00  0.00     0.000 C 
BRANCH   4   5
ATOM      5  C   UNL     1     -21.614 -15.783 -16.867  1.00  0.00     0.000 C 
BRANCH   5   6
ATOM      6  C   UNL     1     -22.457 -14.575 -16.422  1.00  0.00     0.006 C 
BRANCH   6   7
ATOM      7  C   UNL     1     -23.517 -14.961 -15.382  1.00  0.00     0.053 C 
BRANCH   7   8
ATOM      8  C   UNL     1     -23.967 -13.779 -14.581  1.00  0.00     0.041 C 
ATOM      9  O   UNL     1     -24.991 -13.862 -13.851  1.00  0.00    -0.550 OA
ATOM     10  O   UNL     1     -23.279 -12.575 -14.667  1.00  0.00    -0.550 OA
ENDBRANCH   7   8
ENDBRANCH   6   7
ENDBRANCH   5   6
ENDBRANCH   4   5
ENDBRANCH   3   4
ENDBRANCH   2   3
ENDBRANCH   1   2
BRANCH   1  11
ATOM     11  C   UNL     1     -21.381 -12.118 -18.954  1.00  0.00     0.000 C 
BRANCH  11  12
ATOM     12  C   UNL     1     -22.521 -12.428 -19.948  1.00  0.00     0.000 C 
BRANCH  12  13
ATOM     13  C   UNL     1     -22.991 -13.891 -19.852  1.00  0.00     0.000 C 
BRANCH  13  14
ATOM     14  C   UNL     1     -22.529 -14.749 -21.043  1.00  0.00     0.000 C 
BRANCH  14  15
ATOM     15  C   UNL     1     -21.390 -15.736 -20.728  1.00  0.00     0.000 C 
BRANCH  15  16
ATOM     16  C   UNL     1     -20.154 -15.525 -21.619  1.00  0.00     0.006 C 
BRANCH  16  17
ATOM     17  C   UNL     1     -20.413 -14.499 -22.732  1.00  0.00     0.053 C 
BRANCH  17  18
ATOM     18  C   UNL     1     -20.390 -15.132 -24.090  1.00  0.00     0.041 C 
ATOM     19  O   UNL     1     -19.293 -15.360 -24.664  1.00  0.00    -0.550 OA
ATOM     20  O   UNL     1     -21.580 -15.495 -24.708  1.00  0.00    -0.550 OA
ENDBRANCH  17  18
ENDBRANCH  16  17
ENDBRANCH  15  16
ENDBRANCH  14  15
ENDBRANCH  13  14
ENDBRANCH  12  13
ENDBRANCH  11  12
ENDBRANCH   1  11
TORSDOF 15
ENDMDL
MODEL 8
REMARK VINA RESULT:    -3.867      2.436      5.774
REMARK INTER + INTRA:          -9.523
REMARK INTER:                  -7.637
REMARK INTRA:                  -1.885
REMARK UNBOUND:                -2.266
REMARK SMILES O=C([O-])CCCCCCCCCCCCCCC(=O)[O-]
REMARK SMILES IDX 10 1 9 2 8 3 7 4 6 5 5 6 4 7 2 8 1 9 3 10 11 11 12 12 13 13
REMARK SMILES IDX 14 14 15 15 16 16 17 17 18 18 19 19 20 20
REMARK H PARENT
REMARK Flexibility Score: inf
ROOT
ATOM      1  C   UNL     1     -22.601 -12.924 -19.978  1.00  0.00     0.000 C 
ENDROOT
BRANCH   1   2
ATOM      2  C   UNL     1     -22.617 -14.377 -20.484  1.00  0.00     0.000 C 
BRANCH   2   3
ATOM      3  C   UNL     1     -23.376 -15.320 -19.526  1.00  0.00     0.000 C 
BRANCH   3   4
ATOM      4  C   UNL     1     -22.496 -16.433 -18.924  1.00  0.00     0.000 C 
BRANCH   4   5
ATOM      5  C   UNL     1     -22.242 -16.310 -17.412  1.00  0.00     0.000 C 
BRANCH   5   6
ATOM      6  C   UNL     1     -20.753 -16.130 -17.072  1.00  0.00     0.006 C 
BRANCH   6   7
ATOM      7  C   UNL     1     -19.895 -15.910 -18.325  1.00  0.00     0.053 C 
BRANCH   7   8
ATOM      8  C   UNL     1     -18.684 -15.080 -18.034  1.00  0.00     0.041 C 
ATOM      9  O   UNL     1     -17.535 -15.518 -18.307  1.00  0.00    -0.550 OA
ATOM     10  O   UNL     1     -18.821 -13.837 -17.427  1.00  0.00    -0.550 OA
ENDBRANCH   7   8
ENDBRANCH   6   7
ENDBRANCH   5   6
ENDBRANCH   4   5
ENDBRANCH   3   4
ENDBRANCH   2   3
ENDBRANCH   1   2
BRANCH   1  11
ATOM     11  C   UNL     1     -21.806 -12.754 -18.672  1.00  0.00     0.000 C 
BRANCH  11  12
ATOM     12  C   UNL     1     -22.602 -12.038 -17.559  1.00  0.00     0.000 C 
BRANCH  12  13
ATOM     13  C   UNL     1     -22.927 -12.978 -16.384  1.00  0.00     0.000 C 
BRANCH  13  14
ATOM     14  C   UNL     1     -23.609 -12.254 -15.210  1.00  0.00     0.000 C 
BRANCH  14  15
ATOM     15  C   UNL     1     -24.318 -13.178 -14.202  1.00  0.00     0.000 C 
BRANCH  15  16
ATOM     16  C   UNL     1     -23.904 -14.652 -14.352  1.00  0.00     0.006 C 
BRANCH  16  17
ATOM     17  C   UNL     1     -25.058 -15.611 -14.029  1.00  0.00     0.053 C 
BRANCH  17  18
ATOM     18  C   UNL     1     -24.623 -17.044 -14.086  1.00  0.00     0.041 C 
ATOM     19  O   UNL     1     -25.475 -17.968 -14.012  1.00  0.00    -0.550 OA
ATOM     20  O   UNL     1     -23.279 -17.357 -14.247  1.00  0.00    -0.550 OA
ENDBRANCH  17  18
ENDBRANCH  16  17
ENDBRANCH  15  16
ENDBRANCH  14  15
ENDBRANCH  13  14
ENDBRANCH  12  13
ENDBRANCH  11  12
ENDBRANCH   1  11
TORSDOF 15
ENDMDL
MODEL 9
REMARK VINA RESULT:    -3.862      1.733      6.062
REMARK INTER + INTRA:          -9.514
REMARK INTER:                  -7.081
REMARK INTRA:                  -2.433
REMARK UNBOUND:                -2.266
REMARK SMILES O=C([O-])CCCCCCCCCCCCCCC(=O)[O-]
REMARK SMILES IDX 10 1 9 2 8 3 7 4 6 5 5 6 4 7 2 8 1 9 3 10 11 11 12 12 13 13
REMARK SMILES IDX 14 14 15 15 16 16 17 17 18 18 19 19 20 20
REMARK H PARENT
REMARK Flexibility Score: inf
ROOT
ATOM      1  C   UNL     1     -22.411 -16.100 -20.619  1.00  0.00     0.000 C 
ENDROOT
BRANCH   1   2
ATOM      2  C   UNL     1     -23.476 -16.104 -19.508  1.00  0.00     0.000 C 
BRANCH   2   3
ATOM      3  C   UNL     1     -22.933 -16.679 -18.182  1.00  0.00     0.000 C 
BRANCH   3   4
ATOM      4  C   UNL     1     -21.420 -16.972 -18.204  1.00  0.00     0.000 C 
BRANCH   4   5
ATOM      5  C   UNL     1     -20.602 -16.235 -17.131  1.00  0.00     0.000 C 
BRANCH   5   6
ATOM      6  C   UNL     1     -19.588 -15.246 -17.731  1.00  0.00     0.006 C 
BRANCH   6   7
ATOM      7  C   UNL     1     -18.792 -15.863 -18.889  1.00  0.00     0.053 C 
BRANCH   7   8
ATOM      8  C   UNL     1     -18.570 -14.883 -19.998  1.00  0.00     0.041 C 
ATOM      9  O   UNL     1     -18.412 -13.660 -19.741  1.00  0.00    -0.550 OA
ATOM     10  O   UNL     1     -18.575 -15.313 -21.320  1.00  0.00    -0.550 OA
ENDBRANCH   7   8
ENDBRANCH   6   7
ENDBRANCH   5   6
ENDBRANCH   4   5
ENDBRANCH   3   4
ENDBRANCH   2   3
ENDBRANCH   1   2
BRANCH   1  11
ATOM     11  C   UNL     1     -22.052 -14.683 -21.098  1.00  0.00     0.000 C 
BRANCH  11  12
ATOM     12  C   UNL     1     -22.723 -13.567 -20.269  1.00  0.00     0.000 C 
BRANCH  12  13
ATOM     13  C   UNL     1     -21.750 -12.420 -19.947  1.00  0.00     0.000 C 
BRANCH  13  14
ATOM     14  C   UNL     1     -21.502 -12.250 -18.438  1.00  0.00     0.000 C 
BRANCH  14  15
ATOM     15  C   UNL     1     -22.759 -12.376 -17.556  1.00  0.00     0.000 C 
BRANCH  15  16
ATOM     16  C   UNL     1     -22.601 -13.422 -16.440  1.00  0.00     0.006 C 
BRANCH  16  17
ATOM     17  C   UNL     1     -23.086 -12.896 -15.082  1.00  0.00     0.053 C 
BRANCH  17  18
ATOM     18  C   UNL     1     -23.968 -13.886 -14.384  1.00  0.00     0.041 C 
ATOM     19  O   UNL     1     -23.596 -15.082 -14.250  1.00  0.00    -0.550 OA
ATOM     20  O   UNL     1     -25.188 -13.481 -13.856  1.00  0.00    -0.550 OA
ENDBRANCH  17  18
ENDBRANCH  16  17
ENDBRANCH  15  16
ENDBRANCH  14  15
ENDBRANCH  13  14
ENDBRANCH  12  13
ENDBRANCH  11  12
ENDBRANCH   1  11
TORSDOF 15
ENDMDL
