MODEL 1
REMARK VINA RESULT:    -5.353      0.000      0.000
REMARK INTER + INTRA:          -6.811
REMARK INTER:                  -6.448
REMARK INTRA:                  -0.363
REMARK UNBOUND:                -0.363
REMARK SMILES Oc1cc(O)c2c(c1)O[C@H](c1ccc(O)c(O)c1)[C@@H](O)C2
REMARK SMILES IDX 21 1 19 2 10 3 9 4 7 5 8 6 2 7 3 8 4 9 6 10 20 11 11 13
REMARK SMILES IDX 18 14 12 15 16 16 13 17 14 18 17 19 15 21 5 23 1 25
REMARK H PARENT 20 12 17 20 15 22 5 24 1 26
REMARK Flexibility Score: inf
ROOT
ATOM      1  C   UNL     1      17.017   8.796   2.192  1.00  0.00     0.079 C 
ATOM      2  C   UNL     1      17.591   7.397   1.903  1.00  0.00     0.164 C 
ATOM      3  C   UNL     1      16.837   6.742   0.729  1.00  0.00     0.232 C 
ATOM      4  O   UNL     1      15.440   6.694   1.021  1.00  0.00    -0.482 OA
ATOM      5  C   UNL     1      14.778   7.735   1.683  1.00  0.00     0.131 A 
ATOM      6  C   UNL     1      13.384   7.705   1.767  1.00  0.00     0.093 A 
ATOM      7  C   UNL     1      12.692   8.738   2.406  1.00  0.00     0.122 A 
ATOM      8  C   UNL     1      13.400   9.809   2.957  1.00  0.00     0.092 A 
ATOM      9  C   UNL     1      14.797   9.858   2.882  1.00  0.00     0.126 A 
ATOM     10  C   UNL     1      15.504   8.794   2.273  1.00  0.00     0.039 A 
ENDROOT
BRANCH   2  11
ATOM     11  O   UNL     1      18.972   7.471   1.650  1.00  0.00    -0.389 OA
ATOM     12  H   UNL     1      19.445   7.176   2.472  1.00  0.00     0.211 HD
ENDBRANCH   2  11
BRANCH   3  13
ATOM     13  C   UNL     1      17.348   5.347   0.460  1.00  0.00    -0.001 A 
ATOM     14  C   UNL     1      17.342   4.376   1.477  1.00  0.00     0.057 A 
ATOM     15  C   UNL     1      17.883   5.019  -0.796  1.00  0.00     0.012 A 
ATOM     16  C   UNL     1      17.843   3.088   1.236  1.00  0.00     0.157 A 
ATOM     17  C   UNL     1      18.382   3.737  -1.038  1.00  0.00     0.050 A 
ATOM     18  C   UNL     1      18.364   2.769  -0.030  1.00  0.00     0.157 A 
BRANCH  16  19
ATOM     19  O   UNL     1      17.828   2.129   2.248  1.00  0.00    -0.504 OA
ATOM     20  H   UNL     1      17.178   1.352   2.232  1.00  0.00     0.293 HD
ENDBRANCH  16  19
BRANCH  18  21
ATOM     21  O   UNL     1      18.869   1.498  -0.301  1.00  0.00    -0.504 OA
ATOM     22  H   UNL     1      19.018   1.169  -1.248  1.00  0.00     0.293 HD
ENDBRANCH  18  21
ENDBRANCH   3  13
BRANCH   9  23
ATOM     23  O   UNL     1      15.443  10.977   3.411  1.00  0.00    -0.507 OA
ATOM     24  H   UNL     1      16.144  10.922   4.139  1.00  0.00     0.293 HD
ENDBRANCH   9  23
BRANCH   7  25
ATOM     25  O   UNL     1      11.302   8.713   2.497  1.00  0.00    -0.508 OA
ATOM     26  H   UNL     1      10.718   9.119   1.774  1.00  0.00     0.293 HD
ENDBRANCH   7  25
TORSDOF 6
ENDMDL
MODEL 2
REMARK VINA RESULT:    -4.952     12.582     14.686
REMARK INTER + INTRA:          -6.328
REMARK INTER:                  -5.957
REMARK INTRA:                  -0.372
REMARK UNBOUND:                -0.363
REMARK SMILES Oc1cc(O)c2c(c1)O[C@H](c1ccc(O)c(O)c1)[C@@H](O)C2
REMARK SMILES IDX 21 1 19 2 10 3 9 4 7 5 8 6 2 7 3 8 4 9 6 10 20 11 11 13
REMARK SMILES IDX 18 14 12 15 16 16 13 17 14 18 17 19 15 21 5 23 1 25
REMARK H PARENT 20 12 17 20 15 22 5 24 1 26
REMARK Flexibility Score: inf
ROOT
ATOM      1  C   UNL     1       9.193  -6.903   0.251  1.00  0.00     0.079 C 
ATOM      2  C   UNL     1      10.620  -6.730   0.804  1.00  0.00     0.164 C 
ATOM      3  C   UNL     1      10.676  -7.164   2.282  1.00  0.00     0.232 C 
ATOM      4  O   UNL     1       9.720  -6.419   3.037  1.00  0.00    -0.482 OA
ATOM      5  C   UNL     1       8.456  -6.095   2.532  1.00  0.00     0.131 A 
ATOM      6  C   UNL     1       7.507  -5.533   3.390  1.00  0.00     0.093 A 
ATOM      7  C   UNL     1       6.230  -5.213   2.919  1.00  0.00     0.122 A 
ATOM      8  C   UNL     1       5.899  -5.465   1.585  1.00  0.00     0.092 A 
ATOM      9  C   UNL     1       6.836  -6.028   0.711  1.00  0.00     0.126 A 
ATOM     10  C   UNL     1       8.143  -6.315   1.171  1.00  0.00     0.039 A 
ENDROOT
BRANCH   2  11
ATOM     11  O   UNL     1      11.544  -7.448   0.023  1.00  0.00    -0.389 OA
ATOM     12  H   UNL     1      11.525  -8.394   0.327  1.00  0.00     0.211 HD
ENDBRANCH   2  11
BRANCH   3  13
ATOM     13  C   UNL     1      12.055  -6.954   2.862  1.00  0.00    -0.001 A 
ATOM     14  C   UNL     1      12.629  -5.672   2.895  1.00  0.00     0.057 A 
ATOM     15  C   UNL     1      12.800  -8.049   3.328  1.00  0.00     0.012 A 
ATOM     16  C   UNL     1      13.921  -5.482   3.407  1.00  0.00     0.157 A 
ATOM     17  C   UNL     1      14.087  -7.862   3.838  1.00  0.00     0.050 A 
ATOM     18  C   UNL     1      14.651  -6.584   3.882  1.00  0.00     0.157 A 
BRANCH  16  19
ATOM     19  O   UNL     1      14.481  -4.205   3.442  1.00  0.00    -0.504 OA
ATOM     20  H   UNL     1      14.029  -3.416   2.994  1.00  0.00     0.293 HD
ENDBRANCH  16  19
BRANCH  18  21
ATOM     21  O   UNL     1      15.937  -6.428   4.398  1.00  0.00    -0.504 OA
ATOM     22  H   UNL     1      16.670  -7.108   4.230  1.00  0.00     0.293 HD
ENDBRANCH  18  21
ENDBRANCH   3  13
BRANCH   9  23
ATOM     23  O   UNL     1       6.431  -6.298  -0.598  1.00  0.00    -0.507 OA
ATOM     24  H   UNL     1       6.652  -7.159  -1.083  1.00  0.00     0.293 HD
ENDBRANCH   9  23
BRANCH   7  25
ATOM     25  O   UNL     1       5.280  -4.650   3.768  1.00  0.00    -0.508 OA
ATOM     26  H   UNL     1       4.910  -5.161   4.562  1.00  0.00     0.293 HD
ENDBRANCH   7  25
TORSDOF 6
ENDMDL
MODEL 3
REMARK VINA RESULT:    -4.714      1.315      6.979
REMARK INTER + INTRA:          -6.042
REMARK INTER:                  -5.703
REMARK INTRA:                  -0.339
REMARK UNBOUND:                -0.363
REMARK SMILES Oc1cc(O)c2c(c1)O[C@H](c1ccc(O)c(O)c1)[C@@H](O)C2
REMARK SMILES IDX 21 1 19 2 10 3 9 4 7 5 8 6 2 7 3 8 4 9 6 10 20 11 11 13
REMARK SMILES IDX 18 14 12 15 16 16 13 17 14 18 17 19 15 21 5 23 1 25
REMARK H PARENT 20 12 17 20 15 22 5 24 1 26
REMARK Flexibility Score: inf
ROOT
ATOM      1  C   UNL     1      17.330   5.601  -0.576  1.00  0.00     0.079 C 
ATOM      2  C   UNL     1      16.084   6.413  -0.176  1.00  0.00     0.164 C 
ATOM      3  C   UNL     1      16.202   6.888   1.286  1.00  0.00     0.232 C 
ATOM      4  O   UNL     1      16.401   5.762   2.142  1.00  0.00    -0.482 OA
ATOM      5  C   UNL     1      17.201   4.675   1.775  1.00  0.00     0.131 A 
ATOM      6  C   UNL     1      17.502   3.702   2.731  1.00  0.00     0.093 A 
ATOM      7  C   UNL     1      18.312   2.612   2.400  1.00  0.00     0.122 A 
ATOM      8  C   UNL     1      18.830   2.501   1.107  1.00  0.00     0.092 A 
ATOM      9  C   UNL     1      18.541   3.465   0.135  1.00  0.00     0.126 A 
ATOM     10  C   UNL     1      17.687   4.548   0.453  1.00  0.00     0.039 A 
ENDROOT
BRANCH   2  11
ATOM     11  O   UNL     1      15.896   7.496  -1.054  1.00  0.00    -0.389 OA
ATOM     12  H   UNL     1      16.770   7.690  -1.485  1.00  0.00     0.211 HD
ENDBRANCH   2  11
BRANCH   3  13
ATOM     13  C   UNL     1      14.968   7.644   1.717  1.00  0.00    -0.001 A 
ATOM     14  C   UNL     1      15.080   8.898   2.341  1.00  0.00     0.057 A 
ATOM     15  C   UNL     1      13.695   7.077   1.544  1.00  0.00     0.012 A 
ATOM     16  C   UNL     1      13.935   9.587   2.768  1.00  0.00     0.157 A 
ATOM     17  C   UNL     1      12.553   7.762   1.968  1.00  0.00     0.050 A 
ATOM     18  C   UNL     1      12.666   9.014   2.577  1.00  0.00     0.157 A 
BRANCH  16  19
ATOM     19  O   UNL     1      14.054  10.834   3.381  1.00  0.00    -0.504 OA
ATOM     20  H   UNL     1      14.457  10.934   4.305  1.00  0.00     0.293 HD
ENDBRANCH  16  19
BRANCH  18  21
ATOM     21  O   UNL     1      11.508   9.674   2.989  1.00  0.00    -0.504 OA
ATOM     22  H   UNL     1      10.597   9.231   2.961  1.00  0.00     0.293 HD
ENDBRANCH  18  21
ENDBRANCH   3  13
BRANCH   9  23
ATOM     23  O   UNL     1      19.125   3.322  -1.125  1.00  0.00    -0.507 OA
ATOM     24  H   UNL     1      19.815   2.615  -1.341  1.00  0.00     0.293 HD
ENDBRANCH   9  23
BRANCH   7  25
ATOM     25  O   UNL     1      18.614   1.637   3.347  1.00  0.00    -0.508 OA
ATOM     26  H   UNL     1      18.064   0.789   3.428  1.00  0.00     0.293 HD
ENDBRANCH   7  25
TORSDOF 6
ENDMDL
MODEL 4
REMARK VINA RESULT:    -4.563     14.952     16.502
REMARK INTER + INTRA:          -5.860
REMARK INTER:                  -5.608
REMARK INTRA:                  -0.252
REMARK UNBOUND:                -0.363
REMARK SMILES Oc1cc(O)c2c(c1)O[C@H](c1ccc(O)c(O)c1)[C@@H](O)C2
REMARK SMILES IDX 21 1 19 2 10 3 9 4 7 5 8 6 2 7 3 8 4 9 6 10 20 11 11 13
REMARK SMILES IDX 18 14 12 15 16 16 13 17 14 18 17 19 15 21 5 23 1 25
REMARK H PARENT 20 12 17 20 15 22 5 24 1 26
REMARK Flexibility Score: inf
ROOT
ATOM      1  C   UNL     1       4.024  -4.445   2.511  1.00  0.00     0.079 C 
ATOM      2  C   UNL     1       5.550  -4.384   2.317  1.00  0.00     0.164 C 
ATOM      3  C   UNL     1       6.142  -5.807   2.280  1.00  0.00     0.232 C 
ATOM      4  O   UNL     1       5.785  -6.505   3.473  1.00  0.00    -0.482 OA
ATOM      5  C   UNL     1       4.528  -6.370   4.072  1.00  0.00     0.131 A 
ATOM      6  C   UNL     1       4.184  -7.223   5.124  1.00  0.00     0.093 A 
ATOM      7  C   UNL     1       2.929  -7.124   5.732  1.00  0.00     0.122 A 
ATOM      8  C   UNL     1       2.012  -6.172   5.280  1.00  0.00     0.092 A 
ATOM      9  C   UNL     1       2.339  -5.308   4.227  1.00  0.00     0.126 A 
ATOM     10  C   UNL     1       3.622  -5.376   3.637  1.00  0.00     0.039 A 
ENDROOT
BRANCH   2  11
ATOM     11  O   UNL     1       5.873  -3.663   1.152  1.00  0.00    -0.389 OA
ATOM     12  H   UNL     1       5.821  -4.292   0.385  1.00  0.00     0.211 HD
ENDBRANCH   2  11
BRANCH   3  13
ATOM     13  C   UNL     1       7.646  -5.770   2.143  1.00  0.00    -0.001 A 
ATOM     14  C   UNL     1       8.249  -5.853   0.876  1.00  0.00     0.057 A 
ATOM     15  C   UNL     1       8.459  -5.704   3.285  1.00  0.00     0.012 A 
ATOM     16  C   UNL     1       9.646  -5.848   0.749  1.00  0.00     0.157 A 
ATOM     17  C   UNL     1       9.851  -5.698   3.161  1.00  0.00     0.050 A 
ATOM     18  C   UNL     1      10.449  -5.768   1.900  1.00  0.00     0.157 A 
BRANCH  16  19
ATOM     19  O   UNL     1      10.236  -5.924  -0.511  1.00  0.00    -0.504 OA
ATOM     20  H   UNL     1      11.112  -6.414  -0.658  1.00  0.00     0.293 HD
ENDBRANCH  16  19
BRANCH  18  21
ATOM     21  O   UNL     1      11.840  -5.760   1.808  1.00  0.00    -0.504 OA
ATOM     22  H   UNL     1      12.358  -4.926   1.557  1.00  0.00     0.293 HD
ENDBRANCH  18  21
ENDBRANCH   3  13
BRANCH   9  23
ATOM     23  O   UNL     1       1.364  -4.409   3.791  1.00  0.00    -0.507 OA
ATOM     24  H   UNL     1       1.576  -3.565   3.275  1.00  0.00     0.293 HD
ENDBRANCH   9  23
BRANCH   7  25
ATOM     25  O   UNL     1       2.579  -7.969   6.783  1.00  0.00    -0.508 OA
ATOM     26  H   UNL     1       2.308  -8.932   6.619  1.00  0.00     0.293 HD
ENDBRANCH   7  25
TORSDOF 6
ENDMDL
MODEL 5
REMARK VINA RESULT:    -4.462     13.348     15.362
REMARK INTER + INTRA:          -5.739
REMARK INTER:                  -5.393
REMARK INTRA:                  -0.346
REMARK UNBOUND:                -0.363
REMARK SMILES Oc1cc(O)c2c(c1)O[C@H](c1ccc(O)c(O)c1)[C@@H](O)C2
REMARK SMILES IDX 21 1 19 2 10 3 9 4 7 5 8 6 2 7 3 8 4 9 6 10 20 11 11 13
REMARK SMILES IDX 18 14 12 15 16 16 13 17 14 18 17 19 15 21 5 23 1 25
REMARK H PARENT 20 12 17 20 15 22 5 24 1 26
REMARK Flexibility Score: inf
ROOT
ATOM      1  C   UNL     1       7.500  -8.184   3.618  1.00  0.00     0.079 C 
ATOM      2  C   UNL     1       8.828  -8.063   2.848  1.00  0.00     0.164 C 
ATOM      3  C   UNL     1       9.439  -6.663   3.054  1.00  0.00     0.232 C 
ATOM      4  O   UNL     1       8.499  -5.665   2.653  1.00  0.00    -0.482 OA
ATOM      5  C   UNL     1       7.127  -5.788   2.900  1.00  0.00     0.131 A 
ATOM      6  C   UNL     1       6.294  -4.694   2.652  1.00  0.00     0.093 A 
ATOM      7  C   UNL     1       4.922  -4.779   2.904  1.00  0.00     0.122 A 
ATOM      8  C   UNL     1       4.383  -5.962   3.415  1.00  0.00     0.092 A 
ATOM      9  C   UNL     1       5.201  -7.069   3.671  1.00  0.00     0.126 A 
ATOM     10  C   UNL     1       6.584  -7.002   3.378  1.00  0.00     0.039 A 
ENDROOT
BRANCH   2  11
ATOM     11  O   UNL     1       9.722  -9.076   3.239  1.00  0.00    -0.389 OA
ATOM     12  H   UNL     1       9.369  -9.484   4.073  1.00  0.00     0.211 HD
ENDBRANCH   2  11
BRANCH   3  13
ATOM     13  C   UNL     1      10.717  -6.502   2.265  1.00  0.00    -0.001 A 
ATOM     14  C   UNL     1      11.889  -6.040   2.890  1.00  0.00     0.057 A 
ATOM     15  C   UNL     1      10.736  -6.766   0.886  1.00  0.00     0.012 A 
ATOM     16  C   UNL     1      13.068  -5.864   2.152  1.00  0.00     0.157 A 
ATOM     17  C   UNL     1      11.910  -6.592   0.150  1.00  0.00     0.050 A 
ATOM     18  C   UNL     1      13.077  -6.144   0.775  1.00  0.00     0.157 A 
BRANCH  16  19
ATOM     19  O   UNL     1      14.228  -5.411   2.781  1.00  0.00    -0.504 OA
ATOM     20  H   UNL     1      14.682  -5.951   3.508  1.00  0.00     0.293 HD
ENDBRANCH  16  19
BRANCH  18  21
ATOM     21  O   UNL     1      14.234  -5.980   0.014  1.00  0.00    -0.504 OA
ATOM     22  H   UNL     1      14.582  -5.065  -0.248  1.00  0.00     0.293 HD
ENDBRANCH  18  21
ENDBRANCH   3  13
BRANCH   9  23
ATOM     23  O   UNL     1       4.611  -8.207   4.224  1.00  0.00    -0.507 OA
ATOM     24  H   UNL     1       3.695  -8.205   4.655  1.00  0.00     0.293 HD
ENDBRANCH   9  23
BRANCH   7  25
ATOM     25  O   UNL     1       4.085  -3.693   2.657  1.00  0.00    -0.508 OA
ATOM     26  H   UNL     1       3.080  -3.763   2.772  1.00  0.00     0.293 HD
ENDBRANCH   7  25
TORSDOF 6
ENDMDL
MODEL 6
REMARK VINA RESULT:    -4.454     14.535     16.487
REMARK INTER + INTRA:          -5.728
REMARK INTER:                  -5.718
REMARK INTRA:                  -0.011
REMARK UNBOUND:                -0.363
REMARK SMILES Oc1cc(O)c2c(c1)O[C@H](c1ccc(O)c(O)c1)[C@@H](O)C2
REMARK SMILES IDX 21 1 19 2 10 3 9 4 7 5 8 6 2 7 3 8 4 9 6 10 20 11 11 13
REMARK SMILES IDX 18 14 12 15 16 16 13 17 14 18 17 19 15 21 5 23 1 25
REMARK H PARENT 20 12 17 20 15 22 5 24 1 26
REMARK Flexibility Score: inf
ROOT
ATOM      1  C   UNL     1       8.980  -6.294   1.817  1.00  0.00     0.079 C 
ATOM      2  C   UNL     1       7.974  -6.631   2.933  1.00  0.00     0.164 C 
ATOM      3  C   UNL     1       6.535  -6.609   2.379  1.00  0.00     0.232 C 
ATOM      4  O   UNL     1       6.268  -5.338   1.787  1.00  0.00    -0.482 OA
ATOM      5  C   UNL     1       7.229  -4.639   1.048  1.00  0.00     0.131 A 
ATOM      6  C   UNL     1       6.843  -3.497   0.342  1.00  0.00     0.093 A 
ATOM      7  C   UNL     1       7.776  -2.787  -0.418  1.00  0.00     0.122 A 
ATOM      8  C   UNL     1       9.101  -3.227  -0.479  1.00  0.00     0.092 A 
ATOM      9  C   UNL     1       9.507  -4.369   0.221  1.00  0.00     0.126 A 
ATOM     10  C   UNL     1       8.576  -5.067   1.026  1.00  0.00     0.039 A 
ENDROOT
BRANCH   2  11
ATOM     11  O   UNL     1       8.280  -7.873   3.519  1.00  0.00    -0.389 OA
ATOM     12  H   UNL     1       7.424  -8.357   3.661  1.00  0.00     0.211 HD
ENDBRANCH   2  11
BRANCH   3  13
ATOM     13  C   UNL     1       5.525  -6.885   3.468  1.00  0.00    -0.001 A 
ATOM     14  C   UNL     1       4.759  -5.841   4.013  1.00  0.00     0.057 A 
ATOM     15  C   UNL     1       5.377  -8.183   3.982  1.00  0.00     0.012 A 
ATOM     16  C   UNL     1       3.842  -6.092   5.044  1.00  0.00     0.157 A 
ATOM     17  C   UNL     1       4.464  -8.436   5.009  1.00  0.00     0.050 A 
ATOM     18  C   UNL     1       3.694  -7.398   5.542  1.00  0.00     0.157 A 
BRANCH  16  19
ATOM     19  O   UNL     1       3.082  -5.051   5.576  1.00  0.00    -0.504 OA
ATOM     20  H   UNL     1       2.269  -5.230   6.154  1.00  0.00     0.293 HD
ENDBRANCH  16  19
BRANCH  18  21
ATOM     21  O   UNL     1       2.790  -7.682   6.565  1.00  0.00    -0.504 OA
ATOM     22  H   UNL     1       3.081  -7.767   7.532  1.00  0.00     0.293 HD
ENDBRANCH  18  21
ENDBRANCH   3  13
BRANCH   9  23
ATOM     23  O   UNL     1      10.833  -4.785   0.084  1.00  0.00    -0.507 OA
ATOM     24  H   UNL     1      11.532  -4.662   0.806  1.00  0.00     0.293 HD
ENDBRANCH   9  23
BRANCH   7  25
ATOM     25  O   UNL     1       7.399  -1.646  -1.122  1.00  0.00    -0.508 OA
ATOM     26  H   UNL     1       8.039  -0.871  -1.258  1.00  0.00     0.293 HD
ENDBRANCH   7  25
TORSDOF 6
ENDMDL
MODEL 7
REMARK VINA RESULT:    -4.435     13.769     16.447
REMARK INTER + INTRA:          -5.706
REMARK INTER:                  -5.348
REMARK INTRA:                  -0.358
REMARK UNBOUND:                -0.363
REMARK SMILES Oc1cc(O)c2c(c1)O[C@H](c1ccc(O)c(O)c1)[C@@H](O)C2
REMARK SMILES IDX 21 1 19 2 10 3 9 4 7 5 8 6 2 7 3 8 4 9 6 10 20 11 11 13
REMARK SMILES IDX 18 14 12 15 16 16 13 17 14 18 17 19 15 21 5 23 1 25
REMARK H PARENT 20 12 17 20 15 22 5 24 1 26
REMARK Flexibility Score: inf
ROOT
ATOM      1  C   UNL     1       9.363  -5.045   0.895  1.00  0.00     0.079 C 
ATOM      2  C   UNL     1       7.969  -5.517   1.349  1.00  0.00     0.164 C 
ATOM      3  C   UNL     1       7.928  -5.665   2.883  1.00  0.00     0.232 C 
ATOM      4  O   UNL     1       8.957  -6.561   3.306  1.00  0.00    -0.482 OA
ATOM      5  C   UNL     1      10.224  -6.578   2.713  1.00  0.00     0.131 A 
ATOM      6  C   UNL     1      11.236  -7.343   3.299  1.00  0.00     0.093 A 
ATOM      7  C   UNL     1      12.517  -7.368   2.740  1.00  0.00     0.122 A 
ATOM      8  C   UNL     1      12.788  -6.617   1.593  1.00  0.00     0.092 A 
ATOM      9  C   UNL     1      11.788  -5.845   0.991  1.00  0.00     0.126 A 
ATOM     10  C   UNL     1      10.479  -5.849   1.529  1.00  0.00     0.039 A 
ENDROOT
BRANCH   2  11
ATOM     11  O   UNL     1       6.973  -4.634   0.892  1.00  0.00    -0.389 OA
ATOM     12  H   UNL     1       6.686  -4.078   1.664  1.00  0.00     0.211 HD
ENDBRANCH   2  11
BRANCH   3  13
ATOM     13  C   UNL     1       6.586  -6.178   3.348  1.00  0.00    -0.001 A 
ATOM     14  C   UNL     1       5.703  -5.336   4.045  1.00  0.00     0.057 A 
ATOM     15  C   UNL     1       6.226  -7.518   3.131  1.00  0.00     0.012 A 
ATOM     16  C   UNL     1       4.468  -5.820   4.502  1.00  0.00     0.157 A 
ATOM     17  C   UNL     1       4.996  -8.001   3.584  1.00  0.00     0.050 A 
ATOM     18  C   UNL     1       4.114  -7.159   4.268  1.00  0.00     0.157 A 
BRANCH  16  19
ATOM     19  O   UNL     1       3.594  -4.976   5.188  1.00  0.00    -0.504 OA
ATOM     20  H   UNL     1       2.924  -5.338   5.856  1.00  0.00     0.293 HD
ENDBRANCH  16  19
BRANCH  18  21
ATOM     21  O   UNL     1       2.894  -7.670   4.707  1.00  0.00    -0.504 OA
ATOM     22  H   UNL     1       2.243  -7.117   5.253  1.00  0.00     0.293 HD
ENDBRANCH  18  21
ENDBRANCH   3  13
BRANCH   9  23
ATOM     23  O   UNL     1      12.132  -5.081  -0.125  1.00  0.00    -0.507 OA
ATOM     24  H   UNL     1      12.511  -4.145  -0.064  1.00  0.00     0.293 HD
ENDBRANCH   9  23
BRANCH   7  25
ATOM     25  O   UNL     1      13.530  -8.131   3.317  1.00  0.00    -0.508 OA
ATOM     26  H   UNL     1      14.368  -7.700   3.691  1.00  0.00     0.293 HD
ENDBRANCH   7  25
TORSDOF 6
ENDMDL
MODEL 8
REMARK VINA RESULT:    -4.348     13.227     16.015
REMARK INTER + INTRA:          -5.601
REMARK INTER:                  -5.494
REMARK INTRA:                  -0.108
REMARK UNBOUND:                -0.363
REMARK SMILES Oc1cc(O)c2c(c1)O[C@H](c1ccc(O)c(O)c1)[C@@H](O)C2
REMARK SMILES IDX 21 1 19 2 10 3 9 4 7 5 8 6 2 7 3 8 4 9 6 10 20 11 11 13
REMARK SMILES IDX 18 14 12 15 16 16 13 17 14 18 17 19 15 21 5 23 1 25
REMARK H PARENT 20 12 17 20 15 22 5 24 1 26
REMARK Flexibility Score: inf
ROOT
ATOM      1  C   UNL     1       7.215  -5.850   3.020  1.00  0.00     0.079 C 
ATOM      2  C   UNL     1       6.129  -4.784   3.256  1.00  0.00     0.164 C 
ATOM      3  C   UNL     1       5.576  -4.278   1.909  1.00  0.00     0.232 C 
ATOM      4  O   UNL     1       6.646  -3.778   1.107  1.00  0.00    -0.482 OA
ATOM      5  C   UNL     1       7.904  -4.391   1.072  1.00  0.00     0.131 A 
ATOM      6  C   UNL     1       8.840  -3.962   0.127  1.00  0.00     0.093 A 
ATOM      7  C   UNL     1      10.099  -4.565   0.057  1.00  0.00     0.122 A 
ATOM      8  C   UNL     1      10.419  -5.607   0.930  1.00  0.00     0.092 A 
ATOM      9  C   UNL     1       9.495  -6.051   1.883  1.00  0.00     0.126 A 
ATOM     10  C   UNL     1       8.235  -5.416   1.987  1.00  0.00     0.039 A 
ENDROOT
BRANCH   2  11
ATOM     11  O   UNL     1       5.103  -5.294   4.073  1.00  0.00    -0.389 OA
ATOM     12  H   UNL     1       5.347  -6.226   4.316  1.00  0.00     0.211 HD
ENDBRANCH   2  11
BRANCH   3  13
ATOM     13  C   UNL     1       4.544  -3.193   2.114  1.00  0.00    -0.001 A 
ATOM     14  C   UNL     1       3.216  -3.523   2.435  1.00  0.00     0.057 A 
ATOM     15  C   UNL     1       4.891  -1.845   1.935  1.00  0.00     0.012 A 
ATOM     16  C   UNL     1       2.252  -2.517   2.597  1.00  0.00     0.157 A 
ATOM     17  C   UNL     1       3.932  -0.842   2.097  1.00  0.00     0.050 A 
ATOM     18  C   UNL     1       2.615  -1.170   2.428  1.00  0.00     0.157 A 
BRANCH  16  19
ATOM     19  O   UNL     1       0.938  -2.851   2.922  1.00  0.00    -0.504 OA
ATOM     20  H   UNL     1       0.722  -3.662   3.490  1.00  0.00     0.293 HD
ENDBRANCH  16  19
BRANCH  18  21
ATOM     21  O   UNL     1       1.680  -0.146   2.584  1.00  0.00    -0.504 OA
ATOM     22  H   UNL     1       0.706  -0.334   2.791  1.00  0.00     0.293 HD
ENDBRANCH  18  21
ENDBRANCH   3  13
BRANCH   9  23
ATOM     23  O   UNL     1       9.857  -7.126   2.697  1.00  0.00    -0.507 OA
ATOM     24  H   UNL     1      10.036  -8.057   2.343  1.00  0.00     0.293 HD
ENDBRANCH   9  23
BRANCH   7  25
ATOM     25  O   UNL     1      11.038  -4.142  -0.881  1.00  0.00    -0.508 OA
ATOM     26  H   UNL     1      10.968  -3.234  -1.328  1.00  0.00     0.293 HD
ENDBRANCH   7  25
TORSDOF 6
ENDMDL
MODEL 9
REMARK VINA RESULT:    -4.290     16.163     18.847
REMARK INTER + INTRA:          -5.531
REMARK INTER:                  -5.532
REMARK INTRA:                   0.001
REMARK UNBOUND:                -0.363
REMARK SMILES Oc1cc(O)c2c(c1)O[C@H](c1ccc(O)c(O)c1)[C@@H](O)C2
REMARK SMILES IDX 21 1 19 2 10 3 9 4 7 5 8 6 2 7 3 8 4 9 6 10 20 11 11 13
REMARK SMILES IDX 18 14 12 15 16 16 13 17 14 18 17 19 15 21 5 23 1 25
REMARK H PARENT 20 12 17 20 15 22 5 24 1 26
REMARK Flexibility Score: inf
ROOT
ATOM      1  C   UNL     1      15.865  -6.068  13.136  1.00  0.00     0.079 C 
ATOM      2  C   UNL     1      16.362  -4.660  13.511  1.00  0.00     0.164 C 
ATOM      3  C   UNL     1      17.415  -4.747  14.634  1.00  0.00     0.232 C 
ATOM      4  O   UNL     1      16.863  -5.433  15.758  1.00  0.00    -0.482 OA
ATOM      5  C   UNL     1      16.012  -6.535  15.618  1.00  0.00     0.131 A 
ATOM      6  C   UNL     1      15.663  -7.270  16.753  1.00  0.00     0.093 A 
ATOM      7  C   UNL     1      14.828  -8.385  16.644  1.00  0.00     0.122 A 
ATOM      8  C   UNL     1      14.346  -8.771  15.390  1.00  0.00     0.092 A 
ATOM      9  C   UNL     1      14.684  -8.047  14.241  1.00  0.00     0.126 A 
ATOM     10  C   UNL     1      15.495  -6.893  14.352  1.00  0.00     0.039 A 
ENDROOT
BRANCH   2  11
ATOM     11  O   UNL     1      16.871  -3.996  12.380  1.00  0.00    -0.389 OA
ATOM     12  H   UNL     1      17.283  -3.147  12.690  1.00  0.00     0.211 HD
ENDBRANCH   2  11
BRANCH   3  13
ATOM     13  C   UNL     1      17.880  -3.373  15.056  1.00  0.00    -0.001 A 
ATOM     14  C   UNL     1      17.441  -2.811  16.267  1.00  0.00     0.057 A 
ATOM     15  C   UNL     1      18.717  -2.621  14.216  1.00  0.00     0.012 A 
ATOM     16  C   UNL     1      17.850  -1.523  16.645  1.00  0.00     0.157 A 
ATOM     17  C   UNL     1      19.125  -1.338  14.591  1.00  0.00     0.050 A 
ATOM     18  C   UNL     1      18.698  -0.785  15.801  1.00  0.00     0.157 A 
BRANCH  16  19
ATOM     19  O   UNL     1      17.415  -0.975  17.851  1.00  0.00    -0.504 OA
ATOM     20  H   UNL     1      16.949  -1.539  18.552  1.00  0.00     0.293 HD
ENDBRANCH  16  19
BRANCH  18  21
ATOM     21  O   UNL     1      19.123   0.496  16.149  1.00  0.00    -0.504 OA
ATOM     22  H   UNL     1      20.050   0.836  15.921  1.00  0.00     0.293 HD
ENDBRANCH  18  21
ENDBRANCH   3  13
BRANCH   9  23
ATOM     23  O   UNL     1      14.208  -8.508  13.012  1.00  0.00    -0.507 OA
ATOM     24  H   UNL     1      13.700  -7.927  12.358  1.00  0.00     0.293 HD
ENDBRANCH   9  23
BRANCH   7  25
ATOM     25  O   UNL     1      14.474  -9.122  17.772  1.00  0.00    -0.508 OA
ATOM     26  H   UNL     1      14.355  -8.680  18.677  1.00  0.00     0.293 HD
ENDBRANCH   7  25
TORSDOF 6
ENDMDL
