MODEL 1
REMARK VINA RESULT:    -4.118      0.000      0.000
REMARK INTER + INTRA:          -4.118
REMARK INTER:                  -4.118
REMARK INTRA:                   0.000
REMARK UNBOUND:                 0.000
REMARK SMILES CC(C)=C1CC[C@H](C)CC1=O
REMARK SMILES IDX 8 1 7 2 6 3 5 4 4 5 2 6 1 7 3 8 10 9 11 10 9 11
REMARK H PARENT
REMARK Flexibility Score: inf
ROOT
ATOM      1  C   UNL     1     134.439  52.711  26.542  1.00  0.00     0.008 C 
ATOM      2  C   UNL     1     134.905  52.622  25.084  1.00  0.00    -0.006 C 
ATOM      3  C   UNL     1     135.067  51.154  24.658  1.00  0.00     0.008 C 
ATOM      4  C   UNL     1     135.632  51.046  23.235  1.00  0.00     0.039 C 
ATOM      5  C   UNL     1     134.834  51.864  22.228  1.00  0.00    -0.006 C 
ATOM      6  C   UNL     1     134.710  51.463  20.928  1.00  0.00    -0.070 C 
ATOM      7  C   UNL     1     133.875  52.235  19.933  1.00  0.00     0.039 C 
ATOM      8  C   UNL     1     135.376  50.200  20.431  1.00  0.00     0.039 C 
ATOM      9  C   UNL     1     134.303  53.171  22.717  1.00  0.00     0.159 C 
ATOM     10  O   UNL     1     134.181  54.158  21.944  1.00  0.00    -0.295 OA
ATOM     11  C   UNL     1     133.907  53.330  24.157  1.00  0.00     0.084 C 
ENDROOT
TORSDOF 0
ENDMDL
MODEL 2
REMARK VINA RESULT:    -3.615      1.792      4.610
REMARK INTER + INTRA:          -3.615
REMARK INTER:                  -3.615
REMARK INTRA:                   0.000
REMARK UNBOUND:                 0.000
REMARK SMILES CC(C)=C1CC[C@H](C)CC1=O
REMARK SMILES IDX 8 1 7 2 6 3 5 4 4 5 2 6 1 7 3 8 10 9 11 10 9 11
REMARK H PARENT
REMARK Flexibility Score: inf
ROOT
ATOM      1  C   UNL     1     133.935  52.247  19.572  1.00  0.00     0.008 C 
ATOM      2  C   UNL     1     134.454  52.149  21.011  1.00  0.00    -0.006 C 
ATOM      3  C   UNL     1     133.880  53.286  21.872  1.00  0.00     0.008 C 
ATOM      4  C   UNL     1     134.469  53.264  23.289  1.00  0.00     0.039 C 
ATOM      5  C   UNL     1     134.335  51.901  23.955  1.00  0.00    -0.006 C 
ATOM      6  C   UNL     1     134.174  51.785  25.306  1.00  0.00    -0.070 C 
ATOM      7  C   UNL     1     133.984  50.442  25.972  1.00  0.00     0.039 C 
ATOM      8  C   UNL     1     134.142  53.004  26.199  1.00  0.00     0.039 C 
ATOM      9  C   UNL     1     134.506  50.716  23.063  1.00  0.00     0.159 C 
ATOM     10  O   UNL     1     135.005  49.641  23.492  1.00  0.00    -0.295 OA
ATOM     11  C   UNL     1     134.085  50.790  21.624  1.00  0.00     0.084 C 
ENDROOT
TORSDOF 0
ENDMDL
MODEL 3
REMARK VINA RESULT:    -3.607      1.114      4.033
REMARK INTER + INTRA:          -3.607
REMARK INTER:                  -3.607
REMARK INTRA:                   0.000
REMARK UNBOUND:                 0.000
REMARK SMILES CC(C)=C1CC[C@H](C)CC1=O
REMARK SMILES IDX 8 1 7 2 6 3 5 4 4 5 2 6 1 7 3 8 10 9 11 10 9 11
REMARK H PARENT
REMARK Flexibility Score: inf
ROOT
ATOM      1  C   UNL     1     134.152  52.120  19.258  1.00  0.00     0.008 C 
ATOM      2  C   UNL     1     133.931  51.912  20.761  1.00  0.00    -0.006 C 
ATOM      3  C   UNL     1     134.672  50.656  21.246  1.00  0.00     0.008 C 
ATOM      4  C   UNL     1     134.380  50.373  22.726  1.00  0.00     0.039 C 
ATOM      5  C   UNL     1     134.637  51.585  23.613  1.00  0.00    -0.006 C 
ATOM      6  C   UNL     1     135.065  51.442  24.902  1.00  0.00    -0.070 C 
ATOM      7  C   UNL     1     135.378  52.636  25.773  1.00  0.00     0.039 C 
ATOM      8  C   UNL     1     135.283  50.075  25.508  1.00  0.00     0.039 C 
ATOM      9  C   UNL     1     134.285  52.913  23.028  1.00  0.00     0.159 C 
ATOM     10  O   UNL     1     133.875  53.859  23.753  1.00  0.00    -0.295 OA
ATOM     11  C   UNL     1     134.408  53.140  21.549  1.00  0.00     0.084 C 
ENDROOT
TORSDOF 0
ENDMDL
MODEL 4
REMARK VINA RESULT:    -3.537      1.546      2.416
REMARK INTER + INTRA:          -3.537
REMARK INTER:                  -3.537
REMARK INTRA:                   0.000
REMARK UNBOUND:                 0.000
REMARK SMILES CC(C)=C1CC[C@H](C)CC1=O
REMARK SMILES IDX 8 1 7 2 6 3 5 4 4 5 2 6 1 7 3 8 10 9 11 10 9 11
REMARK H PARENT
REMARK Flexibility Score: inf
ROOT
ATOM      1  C   UNL     1     134.644  53.010  26.268  1.00  0.00     0.008 C 
ATOM      2  C   UNL     1     134.236  52.460  24.897  1.00  0.00    -0.006 C 
ATOM      3  C   UNL     1     134.437  53.524  23.806  1.00  0.00     0.008 C 
ATOM      4  C   UNL     1     133.938  53.027  22.443  1.00  0.00     0.039 C 
ATOM      5  C   UNL     1     134.533  51.677  22.061  1.00  0.00    -0.006 C 
ATOM      6  C   UNL     1     134.770  51.351  20.756  1.00  0.00    -0.070 C 
ATOM      7  C   UNL     1     135.411  50.038  20.369  1.00  0.00     0.039 C 
ATOM      8  C   UNL     1     134.434  52.307  19.635  1.00  0.00     0.039 C 
ATOM      9  C   UNL     1     134.728  50.706  23.178  1.00  0.00     0.159 C 
ATOM     10  O   UNL     1     134.622  49.465  22.992  1.00  0.00    -0.295 OA
ATOM     11  C   UNL     1     135.050  51.202  24.558  1.00  0.00     0.084 C 
ENDROOT
TORSDOF 0
ENDMDL
MODEL 5
REMARK VINA RESULT:    -3.324      2.057      4.901
REMARK INTER + INTRA:          -3.324
REMARK INTER:                  -3.324
REMARK INTRA:                   0.000
REMARK UNBOUND:                 0.000
REMARK SMILES CC(C)=C1CC[C@H](C)CC1=O
REMARK SMILES IDX 8 1 7 2 6 3 5 4 4 5 2 6 1 7 3 8 10 9 11 10 9 11
REMARK H PARENT
REMARK Flexibility Score: inf
ROOT
ATOM      1  C   UNL     1     134.251  51.426  20.767  1.00  0.00     0.008 C 
ATOM      2  C   UNL     1     134.911  51.525  22.147  1.00  0.00    -0.006 C 
ATOM      3  C   UNL     1     134.382  52.748  22.912  1.00  0.00     0.008 C 
ATOM      4  C   UNL     1     135.106  52.923  24.254  1.00  0.00     0.039 C 
ATOM      5  C   UNL     1     135.087  51.653  25.095  1.00  0.00    -0.006 C 
ATOM      6  C   UNL     1     135.063  51.707  26.460  1.00  0.00    -0.070 C 
ATOM      7  C   UNL     1     134.987  50.456  27.304  1.00  0.00     0.039 C 
ATOM      8  C   UNL     1     135.072  53.029  27.192  1.00  0.00     0.039 C 
ATOM      9  C   UNL     1     135.214  50.368  24.346  1.00  0.00     0.159 C 
ATOM     10  O   UNL     1     135.792  49.369  24.853  1.00  0.00    -0.295 OA
ATOM     11  C   UNL     1     134.653  50.248  22.959  1.00  0.00     0.084 C 
ENDROOT
TORSDOF 0
ENDMDL
MODEL 6
REMARK VINA RESULT:    -3.134      1.774      2.881
REMARK INTER + INTRA:          -3.134
REMARK INTER:                  -3.134
REMARK INTRA:                   0.000
REMARK UNBOUND:                 0.000
REMARK SMILES CC(C)=C1CC[C@H](C)CC1=O
REMARK SMILES IDX 8 1 7 2 6 3 5 4 4 5 2 6 1 7 3 8 10 9 11 10 9 11
REMARK H PARENT
REMARK Flexibility Score: inf
ROOT
ATOM      1  C   UNL     1     134.145  55.466  23.020  1.00  0.00     0.008 C 
ATOM      2  C   UNL     1     134.634  54.013  22.979  1.00  0.00    -0.006 C 
ATOM      3  C   UNL     1     134.053  53.215  24.157  1.00  0.00     0.008 C 
ATOM      4  C   UNL     1     134.611  51.786  24.192  1.00  0.00     0.039 C 
ATOM      5  C   UNL     1     134.450  51.065  22.860  1.00  0.00    -0.006 C 
ATOM      6  C   UNL     1     134.261  49.714  22.804  1.00  0.00    -0.070 C 
ATOM      7  C   UNL     1     134.043  48.995  21.493  1.00  0.00     0.039 C 
ATOM      8  C   UNL     1     134.221  48.875  24.061  1.00  0.00     0.039 C 
ATOM      9  C   UNL     1     134.628  51.901  21.636  1.00  0.00     0.159 C 
ATOM     10  O   UNL     1     135.108  51.416  20.576  1.00  0.00    -0.295 OA
ATOM     11  C   UNL     1     134.239  53.351  21.651  1.00  0.00     0.084 C 
ENDROOT
TORSDOF 0
ENDMDL
MODEL 7
REMARK VINA RESULT:    -3.043      1.682      4.357
REMARK INTER + INTRA:          -3.043
REMARK INTER:                  -3.043
REMARK INTRA:                   0.000
REMARK UNBOUND:                 0.000
REMARK SMILES CC(C)=C1CC[C@H](C)CC1=O
REMARK SMILES IDX 8 1 7 2 6 3 5 4 4 5 2 6 1 7 3 8 10 9 11 10 9 11
REMARK H PARENT
REMARK Flexibility Score: inf
ROOT
ATOM      1  C   UNL     1     134.595  52.282  20.907  1.00  0.00     0.008 C 
ATOM      2  C   UNL     1     134.314  51.868  22.356  1.00  0.00    -0.006 C 
ATOM      3  C   UNL     1     135.160  50.644  22.742  1.00  0.00     0.008 C 
ATOM      4  C   UNL     1     134.818  50.152  24.154  1.00  0.00     0.039 C 
ATOM      5  C   UNL     1     134.889  51.264  25.193  1.00  0.00    -0.006 C 
ATOM      6  C   UNL     1     135.257  51.007  26.483  1.00  0.00    -0.070 C 
ATOM      7  C   UNL     1     135.386  52.110  27.508  1.00  0.00     0.039 C 
ATOM      8  C   UNL     1     135.589  49.605  26.938  1.00  0.00     0.039 C 
ATOM      9  C   UNL     1     134.426  52.611  24.745  1.00  0.00     0.159 C 
ATOM     10  O   UNL     1     133.875  53.413  25.545  1.00  0.00    -0.295 OA
ATOM     11  C   UNL     1     134.608  53.031  23.314  1.00  0.00     0.084 C 
ENDROOT
TORSDOF 0
ENDMDL
MODEL 8
REMARK VINA RESULT:    -3.009      1.960      3.225
REMARK INTER + INTRA:          -3.009
REMARK INTER:                  -3.009
REMARK INTRA:                   0.000
REMARK UNBOUND:                 0.000
REMARK SMILES CC(C)=C1CC[C@H](C)CC1=O
REMARK SMILES IDX 8 1 7 2 6 3 5 4 4 5 2 6 1 7 3 8 10 9 11 10 9 11
REMARK H PARENT
REMARK Flexibility Score: inf
ROOT
ATOM      1  C   UNL     1     134.562  55.586  22.624  1.00  0.00     0.008 C 
ATOM      2  C   UNL     1     134.073  54.137  22.729  1.00  0.00    -0.006 C 
ATOM      3  C   UNL     1     134.445  53.348  21.464  1.00  0.00     0.008 C 
ATOM      4  C   UNL     1     133.875  51.924  21.506  1.00  0.00     0.039 C 
ATOM      5  C   UNL     1     134.246  51.186  22.787  1.00  0.00    -0.006 C 
ATOM      6  C   UNL     1     134.429  49.833  22.797  1.00  0.00    -0.070 C 
ATOM      7  C   UNL     1     134.852  49.097  24.048  1.00  0.00     0.039 C 
ATOM      8  C   UNL     1     134.254  49.008  21.542  1.00  0.00     0.039 C 
ATOM      9  C   UNL     1     134.279  52.009  24.032  1.00  0.00     0.159 C 
ATOM     10  O   UNL     1     133.975  51.515  25.151  1.00  0.00    -0.295 OA
ATOM     11  C   UNL     1     134.674  53.456  23.967  1.00  0.00     0.084 C 
ENDROOT
TORSDOF 0
ENDMDL
MODEL 9
REMARK VINA RESULT:    -2.569      1.760      2.936
REMARK INTER + INTRA:          -2.569
REMARK INTER:                  -2.569
REMARK INTRA:                   0.000
REMARK UNBOUND:                 0.000
REMARK SMILES CC(C)=C1CC[C@H](C)CC1=O
REMARK SMILES IDX 8 1 7 2 6 3 5 4 4 5 2 6 1 7 3 8 10 9 11 10 9 11
REMARK H PARENT
REMARK Flexibility Score: inf
ROOT
ATOM      1  C   UNL     1     136.050  49.365  26.151  1.00  0.00     0.008 C 
ATOM      2  C   UNL     1     135.140  50.186  25.231  1.00  0.00    -0.006 C 
ATOM      3  C   UNL     1     135.378  51.690  25.439  1.00  0.00     0.008 C 
ATOM      4  C   UNL     1     134.404  52.530  24.601  1.00  0.00     0.039 C 
ATOM      5  C   UNL     1     134.409  52.134  23.130  1.00  0.00    -0.006 C 
ATOM      6  C   UNL     1     134.175  53.054  22.148  1.00  0.00    -0.070 C 
ATOM      7  C   UNL     1     134.233  52.686  20.683  1.00  0.00     0.039 C 
ATOM      8  C   UNL     1     133.882  54.499  22.481  1.00  0.00     0.039 C 
ATOM      9  C   UNL     1     134.568  50.678  22.843  1.00  0.00     0.159 C 
ATOM     10  O   UNL     1     134.022  50.145  21.840  1.00  0.00    -0.295 OA
ATOM     11  C   UNL     1     135.385  49.815  23.761  1.00  0.00     0.084 C 
ENDROOT
TORSDOF 0
ENDMDL
