MODEL 1
REMARK VINA RESULT:    -4.144      0.000      0.000
REMARK INTER + INTRA:         -14.178
REMARK INTER:                  -9.473
REMARK INTRA:                  -4.705
REMARK UNBOUND:                -4.705
REMARK SMILES CCCCCCCCCCCCCCCCCCCCCCCC(=O)[O-]
REMARK SMILES IDX 13 1 14 2 15 3 16 4 17 5 18 6 19 7 20 8 21 9 22 10 23 11
REMARK SMILES IDX 24 12 25 13 26 14 12 15 11 16 10 17 9 18 8 19 7 20 6 21 5 22
REMARK SMILES IDX 4 23 3 24 2 25 1 26
REMARK H PARENT
REMARK Flexibility Score: inf
ROOT
ATOM      1  C   UNL     1      10.004 -18.169  25.782  1.00  0.00     0.000 C 
ENDROOT
BRANCH   1   2
ATOM      2  C   UNL     1       8.517 -18.492  25.574  1.00  0.00     0.000 C 
BRANCH   2   3
ATOM      3  C   UNL     1       8.301 -19.252  24.259  1.00  0.00     0.000 C 
BRANCH   3   4
ATOM      4  C   UNL     1       6.823 -19.631  24.074  1.00  0.00     0.000 C 
BRANCH   4   5
ATOM      5  C   UNL     1       6.562 -20.352  22.741  1.00  0.00     0.000 C 
BRANCH   5   6
ATOM      6  C   UNL     1       7.830 -20.471  21.877  1.00  0.00     0.000 C 
BRANCH   6   7
ATOM      7  C   UNL     1       7.887 -21.790  21.088  1.00  0.00     0.000 C 
BRANCH   7   8
ATOM      8  C   UNL     1       9.312 -22.353  20.972  1.00  0.00     0.000 C 
BRANCH   8   9
ATOM      9  C   UNL     1      10.344 -21.216  20.906  1.00  0.00     0.000 C 
BRANCH   9  10
ATOM     10  C   UNL     1      11.366 -21.270  22.057  1.00  0.00     0.006 C 
BRANCH  10  11
ATOM     11  C   UNL     1      11.667 -19.908  22.702  1.00  0.00     0.053 C 
BRANCH  11  12
ATOM     12  C   UNL     1      12.862 -19.246  22.087  1.00  0.00     0.041 C 
ATOM     13  O   UNL     1      13.086 -18.024  22.295  1.00  0.00    -0.550 OA
ATOM     14  O   UNL     1      13.754 -19.989  21.323  1.00  0.00    -0.550 OA
ENDBRANCH  11  12
ENDBRANCH  10  11
ENDBRANCH   9  10
ENDBRANCH   8   9
ENDBRANCH   7   8
ENDBRANCH   6   7
ENDBRANCH   5   6
ENDBRANCH   4   5
ENDBRANCH   3   4
ENDBRANCH   2   3
ENDBRANCH   1   2
BRANCH   1  15
ATOM     15  C   UNL     1      10.300 -16.662  25.721  1.00  0.00     0.000 C 
BRANCH  15  16
ATOM     16  C   UNL     1      10.722 -16.202  24.314  1.00  0.00     0.000 C 
BRANCH  16  17
ATOM     17  C   UNL     1      10.109 -14.847  23.914  1.00  0.00     0.000 C 
BRANCH  17  18
ATOM     18  C   UNL     1       8.662 -14.609  24.386  1.00  0.00    -0.000 C 
BRANCH  18  19
ATOM     19  C   UNL     1       7.641 -14.655  23.236  1.00  0.00    -0.000 C 
BRANCH  19  20
ATOM     20  C   UNL     1       6.913 -16.007  23.132  1.00  0.00    -0.000 C 
BRANCH  20  21
ATOM     21  C   UNL     1       7.147 -16.783  21.822  1.00  0.00    -0.000 C 
BRANCH  21  22
ATOM     22  C   UNL     1       8.389 -16.304  21.054  1.00  0.00    -0.000 C 
BRANCH  22  23
ATOM     23  C   UNL     1       9.512 -17.350  21.116  1.00  0.00    -0.000 C 
BRANCH  23  24
ATOM     24  C   UNL     1       9.847 -17.942  19.738  1.00  0.00    -0.000 C 
BRANCH  24  25
ATOM     25  C   UNL     1       8.711 -17.760  18.722  1.00  0.00    -0.003 C 
ATOM     26  C   UNL     1       7.973 -19.073  18.482  1.00  0.00     0.004 C 
ENDBRANCH  24  25
ENDBRANCH  23  24
ENDBRANCH  22  23
ENDBRANCH  21  22
ENDBRANCH  20  21
ENDBRANCH  19  20
ENDBRANCH  18  19
ENDBRANCH  17  18
ENDBRANCH  16  17
ENDBRANCH  15  16
ENDBRANCH   1  15
TORSDOF 22
ENDMDL
MODEL 2
REMARK VINA RESULT:    -4.050      1.243      4.852
REMARK INTER + INTRA:         -13.963
REMARK INTER:                  -9.406
REMARK INTRA:                  -4.557
REMARK UNBOUND:                -4.705
REMARK SMILES CCCCCCCCCCCCCCCCCCCCCCCC(=O)[O-]
REMARK SMILES IDX 13 1 14 2 15 3 16 4 17 5 18 6 19 7 20 8 21 9 22 10 23 11
REMARK SMILES IDX 24 12 25 13 26 14 12 15 11 16 10 17 9 18 8 19 7 20 6 21 5 22
REMARK SMILES IDX 4 23 3 24 2 25 1 26
REMARK H PARENT
REMARK Flexibility Score: inf
ROOT
ATOM      1  C   UNL     1       9.007 -20.884  21.588  1.00  0.00     0.000 C 
ENDROOT
BRANCH   1   2
ATOM      2  C   UNL     1       9.747 -21.320  20.314  1.00  0.00     0.000 C 
BRANCH   2   3
ATOM      3  C   UNL     1       8.862 -21.134  19.076  1.00  0.00     0.000 C 
BRANCH   3   4
ATOM      4  C   UNL     1       9.579 -20.299  18.003  1.00  0.00     0.000 C 
BRANCH   4   5
ATOM      5  C   UNL     1       9.884 -18.868  18.477  1.00  0.00     0.000 C 
BRANCH   5   6
ATOM      6  C   UNL     1       8.622 -17.991  18.556  1.00  0.00     0.000 C 
BRANCH   6   7
ATOM      7  C   UNL     1       8.565 -17.151  19.843  1.00  0.00     0.000 C 
BRANCH   7   8
ATOM      8  C   UNL     1       9.655 -17.538  20.855  1.00  0.00     0.000 C 
BRANCH   8   9
ATOM      9  C   UNL     1      10.799 -16.513  20.843  1.00  0.00     0.000 C 
BRANCH   9  10
ATOM     10  C   UNL     1      12.191 -17.170  20.904  1.00  0.00     0.006 C 
BRANCH  10  11
ATOM     11  C   UNL     1      12.187 -18.615  21.428  1.00  0.00     0.053 C 
BRANCH  11  12
ATOM     12  C   UNL     1      12.757 -18.715  22.810  1.00  0.00     0.041 C 
ATOM     13  O   UNL     1      13.625 -17.889  23.198  1.00  0.00    -0.550 OA
ATOM     14  O   UNL     1      12.298 -19.694  23.683  1.00  0.00    -0.550 OA
ENDBRANCH  11  12
ENDBRANCH  10  11
ENDBRANCH   9  10
ENDBRANCH   8   9
ENDBRANCH   7   8
ENDBRANCH   6   7
ENDBRANCH   5   6
ENDBRANCH   4   5
ENDBRANCH   3   4
ENDBRANCH   2   3
ENDBRANCH   1   2
BRANCH   1  15
ATOM     15  C   UNL     1       7.480 -21.001  21.458  1.00  0.00     0.000 C 
BRANCH  15  16
ATOM     16  C   UNL     1       6.755 -19.698  21.839  1.00  0.00     0.000 C 
BRANCH  16  17
ATOM     17  C   UNL     1       6.621 -19.507  23.361  1.00  0.00     0.000 C 
BRANCH  17  18
ATOM     18  C   UNL     1       7.559 -18.455  23.982  1.00  0.00    -0.000 C 
BRANCH  18  19
ATOM     19  C   UNL     1       6.877 -17.090  24.187  1.00  0.00    -0.000 C 
BRANCH  19  20
ATOM     20  C   UNL     1       7.038 -16.151  22.978  1.00  0.00    -0.000 C 
BRANCH  20  21
ATOM     21  C   UNL     1       7.579 -14.745  23.303  1.00  0.00    -0.000 C 
BRANCH  21  22
ATOM     22  C   UNL     1       8.581 -14.741  24.469  1.00  0.00    -0.000 C 
BRANCH  22  23
ATOM     23  C   UNL     1      10.019 -14.912  23.959  1.00  0.00    -0.000 C 
BRANCH  23  24
ATOM     24  C   UNL     1      10.712 -16.152  24.546  1.00  0.00    -0.000 C 
BRANCH  24  25
ATOM     25  C   UNL     1      10.192 -16.514  25.945  1.00  0.00    -0.003 C 
ATOM     26  C   UNL     1      10.474 -17.977  26.272  1.00  0.00     0.004 C 
ENDBRANCH  24  25
ENDBRANCH  23  24
ENDBRANCH  22  23
ENDBRANCH  21  22
ENDBRANCH  20  21
ENDBRANCH  19  20
ENDBRANCH  18  19
ENDBRANCH  17  18
ENDBRANCH  16  17
ENDBRANCH  15  16
ENDBRANCH   1  15
TORSDOF 22
ENDMDL
MODEL 3
REMARK VINA RESULT:    -3.997      1.955      5.185
REMARK INTER + INTRA:         -13.844
REMARK INTER:                  -9.101
REMARK INTRA:                  -4.743
REMARK UNBOUND:                -4.705
REMARK SMILES CCCCCCCCCCCCCCCCCCCCCCCC(=O)[O-]
REMARK SMILES IDX 13 1 14 2 15 3 16 4 17 5 18 6 19 7 20 8 21 9 22 10 23 11
REMARK SMILES IDX 24 12 25 13 26 14 12 15 11 16 10 17 9 18 8 19 7 20 6 21 5 22
REMARK SMILES IDX 4 23 3 24 2 25 1 26
REMARK H PARENT
REMARK Flexibility Score: inf
ROOT
ATOM      1  C   UNL     1       9.781 -19.597  20.350  1.00  0.00     0.000 C 
ENDROOT
BRANCH   1   2
ATOM      2  C   UNL     1      11.058 -20.366  20.722  1.00  0.00     0.000 C 
BRANCH   2   3
ATOM      3  C   UNL     1      11.254 -20.396  22.243  1.00  0.00     0.000 C 
BRANCH   3   4
ATOM      4  C   UNL     1      10.510 -19.235  22.921  1.00  0.00     0.000 C 
BRANCH   4   5
ATOM      5  C   UNL     1      11.149 -18.826  24.258  1.00  0.00     0.000 C 
BRANCH   5   6
ATOM      6  C   UNL     1      11.443 -17.317  24.335  1.00  0.00     0.000 C 
BRANCH   6   7
ATOM      7  C   UNL     1      11.920 -16.738  22.993  1.00  0.00     0.000 C 
BRANCH   7   8
ATOM      8  C   UNL     1      13.439 -16.863  22.798  1.00  0.00     0.000 C 
BRANCH   8   9
ATOM      9  C   UNL     1      13.762 -17.575  21.475  1.00  0.00     0.000 C 
BRANCH   9  10
ATOM     10  C   UNL     1      14.609 -18.846  21.672  1.00  0.00     0.006 C 
BRANCH  10  11
ATOM     11  C   UNL     1      14.748 -19.296  23.136  1.00  0.00     0.053 C 
BRANCH  11  12
ATOM     12  C   UNL     1      16.164 -19.627  23.492  1.00  0.00     0.041 C 
ATOM     13  O   UNL     1      17.116 -19.021  22.934  1.00  0.00    -0.550 OA
ATOM     14  O   UNL     1      16.432 -20.575  24.472  1.00  0.00    -0.550 OA
ENDBRANCH  11  12
ENDBRANCH  10  11
ENDBRANCH   9  10
ENDBRANCH   8   9
ENDBRANCH   7   8
ENDBRANCH   6   7
ENDBRANCH   5   6
ENDBRANCH   4   5
ENDBRANCH   3   4
ENDBRANCH   2   3
ENDBRANCH   1   2
BRANCH   1  15
ATOM     15  C   UNL     1       8.796 -20.443  19.528  1.00  0.00     0.000 C 
BRANCH  15  16
ATOM     16  C   UNL     1       8.317 -21.693  20.288  1.00  0.00     0.000 C 
BRANCH  16  17
ATOM     17  C   UNL     1       7.669 -21.360  21.645  1.00  0.00     0.000 C 
BRANCH  17  18
ATOM     18  C   UNL     1       6.427 -20.451  21.580  1.00  0.00    -0.000 C 
BRANCH  18  19
ATOM     19  C   UNL     1       6.239 -19.601  22.850  1.00  0.00    -0.000 C 
BRANCH  19  20
ATOM     20  C   UNL     1       7.100 -20.087  24.030  1.00  0.00    -0.000 C 
BRANCH  20  21
ATOM     21  C   UNL     1       7.268 -19.077  25.182  1.00  0.00    -0.000 C 
BRANCH  21  22
ATOM     22  C   UNL     1       6.662 -17.700  24.868  1.00  0.00    -0.000 C 
BRANCH  22  23
ATOM     23  C   UNL     1       7.761 -16.641  24.698  1.00  0.00    -0.000 C 
BRANCH  23  24
ATOM     24  C   UNL     1       7.589 -15.809  23.417  1.00  0.00    -0.000 C 
BRANCH  24  25
ATOM     25  C   UNL     1       8.346 -16.401  22.220  1.00  0.00    -0.003 C 
ATOM     26  C   UNL     1       7.396 -16.706  21.066  1.00  0.00     0.004 C 
ENDBRANCH  24  25
ENDBRANCH  23  24
ENDBRANCH  22  23
ENDBRANCH  21  22
ENDBRANCH  20  21
ENDBRANCH  19  20
ENDBRANCH  18  19
ENDBRANCH  17  18
ENDBRANCH  16  17
ENDBRANCH  15  16
ENDBRANCH   1  15
TORSDOF 22
ENDMDL
MODEL 4
REMARK VINA RESULT:    -3.979      2.103      4.254
REMARK INTER + INTRA:         -13.801
REMARK INTER:                  -9.346
REMARK INTRA:                  -4.454
REMARK UNBOUND:                -4.705
REMARK SMILES CCCCCCCCCCCCCCCCCCCCCCCC(=O)[O-]
REMARK SMILES IDX 13 1 14 2 15 3 16 4 17 5 18 6 19 7 20 8 21 9 22 10 23 11
REMARK SMILES IDX 24 12 25 13 26 14 12 15 11 16 10 17 9 18 8 19 7 20 6 21 5 22
REMARK SMILES IDX 4 23 3 24 2 25 1 26
REMARK H PARENT
REMARK Flexibility Score: inf
ROOT
ATOM      1  C   UNL     1      10.353 -18.171  24.764  1.00  0.00     0.000 C 
ENDROOT
BRANCH   1   2
ATOM      2  C   UNL     1      11.270 -16.956  24.969  1.00  0.00     0.000 C 
BRANCH   2   3
ATOM      3  C   UNL     1      10.782 -15.757  24.148  1.00  0.00     0.000 C 
BRANCH   3   4
ATOM      4  C   UNL     1      11.765 -15.426  23.013  1.00  0.00     0.000 C 
BRANCH   4   5
ATOM      5  C   UNL     1      13.202 -15.872  23.329  1.00  0.00     0.000 C 
BRANCH   5   6
ATOM      6  C   UNL     1      13.813 -16.731  22.208  1.00  0.00     0.000 C 
BRANCH   6   7
ATOM      7  C   UNL     1      12.749 -17.477  21.387  1.00  0.00     0.000 C 
BRANCH   7   8
ATOM      8  C   UNL     1      12.939 -19.001  21.412  1.00  0.00     0.000 C 
BRANCH   8   9
ATOM      9  C   UNL     1      13.010 -19.519  22.857  1.00  0.00     0.000 C 
BRANCH   9  10
ATOM     10  C   UNL     1      14.293 -20.321  23.142  1.00  0.00     0.006 C 
BRANCH  10  11
ATOM     11  C   UNL     1      15.268 -19.634  24.112  1.00  0.00     0.053 C 
BRANCH  11  12
ATOM     12  C   UNL     1      14.936 -19.923  25.544  1.00  0.00     0.041 C 
ATOM     13  O   UNL     1      15.609 -20.767  26.192  1.00  0.00    -0.550 OA
ATOM     14  O   UNL     1      13.912 -19.227  26.175  1.00  0.00    -0.550 OA
ENDBRANCH  11  12
ENDBRANCH  10  11
ENDBRANCH   9  10
ENDBRANCH   8   9
ENDBRANCH   7   8
ENDBRANCH   6   7
ENDBRANCH   5   6
ENDBRANCH   4   5
ENDBRANCH   3   4
ENDBRANCH   2   3
ENDBRANCH   1   2
BRANCH   1  15
ATOM     15  C   UNL     1       9.322 -18.336  25.892  1.00  0.00     0.000 C 
BRANCH  15  16
ATOM     16  C   UNL     1       7.964 -18.848  25.378  1.00  0.00     0.000 C 
BRANCH  16  17
ATOM     17  C   UNL     1       6.858 -17.778  25.431  1.00  0.00     0.000 C 
BRANCH  17  18
ATOM     18  C   UNL     1       6.369 -17.262  24.064  1.00  0.00    -0.000 C 
BRANCH  18  19
ATOM     19  C   UNL     1       7.191 -16.070  23.544  1.00  0.00    -0.000 C 
BRANCH  19  20
ATOM     20  C   UNL     1       6.999 -15.820  22.036  1.00  0.00    -0.000 C 
BRANCH  20  21
ATOM     21  C   UNL     1       7.505 -16.944  21.112  1.00  0.00    -0.000 C 
BRANCH  21  22
ATOM     22  C   UNL     1       8.960 -17.348  21.398  1.00  0.00    -0.000 C 
BRANCH  22  23
ATOM     23  C   UNL     1       9.244 -18.772  20.901  1.00  0.00    -0.000 C 
BRANCH  23  24
ATOM     24  C   UNL     1       8.972 -19.839  21.973  1.00  0.00    -0.000 C 
BRANCH  24  25
ATOM     25  C   UNL     1       7.828 -20.788  21.588  1.00  0.00    -0.003 C 
ATOM     26  C   UNL     1       6.518 -20.362  22.243  1.00  0.00     0.004 C 
ENDBRANCH  24  25
ENDBRANCH  23  24
ENDBRANCH  22  23
ENDBRANCH  21  22
ENDBRANCH  20  21
ENDBRANCH  19  20
ENDBRANCH  18  19
ENDBRANCH  17  18
ENDBRANCH  16  17
ENDBRANCH  15  16
ENDBRANCH   1  15
TORSDOF 22
ENDMDL
MODEL 5
REMARK VINA RESULT:    -3.961      1.698      4.449
REMARK INTER + INTRA:         -13.762
REMARK INTER:                  -9.458
REMARK INTRA:                  -4.304
REMARK UNBOUND:                -4.705
REMARK SMILES CCCCCCCCCCCCCCCCCCCCCCCC(=O)[O-]
REMARK SMILES IDX 13 1 14 2 15 3 16 4 17 5 18 6 19 7 20 8 21 9 22 10 23 11
REMARK SMILES IDX 24 12 25 13 26 14 12 15 11 16 10 17 9 18 8 19 7 20 6 21 5 22
REMARK SMILES IDX 4 23 3 24 2 25 1 26
REMARK H PARENT
REMARK Flexibility Score: inf
ROOT
ATOM      1  C   UNL     1       9.536 -17.335  25.623  1.00  0.00     0.000 C 
ENDROOT
BRANCH   1   2
ATOM      2  C   UNL     1       8.771 -16.006  25.540  1.00  0.00     0.000 C 
BRANCH   2   3
ATOM      3  C   UNL     1       9.320 -15.128  24.408  1.00  0.00     0.000 C 
BRANCH   3   4
ATOM      4  C   UNL     1       8.179 -14.459  23.624  1.00  0.00     0.000 C 
BRANCH   4   5
ATOM      5  C   UNL     1       7.058 -15.446  23.257  1.00  0.00     0.000 C 
BRANCH   5   6
ATOM      6  C   UNL     1       6.922 -15.645  21.737  1.00  0.00     0.000 C 
BRANCH   6   7
ATOM      7  C   UNL     1       7.578 -16.947  21.250  1.00  0.00     0.000 C 
BRANCH   7   8
ATOM      8  C   UNL     1       8.983 -16.725  20.670  1.00  0.00     0.000 C 
BRANCH   8   9
ATOM      9  C   UNL     1      10.041 -17.465  21.503  1.00  0.00     0.000 C 
BRANCH   9  10
ATOM     10  C   UNL     1      11.343 -16.659  21.668  1.00  0.00     0.006 C 
BRANCH  10  11
ATOM     11  C   UNL     1      12.207 -17.088  22.865  1.00  0.00     0.053 C 
BRANCH  11  12
ATOM     12  C   UNL     1      13.581 -16.494  22.809  1.00  0.00     0.041 C 
ATOM     13  O   UNL     1      14.561 -17.197  22.447  1.00  0.00    -0.550 OA
ATOM     14  O   UNL     1      13.772 -15.152  23.114  1.00  0.00    -0.550 OA
ENDBRANCH  11  12
ENDBRANCH  10  11
ENDBRANCH   9  10
ENDBRANCH   8   9
ENDBRANCH   7   8
ENDBRANCH   6   7
ENDBRANCH   5   6
ENDBRANCH   4   5
ENDBRANCH   3   4
ENDBRANCH   2   3
ENDBRANCH   1   2
BRANCH   1  15
ATOM     15  C   UNL     1       8.934 -18.425  24.721  1.00  0.00     0.000 C 
BRANCH  15  16
ATOM     16  C   UNL     1       7.416 -18.579  24.919  1.00  0.00     0.000 C 
BRANCH  16  17
ATOM     17  C   UNL     1       6.769 -19.531  23.896  1.00  0.00     0.000 C 
BRANCH  17  18
ATOM     18  C   UNL     1       7.735 -20.157  22.871  1.00  0.00    -0.000 C 
BRANCH  18  19
ATOM     19  C   UNL     1       7.040 -20.555  21.557  1.00  0.00    -0.000 C 
BRANCH  19  20
ATOM     20  C   UNL     1       7.585 -21.867  20.963  1.00  0.00    -0.000 C 
BRANCH  20  21
ATOM     21  C   UNL     1       8.840 -21.719  20.081  1.00  0.00    -0.000 C 
BRANCH  21  22
ATOM     22  C   UNL     1       8.568 -20.968  18.769  1.00  0.00    -0.000 C 
BRANCH  22  23
ATOM     23  C   UNL     1       9.568 -19.819  18.576  1.00  0.00    -0.000 C 
BRANCH  23  24
ATOM     24  C   UNL     1      10.969 -20.155  19.111  1.00  0.00    -0.000 C 
BRANCH  24  25
ATOM     25  C   UNL     1      12.022 -19.109  18.716  1.00  0.00    -0.003 C 
ATOM     26  C   UNL     1      11.963 -18.809  17.222  1.00  0.00     0.004 C 
ENDBRANCH  24  25
ENDBRANCH  23  24
ENDBRANCH  22  23
ENDBRANCH  21  22
ENDBRANCH  20  21
ENDBRANCH  19  20
ENDBRANCH  18  19
ENDBRANCH  17  18
ENDBRANCH  16  17
ENDBRANCH  15  16
ENDBRANCH   1  15
TORSDOF 22
ENDMDL
MODEL 6
REMARK VINA RESULT:    -3.954      1.805      5.399
REMARK INTER + INTRA:         -13.745
REMARK INTER:                  -9.493
REMARK INTRA:                  -4.252
REMARK UNBOUND:                -4.705
REMARK SMILES CCCCCCCCCCCCCCCCCCCCCCCC(=O)[O-]
REMARK SMILES IDX 13 1 14 2 15 3 16 4 17 5 18 6 19 7 20 8 21 9 22 10 23 11
REMARK SMILES IDX 24 12 25 13 26 14 12 15 11 16 10 17 9 18 8 19 7 20 6 21 5 22
REMARK SMILES IDX 4 23 3 24 2 25 1 26
REMARK H PARENT
REMARK Flexibility Score: inf
ROOT
ATOM      1  C   UNL     1       9.293 -18.494  25.163  1.00  0.00     0.000 C 
ENDROOT
BRANCH   1   2
ATOM      2  C   UNL     1      10.435 -17.828  25.948  1.00  0.00     0.000 C 
BRANCH   2   3
ATOM      3  C   UNL     1      10.389 -16.303  25.792  1.00  0.00     0.000 C 
BRANCH   3   4
ATOM      4  C   UNL     1      10.801 -15.880  24.373  1.00  0.00     0.000 C 
BRANCH   4   5
ATOM      5  C   UNL     1       9.837 -14.848  23.763  1.00  0.00     0.000 C 
BRANCH   5   6
ATOM      6  C   UNL     1       8.416 -14.953  24.344  1.00  0.00     0.000 C 
BRANCH   6   7
ATOM      7  C   UNL     1       7.345 -15.138  23.257  1.00  0.00     0.000 C 
BRANCH   7   8
ATOM      8  C   UNL     1       7.635 -16.330  22.331  1.00  0.00     0.000 C 
BRANCH   8   9
ATOM      9  C   UNL     1       7.294 -15.984  20.873  1.00  0.00     0.000 C 
BRANCH   9  10
ATOM     10  C   UNL     1       7.512 -17.167  19.912  1.00  0.00     0.006 C 
BRANCH  10  11
ATOM     11  C   UNL     1       8.969 -17.358  19.461  1.00  0.00     0.053 C 
BRANCH  11  12
ATOM     12  C   UNL     1       9.152 -18.613  18.663  1.00  0.00     0.041 C 
ATOM     13  O   UNL     1      10.304 -18.970  18.301  1.00  0.00    -0.550 OA
ATOM     14  O   UNL     1       8.055 -19.410  18.359  1.00  0.00    -0.550 OA
ENDBRANCH  11  12
ENDBRANCH  10  11
ENDBRANCH   9  10
ENDBRANCH   8   9
ENDBRANCH   7   8
ENDBRANCH   6   7
ENDBRANCH   5   6
ENDBRANCH   4   5
ENDBRANCH   3   4
ENDBRANCH   2   3
ENDBRANCH   1   2
BRANCH   1  15
ATOM     15  C   UNL     1       7.932 -18.359  25.864  1.00  0.00     0.000 C 
BRANCH  15  16
ATOM     16  C   UNL     1       6.751 -18.570  24.900  1.00  0.00     0.000 C 
BRANCH  16  17
ATOM     17  C   UNL     1       6.840 -19.896  24.122  1.00  0.00     0.000 C 
BRANCH  17  18
ATOM     18  C   UNL     1       6.006 -19.961  22.828  1.00  0.00    -0.000 C 
BRANCH  18  19
ATOM     19  C   UNL     1       6.860 -20.243  21.578  1.00  0.00    -0.000 C 
BRANCH  19  20
ATOM     20  C   UNL     1       8.353 -20.431  21.901  1.00  0.00    -0.000 C 
BRANCH  20  21
ATOM     21  C   UNL     1       9.080 -21.496  21.058  1.00  0.00    -0.000 C 
BRANCH  21  22
ATOM     22  C   UNL     1      10.611 -21.390  21.145  1.00  0.00    -0.000 C 
BRANCH  22  23
ATOM     23  C   UNL     1      11.040 -19.995  21.622  1.00  0.00    -0.000 C 
BRANCH  23  24
ATOM     24  C   UNL     1      11.886 -20.040  22.904  1.00  0.00    -0.000 C 
BRANCH  24  25
ATOM     25  C   UNL     1      12.670 -18.742  23.142  1.00  0.00    -0.003 C 
ATOM     26  C   UNL     1      14.015 -19.027  23.804  1.00  0.00     0.004 C 
ENDBRANCH  24  25
ENDBRANCH  23  24
ENDBRANCH  22  23
ENDBRANCH  21  22
ENDBRANCH  20  21
ENDBRANCH  19  20
ENDBRANCH  18  19
ENDBRANCH  17  18
ENDBRANCH  16  17
ENDBRANCH  15  16
ENDBRANCH   1  15
TORSDOF 22
ENDMDL
MODEL 7
REMARK VINA RESULT:    -3.941      2.464      5.458
REMARK INTER + INTRA:         -13.715
REMARK INTER:                  -9.520
REMARK INTRA:                  -4.195
REMARK UNBOUND:                -4.705
REMARK SMILES CCCCCCCCCCCCCCCCCCCCCCCC(=O)[O-]
REMARK SMILES IDX 13 1 14 2 15 3 16 4 17 5 18 6 19 7 20 8 21 9 22 10 23 11
REMARK SMILES IDX 24 12 25 13 26 14 12 15 11 16 10 17 9 18 8 19 7 20 6 21 5 22
REMARK SMILES IDX 4 23 3 24 2 25 1 26
REMARK H PARENT
REMARK Flexibility Score: inf
ROOT
ATOM      1  C   UNL     1       9.455 -17.621  22.155  1.00  0.00     0.000 C 
ENDROOT
BRANCH   1   2
ATOM      2  C   UNL     1      10.055 -17.963  23.527  1.00  0.00     0.000 C 
BRANCH   2   3
ATOM      3  C   UNL     1      10.737 -16.737  24.146  1.00  0.00     0.000 C 
BRANCH   3   4
ATOM      4  C   UNL     1      10.587 -15.503  23.241  1.00  0.00     0.000 C 
BRANCH   4   5
ATOM      5  C   UNL     1      11.943 -14.911  22.822  1.00  0.00     0.000 C 
BRANCH   5   6
ATOM      6  C   UNL     1      13.131 -15.777  23.278  1.00  0.00     0.000 C 
BRANCH   6   7
ATOM      7  C   UNL     1      13.844 -16.469  22.105  1.00  0.00     0.000 C 
BRANCH   7   8
ATOM      8  C   UNL     1      13.525 -17.969  22.015  1.00  0.00     0.000 C 
BRANCH   8   9
ATOM      9  C   UNL     1      14.344 -18.764  23.043  1.00  0.00     0.000 C 
BRANCH   9  10
ATOM     10  C   UNL     1      13.462 -19.487  24.079  1.00  0.00     0.006 C 
BRANCH  10  11
ATOM     11  C   UNL     1      13.458 -18.838  25.472  1.00  0.00     0.053 C 
BRANCH  11  12
ATOM     12  C   UNL     1      14.254 -19.629  26.464  1.00  0.00     0.041 C 
ATOM     13  O   UNL     1      13.914 -19.650  27.677  1.00  0.00    -0.550 OA
ATOM     14  O   UNL     1      15.344 -20.381  26.042  1.00  0.00    -0.550 OA
ENDBRANCH  11  12
ENDBRANCH  10  11
ENDBRANCH   9  10
ENDBRANCH   8   9
ENDBRANCH   7   8
ENDBRANCH   6   7
ENDBRANCH   5   6
ENDBRANCH   4   5
ENDBRANCH   3   4
ENDBRANCH   2   3
ENDBRANCH   1   2
BRANCH   1  15
ATOM     15  C   UNL     1       7.974 -18.016  22.038  1.00  0.00     0.000 C 
BRANCH  15  16
ATOM     16  C   UNL     1       7.587 -19.144  23.011  1.00  0.00     0.000 C 
BRANCH  16  17
ATOM     17  C   UNL     1       6.886 -20.325  22.314  1.00  0.00     0.000 C 
BRANCH  17  18
ATOM     18  C   UNL     1       7.527 -20.789  20.992  1.00  0.00    -0.000 C 
BRANCH  18  19
ATOM     19  C   UNL     1       7.881 -22.287  20.990  1.00  0.00    -0.000 C 
BRANCH  19  20
ATOM     20  C   UNL     1       9.386 -22.548  21.184  1.00  0.00    -0.000 C 
BRANCH  20  21
ATOM     21  C   UNL     1      10.240 -21.298  21.470  1.00  0.00    -0.000 C 
BRANCH  21  22
ATOM     22  C   UNL     1      11.750 -21.583  21.445  1.00  0.00    -0.000 C 
BRANCH  22  23
ATOM     23  C   UNL     1      12.397 -21.012  20.175  1.00  0.00    -0.000 C 
BRANCH  23  24
ATOM     24  C   UNL     1      11.577 -19.869  19.555  1.00  0.00    -0.000 C 
BRANCH  24  25
ATOM     25  C   UNL     1      11.199 -20.137  18.091  1.00  0.00    -0.003 C 
ATOM     26  C   UNL     1       9.726 -20.513  17.964  1.00  0.00     0.004 C 
ENDBRANCH  24  25
ENDBRANCH  23  24
ENDBRANCH  22  23
ENDBRANCH  21  22
ENDBRANCH  20  21
ENDBRANCH  19  20
ENDBRANCH  18  19
ENDBRANCH  17  18
ENDBRANCH  16  17
ENDBRANCH  15  16
ENDBRANCH   1  15
TORSDOF 22
ENDMDL
MODEL 8
REMARK VINA RESULT:    -3.936      1.810      5.254
REMARK INTER + INTRA:         -13.705
REMARK INTER:                  -9.507
REMARK INTRA:                  -4.197
REMARK UNBOUND:                -4.705
REMARK SMILES CCCCCCCCCCCCCCCCCCCCCCCC(=O)[O-]
REMARK SMILES IDX 13 1 14 2 15 3 16 4 17 5 18 6 19 7 20 8 21 9 22 10 23 11
REMARK SMILES IDX 24 12 25 13 26 14 12 15 11 16 10 17 9 18 8 19 7 20 6 21 5 22
REMARK SMILES IDX 4 23 3 24 2 25 1 26
REMARK H PARENT
REMARK Flexibility Score: inf
ROOT
ATOM      1  C   UNL     1      10.763 -21.102  20.836  1.00  0.00     0.000 C 
ENDROOT
BRANCH   1   2
ATOM      2  C   UNL     1      11.125 -20.512  22.207  1.00  0.00     0.000 C 
BRANCH   2   3
ATOM      3  C   UNL     1      10.755 -19.025  22.278  1.00  0.00     0.000 C 
BRANCH   3   4
ATOM      4  C   UNL     1      10.188 -18.660  23.659  1.00  0.00     0.000 C 
BRANCH   4   5
ATOM      5  C   UNL     1      11.189 -17.869  24.517  1.00  0.00     0.000 C 
BRANCH   5   6
ATOM      6  C   UNL     1      10.907 -16.356  24.508  1.00  0.00     0.000 C 
BRANCH   6   7
ATOM      7  C   UNL     1      11.709 -15.611  23.429  1.00  0.00     0.000 C 
BRANCH   7   8
ATOM      8  C   UNL     1      13.157 -16.112  23.310  1.00  0.00     0.000 C 
BRANCH   8   9
ATOM      9  C   UNL     1      13.471 -16.537  21.868  1.00  0.00     0.000 C 
BRANCH   9  10
ATOM     10  C   UNL     1      14.705 -17.453  21.770  1.00  0.00     0.006 C 
BRANCH  10  11
ATOM     11  C   UNL     1      14.449 -18.909  22.190  1.00  0.00     0.053 C 
BRANCH  11  12
ATOM     12  C   UNL     1      15.152 -19.258  23.466  1.00  0.00     0.041 C 
ATOM     13  O   UNL     1      16.406 -19.370  23.489  1.00  0.00    -0.550 OA
ATOM     14  O   UNL     1      14.425 -19.416  24.641  1.00  0.00    -0.550 OA
ENDBRANCH  11  12
ENDBRANCH  10  11
ENDBRANCH   9  10
ENDBRANCH   8   9
ENDBRANCH   7   8
ENDBRANCH   6   7
ENDBRANCH   5   6
ENDBRANCH   4   5
ENDBRANCH   3   4
ENDBRANCH   2   3
ENDBRANCH   1   2
BRANCH   1  15
ATOM     15  C   UNL     1       9.714 -22.221  20.927  1.00  0.00     0.000 C 
BRANCH  15  16
ATOM     16  C   UNL     1       8.348 -21.794  20.361  1.00  0.00     0.000 C 
BRANCH  16  17
ATOM     17  C   UNL     1       7.375 -21.297  21.446  1.00  0.00     0.000 C 
BRANCH  17  18
ATOM     18  C   UNL     1       7.165 -19.772  21.500  1.00  0.00    -0.000 C 
BRANCH  18  19
ATOM     19  C   UNL     1       7.405 -19.085  20.144  1.00  0.00    -0.000 C 
BRANCH  19  20
ATOM     20  C   UNL     1       8.145 -17.741  20.274  1.00  0.00    -0.000 C 
BRANCH  20  21
ATOM     21  C   UNL     1       7.325 -16.497  19.880  1.00  0.00    -0.000 C 
BRANCH  21  22
ATOM     22  C   UNL     1       6.990 -15.594  21.078  1.00  0.00    -0.000 C 
BRANCH  22  23
ATOM     23  C   UNL     1       7.975 -15.823  22.232  1.00  0.00    -0.000 C 
BRANCH  23  24
ATOM     24  C   UNL     1       7.286 -15.840  23.606  1.00  0.00    -0.000 C 
BRANCH  24  25
ATOM     25  C   UNL     1       6.418 -17.089  23.818  1.00  0.00    -0.003 C 
ATOM     26  C   UNL     1       6.840 -17.842  25.075  1.00  0.00     0.004 C 
ENDBRANCH  24  25
ENDBRANCH  23  24
ENDBRANCH  22  23
ENDBRANCH  21  22
ENDBRANCH  20  21
ENDBRANCH  19  20
ENDBRANCH  18  19
ENDBRANCH  17  18
ENDBRANCH  16  17
ENDBRANCH  15  16
ENDBRANCH   1  15
TORSDOF 22
ENDMDL
MODEL 9
REMARK VINA RESULT:    -3.902      2.416      5.974
REMARK INTER + INTRA:         -13.627
REMARK INTER:                  -8.708
REMARK INTRA:                  -4.918
REMARK UNBOUND:                -4.705
REMARK SMILES CCCCCCCCCCCCCCCCCCCCCCCC(=O)[O-]
REMARK SMILES IDX 13 1 14 2 15 3 16 4 17 5 18 6 19 7 20 8 21 9 22 10 23 11
REMARK SMILES IDX 24 12 25 13 26 14 12 15 11 16 10 17 9 18 8 19 7 20 6 21 5 22
REMARK SMILES IDX 4 23 3 24 2 25 1 26
REMARK H PARENT
REMARK Flexibility Score: inf
ROOT
ATOM      1  C   UNL     1       8.583 -20.075  22.107  1.00  0.00     0.000 C 
ENDROOT
BRANCH   1   2
ATOM      2  C   UNL     1       8.622 -18.557  21.875  1.00  0.00     0.000 C 
BRANCH   2   3
ATOM      3  C   UNL     1       7.285 -18.054  21.316  1.00  0.00     0.000 C 
BRANCH   3   4
ATOM      4  C   UNL     1       7.136 -16.538  21.518  1.00  0.00     0.000 C 
BRANCH   4   5
ATOM      5  C   UNL     1       8.359 -15.912  22.209  1.00  0.00     0.000 C 
BRANCH   5   6
ATOM      6  C   UNL     1       7.967 -14.967  23.359  1.00  0.00     0.000 C 
BRANCH   6   7
ATOM      7  C   UNL     1       9.134 -14.690  24.320  1.00  0.00     0.000 C 
BRANCH   7   8
ATOM      8  C   UNL     1      10.336 -15.617  24.081  1.00  0.00     0.000 C 
BRANCH   8   9
ATOM      9  C   UNL     1      10.531 -16.575  25.265  1.00  0.00     0.000 C 
BRANCH   9  10
ATOM     10  C   UNL     1       9.634 -17.824  25.177  1.00  0.00     0.006 C 
BRANCH  10  11
ATOM     11  C   UNL     1       8.335 -17.730  25.994  1.00  0.00     0.053 C 
BRANCH  11  12
ATOM     12  C   UNL     1       7.185 -18.396  25.303  1.00  0.00     0.041 C 
ATOM     13  O   UNL     1       6.305 -17.703  24.727  1.00  0.00    -0.550 OA
ATOM     14  O   UNL     1       7.109 -19.783  25.257  1.00  0.00    -0.550 OA
ENDBRANCH  11  12
ENDBRANCH  10  11
ENDBRANCH   9  10
ENDBRANCH   8   9
ENDBRANCH   7   8
ENDBRANCH   6   7
ENDBRANCH   5   6
ENDBRANCH   4   5
ENDBRANCH   3   4
ENDBRANCH   2   3
ENDBRANCH   1   2
BRANCH   1  15
ATOM     15  C   UNL     1       9.458 -20.852  21.110  1.00  0.00     0.000 C 
BRANCH  15  16
ATOM     16  C   UNL     1       8.644 -21.430  19.939  1.00  0.00     0.000 C 
BRANCH  16  17
ATOM     17  C   UNL     1       8.701 -20.551  18.675  1.00  0.00     0.000 C 
BRANCH  17  18
ATOM     18  C   UNL     1      10.097 -20.388  18.044  1.00  0.00    -0.000 C 
BRANCH  18  19
ATOM     19  C   UNL     1      10.481 -18.917  17.808  1.00  0.00    -0.000 C 
BRANCH  19  20
ATOM     20  C   UNL     1       9.392 -17.931  18.268  1.00  0.00    -0.000 C 
BRANCH  20  21
ATOM     21  C   UNL     1       9.910 -16.617  18.884  1.00  0.00    -0.000 C 
BRANCH  21  22
ATOM     22  C   UNL     1      11.397 -16.677  19.266  1.00  0.00    -0.000 C 
BRANCH  22  23
ATOM     23  C   UNL     1      11.572 -16.750  20.790  1.00  0.00    -0.000 C 
BRANCH  23  24
ATOM     24  C   UNL     1      12.106 -18.111  21.262  1.00  0.00    -0.000 C 
BRANCH  24  25
ATOM     25  C   UNL     1      12.844 -18.025  22.605  1.00  0.00    -0.003 C 
ATOM     26  C   UNL     1      13.870 -16.897  22.596  1.00  0.00     0.004 C 
ENDBRANCH  24  25
ENDBRANCH  23  24
ENDBRANCH  22  23
ENDBRANCH  21  22
ENDBRANCH  20  21
ENDBRANCH  19  20
ENDBRANCH  18  19
ENDBRANCH  17  18
ENDBRANCH  16  17
ENDBRANCH  15  16
ENDBRANCH   1  15
TORSDOF 22
ENDMDL
