MODEL 1
REMARK VINA RESULT:    -2.832      0.000      0.000
REMARK INTER + INTRA:          -4.940
REMARK INTER:                  -4.323
REMARK INTRA:                  -0.618
REMARK UNBOUND:                -0.618
REMARK SMILES CC1=CCC[C@@H](C)C(=O)C[C@@H](C(C)C)C(=O)C1
REMARK SMILES IDX 8 1 9 2 6 3 7 4 5 5 4 6 3 7 2 8 1 9 10 11 11 12 15 13 16 14
REMARK SMILES IDX 17 15 12 17 13 18 14 19
REMARK H PARENT
REMARK Flexibility Score: 70.00
ROOT
ATOM      1  C   UNL     1     -48.980   0.130  43.832  1.00  0.00     0.136 C 
ATOM      2  O   UNL     1     -49.025   0.116  42.609  1.00  0.00    -0.299 OA
ENDROOT
BRANCH   1   3
ATOM      3  C   UNL     1     -50.216  -0.284  44.612  1.00  0.00     0.053 C 
ATOM      4  C   UNL     1     -50.604  -1.726  44.266  1.00  0.00     0.016 C 
BRANCH   3   5
ATOM      5  C   UNL     1     -51.404   0.673  44.383  1.00  0.00     0.015 C 
BRANCH   5   6
ATOM      6  C   UNL     1     -51.015   2.141  44.631  1.00  0.00     0.028 C 
BRANCH   6   7
ATOM      7  C   UNL     1     -51.123   2.534  46.081  1.00  0.00    -0.028 C 
ATOM      8  C   UNL     1     -50.086   2.820  46.908  1.00  0.00    -0.070 CG0
ATOM      9  C   UNL     1     -50.416   3.088  48.357  1.00  0.00     0.039 C 
ATOM     10  G   UNL     1     -48.630   2.948  46.460  1.00  0.00     0.000 G0
ENDBRANCH   6   7
ENDBRANCH   5   6
ENDBRANCH   3   5
ENDBRANCH   1   3
BRANCH   1  11
ATOM     11  C   UNL     1     -47.723   0.624  44.511  1.00  0.00     0.087 C 
BRANCH  11  12
ATOM     12  C   UNL     1     -47.771   0.474  46.057  1.00  0.00     0.066 C 
BRANCH  12  13
ATOM     13  C   UNL     1     -47.741   1.802  46.812  1.00  0.00     0.140 C 
ATOM     14  O   UNL     1     -46.879   1.967  47.664  1.00  0.00    -0.299 OA
BRANCH  13  15
ATOM     15  C   UNL     1     -48.638   2.967  46.462  1.00  0.00     0.106 CG0
ATOM     16  G   UNL     1     -50.089   2.806  46.914  1.00  0.00     0.000 G0
ENDBRANCH  13  15
ENDBRANCH  12  13
BRANCH  12  17
ATOM     17  C   UNL     1     -46.721  -0.557  46.578  1.00  0.00    -0.006 C 
ATOM     18  C   UNL     1     -47.309  -1.915  46.999  1.00  0.00     0.008 C 
ATOM     19  C   UNL     1     -45.577  -0.764  45.572  1.00  0.00     0.008 C 
ENDBRANCH  12  17
ENDBRANCH  11  12
ENDBRANCH   1  11
TORSDOF 1
ENDMDL
MODEL 2
REMARK VINA RESULT:    -2.824     12.860     14.767
REMARK INTER + INTRA:          -4.927
REMARK INTER:                  -4.560
REMARK INTRA:                  -0.367
REMARK UNBOUND:                -0.618
REMARK SMILES CC1=CCC[C@@H](C)C(=O)C[C@@H](C(C)C)C(=O)C1
REMARK SMILES IDX 8 1 9 2 6 3 7 4 5 5 4 6 3 7 2 8 1 9 10 11 11 12 15 13 16 14
REMARK SMILES IDX 17 15 12 17 13 18 14 19
REMARK H PARENT
REMARK Flexibility Score: 70.00
ROOT
ATOM      1  C   UNL     1     -37.873  -6.234  49.196  1.00  0.00     0.136 C 
ATOM      2  O   UNL     1     -37.623  -6.773  50.265  1.00  0.00    -0.299 OA
ENDROOT
BRANCH   1   3
ATOM      3  C   UNL     1     -38.850  -6.909  48.248  1.00  0.00     0.053 C 
ATOM      4  C   UNL     1     -40.252  -6.941  48.865  1.00  0.00     0.016 C 
BRANCH   3   5
ATOM      5  C   UNL     1     -38.396  -8.328  47.848  1.00  0.00     0.015 C 
BRANCH   5   6
ATOM      6  C   UNL     1     -37.582  -8.324  46.542  1.00  0.00     0.028 C 
BRANCH   6   7
ATOM      7  C   UNL     1     -36.095  -8.318  46.783  1.00  0.00    -0.028 C 
ATOM      8  C   UNL     1     -35.221  -7.374  46.348  1.00  0.00    -0.070 CG0
ATOM      9  C   UNL     1     -33.755  -7.621  46.614  1.00  0.00     0.039 C 
ATOM     10  G   UNL     1     -35.626  -6.064  45.673  1.00  0.00     0.000 G0
ENDBRANCH   6   7
ENDBRANCH   5   6
ENDBRANCH   3   5
ENDBRANCH   1   3
BRANCH   1  11
ATOM     11  C   UNL     1     -37.150  -4.957  48.834  1.00  0.00     0.087 C 
BRANCH  11  12
ATOM     12  C   UNL     1     -37.180  -4.652  47.311  1.00  0.00     0.066 C 
BRANCH  12  13
ATOM     13  C   UNL     1     -35.847  -4.889  46.603  1.00  0.00     0.140 C 
ATOM     14  O   UNL     1     -34.903  -4.164  46.884  1.00  0.00    -0.299 OA
BRANCH  13  15
ATOM     15  C   UNL     1     -35.604  -6.057  45.675  1.00  0.00     0.106 CG0
ATOM     16  G   UNL     1     -35.220  -7.356  46.382  1.00  0.00     0.000 G0
ENDBRANCH  13  15
ENDBRANCH  12  13
BRANCH  12  17
ATOM     17  C   UNL     1     -37.804  -3.254  47.006  1.00  0.00    -0.006 C 
ATOM     18  C   UNL     1     -37.245  -2.102  47.858  1.00  0.00     0.008 C 
ATOM     19  C   UNL     1     -37.710  -2.902  45.512  1.00  0.00     0.008 C 
ENDBRANCH  12  17
ENDBRANCH  11  12
ENDBRANCH   1  11
TORSDOF 1
ENDMDL
MODEL 3
REMARK VINA RESULT:    -2.568     14.499     16.785
REMARK INTER + INTRA:          -4.537
REMARK INTER:                  -4.506
REMARK INTRA:                  -0.031
REMARK UNBOUND:                -0.618
REMARK SMILES CC1=CCC[C@@H](C)C(=O)C[C@@H](C(C)C)C(=O)C1
REMARK SMILES IDX 8 1 9 2 6 3 7 4 5 5 4 6 3 7 2 8 1 9 10 11 11 12 15 13 16 14
REMARK SMILES IDX 17 15 12 17 13 18 14 19
REMARK H PARENT
REMARK Flexibility Score: 70.00
ROOT
ATOM      1  C   UNL     1     -36.817  -6.035  48.673  1.00  0.00     0.136 C 
ATOM      2  O   UNL     1     -37.980  -5.842  48.999  1.00  0.00    -0.299 OA
ENDROOT
BRANCH   1   3
ATOM      3  C   UNL     1     -35.933  -4.836  48.376  1.00  0.00     0.053 C 
ATOM      4  C   UNL     1     -36.396  -3.621  49.187  1.00  0.00     0.016 C 
BRANCH   3   5
ATOM      5  C   UNL     1     -35.880  -4.502  46.871  1.00  0.00     0.015 C 
BRANCH   5   6
ATOM      6  C   UNL     1     -34.488  -4.772  46.272  1.00  0.00     0.028 C 
BRANCH   6   7
ATOM      7  C   UNL     1     -34.502  -5.869  45.240  1.00  0.00    -0.028 C 
ATOM      8  C   UNL     1     -33.875  -7.068  45.343  1.00  0.00    -0.070 CG0
ATOM      9  C   UNL     1     -33.934  -7.980  44.141  1.00  0.00     0.039 C 
ATOM     10  G   UNL     1     -33.176  -7.574  46.605  1.00  0.00     0.000 G0
ENDBRANCH   6   7
ENDBRANCH   5   6
ENDBRANCH   3   5
ENDBRANCH   1   3
BRANCH   1  11
ATOM     11  C   UNL     1     -36.330  -7.458  48.513  1.00  0.00     0.087 C 
BRANCH  11  12
ATOM     12  C   UNL     1     -34.798  -7.602  48.728  1.00  0.00     0.066 C 
BRANCH  12  13
ATOM     13  C   UNL     1     -34.073  -8.308  47.583  1.00  0.00     0.140 C 
ATOM     14  O   UNL     1     -34.322  -9.488  47.378  1.00  0.00    -0.299 OA
BRANCH  13  15
ATOM     15  C   UNL     1     -33.170  -7.586  46.611  1.00  0.00     0.106 CG0
ATOM     16  G   UNL     1     -33.871  -7.082  45.350  1.00  0.00     0.000 G0
ENDBRANCH  13  15
ENDBRANCH  12  13
BRANCH  12  17
ATOM     17  C   UNL     1     -34.456  -8.190  50.133  1.00  0.00    -0.006 C 
ATOM     18  C   UNL     1     -35.641  -8.852  50.857  1.00  0.00     0.008 C 
ATOM     19  C   UNL     1     -33.265  -9.160  50.070  1.00  0.00     0.008 C 
ENDBRANCH  12  17
ENDBRANCH  11  12
ENDBRANCH   1  11
TORSDOF 1
ENDMDL
MODEL 4
REMARK VINA RESULT:    -2.553     14.808     16.770
REMARK INTER + INTRA:          -4.514
REMARK INTER:                  -4.074
REMARK INTRA:                  -0.441
REMARK UNBOUND:                -0.618
REMARK SMILES CC1=CCC[C@@H](C)C(=O)C[C@@H](C(C)C)C(=O)C1
REMARK SMILES IDX 8 1 9 2 6 3 7 4 5 5 4 6 3 7 2 8 1 9 10 11 11 12 15 13 16 14
REMARK SMILES IDX 17 15 12 17 13 18 14 19
REMARK H PARENT
REMARK Flexibility Score: 70.00
ROOT
ATOM      1  C   UNL     1     -34.047  -8.595  49.748  1.00  0.00     0.136 C 
ATOM      2  O   UNL     1     -33.136  -8.723  50.555  1.00  0.00    -0.299 OA
ENDROOT
BRANCH   1   3
ATOM      3  C   UNL     1     -33.920  -9.268  48.392  1.00  0.00     0.053 C 
ATOM      4  C   UNL     1     -33.447 -10.716  48.560  1.00  0.00     0.016 C 
BRANCH   3   5
ATOM      5  C   UNL     1     -32.987  -8.496  47.436  1.00  0.00     0.015 C 
BRANCH   5   6
ATOM      6  C   UNL     1     -33.737  -7.981  46.194  1.00  0.00     0.028 C 
BRANCH   6   7
ATOM      7  C   UNL     1     -33.945  -6.489  46.218  1.00  0.00    -0.028 C 
ATOM      8  C   UNL     1     -35.129  -5.853  46.412  1.00  0.00    -0.070 CG0
ATOM      9  C   UNL     1     -35.127  -4.348  46.291  1.00  0.00     0.039 C 
ATOM     10  G   UNL     1     -36.432  -6.549  46.802  1.00  0.00     0.000 G0
ENDBRANCH   6   7
ENDBRANCH   5   6
ENDBRANCH   3   5
ENDBRANCH   1   3
BRANCH   1  11
ATOM     11  C   UNL     1     -35.224  -7.716  50.107  1.00  0.00     0.087 C 
BRANCH  11  12
ATOM     12  C   UNL     1     -36.419  -7.874  49.127  1.00  0.00     0.066 C 
BRANCH  12  13
ATOM     13  C   UNL     1     -36.712  -6.625  48.297  1.00  0.00     0.140 C 
ATOM     14  O   UNL     1     -37.066  -5.610  48.880  1.00  0.00    -0.299 OA
BRANCH  13  15
ATOM     15  C   UNL     1     -36.455  -6.546  46.810  1.00  0.00     0.106 CG0
ATOM     16  G   UNL     1     -35.149  -5.849  46.430  1.00  0.00     0.000 G0
ENDBRANCH  13  15
ENDBRANCH  12  13
BRANCH  12  17
ATOM     17  C   UNL     1     -37.683  -8.457  49.834  1.00  0.00    -0.006 C 
ATOM     18  C   UNL     1     -38.238  -9.743  49.199  1.00  0.00     0.008 C 
ATOM     19  C   UNL     1     -37.448  -8.669  51.339  1.00  0.00     0.008 C 
ENDBRANCH  12  17
ENDBRANCH  11  12
ENDBRANCH   1  11
TORSDOF 1
ENDMDL
MODEL 5
REMARK VINA RESULT:    -2.533     12.526     15.550
REMARK INTER + INTRA:          -4.484
REMARK INTER:                  -4.202
REMARK INTRA:                  -0.282
REMARK UNBOUND:                -0.618
REMARK SMILES CC1=CCC[C@@H](C)C(=O)C[C@@H](C(C)C)C(=O)C1
REMARK SMILES IDX 8 1 9 2 6 3 7 4 5 5 4 6 3 7 2 8 1 9 10 11 11 12 15 13 16 14
REMARK SMILES IDX 17 15 12 17 13 18 14 19
REMARK H PARENT
REMARK Flexibility Score: 70.00
ROOT
ATOM      1  C   UNL     1     -36.874  -7.734  46.792  1.00  0.00     0.136 C 
ATOM      2  O   UNL     1     -37.447  -8.798  46.602  1.00  0.00    -0.299 OA
ENDROOT
BRANCH   1   3
ATOM      3  C   UNL     1     -35.359  -7.692  46.688  1.00  0.00     0.053 C 
ATOM      4  C   UNL     1     -34.929  -7.652  45.217  1.00  0.00     0.016 C 
BRANCH   3   5
ATOM      5  C   UNL     1     -34.686  -8.869  47.424  1.00  0.00     0.015 C 
BRANCH   5   6
ATOM      6  C   UNL     1     -34.317  -8.504  48.873  1.00  0.00     0.028 C 
BRANCH   6   7
ATOM      7  C   UNL     1     -35.430  -8.794  49.846  1.00  0.00    -0.028 C 
ATOM      8  C   UNL     1     -36.119  -7.872  50.567  1.00  0.00    -0.070 CG0
ATOM      9  C   UNL     1     -37.125  -8.393  51.566  1.00  0.00     0.039 C 
ATOM     10  G   UNL     1     -35.988  -6.360  50.390  1.00  0.00     0.000 G0
ENDBRANCH   6   7
ENDBRANCH   5   6
ENDBRANCH   3   5
ENDBRANCH   1   3
BRANCH   1  11
ATOM     11  C   UNL     1     -37.691  -6.525  47.189  1.00  0.00     0.087 C 
BRANCH  11  12
ATOM     12  C   UNL     1     -36.890  -5.507  48.047  1.00  0.00     0.066 C 
BRANCH  12  13
ATOM     13  C   UNL     1     -37.049  -5.704  49.554  1.00  0.00     0.140 C 
ATOM     14  O   UNL     1     -38.125  -5.427  50.065  1.00  0.00    -0.299 OA
BRANCH  13  15
ATOM     15  C   UNL     1     -35.988  -6.348  50.416  1.00  0.00     0.106 CG0
ATOM     16  G   UNL     1     -36.130  -7.862  50.567  1.00  0.00     0.000 G0
ENDBRANCH  13  15
ENDBRANCH  12  13
BRANCH  12  17
ATOM     17  C   UNL     1     -37.130  -4.035  47.586  1.00  0.00    -0.006 C 
ATOM     18  C   UNL     1     -36.460  -3.663  46.252  1.00  0.00     0.008 C 
ATOM     19  C   UNL     1     -38.627  -3.689  47.542  1.00  0.00     0.008 C 
ENDBRANCH  12  17
ENDBRANCH  11  12
ENDBRANCH   1  11
TORSDOF 1
ENDMDL
MODEL 6
REMARK VINA RESULT:    -2.524     14.301     16.321
REMARK INTER + INTRA:          -4.470
REMARK INTER:                  -4.383
REMARK INTRA:                  -0.086
REMARK UNBOUND:                -0.618
REMARK SMILES CC1=CCC[C@@H](C)C(=O)C[C@@H](C(C)C)C(=O)C1
REMARK SMILES IDX 8 1 9 2 6 3 7 4 5 5 4 6 3 7 2 8 1 9 10 11 11 12 15 13 16 14
REMARK SMILES IDX 17 15 12 17 13 18 14 19
REMARK H PARENT
REMARK Flexibility Score: 70.00
ROOT
ATOM      1  C   UNL     1     -35.545  -6.464  46.231  1.00  0.00     0.136 C 
ATOM      2  O   UNL     1     -35.694  -6.980  45.132  1.00  0.00    -0.299 OA
ENDROOT
BRANCH   1   3
ATOM      3  C   UNL     1     -36.391  -5.254  46.590  1.00  0.00     0.053 C 
ATOM      4  C   UNL     1     -35.514  -4.000  46.677  1.00  0.00     0.016 C 
BRANCH   3   5
ATOM      5  C   UNL     1     -37.186  -5.458  47.896  1.00  0.00     0.015 C 
BRANCH   5   6
ATOM      6  C   UNL     1     -36.426  -4.919  49.121  1.00  0.00     0.028 C 
BRANCH   6   7
ATOM      7  C   UNL     1     -36.751  -5.673  50.384  1.00  0.00    -0.028 C 
ATOM      8  C   UNL     1     -36.170  -6.830  50.794  1.00  0.00    -0.070 CG0
ATOM      9  C   UNL     1     -36.725  -7.472  52.043  1.00  0.00     0.039 C 
ATOM     10  G   UNL     1     -34.966  -7.482  50.115  1.00  0.00     0.000 G0
ENDBRANCH   6   7
ENDBRANCH   5   6
ENDBRANCH   3   5
ENDBRANCH   1   3
BRANCH   1  11
ATOM     11  C   UNL     1     -34.479  -7.008  47.155  1.00  0.00     0.087 C 
BRANCH  11  12
ATOM     12  C   UNL     1     -34.779  -8.451  47.643  1.00  0.00     0.066 C 
BRANCH  12  13
ATOM     13  C   UNL     1     -35.303  -8.527  49.077  1.00  0.00     0.140 C 
ATOM     14  O   UNL     1     -35.929  -9.522  49.415  1.00  0.00    -0.299 OA
BRANCH  13  15
ATOM     15  C   UNL     1     -34.968  -7.497  50.130  1.00  0.00     0.106 CG0
ATOM     16  G   UNL     1     -36.184  -6.846  50.787  1.00  0.00     0.000 G0
ENDBRANCH  13  15
ENDBRANCH  12  13
BRANCH  12  17
ATOM     17  C   UNL     1     -33.588  -9.422  47.367  1.00  0.00    -0.006 C 
ATOM     18  C   UNL     1     -33.061  -9.397  45.923  1.00  0.00     0.008 C 
ATOM     19  C   UNL     1     -32.433  -9.202  48.357  1.00  0.00     0.008 C 
ENDBRANCH  12  17
ENDBRANCH  11  12
ENDBRANCH   1  11
TORSDOF 1
ENDMDL
MODEL 7
REMARK VINA RESULT:    -2.519     13.969     15.080
REMARK INTER + INTRA:          -4.462
REMARK INTER:                  -4.066
REMARK INTRA:                  -0.396
REMARK UNBOUND:                -0.618
REMARK SMILES CC1=CCC[C@@H](C)C(=O)C[C@@H](C(C)C)C(=O)C1
REMARK SMILES IDX 8 1 9 2 6 3 7 4 5 5 4 6 3 7 2 8 1 9 10 11 11 12 15 13 16 14
REMARK SMILES IDX 17 15 12 17 13 18 14 19
REMARK H PARENT
REMARK Flexibility Score: 70.00
ROOT
ATOM      1  C   UNL     1     -38.926  -8.012  48.462  1.00  0.00     0.136 C 
ATOM      2  O   UNL     1     -40.124  -7.814  48.612  1.00  0.00    -0.299 OA
ENDROOT
BRANCH   1   3
ATOM      3  C   UNL     1     -38.326  -9.298  49.004  1.00  0.00     0.053 C 
ATOM      4  C   UNL     1     -38.636 -10.466  48.062  1.00  0.00     0.016 C 
BRANCH   3   5
ATOM      5  C   UNL     1     -38.799  -9.610  50.438  1.00  0.00     0.015 C 
BRANCH   5   6
ATOM      6  C   UNL     1     -37.785  -9.134  51.494  1.00  0.00     0.028 C 
BRANCH   6   7
ATOM      7  C   UNL     1     -38.040  -7.721  51.949  1.00  0.00    -0.028 C 
ATOM      8  C   UNL     1     -37.239  -6.650  51.712  1.00  0.00    -0.070 CG0
ATOM      9  C   UNL     1     -37.633  -5.342  52.354  1.00  0.00     0.039 C 
ATOM     10  G   UNL     1     -36.014  -6.671  50.798  1.00  0.00     0.000 G0
ENDBRANCH   6   7
ENDBRANCH   5   6
ENDBRANCH   3   5
ENDBRANCH   1   3
BRANCH   1  11
ATOM     11  C   UNL     1     -38.084  -6.940  47.809  1.00  0.00     0.087 C 
BRANCH  11  12
ATOM     12  C   UNL     1     -36.587  -7.010  48.218  1.00  0.00     0.066 C 
BRANCH  12  13
ATOM     13  C   UNL     1     -36.225  -6.116  49.404  1.00  0.00     0.140 C 
ATOM     14  O   UNL     1     -36.228  -4.904  49.240  1.00  0.00    -0.299 OA
BRANCH  13  15
ATOM     15  C   UNL     1     -35.996  -6.651  50.798  1.00  0.00     0.106 CG0
ATOM     16  G   UNL     1     -37.240  -6.655  51.686  1.00  0.00     0.000 G0
ENDBRANCH  13  15
ENDBRANCH  12  13
BRANCH  12  17
ATOM     17  C   UNL     1     -35.636  -6.830  46.994  1.00  0.00    -0.006 C 
ATOM     18  C   UNL     1     -35.421  -8.102  46.156  1.00  0.00     0.008 C 
ATOM     19  C   UNL     1     -36.082  -5.669  46.091  1.00  0.00     0.008 C 
ENDBRANCH  12  17
ENDBRANCH  11  12
ENDBRANCH   1  11
TORSDOF 1
ENDMDL
MODEL 8
REMARK VINA RESULT:    -2.451      1.872      4.632
REMARK INTER + INTRA:          -4.359
REMARK INTER:                  -3.981
REMARK INTRA:                  -0.378
REMARK UNBOUND:                -0.618
REMARK SMILES CC1=CCC[C@@H](C)C(=O)C[C@@H](C(C)C)C(=O)C1
REMARK SMILES IDX 8 1 9 2 6 3 7 4 5 5 4 6 3 7 2 8 1 9 10 11 11 12 15 13 16 14
REMARK SMILES IDX 17 15 12 17 13 18 14 19
REMARK H PARENT
REMARK Flexibility Score: 70.00
ROOT
ATOM      1  C   UNL     1     -47.224   0.850  47.137  1.00  0.00     0.136 C 
ATOM      2  O   UNL     1     -46.934   1.261  48.253  1.00  0.00    -0.299 OA
ENDROOT
BRANCH   1   3
ATOM      3  C   UNL     1     -46.926  -0.600  46.794  1.00  0.00     0.053 C 
ATOM      4  C   UNL     1     -45.886  -0.677  45.671  1.00  0.00     0.016 C 
BRANCH   3   5
ATOM      5  C   UNL     1     -48.198  -1.388  46.418  1.00  0.00     0.015 C 
BRANCH   5   6
ATOM      6  C   UNL     1     -48.207  -1.787  44.931  1.00  0.00     0.028 C 
BRANCH   6   7
ATOM      7  C   UNL     1     -49.585  -1.738  44.325  1.00  0.00    -0.028 C 
ATOM      8  C   UNL     1     -50.246  -0.617  43.937  1.00  0.00    -0.070 CG0
ATOM      9  C   UNL     1     -51.665  -0.789  43.451  1.00  0.00     0.039 C 
ATOM     10  G   UNL     1     -49.631   0.782  43.901  1.00  0.00     0.000 G0
ENDBRANCH   6   7
ENDBRANCH   5   6
ENDBRANCH   3   5
ENDBRANCH   1   3
BRANCH   1  11
ATOM     11  C   UNL     1     -47.799   1.817  46.129  1.00  0.00     0.087 C 
BRANCH  11  12
ATOM     12  C   UNL     1     -49.337   1.990  46.263  1.00  0.00     0.066 C 
BRANCH  12  13
ATOM     13  C   UNL     1     -50.108   1.725  44.970  1.00  0.00     0.140 C 
ATOM     14  O   UNL     1     -51.111   2.388  44.745  1.00  0.00    -0.299 OA
BRANCH  13  15
ATOM     15  C   UNL     1     -49.616   0.780  43.898  1.00  0.00     0.106 CG0
ATOM     16  G   UNL     1     -50.260  -0.605  43.932  1.00  0.00     0.000 G0
ENDBRANCH  13  15
ENDBRANCH  12  13
BRANCH  12  17
ATOM     17  C   UNL     1     -49.718   3.342  46.943  1.00  0.00    -0.006 C 
ATOM     18  C   UNL     1     -50.105   3.227  48.427  1.00  0.00     0.008 C 
ATOM     19  C   UNL     1     -48.617   4.400  46.764  1.00  0.00     0.008 C 
ENDBRANCH  12  17
ENDBRANCH  11  12
ENDBRANCH   1  11
TORSDOF 1
ENDMDL
MODEL 9
REMARK VINA RESULT:    -2.415     12.744     14.396
REMARK INTER + INTRA:          -4.304
REMARK INTER:                  -4.076
REMARK INTRA:                  -0.227
REMARK UNBOUND:                -0.618
REMARK SMILES CC1=CCC[C@@H](C)C(=O)C[C@@H](C(C)C)C(=O)C1
REMARK SMILES IDX 8 1 9 2 6 3 7 4 5 5 4 6 3 7 2 8 1 9 10 11 11 12 15 13 16 14
REMARK SMILES IDX 17 15 12 17 13 18 14 19
REMARK H PARENT
REMARK Flexibility Score: 70.00
ROOT
ATOM      1  C   UNL     1     -35.675  -7.225  47.265  1.00  0.00     0.136 C 
ATOM      2  O   UNL     1     -35.436  -8.422  47.182  1.00  0.00    -0.299 OA
ENDROOT
BRANCH   1   3
ATOM      3  C   UNL     1     -35.870  -6.429  45.986  1.00  0.00     0.053 C 
ATOM      4  C   UNL     1     -34.902  -6.919  44.904  1.00  0.00     0.016 C 
BRANCH   3   5
ATOM      5  C   UNL     1     -35.719  -4.910  46.209  1.00  0.00     0.015 C 
BRANCH   5   6
ATOM      6  C   UNL     1     -37.083  -4.216  46.379  1.00  0.00     0.028 C 
BRANCH   6   7
ATOM      7  C   UNL     1     -37.102  -3.248  47.532  1.00  0.00    -0.028 C 
ATOM      8  C   UNL     1     -37.776  -3.413  48.700  1.00  0.00    -0.070 CG0
ATOM      9  C   UNL     1     -37.742  -2.264  49.680  1.00  0.00     0.039 C 
ATOM     10  G   UNL     1     -38.503  -4.694  49.106  1.00  0.00     0.000 G0
ENDBRANCH   6   7
ENDBRANCH   5   6
ENDBRANCH   3   5
ENDBRANCH   1   3
BRANCH   1  11
ATOM     11  C   UNL     1     -35.698  -6.577  48.631  1.00  0.00     0.087 C 
BRANCH  11  12
ATOM     12  C   UNL     1     -37.001  -6.875  49.423  1.00  0.00     0.066 C 
BRANCH  12  13
ATOM     13  C   UNL     1     -37.690  -5.629  49.979  1.00  0.00     0.140 C 
ATOM     14  O   UNL     1     -37.475  -5.318  51.142  1.00  0.00    -0.299 OA
BRANCH  13  15
ATOM     15  C   UNL     1     -38.511  -4.693  49.124  1.00  0.00     0.106 CG0
ATOM     16  G   UNL     1     -37.787  -3.411  48.714  1.00  0.00     0.000 G0
ENDBRANCH  13  15
ENDBRANCH  12  13
BRANCH  12  17
ATOM     17  C   UNL     1     -36.795  -7.996  50.489  1.00  0.00    -0.006 C 
ATOM     18  C   UNL     1     -37.543  -9.308  50.194  1.00  0.00     0.008 C 
ATOM     19  C   UNL     1     -35.304  -8.280  50.737  1.00  0.00     0.008 C 
ENDBRANCH  12  17
ENDBRANCH  11  12
ENDBRANCH   1  11
TORSDOF 1
ENDMDL
