MODEL 1
REMARK VINA RESULT:    -5.775      0.000      0.000
REMARK INTER + INTRA:          -5.944
REMARK INTER:                  -5.944
REMARK INTRA:                   0.000
REMARK UNBOUND:                 0.000
REMARK SMILES O=c1ccc2ccc(O)cc2o1
REMARK SMILES IDX 6 1 7 2 8 3 10 4 11 5 5 6 4 7 3 8 2 9 1 10 12 11 9 12
REMARK H PARENT 9 13
REMARK Flexibility Score: inf
ROOT
ATOM      1  C   UNL     1     -29.496  -4.992  -0.220  1.00  0.00     0.016 A 
ATOM      2  C   UNL     1     -29.042  -4.444  -1.425  1.00  0.00     0.047 A 
ATOM      3  C   UNL     1     -28.372  -5.247  -2.361  1.00  0.00     0.119 A 
ATOM      4  C   UNL     1     -28.157  -6.603  -2.088  1.00  0.00     0.094 A 
ATOM      5  C   UNL     1     -28.607  -7.160  -0.886  1.00  0.00     0.142 A 
ATOM      6  C   UNL     1     -29.281  -6.350   0.055  1.00  0.00     0.018 A 
ATOM      7  C   UNL     1     -29.719  -6.934   1.247  1.00  0.00     0.019 A 
ATOM      8  C   UNL     1     -29.480  -8.289   1.472  1.00  0.00     0.094 A 
ATOM      9  C   UNL     1     -28.806  -9.031   0.495  1.00  0.00     0.336 A 
ATOM     10  O   UNL     1     -28.581 -10.255   0.681  1.00  0.00    -0.246 OA
ATOM     11  O   UNL     1     -28.400  -8.450  -0.632  1.00  0.00    -0.423 OA
ENDROOT
BRANCH   3  12
ATOM     12  O   UNL     1     -27.918  -4.707  -3.562  1.00  0.00    -0.508 OA
ATOM     13  H   UNL     1     -28.039  -3.725  -3.779  1.00  0.00     0.293 HD
ENDBRANCH   3  12
TORSDOF 1
ENDMDL
MODEL 2
REMARK VINA RESULT:    -5.711      0.795      4.224
REMARK INTER + INTRA:          -5.878
REMARK INTER:                  -5.878
REMARK INTRA:                   0.000
REMARK UNBOUND:                 0.000
REMARK SMILES O=c1ccc2ccc(O)cc2o1
REMARK SMILES IDX 6 1 7 2 8 3 10 4 11 5 5 6 4 7 3 8 2 9 1 10 12 11 9 12
REMARK H PARENT 9 13
REMARK Flexibility Score: inf
ROOT
ATOM      1  C   UNL     1     -29.703  -7.194   1.285  1.00  0.00     0.016 A 
ATOM      2  C   UNL     1     -29.485  -8.565   1.459  1.00  0.00     0.047 A 
ATOM      3  C   UNL     1     -28.771  -9.296   0.498  1.00  0.00     0.119 A 
ATOM      4  C   UNL     1     -28.275  -8.651  -0.642  1.00  0.00     0.094 A 
ATOM      5  C   UNL     1     -28.489  -7.281  -0.825  1.00  0.00     0.142 A 
ATOM      6  C   UNL     1     -29.207  -6.546   0.144  1.00  0.00     0.018 A 
ATOM      7  C   UNL     1     -29.406  -5.179  -0.066  1.00  0.00     0.019 A 
ATOM      8  C   UNL     1     -28.892  -4.583  -1.218  1.00  0.00     0.094 A 
ATOM      9  C   UNL     1     -28.190  -5.373  -2.135  1.00  0.00     0.336 A 
ATOM     10  O   UNL     1     -27.719  -4.853  -3.180  1.00  0.00    -0.246 OA
ATOM     11  O   UNL     1     -28.015  -6.673  -1.910  1.00  0.00    -0.423 OA
ENDROOT
BRANCH   3  12
ATOM     12  O   UNL     1     -28.549 -10.661   0.666  1.00  0.00    -0.508 OA
ATOM     13  H   UNL     1     -27.632 -11.024   0.895  1.00  0.00     0.293 HD
ENDBRANCH   3  12
TORSDOF 1
ENDMDL
MODEL 3
REMARK VINA RESULT:    -5.604      1.505      2.254
REMARK INTER + INTRA:          -5.767
REMARK INTER:                  -5.767
REMARK INTRA:                   0.000
REMARK UNBOUND:                 0.000
REMARK SMILES O=c1ccc2ccc(O)cc2o1
REMARK SMILES IDX 6 1 7 2 8 3 10 4 11 5 5 6 4 7 3 8 2 9 1 10 12 11 9 12
REMARK H PARENT 9 13
REMARK Flexibility Score: inf
ROOT
ATOM      1  C   UNL     1     -28.245  -6.209  -2.164  1.00  0.00     0.016 A 
ATOM      2  C   UNL     1     -28.580  -4.859  -2.316  1.00  0.00     0.047 A 
ATOM      3  C   UNL     1     -29.310  -4.193  -1.320  1.00  0.00     0.119 A 
ATOM      4  C   UNL     1     -29.706  -4.883  -0.168  1.00  0.00     0.094 A 
ATOM      5  C   UNL     1     -29.377  -6.233  -0.007  1.00  0.00     0.142 A 
ATOM      6  C   UNL     1     -28.641  -6.901  -1.011  1.00  0.00     0.018 A 
ATOM      7  C   UNL     1     -28.326  -8.250  -0.823  1.00  0.00     0.019 A 
ATOM      8  C   UNL     1     -28.744  -8.893   0.342  1.00  0.00     0.094 A 
ATOM      9  C   UNL     1     -29.470  -8.168   1.295  1.00  0.00     0.336 A 
ATOM     10  O   UNL     1     -29.855  -8.732   2.352  1.00  0.00    -0.246 OA
ATOM     11  O   UNL     1     -29.755  -6.884   1.090  1.00  0.00    -0.423 OA
ENDROOT
BRANCH   3  12
ATOM     12  O   UNL     1     -29.646  -2.849  -1.465  1.00  0.00    -0.508 OA
ATOM     13  H   UNL     1     -30.293  -2.394  -0.832  1.00  0.00     0.293 HD
ENDBRANCH   3  12
TORSDOF 1
ENDMDL
MODEL 4
REMARK VINA RESULT:    -5.461     11.708     12.891
REMARK INTER + INTRA:          -5.620
REMARK INTER:                  -5.620
REMARK INTRA:                   0.000
REMARK UNBOUND:                 0.000
REMARK SMILES O=c1ccc2ccc(O)cc2o1
REMARK SMILES IDX 6 1 7 2 8 3 10 4 11 5 5 6 4 7 3 8 2 9 1 10 12 11 9 12
REMARK H PARENT 9 13
REMARK Flexibility Score: inf
ROOT
ATOM      1  C   UNL     1     -33.893 -15.366   4.057  1.00  0.00     0.016 A 
ATOM      2  C   UNL     1     -33.314 -16.114   5.087  1.00  0.00     0.047 A 
ATOM      3  C   UNL     1     -34.079 -16.502   6.198  1.00  0.00     0.119 A 
ATOM      4  C   UNL     1     -35.428 -16.137   6.276  1.00  0.00     0.094 A 
ATOM      5  C   UNL     1     -36.016 -15.388   5.251  1.00  0.00     0.142 A 
ATOM      6  C   UNL     1     -35.244 -14.999   4.133  1.00  0.00     0.018 A 
ATOM      7  C   UNL     1     -35.859 -14.251   3.125  1.00  0.00     0.019 A 
ATOM      8  C   UNL     1     -37.206 -13.913   3.250  1.00  0.00     0.094 A 
ATOM      9  C   UNL     1     -37.909 -14.332   4.385  1.00  0.00     0.336 A 
ATOM     10  O   UNL     1     -39.125 -14.035   4.515  1.00  0.00    -0.246 OA
ATOM     11  O   UNL     1     -37.299 -15.044   5.330  1.00  0.00    -0.423 OA
ENDROOT
BRANCH   3  12
ATOM     12  O   UNL     1     -33.508 -17.248   7.226  1.00  0.00    -0.508 OA
ATOM     13  H   UNL     1     -32.983 -18.093   7.038  1.00  0.00     0.293 HD
ENDBRANCH   3  12
TORSDOF 1
ENDMDL
MODEL 5
REMARK VINA RESULT:    -5.458      5.552      6.357
REMARK INTER + INTRA:          -5.617
REMARK INTER:                  -5.617
REMARK INTRA:                   0.000
REMARK UNBOUND:                 0.000
REMARK SMILES O=c1ccc2ccc(O)cc2o1
REMARK SMILES IDX 6 1 7 2 8 3 10 4 11 5 5 6 4 7 3 8 2 9 1 10 12 11 9 12
REMARK H PARENT 9 13
REMARK Flexibility Score: inf
ROOT
ATOM      1  C   UNL     1     -33.998 -10.770   1.626  1.00  0.00     0.016 A 
ATOM      2  C   UNL     1     -34.277  -9.524   2.197  1.00  0.00     0.047 A 
ATOM      3  C   UNL     1     -33.248  -8.760   2.768  1.00  0.00     0.119 A 
ATOM      4  C   UNL     1     -31.936  -9.247   2.767  1.00  0.00     0.094 A 
ATOM      5  C   UNL     1     -31.647 -10.493   2.200  1.00  0.00     0.142 A 
ATOM      6  C   UNL     1     -32.685 -11.260   1.625  1.00  0.00     0.018 A 
ATOM      7  C   UNL     1     -32.366 -12.501   1.065  1.00  0.00     0.019 A 
ATOM      8  C   UNL     1     -31.043 -12.942   1.090  1.00  0.00     0.094 A 
ATOM      9  C   UNL     1     -30.067 -12.129   1.677  1.00  0.00     0.336 A 
ATOM     10  O   UNL     1     -28.868 -12.510   1.708  1.00  0.00    -0.246 OA
ATOM     11  O   UNL     1     -30.398 -10.951   2.202  1.00  0.00    -0.423 OA
ENDROOT
BRANCH   3  12
ATOM     12  O   UNL     1     -33.520  -7.518   3.337  1.00  0.00    -0.508 OA
ATOM     13  H   UNL     1     -34.166  -6.868   2.905  1.00  0.00     0.293 HD
ENDBRANCH   3  12
TORSDOF 1
ENDMDL
MODEL 6
REMARK VINA RESULT:    -5.447      5.093      5.934
REMARK INTER + INTRA:          -5.606
REMARK INTER:                  -5.606
REMARK INTRA:                   0.000
REMARK UNBOUND:                 0.000
REMARK SMILES O=c1ccc2ccc(O)cc2o1
REMARK SMILES IDX 6 1 7 2 8 3 10 4 11 5 5 6 4 7 3 8 2 9 1 10 12 11 9 12
REMARK H PARENT 9 13
REMARK Flexibility Score: inf
ROOT
ATOM      1  C   UNL     1     -32.718  -8.871   2.757  1.00  0.00     0.016 A 
ATOM      2  C   UNL     1     -33.884  -9.401   2.196  1.00  0.00     0.047 A 
ATOM      3  C   UNL     1     -33.837 -10.595   1.459  1.00  0.00     0.119 A 
ATOM      4  C   UNL     1     -32.617 -11.258   1.284  1.00  0.00     0.094 A 
ATOM      5  C   UNL     1     -31.445 -10.735   1.841  1.00  0.00     0.142 A 
ATOM      6  C   UNL     1     -31.495  -9.534   2.583  1.00  0.00     0.018 A 
ATOM      7  C   UNL     1     -30.307  -9.036   3.128  1.00  0.00     0.019 A 
ATOM      8  C   UNL     1     -29.117  -9.734   2.925  1.00  0.00     0.094 A 
ATOM      9  C   UNL     1     -29.142 -10.918   2.179  1.00  0.00     0.336 A 
ATOM     10  O   UNL     1     -28.078 -11.561   1.986  1.00  0.00    -0.246 OA
ATOM     11  O   UNL     1     -30.287 -11.370   1.672  1.00  0.00    -0.423 OA
ENDROOT
BRANCH   3  12
ATOM     12  O   UNL     1     -34.995 -11.128   0.898  1.00  0.00    -0.508 OA
ATOM     13  H   UNL     1     -35.776 -11.419   1.474  1.00  0.00     0.293 HD
ENDBRANCH   3  12
TORSDOF 1
ENDMDL
MODEL 7
REMARK VINA RESULT:    -5.431      8.108     11.132
REMARK INTER + INTRA:          -5.590
REMARK INTER:                  -5.590
REMARK INTRA:                   0.000
REMARK UNBOUND:                 0.000
REMARK SMILES O=c1ccc2ccc(O)cc2o1
REMARK SMILES IDX 6 1 7 2 8 3 10 4 11 5 5 6 4 7 3 8 2 9 1 10 12 11 9 12
REMARK H PARENT 9 13
REMARK Flexibility Score: inf
ROOT
ATOM      1  C   UNL     1     -34.642 -15.342   4.176  1.00  0.00     0.016 A 
ATOM      2  C   UNL     1     -34.743 -16.174   5.297  1.00  0.00     0.047 A 
ATOM      3  C   UNL     1     -33.617 -16.429   6.094  1.00  0.00     0.119 A 
ATOM      4  C   UNL     1     -32.385 -15.849   5.766  1.00  0.00     0.094 A 
ATOM      5  C   UNL     1     -32.274 -15.018   4.647  1.00  0.00     0.142 A 
ATOM      6  C   UNL     1     -33.410 -14.761   3.846  1.00  0.00     0.018 A 
ATOM      7  C   UNL     1     -33.268 -13.926   2.734  1.00  0.00     0.019 A 
ATOM      8  C   UNL     1     -32.020 -13.373   2.450  1.00  0.00     0.094 A 
ATOM      9  C   UNL     1     -30.938 -13.670   3.287  1.00  0.00     0.336 A 
ATOM     10  O   UNL     1     -29.804 -13.181   3.046  1.00  0.00    -0.246 OA
ATOM     11  O   UNL     1     -31.101 -14.469   4.340  1.00  0.00    -0.423 OA
ENDROOT
BRANCH   3  12
ATOM     12  O   UNL     1     -33.711 -17.255   7.211  1.00  0.00    -0.508 OA
ATOM     13  H   UNL     1     -34.609 -17.536   7.587  1.00  0.00     0.293 HD
ENDBRANCH   3  12
TORSDOF 1
ENDMDL
MODEL 8
REMARK VINA RESULT:    -5.396      8.907     10.848
REMARK INTER + INTRA:          -5.554
REMARK INTER:                  -5.554
REMARK INTRA:                   0.000
REMARK UNBOUND:                 0.000
REMARK SMILES O=c1ccc2ccc(O)cc2o1
REMARK SMILES IDX 6 1 7 2 8 3 10 4 11 5 5 6 4 7 3 8 2 9 1 10 12 11 9 12
REMARK H PARENT 9 13
REMARK Flexibility Score: inf
ROOT
ATOM      1  C   UNL     1     -31.700 -16.010   5.446  1.00  0.00     0.016 A 
ATOM      2  C   UNL     1     -30.597 -15.257   5.029  1.00  0.00     0.047 A 
ATOM      3  C   UNL     1     -30.750 -14.249   4.065  1.00  0.00     0.119 A 
ATOM      4  C   UNL     1     -32.013 -13.995   3.518  1.00  0.00     0.094 A 
ATOM      5  C   UNL     1     -33.122 -14.743   3.927  1.00  0.00     0.142 A 
ATOM      6  C   UNL     1     -32.965 -15.757   4.899  1.00  0.00     0.018 A 
ATOM      7  C   UNL     1     -34.092 -16.488   5.288  1.00  0.00     0.019 A 
ATOM      8  C   UNL     1     -35.328 -16.197   4.713  1.00  0.00     0.094 A 
ATOM      9  C   UNL     1     -35.409 -15.178   3.756  1.00  0.00     0.336 A 
ATOM     10  O   UNL     1     -36.516 -14.902   3.226  1.00  0.00    -0.246 OA
ATOM     11  O   UNL     1     -34.321 -14.498   3.404  1.00  0.00    -0.423 OA
ENDROOT
BRANCH   3  12
ATOM     12  O   UNL     1     -29.656 -13.496   3.647  1.00  0.00    -0.508 OA
ATOM     13  H   UNL     1     -29.771 -12.672   3.069  1.00  0.00     0.293 HD
ENDBRANCH   3  12
TORSDOF 1
ENDMDL
MODEL 9
REMARK VINA RESULT:    -5.375      1.745      4.751
REMARK INTER + INTRA:          -5.533
REMARK INTER:                  -5.533
REMARK INTRA:                   0.000
REMARK UNBOUND:                 0.000
REMARK SMILES O=c1ccc2ccc(O)cc2o1
REMARK SMILES IDX 6 1 7 2 8 3 10 4 11 5 5 6 4 7 3 8 2 9 1 10 12 11 9 12
REMARK H PARENT 9 13
REMARK Flexibility Score: inf
ROOT
ATOM      1  C   UNL     1     -28.239  -8.197  -0.904  1.00  0.00     0.016 A 
ATOM      2  C   UNL     1     -28.626  -9.042   0.141  1.00  0.00     0.047 A 
ATOM      3  C   UNL     1     -29.381  -8.543   1.214  1.00  0.00     0.119 A 
ATOM      4  C   UNL     1     -29.748  -7.193   1.239  1.00  0.00     0.094 A 
ATOM      5  C   UNL     1     -29.364  -6.339   0.200  1.00  0.00     0.142 A 
ATOM      6  C   UNL     1     -28.605  -6.843  -0.880  1.00  0.00     0.018 A 
ATOM      7  C   UNL     1     -28.236  -5.966  -1.904  1.00  0.00     0.019 A 
ATOM      8  C   UNL     1     -28.626  -4.630  -1.833  1.00  0.00     0.094 A 
ATOM      9  C   UNL     1     -29.378  -4.199  -0.734  1.00  0.00     0.336 A 
ATOM     10  O   UNL     1     -29.739  -2.996  -0.652  1.00  0.00    -0.246 OA
ATOM     11  O   UNL     1     -29.716  -5.056   0.228  1.00  0.00    -0.423 OA
ENDROOT
BRANCH   3  12
ATOM     12  O   UNL     1     -29.771  -9.381   2.257  1.00  0.00    -0.508 OA
ATOM     13  H   UNL     1     -30.489 -10.084   2.130  1.00  0.00     0.293 HD
ENDBRANCH   3  12
TORSDOF 1
ENDMDL
