MODEL 1
REMARK VINA RESULT:    -2.971      0.000      0.000
REMARK INTER + INTRA:         -10.179
REMARK INTER:                  -6.445
REMARK INTRA:                  -3.733
REMARK UNBOUND:                -3.733
REMARK SMILES CCCCCCCCCCCCCCCCCCCCCC(=O)[O-]
REMARK SMILES IDX 12 1 11 2 10 3 9 4 8 5 7 6 6 7 5 8 4 9 3 10 2 11 1 12 13 13
REMARK SMILES IDX 14 14 15 15 16 16 17 17 18 18 19 19 20 20 21 21 22 22 23 23
REMARK SMILES IDX 24 24
REMARK H PARENT
REMARK Flexibility Score: inf
ROOT
ATOM      1  C   UNL     1      -5.364  -7.103  -2.579  1.00  0.00     0.000 C 
ENDROOT
BRANCH   1   2
ATOM      2  C   UNL     1      -5.745  -7.548  -4.001  1.00  0.00     0.000 C 
BRANCH   2   3
ATOM      3  C   UNL     1      -6.760  -8.703  -4.012  1.00  0.00     0.000 C 
BRANCH   3   4
ATOM      4  C   UNL     1      -8.146  -8.312  -3.457  1.00  0.00    -0.000 C 
BRANCH   4   5
ATOM      5  C   UNL     1      -9.013  -7.601  -4.512  1.00  0.00    -0.000 C 
BRANCH   5   6
ATOM      6  C   UNL     1      -9.684  -6.325  -3.972  1.00  0.00    -0.000 C 
BRANCH   6   7
ATOM      7  C   UNL     1     -10.121  -6.393  -2.496  1.00  0.00    -0.000 C 
BRANCH   7   8
ATOM      8  C   UNL     1      -9.783  -5.146  -1.658  1.00  0.00    -0.000 C 
BRANCH   8   9
ATOM      9  C   UNL     1      -8.750  -5.428  -0.554  1.00  0.00    -0.000 C 
BRANCH   9  10
ATOM     10  C   UNL     1      -8.972  -6.797   0.122  1.00  0.00    -0.000 C 
BRANCH  10  11
ATOM     11  C   UNL     1      -7.729  -7.340   0.845  1.00  0.00    -0.003 C 
ATOM     12  C   UNL     1      -7.153  -8.593   0.190  1.00  0.00     0.004 C 
ENDBRANCH  10  11
ENDBRANCH   9  10
ENDBRANCH   8   9
ENDBRANCH   7   8
ENDBRANCH   6   7
ENDBRANCH   5   6
ENDBRANCH   4   5
ENDBRANCH   3   4
ENDBRANCH   2   3
ENDBRANCH   1   2
BRANCH   1  13
ATOM     13  C   UNL     1      -5.598  -5.602  -2.347  1.00  0.00     0.000 C 
BRANCH  13  14
ATOM     14  C   UNL     1      -6.274  -4.914  -3.547  1.00  0.00     0.000 C 
BRANCH  14  15
ATOM     15  C   UNL     1      -6.925  -3.574  -3.168  1.00  0.00     0.000 C 
BRANCH  15  16
ATOM     16  C   UNL     1      -7.192  -2.679  -4.390  1.00  0.00     0.000 C 
BRANCH  16  17
ATOM     17  C   UNL     1      -6.118  -1.583  -4.555  1.00  0.00     0.000 C 
BRANCH  17  18
ATOM     18  C   UNL     1      -5.255  -1.751  -5.817  1.00  0.00     0.000 C 
BRANCH  18  19
ATOM     19  C   UNL     1      -3.752  -1.832  -5.505  1.00  0.00     0.000 C 
BRANCH  19  20
ATOM     20  C   UNL     1      -3.449  -2.745  -4.306  1.00  0.00     0.006 C 
BRANCH  20  21
ATOM     21  C   UNL     1      -2.530  -3.916  -4.675  1.00  0.00     0.053 C 
BRANCH  21  22
ATOM     22  C   UNL     1      -2.311  -4.803  -3.491  1.00  0.00     0.041 C 
ATOM     23  O   UNL     1      -2.211  -6.049  -3.643  1.00  0.00    -0.550 OA
ATOM     24  O   UNL     1      -2.181  -4.252  -2.222  1.00  0.00    -0.550 OA
ENDBRANCH  21  22
ENDBRANCH  20  21
ENDBRANCH  19  20
ENDBRANCH  18  19
ENDBRANCH  17  18
ENDBRANCH  16  17
ENDBRANCH  15  16
ENDBRANCH  14  15
ENDBRANCH  13  14
ENDBRANCH   1  13
TORSDOF 20
ENDMDL
MODEL 2
REMARK VINA RESULT:    -2.941      2.087      3.436
REMARK INTER + INTRA:         -10.113
REMARK INTER:                  -6.917
REMARK INTRA:                  -3.196
REMARK UNBOUND:                -3.733
REMARK SMILES CCCCCCCCCCCCCCCCCCCCCC(=O)[O-]
REMARK SMILES IDX 12 1 11 2 10 3 9 4 8 5 7 6 6 7 5 8 4 9 3 10 2 11 1 12 13 13
REMARK SMILES IDX 14 14 15 15 16 16 17 17 18 18 19 19 20 20 21 21 22 22 23 23
REMARK SMILES IDX 24 24
REMARK H PARENT
REMARK Flexibility Score: inf
ROOT
ATOM      1  C   UNL     1      -8.696  -4.493  -2.521  1.00  0.00     0.000 C 
ENDROOT
BRANCH   1   2
ATOM      2  C   UNL     1     -10.000  -5.288  -2.696  1.00  0.00     0.000 C 
BRANCH   2   3
ATOM      3  C   UNL     1      -9.755  -6.790  -2.919  1.00  0.00     0.000 C 
BRANCH   3   4
ATOM      4  C   UNL     1      -9.813  -7.212  -4.402  1.00  0.00    -0.000 C 
BRANCH   4   5
ATOM      5  C   UNL     1      -8.718  -8.233  -4.758  1.00  0.00    -0.000 C 
BRANCH   5   6
ATOM      6  C   UNL     1      -7.828  -8.600  -3.558  1.00  0.00    -0.000 C 
BRANCH   6   7
ATOM      7  C   UNL     1      -6.331  -8.277  -3.733  1.00  0.00    -0.000 C 
BRANCH   7   8
ATOM      8  C   UNL     1      -5.610  -7.818  -2.453  1.00  0.00    -0.000 C 
BRANCH   8   9
ATOM      9  C   UNL     1      -6.553  -7.698  -1.243  1.00  0.00    -0.000 C 
BRANCH   9  10
ATOM     10  C   UNL     1      -6.313  -6.404  -0.437  1.00  0.00    -0.000 C 
BRANCH  10  11
ATOM     11  C   UNL     1      -7.273  -6.227   0.751  1.00  0.00    -0.003 C 
ATOM     12  C   UNL     1      -8.614  -6.928   0.547  1.00  0.00     0.004 C 
ENDBRANCH  10  11
ENDBRANCH   9  10
ENDBRANCH   8   9
ENDBRANCH   7   8
ENDBRANCH   6   7
ENDBRANCH   5   6
ENDBRANCH   4   5
ENDBRANCH   3   4
ENDBRANCH   2   3
ENDBRANCH   1   2
BRANCH   1  13
ATOM     13  C   UNL     1      -7.906  -4.356  -3.832  1.00  0.00     0.000 C 
BRANCH  13  14
ATOM     14  C   UNL     1      -6.387  -4.499  -3.627  1.00  0.00     0.000 C 
BRANCH  14  15
ATOM     15  C   UNL     1      -5.832  -3.492  -2.606  1.00  0.00     0.000 C 
BRANCH  15  16
ATOM     16  C   UNL     1      -4.315  -3.284  -2.744  1.00  0.00     0.000 C 
BRANCH  16  17
ATOM     17  C   UNL     1      -3.629  -4.458  -3.472  1.00  0.00     0.000 C 
BRANCH  17  18
ATOM     18  C   UNL     1      -3.000  -4.064  -4.820  1.00  0.00     0.000 C 
BRANCH  18  19
ATOM     19  C   UNL     1      -2.794  -2.547  -4.961  1.00  0.00     0.000 C 
BRANCH  19  20
ATOM     20  C   UNL     1      -1.427  -2.193  -5.569  1.00  0.00     0.006 C 
BRANCH  20  21
ATOM     21  C   UNL     1      -0.256  -2.655  -4.694  1.00  0.00     0.053 C 
BRANCH  21  22
ATOM     22  C   UNL     1       0.587  -1.488  -4.289  1.00  0.00     0.041 C 
ATOM     23  O   UNL     1       1.810  -1.458  -4.585  1.00  0.00    -0.550 OA
ATOM     24  O   UNL     1       0.015  -0.417  -3.614  1.00  0.00    -0.550 OA
ENDBRANCH  21  22
ENDBRANCH  20  21
ENDBRANCH  19  20
ENDBRANCH  18  19
ENDBRANCH  17  18
ENDBRANCH  16  17
ENDBRANCH  15  16
ENDBRANCH  14  15
ENDBRANCH  13  14
ENDBRANCH   1  13
TORSDOF 20
ENDMDL
MODEL 3
REMARK VINA RESULT:    -2.939      2.410      6.594
REMARK INTER + INTRA:         -10.110
REMARK INTER:                  -6.382
REMARK INTRA:                  -3.728
REMARK UNBOUND:                -3.733
REMARK SMILES CCCCCCCCCCCCCCCCCCCCCC(=O)[O-]
REMARK SMILES IDX 12 1 11 2 10 3 9 4 8 5 7 6 6 7 5 8 4 9 3 10 2 11 1 12 13 13
REMARK SMILES IDX 14 14 15 15 16 16 17 17 18 18 19 19 20 20 21 21 22 22 23 23
REMARK SMILES IDX 24 24
REMARK H PARENT
REMARK Flexibility Score: inf
ROOT
ATOM      1  C   UNL     1      -9.509  -5.240  -2.826  1.00  0.00     0.000 C 
ENDROOT
BRANCH   1   2
ATOM      2  C   UNL     1      -8.581  -4.636  -3.893  1.00  0.00     0.000 C 
BRANCH   2   3
ATOM      3  C   UNL     1      -7.278  -4.074  -3.300  1.00  0.00     0.000 C 
BRANCH   3   4
ATOM      4  C   UNL     1      -6.491  -3.178  -4.279  1.00  0.00    -0.000 C 
BRANCH   4   5
ATOM      5  C   UNL     1      -6.059  -1.850  -3.632  1.00  0.00    -0.000 C 
BRANCH   5   6
ATOM      6  C   UNL     1      -4.881  -1.184  -4.364  1.00  0.00    -0.000 C 
BRANCH   6   7
ATOM      7  C   UNL     1      -4.105  -2.105  -5.326  1.00  0.00    -0.000 C 
BRANCH   7   8
ATOM      8  C   UNL     1      -2.572  -2.027  -5.209  1.00  0.00    -0.000 C 
BRANCH   8   9
ATOM      9  C   UNL     1      -1.938  -3.352  -4.752  1.00  0.00    -0.000 C 
BRANCH   9  10
ATOM     10  C   UNL     1      -2.984  -4.471  -4.569  1.00  0.00    -0.000 C 
BRANCH  10  11
ATOM     11  C   UNL     1      -2.979  -5.101  -3.166  1.00  0.00    -0.003 C 
ATOM     12  C   UNL     1      -3.601  -4.199  -2.102  1.00  0.00     0.004 C 
ENDBRANCH  10  11
ENDBRANCH   9  10
ENDBRANCH   8   9
ENDBRANCH   7   8
ENDBRANCH   6   7
ENDBRANCH   5   6
ENDBRANCH   4   5
ENDBRANCH   3   4
ENDBRANCH   2   3
ENDBRANCH   1   2
BRANCH   1  13
ATOM     13  C   UNL     1      -9.752  -6.743  -3.036  1.00  0.00     0.000 C 
BRANCH  13  14
ATOM     14  C   UNL     1      -9.035  -7.292  -4.282  1.00  0.00     0.000 C 
BRANCH  14  15
ATOM     15  C   UNL     1      -8.375  -8.657  -4.029  1.00  0.00     0.000 C 
BRANCH  15  16
ATOM     16  C   UNL     1      -6.906  -8.699  -4.482  1.00  0.00     0.000 C 
BRANCH  16  17
ATOM     17  C   UNL     1      -6.047  -7.632  -3.771  1.00  0.00     0.000 C 
BRANCH  17  18
ATOM     18  C   UNL     1      -5.115  -8.211  -2.692  1.00  0.00     0.000 C 
BRANCH  18  19
ATOM     19  C   UNL     1      -5.290  -7.530  -1.325  1.00  0.00     0.000 C 
BRANCH  19  20
ATOM     20  C   UNL     1      -6.707  -6.966  -1.126  1.00  0.00     0.006 C 
BRANCH  20  21
ATOM     21  C   UNL     1      -7.591  -7.885  -0.274  1.00  0.00     0.053 C 
BRANCH  21  22
ATOM     22  C   UNL     1      -7.825  -7.283   1.075  1.00  0.00     0.041 C 
ATOM     23  O   UNL     1      -8.864  -7.570   1.725  1.00  0.00    -0.550 OA
ATOM     24  O   UNL     1      -6.878  -6.431   1.631  1.00  0.00    -0.550 OA
ENDBRANCH  21  22
ENDBRANCH  20  21
ENDBRANCH  19  20
ENDBRANCH  18  19
ENDBRANCH  17  18
ENDBRANCH  16  17
ENDBRANCH  15  16
ENDBRANCH  14  15
ENDBRANCH  13  14
ENDBRANCH   1  13
TORSDOF 20
ENDMDL
MODEL 4
REMARK VINA RESULT:    -2.902      1.804      3.933
REMARK INTER + INTRA:         -10.028
REMARK INTER:                  -6.157
REMARK INTRA:                  -3.871
REMARK UNBOUND:                -3.733
REMARK SMILES CCCCCCCCCCCCCCCCCCCCCC(=O)[O-]
REMARK SMILES IDX 12 1 11 2 10 3 9 4 8 5 7 6 6 7 5 8 4 9 3 10 2 11 1 12 13 13
REMARK SMILES IDX 14 14 15 15 16 16 17 17 18 18 19 19 20 20 21 21 22 22 23 23
REMARK SMILES IDX 24 24
REMARK H PARENT
REMARK Flexibility Score: inf
ROOT
ATOM      1  C   UNL     1      -6.523  -8.188  -1.659  1.00  0.00     0.000 C 
ENDROOT
BRANCH   1   2
ATOM      2  C   UNL     1      -6.646  -6.947  -0.760  1.00  0.00     0.000 C 
BRANCH   2   3
ATOM      3  C   UNL     1      -7.533  -7.191   0.472  1.00  0.00     0.000 C 
BRANCH   3   4
ATOM      4  C   UNL     1      -8.994  -6.736   0.280  1.00  0.00    -0.000 C 
BRANCH   4   5
ATOM      5  C   UNL     1      -9.091  -5.393  -0.467  1.00  0.00    -0.000 C 
BRANCH   5   6
ATOM      6  C   UNL     1     -10.032  -5.452  -1.683  1.00  0.00    -0.000 C 
BRANCH   6   7
ATOM      7  C   UNL     1      -9.776  -6.625  -2.650  1.00  0.00    -0.000 C 
BRANCH   7   8
ATOM      8  C   UNL     1      -8.862  -6.297  -3.845  1.00  0.00    -0.000 C 
BRANCH   8   9
ATOM      9  C   UNL     1      -8.563  -4.793  -3.976  1.00  0.00    -0.000 C 
BRANCH   9  10
ATOM     10  C   UNL     1      -7.081  -4.463  -3.700  1.00  0.00    -0.000 C 
BRANCH  10  11
ATOM     11  C   UNL     1      -6.874  -3.178  -2.883  1.00  0.00    -0.003 C 
ATOM     12  C   UNL     1      -6.229  -3.431  -1.522  1.00  0.00     0.004 C 
ENDBRANCH  10  11
ENDBRANCH   9  10
ENDBRANCH   8   9
ENDBRANCH   7   8
ENDBRANCH   6   7
ENDBRANCH   5   6
ENDBRANCH   4   5
ENDBRANCH   3   4
ENDBRANCH   2   3
ENDBRANCH   1   2
BRANCH   1  13
ATOM     13  C   UNL     1      -5.206  -8.217  -2.452  1.00  0.00     0.000 C 
BRANCH  13  14
ATOM     14  C   UNL     1      -5.316  -7.500  -3.810  1.00  0.00     0.000 C 
BRANCH  14  15
ATOM     15  C   UNL     1      -4.100  -6.607  -4.105  1.00  0.00     0.000 C 
BRANCH  15  16
ATOM     16  C   UNL     1      -3.635  -5.812  -2.873  1.00  0.00     0.000 C 
BRANCH  16  17
ATOM     17  C   UNL     1      -3.171  -4.387  -3.240  1.00  0.00     0.000 C 
BRANCH  17  18
ATOM     18  C   UNL     1      -2.635  -4.265  -4.677  1.00  0.00     0.000 C 
BRANCH  18  19
ATOM     19  C   UNL     1      -2.704  -2.828  -5.219  1.00  0.00     0.000 C 
BRANCH  19  20
ATOM     20  C   UNL     1      -4.137  -2.271  -5.227  1.00  0.00     0.006 C 
BRANCH  20  21
ATOM     21  C   UNL     1      -4.181  -0.755  -4.998  1.00  0.00     0.053 C 
BRANCH  21  22
ATOM     22  C   UNL     1      -3.461  -0.395  -3.738  1.00  0.00     0.041 C 
ATOM     23  O   UNL     1      -2.469   0.379  -3.775  1.00  0.00    -0.550 OA
ATOM     24  O   UNL     1      -3.908  -0.884  -2.517  1.00  0.00    -0.550 OA
ENDBRANCH  21  22
ENDBRANCH  20  21
ENDBRANCH  19  20
ENDBRANCH  18  19
ENDBRANCH  17  18
ENDBRANCH  16  17
ENDBRANCH  15  16
ENDBRANCH  14  15
ENDBRANCH  13  14
ENDBRANCH   1  13
TORSDOF 20
ENDMDL
MODEL 5
REMARK VINA RESULT:    -2.899      3.564      6.811
REMARK INTER + INTRA:         -10.021
REMARK INTER:                  -5.969
REMARK INTRA:                  -4.052
REMARK UNBOUND:                -3.733
REMARK SMILES CCCCCCCCCCCCCCCCCCCCCC(=O)[O-]
REMARK SMILES IDX 12 1 11 2 10 3 9 4 8 5 7 6 6 7 5 8 4 9 3 10 2 11 1 12 13 13
REMARK SMILES IDX 14 14 15 15 16 16 17 17 18 18 19 19 20 20 21 21 22 22 23 23
REMARK SMILES IDX 24 24
REMARK H PARENT
REMARK Flexibility Score: inf
ROOT
ATOM      1  C   UNL     1      -8.528  -8.104  -0.621  1.00  0.00     0.000 C 
ENDROOT
BRANCH   1   2
ATOM      2  C   UNL     1      -9.046  -6.672  -0.410  1.00  0.00     0.000 C 
BRANCH   2   3
ATOM      3  C   UNL     1      -9.278  -5.922  -1.732  1.00  0.00     0.000 C 
BRANCH   3   4
ATOM      4  C   UNL     1      -9.837  -6.816  -2.859  1.00  0.00    -0.000 C 
BRANCH   4   5
ATOM      5  C   UNL     1      -8.846  -6.965  -4.027  1.00  0.00    -0.000 C 
BRANCH   5   6
ATOM      6  C   UNL     1      -8.644  -8.429  -4.457  1.00  0.00    -0.000 C 
BRANCH   6   7
ATOM      7  C   UNL     1      -7.191  -8.937  -4.381  1.00  0.00    -0.000 C 
BRANCH   7   8
ATOM      8  C   UNL     1      -6.176  -7.927  -3.816  1.00  0.00    -0.000 C 
BRANCH   8   9
ATOM      9  C   UNL     1      -5.438  -8.451  -2.572  1.00  0.00    -0.000 C 
BRANCH   9  10
ATOM     10  C   UNL     1      -4.919  -7.309  -1.673  1.00  0.00    -0.000 C 
BRANCH  10  11
ATOM     11  C   UNL     1      -5.633  -5.967  -1.902  1.00  0.00    -0.003 C 
ATOM     12  C   UNL     1      -5.738  -5.121  -0.635  1.00  0.00     0.004 C 
ENDBRANCH  10  11
ENDBRANCH   9  10
ENDBRANCH   8   9
ENDBRANCH   7   8
ENDBRANCH   6   7
ENDBRANCH   5   6
ENDBRANCH   4   5
ENDBRANCH   3   4
ENDBRANCH   2   3
ENDBRANCH   1   2
BRANCH   1  13
ATOM     13  C   UNL     1      -7.924  -8.709   0.655  1.00  0.00     0.000 C 
BRANCH  13  14
ATOM     14  C   UNL     1      -7.414  -7.638   1.636  1.00  0.00     0.000 C 
BRANCH  14  15
ATOM     15  C   UNL     1      -7.801  -7.940   3.093  1.00  0.00     0.000 C 
BRANCH  15  16
ATOM     16  C   UNL     1      -9.308  -8.191   3.266  1.00  0.00     0.000 C 
BRANCH  16  17
ATOM     17  C   UNL     1     -10.125  -6.882   3.229  1.00  0.00     0.000 C 
BRANCH  17  18
ATOM     18  C   UNL     1      -9.701  -5.861   4.298  1.00  0.00     0.000 C 
BRANCH  18  19
ATOM     19  C   UNL     1      -9.779  -4.409   3.800  1.00  0.00     0.000 C 
BRANCH  19  20
ATOM     20  C   UNL     1      -9.639  -4.303   2.272  1.00  0.00     0.006 C 
BRANCH  20  21
ATOM     21  C   UNL     1      -8.224  -3.902   1.837  1.00  0.00     0.053 C 
BRANCH  21  22
ATOM     22  C   UNL     1      -8.276  -2.752   0.882  1.00  0.00     0.041 C 
ATOM     23  O   UNL     1      -7.464  -1.797   0.996  1.00  0.00    -0.550 OA
ATOM     24  O   UNL     1      -9.199  -2.751  -0.157  1.00  0.00    -0.550 OA
ENDBRANCH  21  22
ENDBRANCH  20  21
ENDBRANCH  19  20
ENDBRANCH  18  19
ENDBRANCH  17  18
ENDBRANCH  16  17
ENDBRANCH  15  16
ENDBRANCH  14  15
ENDBRANCH  13  14
ENDBRANCH   1  13
TORSDOF 20
ENDMDL
MODEL 6
REMARK VINA RESULT:    -2.895     13.504     16.282
REMARK INTER + INTRA:         -10.014
REMARK INTER:                  -7.726
REMARK INTRA:                  -2.288
REMARK UNBOUND:                -3.733
REMARK SMILES CCCCCCCCCCCCCCCCCCCCCC(=O)[O-]
REMARK SMILES IDX 12 1 11 2 10 3 9 4 8 5 7 6 6 7 5 8 4 9 3 10 2 11 1 12 13 13
REMARK SMILES IDX 14 14 15 15 16 16 17 17 18 18 19 19 20 20 21 21 22 22 23 23
REMARK SMILES IDX 24 24
REMARK H PARENT
REMARK Flexibility Score: inf
ROOT
ATOM      1  C   UNL     1      -0.270   9.855   5.796  1.00  0.00     0.000 C 
ENDROOT
BRANCH   1   2
ATOM      2  C   UNL     1      -0.234   9.437   4.317  1.00  0.00     0.000 C 
BRANCH   2   3
ATOM      3  C   UNL     1      -1.614   9.519   3.642  1.00  0.00     0.000 C 
BRANCH   3   4
ATOM      4  C   UNL     1      -2.790   9.300   4.615  1.00  0.00    -0.000 C 
BRANCH   4   5
ATOM      5  C   UNL     1      -4.150   9.605   3.961  1.00  0.00    -0.000 C 
BRANCH   5   6
ATOM      6  C   UNL     1      -4.881   8.339   3.482  1.00  0.00    -0.000 C 
BRANCH   6   7
ATOM      7  C   UNL     1      -4.088   7.027   3.642  1.00  0.00    -0.000 C 
BRANCH   7   8
ATOM      8  C   UNL     1      -3.375   6.537   2.368  1.00  0.00    -0.000 C 
BRANCH   8   9
ATOM      9  C   UNL     1      -2.355   5.419   2.645  1.00  0.00    -0.000 C 
BRANCH   9  10
ATOM     10  C   UNL     1      -1.019   5.966   3.193  1.00  0.00    -0.000 C 
BRANCH  10  11
ATOM     11  C   UNL     1      -0.007   6.338   2.098  1.00  0.00    -0.003 C 
ATOM     12  C   UNL     1       0.897   5.174   1.697  1.00  0.00     0.004 C 
ENDBRANCH  10  11
ENDBRANCH   9  10
ENDBRANCH   8   9
ENDBRANCH   7   8
ENDBRANCH   6   7
ENDBRANCH   5   6
ENDBRANCH   4   5
ENDBRANCH   3   4
ENDBRANCH   2   3
ENDBRANCH   1   2
BRANCH   1  13
ATOM     13  C   UNL     1       1.131   9.941   6.421  1.00  0.00     0.000 C 
BRANCH  13  14
ATOM     14  C   UNL     1       2.156   9.042   5.705  1.00  0.00     0.000 C 
BRANCH  14  15
ATOM     15  C   UNL     1       2.251   7.642   6.331  1.00  0.00     0.000 C 
BRANCH  15  16
ATOM     16  C   UNL     1       1.799   6.530   5.370  1.00  0.00     0.000 C 
BRANCH  16  17
ATOM     17  C   UNL     1       2.332   5.144   5.789  1.00  0.00     0.000 C 
BRANCH  17  18
ATOM     18  C   UNL     1       1.315   4.007   5.587  1.00  0.00     0.000 C 
BRANCH  18  19
ATOM     19  C   UNL     1       0.992   3.259   6.891  1.00  0.00     0.000 C 
BRANCH  19  20
ATOM     20  C   UNL     1      -0.126   2.218   6.710  1.00  0.00     0.006 C 
BRANCH  20  21
ATOM     21  C   UNL     1      -0.826   1.871   8.030  1.00  0.00     0.053 C 
BRANCH  21  22
ATOM     22  C   UNL     1      -2.110   1.151   7.768  1.00  0.00     0.041 C 
ATOM     23  O   UNL     1      -2.691   0.534   8.698  1.00  0.00    -0.550 OA
ATOM     24  O   UNL     1      -2.685   1.191   6.503  1.00  0.00    -0.550 OA
ENDBRANCH  21  22
ENDBRANCH  20  21
ENDBRANCH  19  20
ENDBRANCH  18  19
ENDBRANCH  17  18
ENDBRANCH  16  17
ENDBRANCH  15  16
ENDBRANCH  14  15
ENDBRANCH  13  14
ENDBRANCH   1  13
TORSDOF 20
ENDMDL
MODEL 7
REMARK VINA RESULT:    -2.883      2.416      3.268
REMARK INTER + INTRA:          -9.988
REMARK INTER:                  -7.158
REMARK INTRA:                  -2.830
REMARK UNBOUND:                -3.733
REMARK SMILES CCCCCCCCCCCCCCCCCCCCCC(=O)[O-]
REMARK SMILES IDX 12 1 11 2 10 3 9 4 8 5 7 6 6 7 5 8 4 9 3 10 2 11 1 12 13 13
REMARK SMILES IDX 14 14 15 15 16 16 17 17 18 18 19 19 20 20 21 21 22 22 23 23
REMARK SMILES IDX 24 24
REMARK H PARENT
REMARK Flexibility Score: inf
ROOT
ATOM      1  C   UNL     1      -5.981  -7.551  -4.105  1.00  0.00     0.000 C 
ENDROOT
BRANCH   1   2
ATOM      2  C   UNL     1      -6.329  -8.970  -3.628  1.00  0.00     0.000 C 
BRANCH   2   3
ATOM      3  C   UNL     1      -7.810  -9.325  -3.846  1.00  0.00     0.000 C 
BRANCH   3   4
ATOM      4  C   UNL     1      -8.611  -8.217  -4.560  1.00  0.00    -0.000 C 
BRANCH   4   5
ATOM      5  C   UNL     1      -9.588  -7.502  -3.609  1.00  0.00    -0.000 C 
BRANCH   5   6
ATOM      6  C   UNL     1      -9.965  -6.090  -4.090  1.00  0.00    -0.000 C 
BRANCH   6   7
ATOM      7  C   UNL     1     -10.125  -5.041  -2.973  1.00  0.00    -0.000 C 
BRANCH   7   8
ATOM      8  C   UNL     1      -9.111  -5.156  -1.820  1.00  0.00    -0.000 C 
BRANCH   8   9
ATOM      9  C   UNL     1      -9.781  -5.229  -0.437  1.00  0.00    -0.000 C 
BRANCH   9  10
ATOM     10  C   UNL     1      -9.187  -6.347   0.445  1.00  0.00    -0.000 C 
BRANCH  10  11
ATOM     11  C   UNL     1      -8.155  -7.225  -0.280  1.00  0.00    -0.003 C 
ATOM     12  C   UNL     1      -8.447  -8.719  -0.158  1.00  0.00     0.004 C 
ENDBRANCH  10  11
ENDBRANCH   9  10
ENDBRANCH   8   9
ENDBRANCH   7   8
ENDBRANCH   6   7
ENDBRANCH   5   6
ENDBRANCH   4   5
ENDBRANCH   3   4
ENDBRANCH   2   3
ENDBRANCH   1   2
BRANCH   1  13
ATOM     13  C   UNL     1      -5.823  -6.559  -2.942  1.00  0.00     0.000 C 
BRANCH  13  14
ATOM     14  C   UNL     1      -5.438  -5.146  -3.417  1.00  0.00     0.000 C 
BRANCH  14  15
ATOM     15  C   UNL     1      -4.096  -4.673  -2.833  1.00  0.00     0.000 C 
BRANCH  15  16
ATOM     16  C   UNL     1      -2.910  -4.953  -3.771  1.00  0.00     0.000 C 
BRANCH  16  17
ATOM     17  C   UNL     1      -2.040  -3.699  -4.000  1.00  0.00     0.000 C 
BRANCH  17  18
ATOM     18  C   UNL     1      -2.468  -2.866  -5.220  1.00  0.00     0.000 C 
BRANCH  18  19
ATOM     19  C   UNL     1      -2.879  -1.432  -4.848  1.00  0.00     0.000 C 
BRANCH  19  20
ATOM     20  C   UNL     1      -4.376  -1.315  -4.520  1.00  0.00     0.006 C 
BRANCH  20  21
ATOM     21  C   UNL     1      -5.269  -1.834  -5.654  1.00  0.00     0.053 C 
BRANCH  21  22
ATOM     22  C   UNL     1      -5.999  -0.703  -6.305  1.00  0.00     0.041 C 
ATOM     23  O   UNL     1      -5.398   0.373  -6.564  1.00  0.00    -0.550 OA
ATOM     24  O   UNL     1      -7.335  -0.848  -6.660  1.00  0.00    -0.550 OA
ENDBRANCH  21  22
ENDBRANCH  20  21
ENDBRANCH  19  20
ENDBRANCH  18  19
ENDBRANCH  17  18
ENDBRANCH  16  17
ENDBRANCH  15  16
ENDBRANCH  14  15
ENDBRANCH  13  14
ENDBRANCH   1  13
TORSDOF 20
ENDMDL
MODEL 8
REMARK VINA RESULT:    -2.874      2.773      4.250
REMARK INTER + INTRA:          -9.969
REMARK INTER:                  -6.752
REMARK INTRA:                  -3.217
REMARK UNBOUND:                -3.733
REMARK SMILES CCCCCCCCCCCCCCCCCCCCCC(=O)[O-]
REMARK SMILES IDX 12 1 11 2 10 3 9 4 8 5 7 6 6 7 5 8 4 9 3 10 2 11 1 12 13 13
REMARK SMILES IDX 14 14 15 15 16 16 17 17 18 18 19 19 20 20 21 21 22 22 23 23
REMARK SMILES IDX 24 24
REMARK H PARENT
REMARK Flexibility Score: inf
ROOT
ATOM      1  C   UNL     1      -3.659  -6.742  -3.957  1.00  0.00     0.000 C 
ENDROOT
BRANCH   1   2
ATOM      2  C   UNL     1      -4.208  -7.282  -2.625  1.00  0.00     0.000 C 
BRANCH   2   3
ATOM      3  C   UNL     1      -5.724  -7.532  -2.664  1.00  0.00     0.000 C 
BRANCH   3   4
ATOM      4  C   UNL     1      -6.252  -7.909  -4.064  1.00  0.00    -0.000 C 
BRANCH   4   5
ATOM      5  C   UNL     1      -7.140  -9.166  -4.031  1.00  0.00    -0.000 C 
BRANCH   5   6
ATOM      6  C   UNL     1      -8.532  -8.931  -4.642  1.00  0.00    -0.000 C 
BRANCH   6   7
ATOM      7  C   UNL     1      -9.060  -7.487  -4.527  1.00  0.00    -0.000 C 
BRANCH   7   8
ATOM      8  C   UNL     1      -9.550  -7.082  -3.125  1.00  0.00    -0.000 C 
BRANCH   8   9
ATOM      9  C   UNL     1      -9.073  -5.681  -2.705  1.00  0.00    -0.000 C 
BRANCH   9  10
ATOM     10  C   UNL     1      -8.586  -4.843  -3.905  1.00  0.00    -0.000 C 
BRANCH  10  11
ATOM     11  C   UNL     1      -7.162  -4.289  -3.738  1.00  0.00    -0.003 C 
ATOM     12  C   UNL     1      -6.994  -3.439  -2.480  1.00  0.00     0.004 C 
ENDBRANCH  10  11
ENDBRANCH   9  10
ENDBRANCH   8   9
ENDBRANCH   7   8
ENDBRANCH   6   7
ENDBRANCH   5   6
ENDBRANCH   4   5
ENDBRANCH   3   4
ENDBRANCH   2   3
ENDBRANCH   1   2
BRANCH   1  13
ATOM     13  C   UNL     1      -3.613  -5.207  -3.998  1.00  0.00     0.000 C 
BRANCH  13  14
ATOM     14  C   UNL     1      -3.454  -4.581  -2.601  1.00  0.00     0.000 C 
BRANCH  14  15
ATOM     15  C   UNL     1      -2.092  -3.893  -2.414  1.00  0.00     0.000 C 
BRANCH  15  16
ATOM     16  C   UNL     1      -1.202  -3.992  -3.665  1.00  0.00     0.000 C 
BRANCH  16  17
ATOM     17  C   UNL     1      -0.917  -2.609  -4.288  1.00  0.00     0.000 C 
BRANCH  17  18
ATOM     18  C   UNL     1      -1.862  -2.249  -5.447  1.00  0.00     0.000 C 
BRANCH  18  19
ATOM     19  C   UNL     1      -3.043  -1.371  -5.002  1.00  0.00     0.000 C 
BRANCH  19  20
ATOM     20  C   UNL     1      -4.398  -1.925  -5.472  1.00  0.00     0.006 C 
BRANCH  20  21
ATOM     21  C   UNL     1      -5.566  -0.992  -5.132  1.00  0.00     0.053 C 
BRANCH  21  22
ATOM     22  C   UNL     1      -5.591   0.177  -6.064  1.00  0.00     0.041 C 
ATOM     23  O   UNL     1      -5.617  -0.007  -7.309  1.00  0.00    -0.550 OA
ATOM     24  O   UNL     1      -5.622   1.471  -5.558  1.00  0.00    -0.550 OA
ENDBRANCH  21  22
ENDBRANCH  20  21
ENDBRANCH  19  20
ENDBRANCH  18  19
ENDBRANCH  17  18
ENDBRANCH  16  17
ENDBRANCH  15  16
ENDBRANCH  14  15
ENDBRANCH  13  14
ENDBRANCH   1  13
TORSDOF 20
ENDMDL
MODEL 9
REMARK VINA RESULT:    -2.857      2.546      7.191
REMARK INTER + INTRA:          -9.930
REMARK INTER:                  -7.299
REMARK INTRA:                  -2.632
REMARK UNBOUND:                -3.733
REMARK SMILES CCCCCCCCCCCCCCCCCCCCCC(=O)[O-]
REMARK SMILES IDX 12 1 11 2 10 3 9 4 8 5 7 6 6 7 5 8 4 9 3 10 2 11 1 12 13 13
REMARK SMILES IDX 14 14 15 15 16 16 17 17 18 18 19 19 20 20 21 21 22 22 23 23
REMARK SMILES IDX 24 24
REMARK H PARENT
REMARK Flexibility Score: inf
ROOT
ATOM      1  C   UNL     1      -6.134  -6.631  -2.572  1.00  0.00     0.000 C 
ENDROOT
BRANCH   1   2
ATOM      2  C   UNL     1      -5.883  -5.301  -3.301  1.00  0.00     0.000 C 
BRANCH   2   3
ATOM      3  C   UNL     1      -4.416  -5.122  -3.725  1.00  0.00     0.000 C 
BRANCH   3   4
ATOM      4  C   UNL     1      -3.533  -4.478  -2.636  1.00  0.00    -0.000 C 
BRANCH   4   5
ATOM      5  C   UNL     1      -2.287  -3.794  -3.227  1.00  0.00    -0.000 C 
BRANCH   5   6
ATOM      6  C   UNL     1      -2.274  -3.803  -4.766  1.00  0.00    -0.000 C 
BRANCH   6   7
ATOM      7  C   UNL     1      -2.285  -2.410  -5.426  1.00  0.00    -0.000 C 
BRANCH   7   8
ATOM      8  C   UNL     1      -2.794  -1.267  -4.529  1.00  0.00    -0.000 C 
BRANCH   8   9
ATOM      9  C   UNL     1      -4.325  -1.121  -4.555  1.00  0.00    -0.000 C 
BRANCH   9  10
ATOM     10  C   UNL     1      -4.935  -1.574  -5.898  1.00  0.00    -0.000 C 
BRANCH  10  11
ATOM     11  C   UNL     1      -5.682  -0.458  -6.647  1.00  0.00    -0.003 C 
ATOM     12  C   UNL     1      -5.931  -0.787  -8.117  1.00  0.00     0.004 C 
ENDBRANCH  10  11
ENDBRANCH   9  10
ENDBRANCH   8   9
ENDBRANCH   7   8
ENDBRANCH   6   7
ENDBRANCH   5   6
ENDBRANCH   4   5
ENDBRANCH   3   4
ENDBRANCH   2   3
ENDBRANCH   1   2
BRANCH   1  13
ATOM     13  C   UNL     1      -5.456  -7.823  -3.264  1.00  0.00     0.000 C 
BRANCH  13  14
ATOM     14  C   UNL     1      -6.461  -8.748  -3.974  1.00  0.00     0.000 C 
BRANCH  14  15
ATOM     15  C   UNL     1      -7.915  -8.459  -3.568  1.00  0.00     0.000 C 
BRANCH  15  16
ATOM     16  C   UNL     1      -8.815  -8.144  -4.775  1.00  0.00     0.000 C 
BRANCH  16  17
ATOM     17  C   UNL     1      -9.912  -7.114  -4.430  1.00  0.00     0.000 C 
BRANCH  17  18
ATOM     18  C   UNL     1      -9.373  -5.689  -4.219  1.00  0.00     0.000 C 
BRANCH  18  19
ATOM     19  C   UNL     1      -9.816  -5.077  -2.879  1.00  0.00     0.000 C 
BRANCH  19  20
ATOM     20  C   UNL     1      -9.792  -6.098  -1.730  1.00  0.00     0.006 C 
BRANCH  20  21
ATOM     21  C   UNL     1      -9.099  -5.555  -0.474  1.00  0.00     0.053 C 
BRANCH  21  22
ATOM     22  C   UNL     1      -8.764  -6.671   0.463  1.00  0.00     0.041 C 
ATOM     23  O   UNL     1      -8.559  -6.434   1.682  1.00  0.00    -0.550 OA
ATOM     24  O   UNL     1      -8.714  -7.980  -0.002  1.00  0.00    -0.550 OA
ENDBRANCH  21  22
ENDBRANCH  20  21
ENDBRANCH  19  20
ENDBRANCH  18  19
ENDBRANCH  17  18
ENDBRANCH  16  17
ENDBRANCH  15  16
ENDBRANCH  14  15
ENDBRANCH  13  14
ENDBRANCH   1  13
TORSDOF 20
ENDMDL
