MODEL 1
REMARK VINA RESULT:     5.724      0.000      0.000
REMARK INTER + INTRA:           6.035
REMARK INTER:                   6.059
REMARK INTRA:                  -0.024
REMARK UNBOUND:                -0.024
REMARK SMILES O=C([O-])c1cccnc1
REMARK SMILES IDX 4 1 5 2 9 3 6 4 8 5 7 6 2 7 1 8 3 9
REMARK H PARENT
REMARK Flexibility Score: inf
ROOT
ATOM      1  C   UNL     1       6.112  -7.880  29.318  1.00  0.00     0.016 A 
ATOM      2  C   UNL     1       6.120  -6.604  28.733  1.00  0.00     0.013 A 
ATOM      3  C   UNL     1       6.108  -9.003  28.472  1.00  0.00     0.120 A 
ATOM      4  C   UNL     1       6.125  -6.470  27.343  1.00  0.00     0.021 A 
ATOM      5  N   UNL     1       6.112  -8.844  27.122  1.00  0.00    -0.264 NA
ATOM      6  C   UNL     1       6.120  -7.614  26.545  1.00  0.00     0.111 A 
ENDROOT
BRANCH   1   7
ATOM      7  C   UNL     1       6.107  -8.035  30.788  1.00  0.00     0.073 C 
ATOM      8  O   UNL     1       6.121  -9.181  31.313  1.00  0.00    -0.545 OA
ATOM      9  O   UNL     1       6.087  -6.917  31.615  1.00  0.00    -0.545 OA
ENDBRANCH   1   7
TORSDOF 1
ENDMDL
MODEL 2
REMARK VINA RESULT:     5.820      4.189      4.615
REMARK INTER + INTRA:           6.137
REMARK INTER:                   6.156
REMARK INTRA:                  -0.020
REMARK UNBOUND:                -0.024
REMARK SMILES O=C([O-])c1cccnc1
REMARK SMILES IDX 4 1 5 2 9 3 6 4 8 5 7 6 2 7 1 8 3 9
REMARK H PARENT
REMARK Flexibility Score: inf
ROOT
ATOM      1  C   UNL     1       3.468  -7.170  31.493  1.00  0.00     0.016 A 
ATOM      2  C   UNL     1       4.419  -6.138  31.490  1.00  0.00     0.013 A 
ATOM      3  C   UNL     1       3.892  -8.470  31.820  1.00  0.00     0.120 A 
ATOM      4  C   UNL     1       5.751  -6.412  31.807  1.00  0.00     0.021 A 
ATOM      5  N   UNL     1       5.196  -8.709  32.125  1.00  0.00    -0.264 NA
ATOM      6  C   UNL     1       6.125  -7.718  32.125  1.00  0.00     0.111 A 
ENDROOT
BRANCH   1   7
ATOM      7  C   UNL     1       2.054  -6.893  31.159  1.00  0.00     0.073 C 
ATOM      8  O   UNL     1       1.457  -5.906  31.666  1.00  0.00    -0.545 OA
ATOM      9  O   UNL     1       1.362  -7.721  30.282  1.00  0.00    -0.545 OA
ENDBRANCH   1   7
TORSDOF 1
ENDMDL
MODEL 3
REMARK VINA RESULT:     7.515     16.481     17.246
REMARK INTER + INTRA:           7.931
REMARK INTER:                   7.947
REMARK INTRA:                  -0.016
REMARK UNBOUND:                -0.024
REMARK SMILES O=C([O-])c1cccnc1
REMARK SMILES IDX 4 1 5 2 9 3 6 4 8 5 7 6 2 7 1 8 3 9
REMARK H PARENT
REMARK Flexibility Score: inf
ROOT
ATOM      1  C   UNL     1      -7.516 -17.431  27.138  1.00  0.00     0.016 A 
ATOM      2  C   UNL     1      -8.332 -18.133  28.039  1.00  0.00     0.013 A 
ATOM      3  C   UNL     1      -8.001 -16.227  26.595  1.00  0.00     0.120 A 
ATOM      4  C   UNL     1      -9.591 -17.636  28.378  1.00  0.00     0.021 A 
ATOM      5  N   UNL     1      -9.232 -15.766  26.943  1.00  0.00    -0.264 NA
ATOM      6  C   UNL     1     -10.029 -16.438  27.813  1.00  0.00     0.111 A 
ENDROOT
BRANCH   1   7
ATOM      7  C   UNL     1      -6.180 -17.946  26.771  1.00  0.00     0.073 C 
ATOM      8  O   UNL     1      -5.170 -17.670  27.473  1.00  0.00    -0.545 OA
ATOM      9  O   UNL     1      -6.018 -18.743  25.643  1.00  0.00    -0.545 OA
ENDBRANCH   1   7
TORSDOF 1
ENDMDL
