MODEL 1
REMARK VINA RESULT:    36.525      0.000      0.000
REMARK INTER + INTRA:          43.477
REMARK INTER:                  41.864
REMARK INTRA:                   1.613
REMARK UNBOUND:                 1.613
REMARK SMILES C=C(C)[C@@H]1CC[C@@]2(C(=O)[O-])CC[C@@]3(C)[C@@H](CC[C@H]4[C@@]5(C)CC[C@@H](O)C(C)(C)[C@H]5CC[C@@]43C)[C@H]12
REMARK SMILES IDX 7 1 6 2 33 3 11 4 5 5 15 6 4 7 12 8 16 9 13 10 17 11 31 12
REMARK SMILES IDX 14 13 18 14 30 15 32 16 19 17 29 18 21 19 20 20 28 21 22 22
REMARK SMILES IDX 25 23 23 24 26 25 27 26 8 27 9 28 10 29 2 30 3 31 1 32 24 33
REMARK H PARENT 24 34
REMARK Flexibility Score: inf
ROOT
ATOM      1  C   UNL     1      13.171  33.390  42.181  1.00  0.00     0.014 C 
ATOM      2  C   UNL     1      11.936  32.604  42.658  1.00  0.00     0.014 C 
ATOM      3  C   UNL     1      13.704  32.421  41.099  1.00  0.00     0.012 C 
ATOM      4  C   UNL     1      14.260  33.587  43.258  1.00  0.00     0.014 C 
ATOM      5  C   UNL     1      11.316  32.020  41.373  1.00  0.00     0.009 C 
ATOM      6  C   UNL     1      15.005  32.910  40.405  1.00  0.00     0.000 C 
ATOM      7  C   UNL     1      12.461  31.893  40.340  1.00  0.00     0.018 C 
ATOM      8  C   UNL     1      15.582  34.109  42.624  1.00  0.00     0.008 C 
ATOM      9  C   UNL     1      15.516  31.982  39.289  1.00  0.00     0.005 C 
ATOM     10  C   UNL     1      16.159  33.205  41.464  1.00  0.00    -0.024 C 
ATOM     11  C   UNL     1      16.692  32.635  38.546  1.00  0.00     0.005 C 
ATOM     12  C   UNL     1      17.405  33.903  40.681  1.00  0.00    -0.024 C 
ATOM     13  C   UNL     1      16.621  31.878  42.188  1.00  0.00     0.012 C 
ATOM     14  C   UNL     1      17.879  32.951  39.503  1.00  0.00     0.002 C 
ATOM     15  C   UNL     1      18.623  34.101  41.617  1.00  0.00     0.008 C 
ATOM     16  C   UNL     1      16.985  35.326  40.162  1.00  0.00     0.012 C 
ATOM     17  C   UNL     1      19.263  33.253  38.754  1.00  0.00    -0.026 C 
ATOM     18  C   UNL     1      19.834  34.698  40.900  1.00  0.00     0.005 C 
ATOM     19  C   UNL     1      19.043  34.223  37.544  1.00  0.00     0.010 C 
ATOM     20  C   UNL     1      19.760  31.876  38.160  1.00  0.00     0.012 C 
ATOM     21  C   UNL     1      20.385  33.792  39.763  1.00  0.00     0.003 C 
ATOM     22  C   UNL     1      20.328  34.744  36.891  1.00  0.00     0.033 C 
ATOM     23  C   UNL     1      21.672  34.424  39.058  1.00  0.00    -0.006 C 
ATOM     24  C   UNL     1      21.271  35.395  37.906  1.00  0.00     0.120 C 
ATOM     25  C   UNL     1      22.564  35.212  40.064  1.00  0.00     0.014 C 
ATOM     26  C   UNL     1      22.606  33.308  38.508  1.00  0.00     0.014 C 
ENDROOT
BRANCH   1  27
ATOM     27  C   UNL     1      12.723  34.778  41.707  1.00  0.00     0.048 C 
ATOM     28  O   UNL     1      11.659  34.944  41.055  1.00  0.00    -0.550 OA
ATOM     29  O   UNL     1      13.561  35.877  41.871  1.00  0.00    -0.550 OA
ENDBRANCH   1  27
BRANCH   7  30
ATOM     30  C   UNL     1      12.137  32.511  38.972  1.00  0.00    -0.077 C 
ATOM     31  C   UNL     1      12.781  32.065  37.683  1.00  0.00     0.039 C 
ATOM     32  C   UNL     1      11.262  33.534  38.901  1.00  0.00     0.008 C 
ENDBRANCH   7  30
BRANCH  24  33
ATOM     33  O   UNL     1      20.657  36.552  38.423  1.00  0.00    -0.393 OA
ATOM     34  H   UNL     1      19.682  36.463  38.268  1.00  0.00     0.210 HD
ENDBRANCH  24  33
TORSDOF 3
ENDMDL
MODEL 2
REMARK VINA RESULT:    36.826      4.313      6.992
REMARK INTER + INTRA:          43.821
REMARK INTER:                  42.843
REMARK INTRA:                   0.978
REMARK UNBOUND:                 1.613
REMARK SMILES C=C(C)[C@@H]1CC[C@@]2(C(=O)[O-])CC[C@@]3(C)[C@@H](CC[C@H]4[C@@]5(C)CC[C@@H](O)C(C)(C)[C@H]5CC[C@@]43C)[C@H]12
REMARK SMILES IDX 7 1 6 2 33 3 11 4 5 5 15 6 4 7 12 8 16 9 13 10 17 11 31 12
REMARK SMILES IDX 14 13 18 14 30 15 32 16 19 17 29 18 21 19 20 20 28 21 22 22
REMARK SMILES IDX 25 23 23 24 26 25 27 26 8 27 9 28 10 29 2 30 3 31 1 32 24 33
REMARK H PARENT 24 34
REMARK Flexibility Score: inf
ROOT
ATOM      1  C   UNL     1      19.724  32.652  38.219  1.00  0.00     0.014 C 
ATOM      2  C   UNL     1      19.538  31.877  36.901  1.00  0.00     0.014 C 
ATOM      3  C   UNL     1      20.386  33.942  37.679  1.00  0.00     0.012 C 
ATOM      4  C   UNL     1      20.683  31.980  39.226  1.00  0.00     0.014 C 
ATOM      5  C   UNL     1      19.090  32.937  35.876  1.00  0.00     0.009 C 
ATOM      6  C   UNL     1      20.744  34.972  38.784  1.00  0.00     0.000 C 
ATOM      7  C   UNL     1      19.638  34.298  36.369  1.00  0.00     0.018 C 
ATOM      8  C   UNL     1      21.052  32.958  40.379  1.00  0.00     0.008 C 
ATOM      9  C   UNL     1      21.353  36.283  38.256  1.00  0.00     0.005 C 
ATOM     10  C   UNL     1      21.678  34.329  39.906  1.00  0.00    -0.024 C 
ATOM     11  C   UNL     1      21.503  37.302  39.397  1.00  0.00     0.005 C 
ATOM     12  C   UNL     1      21.833  35.404  41.119  1.00  0.00    -0.024 C 
ATOM     13  C   UNL     1      23.090  33.938  39.314  1.00  0.00     0.012 C 
ATOM     14  C   UNL     1      22.412  36.764  40.540  1.00  0.00     0.002 C 
ATOM     15  C   UNL     1      22.836  34.908  42.190  1.00  0.00     0.008 C 
ATOM     16  C   UNL     1      20.451  35.608  41.839  1.00  0.00     0.012 C 
ATOM     17  C   UNL     1      22.934  37.893  41.551  1.00  0.00    -0.026 C 
ATOM     18  C   UNL     1      23.054  35.920  43.316  1.00  0.00     0.005 C 
ATOM     19  C   UNL     1      21.768  38.856  41.960  1.00  0.00     0.010 C 
ATOM     20  C   UNL     1      23.990  38.754  40.754  1.00  0.00     0.012 C 
ATOM     21  C   UNL     1      23.670  37.261  42.827  1.00  0.00     0.003 C 
ATOM     22  C   UNL     1      22.107  39.840  43.085  1.00  0.00     0.033 C 
ATOM     23  C   UNL     1      23.921  38.282  44.029  1.00  0.00    -0.006 C 
ATOM     24  C   UNL     1      22.649  39.132  44.330  1.00  0.00     0.120 C 
ATOM     25  C   UNL     1      24.335  37.552  45.342  1.00  0.00     0.014 C 
ATOM     26  C   UNL     1      25.122  39.221  43.716  1.00  0.00     0.014 C 
ENDROOT
BRANCH   1  27
ATOM     27  C   UNL     1      18.359  32.806  38.900  1.00  0.00     0.048 C 
ATOM     28  O   UNL     1      18.199  33.551  39.902  1.00  0.00    -0.550 OA
ATOM     29  O   UNL     1      17.287  32.011  38.504  1.00  0.00    -0.550 OA
ENDBRANCH   1  27
BRANCH   7  30
ATOM     30  C   UNL     1      18.581  35.411  36.424  1.00  0.00    -0.077 C 
ATOM     31  C   UNL     1      17.158  35.231  35.956  1.00  0.00     0.039 C 
ATOM     32  C   UNL     1      18.930  36.631  36.875  1.00  0.00     0.008 C 
ENDBRANCH   7  30
BRANCH  24  33
ATOM     33  O   UNL     1      21.631  38.326  44.876  1.00  0.00    -0.393 OA
ATOM     34  H   UNL     1      22.015  37.422  45.017  1.00  0.00     0.210 HD
ENDBRANCH  24  33
TORSDOF 3
ENDMDL
MODEL 3
REMARK VINA RESULT:    38.287      4.427      7.412
REMARK INTER + INTRA:          45.496
REMARK INTER:                  44.839
REMARK INTRA:                   0.657
REMARK UNBOUND:                 1.613
REMARK SMILES C=C(C)[C@@H]1CC[C@@]2(C(=O)[O-])CC[C@@]3(C)[C@@H](CC[C@H]4[C@@]5(C)CC[C@@H](O)C(C)(C)[C@H]5CC[C@@]43C)[C@H]12
REMARK SMILES IDX 7 1 6 2 33 3 11 4 5 5 15 6 4 7 12 8 16 9 13 10 17 11 31 12
REMARK SMILES IDX 14 13 18 14 30 15 32 16 19 17 29 18 21 19 20 20 28 21 22 22
REMARK SMILES IDX 25 23 23 24 26 25 27 26 8 27 9 28 10 29 2 30 3 31 1 32 24 33
REMARK H PARENT 24 34
REMARK Flexibility Score: inf
ROOT
ATOM      1  C   UNL     1      19.257  33.571  38.163  1.00  0.00     0.014 C 
ATOM      2  C   UNL     1      18.853  32.262  37.459  1.00  0.00     0.014 C 
ATOM      3  C   UNL     1      20.728  33.243  38.515  1.00  0.00     0.012 C 
ATOM      4  C   UNL     1      18.483  33.861  39.468  1.00  0.00     0.014 C 
ATOM      5  C   UNL     1      20.076  31.877  36.604  1.00  0.00     0.009 C 
ATOM      6  C   UNL     1      21.458  34.379  39.282  1.00  0.00     0.000 C 
ATOM      7  C   UNL     1      21.315  32.511  37.282  1.00  0.00     0.018 C 
ATOM      8  C   UNL     1      19.152  35.018  40.266  1.00  0.00     0.008 C 
ATOM      9  C   UNL     1      22.937  34.087  39.590  1.00  0.00     0.005 C 
ATOM     10  C   UNL     1      20.676  34.786  40.610  1.00  0.00    -0.024 C 
ATOM     11  C   UNL     1      23.616  35.332  40.183  1.00  0.00     0.005 C 
ATOM     12  C   UNL     1      21.389  36.109  41.237  1.00  0.00    -0.024 C 
ATOM     13  C   UNL     1      20.671  33.600  41.655  1.00  0.00     0.012 C 
ATOM     14  C   UNL     1      22.924  35.800  41.497  1.00  0.00     0.002 C 
ATOM     15  C   UNL     1      20.771  36.491  42.605  1.00  0.00     0.008 C 
ATOM     16  C   UNL     1      21.185  37.337  40.278  1.00  0.00     0.012 C 
ATOM     17  C   UNL     1      23.798  36.821  42.371  1.00  0.00    -0.026 C 
ATOM     18  C   UNL     1      21.457  37.694  43.254  1.00  0.00     0.005 C 
ATOM     19  C   UNL     1      24.432  37.929  41.464  1.00  0.00     0.010 C 
ATOM     20  C   UNL     1      24.988  35.983  42.981  1.00  0.00     0.012 C 
ATOM     21  C   UNL     1      22.955  37.443  43.583  1.00  0.00     0.003 C 
ATOM     22  C   UNL     1      25.110  39.075  42.223  1.00  0.00     0.033 C 
ATOM     23  C   UNL     1      23.634  38.702  44.294  1.00  0.00    -0.006 C 
ATOM     24  C   UNL     1      24.175  39.724  43.248  1.00  0.00     0.120 C 
ATOM     25  C   UNL     1      22.642  39.453  45.232  1.00  0.00     0.014 C 
ATOM     26  C   UNL     1      24.787  38.251  45.237  1.00  0.00     0.014 C 
ENDROOT
BRANCH   1  27
ATOM     27  C   UNL     1      19.020  34.744  37.204  1.00  0.00     0.048 C 
ATOM     28  O   UNL     1      18.310  34.623  36.172  1.00  0.00    -0.550 OA
ATOM     29  O   UNL     1      19.704  35.943  37.384  1.00  0.00    -0.550 OA
ENDBRANCH   1  27
BRANCH   7  30
ATOM     30  C   UNL     1      22.205  33.316  36.324  1.00  0.00    -0.077 C 
ATOM     31  C   UNL     1      23.572  32.859  35.875  1.00  0.00     0.039 C 
ATOM     32  C   UNL     1      21.780  34.514  35.878  1.00  0.00     0.008 C 
ENDBRANCH   7  30
BRANCH  24  33
ATOM     33  O   UNL     1      23.112  40.347  42.567  1.00  0.00    -0.393 OA
ATOM     34  H   UNL     1      22.820  41.118  43.119  1.00  0.00     0.210 HD
ENDBRANCH  24  33
TORSDOF 3
ENDMDL
