MODEL 1
REMARK VINA RESULT:    -3.804      0.000      0.000
REMARK INTER + INTRA:          -5.166
REMARK INTER:                  -4.916
REMARK INTRA:                  -0.250
REMARK UNBOUND:                -0.250
REMARK SMILES CCCCCCC(=O)[O-]
REMARK SMILES IDX 5 1 6 2 7 3 8 4 9 5 4 6 3 7 2 8 1 9
REMARK H PARENT
REMARK Flexibility Score: inf
ROOT
ATOM      1  C   UNL     1     -38.947  18.865 -28.709  1.00  0.00     0.006 C 
ENDROOT
BRANCH   1   2
ATOM      2  C   UNL     1     -38.460  18.622 -30.147  1.00  0.00     0.053 C 
BRANCH   2   3
ATOM      3  C   UNL     1     -38.435  17.165 -30.492  1.00  0.00     0.041 C 
ATOM      4  O   UNL     1     -37.469  16.444 -30.129  1.00  0.00    -0.550 OA
ATOM      5  O   UNL     1     -39.462  16.609 -31.245  1.00  0.00    -0.550 OA
ENDBRANCH   2   3
ENDBRANCH   1   2
BRANCH   1   6
ATOM      6  C   UNL     1     -40.079  19.904 -28.587  1.00  0.00     0.000 C 
BRANCH   6   7
ATOM      7  C   UNL     1     -39.784  21.199 -29.362  1.00  0.00    -0.000 C 
BRANCH   7   8
ATOM      8  C   UNL     1     -39.051  22.244 -28.505  1.00  0.00    -0.003 C 
ATOM      9  C   UNL     1     -37.570  22.371 -28.863  1.00  0.00     0.004 C 
ENDBRANCH   7   8
ENDBRANCH   6   7
ENDBRANCH   1   6
TORSDOF 5
ENDMDL
MODEL 2
REMARK VINA RESULT:    -3.769      1.918      2.877
REMARK INTER + INTRA:          -5.121
REMARK INTER:                  -4.781
REMARK INTRA:                  -0.340
REMARK UNBOUND:                -0.250
REMARK SMILES CCCCCCC(=O)[O-]
REMARK SMILES IDX 5 1 6 2 7 3 8 4 9 5 4 6 3 7 2 8 1 9
REMARK H PARENT
REMARK Flexibility Score: inf
ROOT
ATOM      1  C   UNL     1     -38.429  18.011 -30.746  1.00  0.00     0.006 C 
ENDROOT
BRANCH   1   2
ATOM      2  C   UNL     1     -37.675  17.300 -29.610  1.00  0.00     0.053 C 
BRANCH   2   3
ATOM      3  C   UNL     1     -36.203  17.220 -29.876  1.00  0.00     0.041 C 
ATOM      4  O   UNL     1     -35.750  16.357 -30.675  1.00  0.00    -0.550 OA
ATOM      5  O   UNL     1     -35.329  18.075 -29.218  1.00  0.00    -0.550 OA
ENDBRANCH   2   3
ENDBRANCH   1   2
BRANCH   1   6
ATOM      6  C   UNL     1     -38.445  19.548 -30.636  1.00  0.00     0.000 C 
BRANCH   6   7
ATOM      7  C   UNL     1     -38.584  20.039 -29.185  1.00  0.00    -0.000 C 
BRANCH   7   8
ATOM      8  C   UNL     1     -40.037  20.380 -28.816  1.00  0.00    -0.003 C 
ATOM      9  C   UNL     1     -40.735  19.253 -28.055  1.00  0.00     0.004 C 
ENDBRANCH   7   8
ENDBRANCH   6   7
ENDBRANCH   1   6
TORSDOF 5
ENDMDL
MODEL 3
REMARK VINA RESULT:    -3.719      3.269      4.336
REMARK INTER + INTRA:          -5.056
REMARK INTER:                  -4.693
REMARK INTRA:                  -0.364
REMARK UNBOUND:                -0.250
REMARK SMILES CCCCCCC(=O)[O-]
REMARK SMILES IDX 5 1 6 2 7 3 8 4 9 5 4 6 3 7 2 8 1 9
REMARK H PARENT
REMARK Flexibility Score: inf
ROOT
ATOM      1  C   UNL     1     -39.563  19.489 -28.676  1.00  0.00     0.006 C 
ENDROOT
BRANCH   1   2
ATOM      2  C   UNL     1     -39.778  20.911 -29.218  1.00  0.00     0.053 C 
BRANCH   2   3
ATOM      3  C   UNL     1     -38.732  21.864 -28.727  1.00  0.00     0.041 C 
ATOM      4  O   UNL     1     -37.517  21.660 -28.988  1.00  0.00    -0.550 OA
ATOM      5  O   UNL     1     -39.094  22.959 -27.952  1.00  0.00    -0.550 OA
ENDBRANCH   2   3
ENDBRANCH   1   2
BRANCH   1   6
ATOM      6  C   UNL     1     -38.925  18.513 -29.683  1.00  0.00     0.000 C 
BRANCH   6   7
ATOM      7  C   UNL     1     -37.619  17.889 -29.161  1.00  0.00    -0.000 C 
BRANCH   7   8
ATOM      8  C   UNL     1     -37.319  18.283 -27.706  1.00  0.00    -0.003 C 
ATOM      9  C   UNL     1     -35.955  18.955 -27.543  1.00  0.00     0.004 C 
ENDBRANCH   7   8
ENDBRANCH   6   7
ENDBRANCH   1   6
TORSDOF 5
ENDMDL
MODEL 4
REMARK VINA RESULT:    -3.701      2.754      4.366
REMARK INTER + INTRA:          -5.033
REMARK INTER:                  -4.714
REMARK INTRA:                  -0.319
REMARK UNBOUND:                -0.250
REMARK SMILES CCCCCCC(=O)[O-]
REMARK SMILES IDX 5 1 6 2 7 3 8 4 9 5 4 6 3 7 2 8 1 9
REMARK H PARENT
REMARK Flexibility Score: inf
ROOT
ATOM      1  C   UNL     1     -38.369  19.338 -30.708  1.00  0.00     0.006 C 
ENDROOT
BRANCH   1   2
ATOM      2  C   UNL     1     -38.464  19.951 -29.301  1.00  0.00     0.053 C 
BRANCH   2   3
ATOM      3  C   UNL     1     -39.873  20.303 -28.935  1.00  0.00     0.041 C 
ATOM      4  O   UNL     1     -40.560  19.516 -28.232  1.00  0.00    -0.550 OA
ATOM      5  O   UNL     1     -40.439  21.484 -29.399  1.00  0.00    -0.550 OA
ENDBRANCH   2   3
ENDBRANCH   1   2
BRANCH   1   6
ATOM      6  C   UNL     1     -38.543  17.808 -30.749  1.00  0.00     0.000 C 
BRANCH   6   7
ATOM      7  C   UNL     1     -37.647  17.079 -29.734  1.00  0.00    -0.000 C 
BRANCH   7   8
ATOM      8  C   UNL     1     -36.203  16.914 -30.236  1.00  0.00    -0.003 C 
ATOM      9  C   UNL     1     -35.209  17.801 -29.487  1.00  0.00     0.004 C 
ENDBRANCH   7   8
ENDBRANCH   6   7
ENDBRANCH   1   6
TORSDOF 5
ENDMDL
MODEL 5
REMARK VINA RESULT:    -3.686      3.413      4.832
REMARK INTER + INTRA:          -5.013
REMARK INTER:                  -4.743
REMARK INTRA:                  -0.270
REMARK UNBOUND:                -0.250
REMARK SMILES CCCCCCC(=O)[O-]
REMARK SMILES IDX 5 1 6 2 7 3 8 4 9 5 4 6 3 7 2 8 1 9
REMARK H PARENT
REMARK Flexibility Score: inf
ROOT
ATOM      1  C   UNL     1     -39.645  20.624 -29.092  1.00  0.00     0.006 C 
ENDROOT
BRANCH   1   2
ATOM      2  C   UNL     1     -38.276  21.279 -29.340  1.00  0.00     0.053 C 
BRANCH   2   3
ATOM      3  C   UNL     1     -38.075  22.497 -28.493  1.00  0.00     0.041 C 
ATOM      4  O   UNL     1     -36.912  22.919 -28.257  1.00  0.00    -0.550 OA
ATOM      5  O   UNL     1     -39.168  23.148 -27.936  1.00  0.00    -0.550 OA
ENDBRANCH   2   3
ENDBRANCH   1   2
BRANCH   1   6
ATOM      6  C   UNL     1     -39.586  19.108 -28.820  1.00  0.00     0.000 C 
BRANCH   6   7
ATOM      7  C   UNL     1     -38.154  18.601 -28.584  1.00  0.00    -0.000 C 
BRANCH   7   8
ATOM      8  C   UNL     1     -37.702  17.594 -29.654  1.00  0.00    -0.003 C 
ATOM      9  C   UNL     1     -38.806  17.261 -30.658  1.00  0.00     0.004 C 
ENDBRANCH   7   8
ENDBRANCH   6   7
ENDBRANCH   1   6
TORSDOF 5
ENDMDL
MODEL 6
REMARK VINA RESULT:    -3.685      3.024      4.794
REMARK INTER + INTRA:          -5.013
REMARK INTER:                  -4.714
REMARK INTRA:                  -0.299
REMARK UNBOUND:                -0.250
REMARK SMILES CCCCCCC(=O)[O-]
REMARK SMILES IDX 5 1 6 2 7 3 8 4 9 5 4 6 3 7 2 8 1 9
REMARK H PARENT
REMARK Flexibility Score: inf
ROOT
ATOM      1  C   UNL     1     -39.774  19.755 -28.729  1.00  0.00     0.006 C 
ENDROOT
BRANCH   1   2
ATOM      2  C   UNL     1     -39.475  20.986 -29.600  1.00  0.00     0.053 C 
BRANCH   2   3
ATOM      3  C   UNL     1     -38.604  21.977 -28.890  1.00  0.00     0.041 C 
ATOM      4  O   UNL     1     -39.110  22.805 -28.087  1.00  0.00    -0.550 OA
ATOM      5  O   UNL     1     -37.238  22.010 -29.141  1.00  0.00    -0.550 OA
ENDBRANCH   2   3
ENDBRANCH   1   2
BRANCH   1   6
ATOM      6  C   UNL     1     -38.601  18.765 -28.600  1.00  0.00     0.000 C 
BRANCH   6   7
ATOM      7  C   UNL     1     -37.936  18.450 -29.951  1.00  0.00    -0.000 C 
BRANCH   7   8
ATOM      8  C   UNL     1     -38.139  16.988 -30.380  1.00  0.00    -0.003 C 
ATOM      9  C   UNL     1     -39.436  16.774 -31.159  1.00  0.00     0.004 C 
ENDBRANCH   7   8
ENDBRANCH   6   7
ENDBRANCH   1   6
TORSDOF 5
ENDMDL
MODEL 7
REMARK VINA RESULT:    -3.641      2.516      4.383
REMARK INTER + INTRA:          -4.956
REMARK INTER:                  -4.533
REMARK INTRA:                  -0.423
REMARK UNBOUND:                -0.250
REMARK SMILES CCCCCCC(=O)[O-]
REMARK SMILES IDX 5 1 6 2 7 3 8 4 9 5 4 6 3 7 2 8 1 9
REMARK H PARENT
REMARK Flexibility Score: inf
ROOT
ATOM      1  C   UNL     1     -37.671  21.080 -30.200  1.00  0.00     0.006 C 
ENDROOT
BRANCH   1   2
ATOM      2  C   UNL     1     -38.402  21.109 -28.848  1.00  0.00     0.053 C 
BRANCH   2   3
ATOM      3  C   UNL     1     -39.844  20.728 -28.981  1.00  0.00     0.041 C 
ATOM      4  O   UNL     1     -40.658  21.513 -29.537  1.00  0.00    -0.550 OA
ATOM      5  O   UNL     1     -40.298  19.522 -28.462  1.00  0.00    -0.550 OA
ENDBRANCH   2   3
ENDBRANCH   1   2
BRANCH   1   6
ATOM      6  C   UNL     1     -37.767  19.737 -30.948  1.00  0.00     0.000 C 
BRANCH   6   7
ATOM      7  C   UNL     1     -36.927  18.628 -30.290  1.00  0.00    -0.000 C 
BRANCH   7   8
ATOM      8  C   UNL     1     -37.784  17.441 -29.822  1.00  0.00    -0.003 C 
ATOM      9  C   UNL     1     -38.926  17.117 -30.785  1.00  0.00     0.004 C 
ENDBRANCH   7   8
ENDBRANCH   6   7
ENDBRANCH   1   6
TORSDOF 5
ENDMDL
MODEL 8
REMARK VINA RESULT:    -3.587      2.908      4.208
REMARK INTER + INTRA:          -4.886
REMARK INTER:                  -4.500
REMARK INTRA:                  -0.386
REMARK UNBOUND:                -0.250
REMARK SMILES CCCCCCC(=O)[O-]
REMARK SMILES IDX 5 1 6 2 7 3 8 4 9 5 4 6 3 7 2 8 1 9
REMARK H PARENT
REMARK Flexibility Score: inf
ROOT
ATOM      1  C   UNL     1     -38.671  20.310 -29.655  1.00  0.00     0.006 C 
ENDROOT
BRANCH   1   2
ATOM      2  C   UNL     1     -38.305  20.474 -31.139  1.00  0.00     0.053 C 
BRANCH   2   3
ATOM      3  C   UNL     1     -36.906  20.977 -31.321  1.00  0.00     0.041 C 
ATOM      4  O   UNL     1     -36.099  20.967 -30.355  1.00  0.00    -0.550 OA
ATOM      5  O   UNL     1     -36.503  21.488 -32.548  1.00  0.00    -0.550 OA
ENDBRANCH   2   3
ENDBRANCH   1   2
BRANCH   1   6
ATOM      6  C   UNL     1     -39.026  18.870 -29.241  1.00  0.00     0.000 C 
BRANCH   6   7
ATOM      7  C   UNL     1     -38.795  17.852 -30.371  1.00  0.00    -0.000 C 
BRANCH   7   8
ATOM      8  C   UNL     1     -37.737  16.798 -30.006  1.00  0.00    -0.003 C 
ATOM      9  C   UNL     1     -36.311  17.349 -30.055  1.00  0.00     0.004 C 
ENDBRANCH   7   8
ENDBRANCH   6   7
ENDBRANCH   1   6
TORSDOF 5
ENDMDL
MODEL 9
REMARK VINA RESULT:    -3.585      2.578      3.439
REMARK INTER + INTRA:          -4.883
REMARK INTER:                  -4.506
REMARK INTRA:                  -0.377
REMARK UNBOUND:                -0.250
REMARK SMILES CCCCCCC(=O)[O-]
REMARK SMILES IDX 5 1 6 2 7 3 8 4 9 5 4 6 3 7 2 8 1 9
REMARK H PARENT
REMARK Flexibility Score: inf
ROOT
ATOM      1  C   UNL     1     -37.539  17.822 -29.203  1.00  0.00     0.006 C 
ENDROOT
BRANCH   1   2
ATOM      2  C   UNL     1     -37.309  18.254 -27.745  1.00  0.00     0.053 C 
BRANCH   2   3
ATOM      3  C   UNL     1     -36.024  19.004 -27.577  1.00  0.00     0.041 C 
ATOM      4  O   UNL     1     -35.536  19.649 -28.542  1.00  0.00    -0.550 OA
ATOM      5  O   UNL     1     -35.347  18.963 -26.364  1.00  0.00    -0.550 OA
ENDBRANCH   2   3
ENDBRANCH   1   2
BRANCH   1   6
ATOM      6  C   UNL     1     -38.801  18.420 -29.853  1.00  0.00     0.000 C 
BRANCH   6   7
ATOM      7  C   UNL     1     -39.684  19.181 -28.849  1.00  0.00    -0.000 C 
BRANCH   7   8
ATOM      8  C   UNL     1     -39.869  20.658 -29.231  1.00  0.00    -0.003 C 
ATOM      9  C   UNL     1     -38.657  21.519 -28.873  1.00  0.00     0.004 C 
ENDBRANCH   7   8
ENDBRANCH   6   7
ENDBRANCH   1   6
TORSDOF 5
ENDMDL
