MODEL 1
REMARK VINA RESULT:    -3.676      0.000      0.000
REMARK INTER + INTRA:          -4.875
REMARK INTER:                  -4.535
REMARK INTRA:                  -0.339
REMARK UNBOUND:                -0.339
REMARK SMILES C=CC[C@@H](C)C(=O)CC
REMARK SMILES IDX 4 1 5 2 6 3 7 4 8 5 9 6 3 7 2 8 1 9
REMARK H PARENT
REMARK Flexibility Score: inf
ROOT
ATOM      1  C   UNL     1       7.502 -16.485  23.809  1.00  0.00     0.057 C 
ATOM      2  C   UNL     1       7.859 -17.865  23.244  1.00  0.00     0.016 C 
ENDROOT
BRANCH   1   3
ATOM      3  C   UNL     1       8.656 -15.948  24.633  1.00  0.00     0.135 C 
ATOM      4  O   UNL     1       8.722 -16.211  25.826  1.00  0.00    -0.299 OA
BRANCH   3   5
ATOM      5  C   UNL     1       9.734 -15.106  24.006  1.00  0.00     0.072 C 
ATOM      6  C   UNL     1      10.987 -15.937  23.745  1.00  0.00     0.012 C 
ENDBRANCH   3   5
ENDBRANCH   1   3
BRANCH   1   7
ATOM      7  C   UNL     1       7.132 -15.512  22.671  1.00  0.00     0.038 C 
BRANCH   7   8
ATOM      8  C   UNL     1       7.334 -16.128  21.310  1.00  0.00    -0.034 C 
ATOM      9  C   UNL     1       6.778 -15.608  20.212  1.00  0.00     0.004 C 
ENDBRANCH   7   8
ENDBRANCH   1   7
TORSDOF 4
ENDMDL
MODEL 2
REMARK VINA RESULT:    -3.587      1.102      2.596
REMARK INTER + INTRA:          -4.765
REMARK INTER:                  -4.307
REMARK INTRA:                  -0.457
REMARK UNBOUND:                -0.339
REMARK SMILES C=CC[C@@H](C)C(=O)CC
REMARK SMILES IDX 4 1 5 2 6 3 7 4 8 5 9 6 3 7 2 8 1 9
REMARK H PARENT
REMARK Flexibility Score: inf
ROOT
ATOM      1  C   UNL     1       8.796 -16.143  23.804  1.00  0.00     0.057 C 
ATOM      2  C   UNL     1      10.185 -15.528  24.010  1.00  0.00     0.016 C 
ENDROOT
BRANCH   1   3
ATOM      3  C   UNL     1       8.354 -16.859  25.065  1.00  0.00     0.135 C 
ATOM      4  O   UNL     1       8.367 -16.266  26.135  1.00  0.00    -0.299 OA
BRANCH   3   5
ATOM      5  C   UNL     1       7.883 -18.288  25.023  1.00  0.00     0.072 C 
ATOM      6  C   UNL     1       6.479 -18.379  24.434  1.00  0.00     0.012 C 
ENDBRANCH   3   5
ENDBRANCH   1   3
BRANCH   1   7
ATOM      7  C   UNL     1       7.779 -15.060  23.393  1.00  0.00     0.038 C 
BRANCH   7   8
ATOM      8  C   UNL     1       7.037 -15.427  22.133  1.00  0.00    -0.034 C 
ATOM      9  C   UNL     1       7.468 -16.394  21.319  1.00  0.00     0.004 C 
ENDBRANCH   7   8
ENDBRANCH   1   7
TORSDOF 4
ENDMDL
MODEL 3
REMARK VINA RESULT:    -3.578      4.915      6.519
REMARK INTER + INTRA:          -4.754
REMARK INTER:                  -4.526
REMARK INTRA:                  -0.228
REMARK UNBOUND:                -0.339
REMARK SMILES C=CC[C@@H](C)C(=O)CC
REMARK SMILES IDX 4 1 5 2 6 3 7 4 8 5 9 6 3 7 2 8 1 9
REMARK H PARENT
REMARK Flexibility Score: inf
ROOT
ATOM      1  C   UNL     1       7.348 -21.055  21.296  1.00  0.00     0.057 C 
ATOM      2  C   UNL     1       7.777 -19.663  20.818  1.00  0.00     0.016 C 
ENDROOT
BRANCH   1   3
ATOM      3  C   UNL     1       8.175 -22.119  20.602  1.00  0.00     0.135 C 
ATOM      4  O   UNL     1       8.308 -22.087  19.386  1.00  0.00    -0.299 OA
BRANCH   3   5
ATOM      5  C   UNL     1       8.852 -23.211  21.385  1.00  0.00     0.072 C 
ATOM      6  C   UNL     1      10.341 -22.922  21.542  1.00  0.00     0.012 C 
ENDBRANCH   3   5
ENDBRANCH   1   3
BRANCH   1   7
ATOM      7  C   UNL     1       7.474 -21.164  22.829  1.00  0.00     0.038 C 
BRANCH   7   8
ATOM      8  C   UNL     1       6.383 -20.410  23.543  1.00  0.00    -0.034 C 
ATOM      9  C   UNL     1       6.653 -19.399  24.375  1.00  0.00     0.004 C 
ENDBRANCH   7   8
ENDBRANCH   1   7
TORSDOF 4
ENDMDL
MODEL 4
REMARK VINA RESULT:    -3.521      1.635      3.030
REMARK INTER + INTRA:          -4.684
REMARK INTER:                  -4.400
REMARK INTRA:                  -0.284
REMARK UNBOUND:                -0.339
REMARK SMILES C=CC[C@@H](C)C(=O)CC
REMARK SMILES IDX 4 1 5 2 6 3 7 4 8 5 9 6 3 7 2 8 1 9
REMARK H PARENT
REMARK Flexibility Score: inf
ROOT
ATOM      1  C   UNL     1       7.732 -16.645  23.434  1.00  0.00     0.057 C 
ATOM      2  C   UNL     1       6.847 -15.560  22.810  1.00  0.00     0.016 C 
ENDROOT
BRANCH   1   3
ATOM      3  C   UNL     1       8.663 -16.030  24.460  1.00  0.00     0.135 C 
ATOM      4  O   UNL     1       9.304 -15.028  24.174  1.00  0.00    -0.299 OA
BRANCH   3   5
ATOM      5  C   UNL     1       8.802 -16.622  25.837  1.00  0.00     0.072 C 
ATOM      6  C   UNL     1      10.174 -17.265  26.014  1.00  0.00     0.012 C 
ENDBRANCH   3   5
ENDBRANCH   1   3
BRANCH   1   7
ATOM      7  C   UNL     1       6.866 -17.756  24.063  1.00  0.00     0.038 C 
BRANCH   7   8
ATOM      8  C   UNL     1       7.193 -19.116  23.503  1.00  0.00    -0.034 C 
ATOM      9  C   UNL     1       6.771 -20.239  24.090  1.00  0.00     0.004 C 
ENDBRANCH   7   8
ENDBRANCH   1   7
TORSDOF 4
ENDMDL
MODEL 5
REMARK VINA RESULT:    -3.414      2.022      2.990
REMARK INTER + INTRA:          -4.551
REMARK INTER:                  -4.292
REMARK INTRA:                  -0.260
REMARK UNBOUND:                -0.339
REMARK SMILES C=CC[C@@H](C)C(=O)CC
REMARK SMILES IDX 4 1 5 2 6 3 7 4 8 5 9 6 3 7 2 8 1 9
REMARK H PARENT
REMARK Flexibility Score: inf
ROOT
ATOM      1  C   UNL     1       7.252 -17.310  24.162  1.00  0.00     0.057 C 
ATOM      2  C   UNL     1       7.679 -17.798  25.552  1.00  0.00     0.016 C 
ENDROOT
BRANCH   1   3
ATOM      3  C   UNL     1       7.876 -15.959  23.873  1.00  0.00     0.135 C 
ATOM      4  O   UNL     1       7.413 -15.255  22.987  1.00  0.00    -0.299 OA
BRANCH   3   5
ATOM      5  C   UNL     1       9.052 -15.460  24.669  1.00  0.00     0.072 C 
ATOM      6  C   UNL     1      10.327 -15.498  23.833  1.00  0.00     0.012 C 
ENDBRANCH   3   5
ENDBRANCH   1   3
BRANCH   1   7
ATOM      7  C   UNL     1       7.636 -18.343  23.084  1.00  0.00     0.038 C 
BRANCH   7   8
ATOM      8  C   UNL     1       7.575 -19.756  23.605  1.00  0.00    -0.034 C 
ATOM      9  C   UNL     1       6.791 -20.681  23.043  1.00  0.00     0.004 C 
ENDBRANCH   7   8
ENDBRANCH   1   7
TORSDOF 4
ENDMDL
MODEL 6
REMARK VINA RESULT:    -3.403      1.442      3.637
REMARK INTER + INTRA:          -4.538
REMARK INTER:                  -4.247
REMARK INTRA:                  -0.290
REMARK UNBOUND:                -0.339
REMARK SMILES C=CC[C@@H](C)C(=O)CC
REMARK SMILES IDX 4 1 5 2 6 3 7 4 8 5 9 6 3 7 2 8 1 9
REMARK H PARENT
REMARK Flexibility Score: inf
ROOT
ATOM      1  C   UNL     1       7.995 -16.967  23.651  1.00  0.00     0.057 C 
ATOM      2  C   UNL     1       6.972 -17.850  24.374  1.00  0.00     0.016 C 
ENDROOT
BRANCH   1   3
ATOM      3  C   UNL     1       7.326 -16.224  22.512  1.00  0.00     0.135 C 
ATOM      4  O   UNL     1       6.471 -15.384  22.755  1.00  0.00    -0.299 OA
BRANCH   3   5
ATOM      5  C   UNL     1       7.707 -16.491  21.080  1.00  0.00     0.072 C 
ATOM      6  C   UNL     1       6.791 -15.733  20.125  1.00  0.00     0.012 C 
ENDBRANCH   3   5
ENDBRANCH   1   3
BRANCH   1   7
ATOM      7  C   UNL     1       8.659 -15.988  24.640  1.00  0.00     0.038 C 
BRANCH   7   8
ATOM      8  C   UNL     1       9.784 -15.213  24.002  1.00  0.00    -0.034 C 
ATOM      9  C   UNL     1      10.930 -15.801  23.646  1.00  0.00     0.004 C 
ENDBRANCH   7   8
ENDBRANCH   1   7
TORSDOF 4
ENDMDL
MODEL 7
REMARK VINA RESULT:    -3.372      1.867      3.883
REMARK INTER + INTRA:          -4.499
REMARK INTER:                  -4.157
REMARK INTRA:                  -0.343
REMARK UNBOUND:                -0.339
REMARK SMILES C=CC[C@@H](C)C(=O)CC
REMARK SMILES IDX 4 1 5 2 6 3 7 4 8 5 9 6 3 7 2 8 1 9
REMARK H PARENT
REMARK Flexibility Score: inf
ROOT
ATOM      1  C   UNL     1       7.245 -16.667  23.618  1.00  0.00     0.057 C 
ATOM      2  C   UNL     1       6.967 -15.486  22.681  1.00  0.00     0.016 C 
ENDROOT
BRANCH   1   3
ATOM      3  C   UNL     1       7.651 -17.884  22.811  1.00  0.00     0.135 C 
ATOM      4  O   UNL     1       7.664 -17.825  21.589  1.00  0.00    -0.299 OA
BRANCH   3   5
ATOM      5  C   UNL     1       8.054 -19.166  23.488  1.00  0.00     0.072 C 
ATOM      6  C   UNL     1       6.828 -19.927  23.983  1.00  0.00     0.012 C 
ENDBRANCH   3   5
ENDBRANCH   1   3
BRANCH   1   7
ATOM      7  C   UNL     1       8.328 -16.297  24.651  1.00  0.00     0.038 C 
BRANCH   7   8
ATOM      8  C   UNL     1       9.312 -15.294  24.106  1.00  0.00    -0.034 C 
ATOM      9  C   UNL     1      10.584 -15.619  23.859  1.00  0.00     0.004 C 
ENDBRANCH   7   8
ENDBRANCH   1   7
TORSDOF 4
ENDMDL
MODEL 8
REMARK VINA RESULT:    -3.338      4.048      5.300
REMARK INTER + INTRA:          -4.457
REMARK INTER:                  -3.960
REMARK INTRA:                  -0.497
REMARK UNBOUND:                -0.339
REMARK SMILES C=CC[C@@H](C)C(=O)CC
REMARK SMILES IDX 4 1 5 2 6 3 7 4 8 5 9 6 3 7 2 8 1 9
REMARK H PARENT
REMARK Flexibility Score: inf
ROOT
ATOM      1  C   UNL     1       7.113 -20.341  22.298  1.00  0.00     0.057 C 
ATOM      2  C   UNL     1       6.753 -20.808  23.713  1.00  0.00     0.016 C 
ENDROOT
BRANCH   1   3
ATOM      3  C   UNL     1       8.403 -19.545  22.327  1.00  0.00     0.135 C 
ATOM      4  O   UNL     1       8.756 -18.925  21.333  1.00  0.00    -0.299 OA
BRANCH   3   5
ATOM      5  C   UNL     1       9.254 -19.490  23.567  1.00  0.00     0.072 C 
ATOM      6  C   UNL     1      10.694 -19.881  23.253  1.00  0.00     0.012 C 
ENDBRANCH   3   5
ENDBRANCH   1   3
BRANCH   1   7
ATOM      7  C   UNL     1       7.224 -21.545  21.341  1.00  0.00     0.038 C 
BRANCH   7   8
ATOM      8  C   UNL     1       8.086 -22.643  21.909  1.00  0.00    -0.034 C 
ATOM      9  C   UNL     1       9.197 -23.056  21.292  1.00  0.00     0.004 C 
ENDBRANCH   7   8
ENDBRANCH   1   7
TORSDOF 4
ENDMDL
MODEL 9
REMARK VINA RESULT:    -3.331      4.277      5.855
REMARK INTER + INTRA:          -4.449
REMARK INTER:                  -4.086
REMARK INTRA:                  -0.363
REMARK UNBOUND:                -0.339
REMARK SMILES C=CC[C@@H](C)C(=O)CC
REMARK SMILES IDX 4 1 5 2 6 3 7 4 8 5 9 6 3 7 2 8 1 9
REMARK H PARENT
REMARK Flexibility Score: inf
ROOT
ATOM      1  C   UNL     1       8.214 -20.579  21.054  1.00  0.00     0.057 C 
ATOM      2  C   UNL     1       8.023 -19.753  19.777  1.00  0.00     0.016 C 
ENDROOT
BRANCH   1   3
ATOM      3  C   UNL     1       7.881 -19.739  22.271  1.00  0.00     0.135 C 
ATOM      4  O   UNL     1       7.440 -18.607  22.124  1.00  0.00    -0.299 OA
BRANCH   3   5
ATOM      5  C   UNL     1       8.071 -20.277  23.663  1.00  0.00     0.072 C 
ATOM      6  C   UNL     1       6.726 -20.589  24.311  1.00  0.00     0.012 C 
ENDBRANCH   3   5
ENDBRANCH   1   3
BRANCH   1   7
ATOM      7  C   UNL     1       7.352 -21.857  21.007  1.00  0.00     0.038 C 
BRANCH   7   8
ATOM      8  C   UNL     1       8.155 -23.095  21.310  1.00  0.00    -0.034 C 
ATOM      9  C   UNL     1       9.491 -23.078  21.340  1.00  0.00     0.004 C 
ENDBRANCH   7   8
ENDBRANCH   1   7
TORSDOF 4
ENDMDL
