MODEL 1
REMARK VINA RESULT:    -6.163      0.000      0.000
REMARK INTER + INTRA:          -8.998
REMARK INTER:                  -8.325
REMARK INTRA:                  -0.673
REMARK UNBOUND:                -0.673
REMARK SMILES CC(=O)CCC=C(C)CCC=C(C)C
REMARK SMILES IDX 7 1 6 2 8 3 9 4 10 5 11 6 13 7 12 8 14 9 5 10 4 11 2 12 3 13
REMARK SMILES IDX 1 14
REMARK H PARENT
REMARK Flexibility Score: inf
ROOT
ATOM      1  C   UNL     1      -5.590 -14.699  29.915  1.00  0.00    -0.077 C 
ATOM      2  C   UNL     1      -4.905 -13.866  29.098  1.00  0.00    -0.028 C 
ATOM      3  C   UNL     1      -6.666 -15.622  29.392  1.00  0.00     0.039 C 
ENDROOT
BRANCH   1   4
ATOM      4  C   UNL     1      -5.224 -14.766  31.382  1.00  0.00     0.034 C 
BRANCH   4   5
ATOM      5  C   UNL     1      -4.469 -13.511  31.839  1.00  0.00     0.032 C 
BRANCH   5   6
ATOM      6  C   UNL     1      -2.972 -13.713  31.821  1.00  0.00    -0.028 C 
ATOM      7  C   UNL     1      -0.618 -13.159  31.392  1.00  0.00     0.039 C 
ATOM      8  C   UNL     1      -2.079 -12.791  31.399  1.00  0.00    -0.080 C 
ATOM      9  C   UNL     1      -2.500 -11.409  30.957  1.00  0.00     0.039 C 
ENDBRANCH   5   6
ENDBRANCH   4   5
ENDBRANCH   1   4
BRANCH   2  10
ATOM     10  C   UNL     1      -5.174 -13.702  27.624  1.00  0.00     0.035 C 
BRANCH  10  11
ATOM     11  C   UNL     1      -3.880 -13.842  26.816  1.00  0.00     0.079 C 
BRANCH  11  12
ATOM     12  C   UNL     1      -3.038 -12.600  26.940  1.00  0.00     0.130 C 
ATOM     13  O   UNL     1      -2.092 -12.589  27.715  1.00  0.00    -0.300 OA
ATOM     14  C   UNL     1      -3.325 -11.374  26.124  1.00  0.00     0.087 C 
ENDBRANCH  11  12
ENDBRANCH  10  11
ENDBRANCH   2  10
TORSDOF 6
ENDMDL
MODEL 2
REMARK VINA RESULT:    -6.158      1.807      5.064
REMARK INTER + INTRA:          -8.992
REMARK INTER:                  -8.161
REMARK INTRA:                  -0.830
REMARK UNBOUND:                -0.673
REMARK SMILES CC(=O)CCC=C(C)CCC=C(C)C
REMARK SMILES IDX 7 1 6 2 8 3 9 4 10 5 11 6 13 7 12 8 14 9 5 10 4 11 2 12 3 13
REMARK SMILES IDX 1 14
REMARK H PARENT
REMARK Flexibility Score: inf
ROOT
ATOM      1  C   UNL     1      -3.862 -11.910  29.163  1.00  0.00    -0.077 C 
ATOM      2  C   UNL     1      -3.704 -12.653  30.282  1.00  0.00    -0.028 C 
ATOM      3  C   UNL     1      -3.064 -10.650  28.923  1.00  0.00     0.039 C 
ENDROOT
BRANCH   1   4
ATOM      4  C   UNL     1      -4.809 -12.386  28.083  1.00  0.00     0.034 C 
BRANCH   4   5
ATOM      5  C   UNL     1      -4.716 -13.904  27.871  1.00  0.00     0.032 C 
BRANCH   5   6
ATOM      6  C   UNL     1      -6.077 -14.559  27.865  1.00  0.00    -0.028 C 
ATOM      7  C   UNL     1      -7.992 -15.809  28.760  1.00  0.00     0.039 C 
ATOM      8  C   UNL     1      -6.647 -15.153  28.936  1.00  0.00    -0.080 C 
ATOM      9  C   UNL     1      -5.989 -15.158  30.295  1.00  0.00     0.039 C 
ENDBRANCH   5   6
ENDBRANCH   4   5
ENDBRANCH   1   4
BRANCH   2  10
ATOM     10  C   UNL     1      -2.799 -12.288  31.430  1.00  0.00     0.035 C 
BRANCH  10  11
ATOM     11  C   UNL     1      -1.801 -13.414  31.716  1.00  0.00     0.079 C 
BRANCH  11  12
ATOM     12  C   UNL     1      -0.537 -13.219  30.922  1.00  0.00     0.130 C 
ATOM     13  O   UNL     1       0.382 -12.572  31.403  1.00  0.00    -0.300 OA
ATOM     14  C   UNL     1      -0.372 -13.813  29.554  1.00  0.00     0.087 C 
ENDBRANCH  11  12
ENDBRANCH  10  11
ENDBRANCH   2  10
TORSDOF 6
ENDMDL
MODEL 3
REMARK VINA RESULT:    -6.142      1.544      4.956
REMARK INTER + INTRA:          -8.970
REMARK INTER:                  -8.038
REMARK INTRA:                  -0.932
REMARK UNBOUND:                -0.673
REMARK SMILES CC(=O)CCC=C(C)CCC=C(C)C
REMARK SMILES IDX 7 1 6 2 8 3 9 4 10 5 11 6 13 7 12 8 14 9 5 10 4 11 2 12 3 13
REMARK SMILES IDX 1 14
REMARK H PARENT
REMARK Flexibility Score: inf
ROOT
ATOM      1  C   UNL     1      -2.915 -13.191  27.675  1.00  0.00    -0.077 C 
ATOM      2  C   UNL     1      -2.023 -13.977  28.320  1.00  0.00    -0.028 C 
ATOM      3  C   UNL     1      -2.649 -11.726  27.419  1.00  0.00     0.039 C 
ENDROOT
BRANCH   1   4
ATOM      4  C   UNL     1      -4.185 -13.806  27.127  1.00  0.00     0.034 C 
BRANCH   4   5
ATOM      5  C   UNL     1      -5.397 -13.501  28.018  1.00  0.00     0.032 C 
BRANCH   5   6
ATOM      6  C   UNL     1      -6.302 -14.701  28.170  1.00  0.00    -0.028 C 
ATOM      7  C   UNL     1      -7.363 -16.609  29.295  1.00  0.00     0.039 C 
ATOM      8  C   UNL     1      -6.461 -15.403  29.314  1.00  0.00    -0.080 C 
ATOM      9  C   UNL     1      -5.779 -15.002  30.601  1.00  0.00     0.039 C 
ENDBRANCH   5   6
ENDBRANCH   4   5
ENDBRANCH   1   4
BRANCH   2  10
ATOM     10  C   UNL     1      -0.727 -13.488  28.916  1.00  0.00     0.035 C 
BRANCH  10  11
ATOM     11  C   UNL     1      -0.767 -13.567  30.445  1.00  0.00     0.079 C 
BRANCH  11  12
ATOM     12  C   UNL     1      -1.626 -12.467  31.013  1.00  0.00     0.130 C 
ATOM     13  O   UNL     1      -1.242 -11.309  30.946  1.00  0.00    -0.300 OA
ATOM     14  C   UNL     1      -2.952 -12.760  31.651  1.00  0.00     0.087 C 
ENDBRANCH  11  12
ENDBRANCH  10  11
ENDBRANCH   2  10
TORSDOF 6
ENDMDL
MODEL 4
REMARK VINA RESULT:    -6.137      1.688      3.563
REMARK INTER + INTRA:          -8.963
REMARK INTER:                  -7.628
REMARK INTRA:                  -1.335
REMARK UNBOUND:                -0.673
REMARK SMILES CC(=O)CCC=C(C)CCC=C(C)C
REMARK SMILES IDX 7 1 6 2 8 3 9 4 10 5 11 6 13 7 12 8 14 9 5 10 4 11 2 12 3 13
REMARK SMILES IDX 1 14
REMARK H PARENT
REMARK Flexibility Score: inf
ROOT
ATOM      1  C   UNL     1      -1.261 -13.065  29.083  1.00  0.00    -0.077 C 
ATOM      2  C   UNL     1      -2.000 -12.021  28.643  1.00  0.00    -0.028 C 
ATOM      3  C   UNL     1      -1.281 -14.407  28.389  1.00  0.00     0.039 C 
ENDROOT
BRANCH   1   4
ATOM      4  C   UNL     1      -0.329 -12.870  30.260  1.00  0.00     0.034 C 
BRANCH   4   5
ATOM      5  C   UNL     1      -1.098 -12.552  31.550  1.00  0.00     0.032 C 
BRANCH   5   6
ATOM      6  C   UNL     1      -2.237 -13.517  31.781  1.00  0.00    -0.028 C 
ATOM      7  C   UNL     1      -4.557 -14.234  32.152  1.00  0.00     0.039 C 
ATOM      8  C   UNL     1      -3.538 -13.161  31.866  1.00  0.00    -0.080 C 
ATOM      9  C   UNL     1      -3.995 -11.736  31.665  1.00  0.00     0.039 C 
ENDBRANCH   5   6
ENDBRANCH   4   5
ENDBRANCH   1   4
BRANCH   2  10
ATOM     10  C   UNL     1      -2.967 -12.085  27.488  1.00  0.00     0.035 C 
BRANCH  10  11
ATOM     11  C   UNL     1      -4.398 -12.305  27.988  1.00  0.00     0.079 C 
BRANCH  11  12
ATOM     12  C   UNL     1      -4.884 -13.683  27.623  1.00  0.00     0.130 C 
ATOM     13  O   UNL     1      -4.535 -14.183  26.565  1.00  0.00    -0.300 OA
ATOM     14  C   UNL     1      -5.782 -14.463  28.537  1.00  0.00     0.087 C 
ENDBRANCH  11  12
ENDBRANCH  10  11
ENDBRANCH   2  10
TORSDOF 6
ENDMDL
MODEL 5
REMARK VINA RESULT:    -6.089      1.923      3.972
REMARK INTER + INTRA:          -8.899
REMARK INTER:                  -7.852
REMARK INTRA:                  -1.047
REMARK UNBOUND:                -0.673
REMARK SMILES CC(=O)CCC=C(C)CCC=C(C)C
REMARK SMILES IDX 7 1 6 2 8 3 9 4 10 5 11 6 13 7 12 8 14 9 5 10 4 11 2 12 3 13
REMARK SMILES IDX 1 14
REMARK H PARENT
REMARK Flexibility Score: inf
ROOT
ATOM      1  C   UNL     1      -3.624 -11.105  28.251  1.00  0.00    -0.077 C 
ATOM      2  C   UNL     1      -4.640 -11.832  28.774  1.00  0.00    -0.028 C 
ATOM      3  C   UNL     1      -3.040 -11.411  26.892  1.00  0.00     0.039 C 
ENDROOT
BRANCH   1   4
ATOM      4  C   UNL     1      -3.104  -9.905  29.012  1.00  0.00     0.034 C 
BRANCH   4   5
ATOM      5  C   UNL     1      -2.871 -10.226  30.495  1.00  0.00     0.032 C 
BRANCH   5   6
ATOM      6  C   UNL     1      -1.544 -10.910  30.724  1.00  0.00    -0.028 C 
ATOM      7  C   UNL     1      -0.003 -12.677  31.457  1.00  0.00     0.039 C 
ATOM      8  C   UNL     1      -1.398 -12.150  31.240  1.00  0.00    -0.080 C 
ATOM      9  C   UNL     1      -2.584 -13.019  31.584  1.00  0.00     0.039 C 
ENDBRANCH   5   6
ENDBRANCH   4   5
ENDBRANCH   1   4
BRANCH   2  10
ATOM     10  C   UNL     1      -5.243 -13.049  28.121  1.00  0.00     0.035 C 
BRANCH  10  11
ATOM     11  C   UNL     1      -4.785 -14.328  28.827  1.00  0.00     0.079 C 
BRANCH  11  12
ATOM     12  C   UNL     1      -5.917 -14.937  29.612  1.00  0.00     0.130 C 
ATOM     13  O   UNL     1      -5.836 -15.004  30.829  1.00  0.00    -0.300 OA
ATOM     14  C   UNL     1      -7.150 -15.455  28.933  1.00  0.00     0.087 C 
ENDBRANCH  11  12
ENDBRANCH  10  11
ENDBRANCH   2  10
TORSDOF 6
ENDMDL
MODEL 6
REMARK VINA RESULT:    -6.079      1.047      3.822
REMARK INTER + INTRA:          -8.885
REMARK INTER:                  -8.435
REMARK INTRA:                  -0.450
REMARK UNBOUND:                -0.673
REMARK SMILES CC(=O)CCC=C(C)CCC=C(C)C
REMARK SMILES IDX 7 1 6 2 8 3 9 4 10 5 11 6 13 7 12 8 14 9 5 10 4 11 2 12 3 13
REMARK SMILES IDX 1 14
REMARK H PARENT
REMARK Flexibility Score: inf
ROOT
ATOM      1  C   UNL     1      -3.386 -12.993  31.560  1.00  0.00    -0.077 C 
ATOM      2  C   UNL     1      -3.822 -11.853  30.976  1.00  0.00    -0.028 C 
ATOM      3  C   UNL     1      -1.925 -13.380  31.561  1.00  0.00     0.039 C 
ENDROOT
BRANCH   1   4
ATOM      4  C   UNL     1      -4.372 -13.874  32.296  1.00  0.00     0.034 C 
BRANCH   4   5
ATOM      5  C   UNL     1      -5.234 -14.697  31.329  1.00  0.00     0.032 C 
BRANCH   5   6
ATOM      6  C   UNL     1      -5.000 -14.305  29.889  1.00  0.00    -0.028 C 
ATOM      7  C   UNL     1      -5.376 -14.271  27.462  1.00  0.00     0.039 C 
ATOM      8  C   UNL     1      -5.767 -14.705  28.851  1.00  0.00    -0.080 C 
ATOM      9  C   UNL     1      -7.003 -15.551  29.046  1.00  0.00     0.039 C 
ENDBRANCH   5   6
ENDBRANCH   4   5
ENDBRANCH   1   4
BRANCH   2  10
ATOM     10  C   UNL     1      -2.946 -10.895  30.211  1.00  0.00     0.035 C 
BRANCH  10  11
ATOM     11  C   UNL     1      -3.498 -10.661  28.801  1.00  0.00     0.079 C 
BRANCH  11  12
ATOM     12  C   UNL     1      -2.784 -11.530  27.799  1.00  0.00     0.130 C 
ATOM     13  O   UNL     1      -1.942 -12.326  28.186  1.00  0.00    -0.300 OA
ATOM     14  C   UNL     1      -3.092 -11.448  26.333  1.00  0.00     0.087 C 
ENDBRANCH  11  12
ENDBRANCH  10  11
ENDBRANCH   2  10
TORSDOF 6
ENDMDL
MODEL 7
REMARK VINA RESULT:    -6.035      1.587      4.402
REMARK INTER + INTRA:          -8.825
REMARK INTER:                  -8.138
REMARK INTRA:                  -0.687
REMARK UNBOUND:                -0.673
REMARK SMILES CC(=O)CCC=C(C)CCC=C(C)C
REMARK SMILES IDX 7 1 6 2 8 3 9 4 10 5 11 6 13 7 12 8 14 9 5 10 4 11 2 12 3 13
REMARK SMILES IDX 1 14
REMARK H PARENT
REMARK Flexibility Score: inf
ROOT
ATOM      1  C   UNL     1      -5.983 -14.897  29.039  1.00  0.00    -0.077 C 
ATOM      2  C   UNL     1      -5.253 -14.416  30.073  1.00  0.00    -0.028 C 
ATOM      3  C   UNL     1      -7.143 -15.841  29.251  1.00  0.00     0.039 C 
ENDROOT
BRANCH   1   4
ATOM      4  C   UNL     1      -5.679 -14.423  27.634  1.00  0.00     0.034 C 
BRANCH   4   5
ATOM      5  C   UNL     1      -4.178 -14.489  27.321  1.00  0.00     0.032 C 
BRANCH   5   6
ATOM      6  C   UNL     1      -3.738 -13.361  26.417  1.00  0.00    -0.028 C 
ATOM      7  C   UNL     1      -3.001 -11.096  25.818  1.00  0.00     0.039 C 
ATOM      8  C   UNL     1      -3.366 -12.136  26.846  1.00  0.00    -0.080 C 
ATOM      9  C   UNL     1      -3.289 -11.789  28.314  1.00  0.00     0.039 C 
ENDBRANCH   5   6
ENDBRANCH   4   5
ENDBRANCH   1   4
BRANCH   2  10
ATOM     10  C   UNL     1      -5.451 -14.811  31.514  1.00  0.00     0.035 C 
BRANCH  10  11
ATOM     11  C   UNL     1      -4.157 -14.621  32.312  1.00  0.00     0.079 C 
BRANCH  11  12
ATOM     12  C   UNL     1      -3.524 -13.293  31.991  1.00  0.00     0.130 C 
ATOM     13  O   UNL     1      -4.174 -12.267  32.133  1.00  0.00    -0.300 OA
ATOM     14  C   UNL     1      -2.107 -13.197  31.509  1.00  0.00     0.087 C 
ENDBRANCH  11  12
ENDBRANCH  10  11
ENDBRANCH   2  10
TORSDOF 6
ENDMDL
MODEL 8
REMARK VINA RESULT:    -6.014      1.574      4.994
REMARK INTER + INTRA:          -8.797
REMARK INTER:                  -7.744
REMARK INTRA:                  -1.053
REMARK UNBOUND:                -0.673
REMARK SMILES CC(=O)CCC=C(C)CCC=C(C)C
REMARK SMILES IDX 7 1 6 2 8 3 9 4 10 5 11 6 13 7 12 8 14 9 5 10 4 11 2 12 3 13
REMARK SMILES IDX 1 14
REMARK H PARENT
REMARK Flexibility Score: inf
ROOT
ATOM      1  C   UNL     1      -3.879 -11.821  27.363  1.00  0.00    -0.077 C 
ATOM      2  C   UNL     1      -4.565 -11.580  28.505  1.00  0.00    -0.028 C 
ATOM      3  C   UNL     1      -2.798 -10.888  26.871  1.00  0.00     0.039 C 
ENDROOT
BRANCH   1   4
ATOM      4  C   UNL     1      -4.146 -13.095  26.592  1.00  0.00     0.034 C 
BRANCH   4   5
ATOM      5  C   UNL     1      -4.236 -14.315  27.520  1.00  0.00     0.032 C 
BRANCH   5   6
ATOM      6  C   UNL     1      -5.657 -14.804  27.674  1.00  0.00    -0.028 C 
ATOM      7  C   UNL     1      -7.671 -15.579  28.848  1.00  0.00     0.039 C 
ATOM      8  C   UNL     1      -6.262 -15.044  28.858  1.00  0.00    -0.080 C 
ATOM      9  C   UNL     1      -5.579 -14.772  30.177  1.00  0.00     0.039 C 
ENDBRANCH   5   6
ENDBRANCH   4   5
ENDBRANCH   1   4
BRANCH   2  10
ATOM     10  C   UNL     1      -4.397 -10.350  29.359  1.00  0.00     0.035 C 
BRANCH  10  11
ATOM     11  C   UNL     1      -4.017 -10.731  30.793  1.00  0.00     0.079 C 
BRANCH  11  12
ATOM     12  C   UNL     1      -2.664 -11.392  30.827  1.00  0.00     0.130 C 
ATOM     13  O   UNL     1      -1.680 -10.767  30.462  1.00  0.00    -0.300 OA
ATOM     14  C   UNL     1      -2.494 -12.802  31.312  1.00  0.00     0.087 C 
ENDBRANCH  11  12
ENDBRANCH  10  11
ENDBRANCH   2  10
TORSDOF 6
ENDMDL
MODEL 9
REMARK VINA RESULT:    -5.971      1.799      4.737
REMARK INTER + INTRA:          -8.738
REMARK INTER:                  -7.929
REMARK INTRA:                  -0.809
REMARK UNBOUND:                -0.673
REMARK SMILES CC(=O)CCC=C(C)CCC=C(C)C
REMARK SMILES IDX 7 1 6 2 8 3 9 4 10 5 11 6 13 7 12 8 14 9 5 10 4 11 2 12 3 13
REMARK SMILES IDX 1 14
REMARK H PARENT
REMARK Flexibility Score: inf
ROOT
ATOM      1  C   UNL     1      -3.156 -11.375  30.471  1.00  0.00    -0.077 C 
ATOM      2  C   UNL     1      -1.817 -11.376  30.270  1.00  0.00    -0.028 C 
ATOM      3  C   UNL     1      -3.780 -12.010  31.692  1.00  0.00     0.039 C 
ENDROOT
BRANCH   1   4
ATOM      4  C   UNL     1      -4.053 -10.656  29.488  1.00  0.00     0.034 C 
BRANCH   4   5
ATOM      5  C   UNL     1      -4.342 -11.513  28.247  1.00  0.00     0.032 C 
BRANCH   5   6
ATOM      6  C   UNL     1      -5.152 -12.742  28.585  1.00  0.00    -0.028 C 
ATOM      7  C   UNL     1      -6.169 -14.951  28.236  1.00  0.00     0.039 C 
ATOM      8  C   UNL     1      -5.283 -13.820  27.781  1.00  0.00    -0.080 C 
ATOM      9  C   UNL     1      -4.557 -13.928  26.461  1.00  0.00     0.039 C 
ENDBRANCH   5   6
ENDBRANCH   4   5
ENDBRANCH   1   4
BRANCH   2  10
ATOM     10  C   UNL     1      -0.819 -12.058  31.170  1.00  0.00     0.035 C 
BRANCH  10  11
ATOM     11  C   UNL     1      -0.652 -13.530  30.780  1.00  0.00     0.079 C 
BRANCH  11  12
ATOM     12  C   UNL     1      -0.493 -13.671  29.289  1.00  0.00     0.130 C 
ATOM     13  O   UNL     1       0.543 -13.300  28.758  1.00  0.00    -0.300 OA
ATOM     14  C   UNL     1      -1.575 -14.269  28.440  1.00  0.00     0.087 C 
ENDBRANCH  11  12
ENDBRANCH  10  11
ENDBRANCH   2  10
TORSDOF 6
ENDMDL
