MODEL 1
REMARK VINA RESULT:    -0.884      0.000      0.000
REMARK INTER + INTRA:           0.141
REMARK INTER:                  -1.297
REMARK INTRA:                   1.439
REMARK UNBOUND:                 1.439
REMARK SMILES O=c1c(O[C@@H]2O[C@@H](CO)[C@@H](O)[C@H](O)[C@@H]2O)c(-c2ccc(O)c(O)c2)oc2cc(O)cc(O)c12
REMARK SMILES IDX 4 1 3 2 16 3 25 4 2 5 26 6 1 7 33 8 27 9 31 10 28 11 30 12
REMARK SMILES IDX 17 13 18 14 19 15 20 16 24 17 22 18 21 19 23 21 32 23 29 25
REMARK SMILES IDX 5 27 14 28 6 29 12 30 7 31 10 32 15 33 13 35 8 37 9 38 11 40
REMARK H PARENT 21 20 23 22 32 24 29 26 15 34 13 36 9 39 11 41
REMARK Flexibility Score: inf
ROOT
ATOM      1  O   UNL     1      -4.669 -17.930  -6.217  1.00  0.00    -0.454 OA
ENDROOT
BRANCH   1   2
ATOM      2  C   UNL     1      -5.510 -18.078  -7.328  1.00  0.00     0.214 A 
ATOM      3  C   UNL     1      -6.854 -17.659  -7.303  1.00  0.00     0.180 A 
ATOM      4  O   UNL     1      -7.632 -17.884  -8.354  1.00  0.00    -0.452 OA
ATOM      5  C   UNL     1      -5.002 -18.661  -8.493  1.00  0.00     0.239 A 
ATOM      6  C   UNL     1      -7.205 -18.473  -9.467  1.00  0.00     0.146 A 
ATOM      7  O   UNL     1      -3.774 -18.936  -8.536  1.00  0.00    -0.285 OA
ATOM      8  C   UNL     1      -5.862 -18.914  -9.590  1.00  0.00     0.111 A 
ATOM      9  C   UNL     1      -8.106 -18.633 -10.522  1.00  0.00     0.094 A 
ATOM     10  C   UNL     1      -5.465 -19.558 -10.801  1.00  0.00     0.134 A 
ATOM     11  C   UNL     1      -7.693 -19.218 -11.720  1.00  0.00     0.123 A 
ATOM     12  C   UNL     1      -6.381 -19.670 -11.854  1.00  0.00     0.093 A 
BRANCH   3  13
ATOM     13  C   UNL     1      -7.435 -16.942  -6.148  1.00  0.00     0.025 A 
ATOM     14  C   UNL     1      -7.494 -15.539  -6.125  1.00  0.00     0.016 A 
ATOM     15  C   UNL     1      -8.053 -14.874  -5.030  1.00  0.00     0.051 A 
ATOM     16  C   UNL     1      -8.576 -15.600  -3.956  1.00  0.00     0.157 A 
ATOM     17  C   UNL     1      -7.983 -17.670  -5.081  1.00  0.00     0.062 A 
ATOM     18  C   UNL     1      -8.546 -17.005  -3.982  1.00  0.00     0.158 A 
BRANCH  16  19
ATOM     19  O   UNL     1      -9.125 -14.910  -2.875  1.00  0.00    -0.504 OA
ATOM     20  H   UNL     1      -9.823 -14.187  -2.998  1.00  0.00     0.293 HD
ENDBRANCH  16  19
BRANCH  18  21
ATOM     21  O   UNL     1      -9.073 -17.735  -2.917  1.00  0.00    -0.504 OA
ATOM     22  H   UNL     1      -8.871 -18.721  -2.799  1.00  0.00     0.293 HD
ENDBRANCH  18  21
ENDBRANCH   3  13
BRANCH  10  23
ATOM     23  O   UNL     1      -4.204 -20.124 -11.012  1.00  0.00    -0.507 OA
ATOM     24  H   UNL     1      -3.633 -19.975 -11.829  1.00  0.00     0.293 HD
ENDBRANCH  10  23
BRANCH  11  25
ATOM     25  O   UNL     1      -8.583 -19.362 -12.783  1.00  0.00    -0.508 OA
ATOM     26  H   UNL     1      -8.738 -18.616 -13.450  1.00  0.00     0.293 HD
ENDBRANCH  11  25
ENDBRANCH   1   2
BRANCH   1  27
ATOM     27  C   UNL     1      -5.074 -17.268  -5.013  1.00  0.00     0.339 C 
ATOM     28  C   UNL     1      -4.380 -17.879  -3.774  1.00  0.00     0.214 C 
ATOM     29  O   UNL     1      -4.847 -15.871  -5.101  1.00  0.00    -0.332 OA
ATOM     30  C   UNL     1      -2.886 -17.495  -3.692  1.00  0.00     0.180 C 
ATOM     31  C   UNL     1      -3.469 -15.577  -5.252  1.00  0.00     0.179 C 
ATOM     32  C   UNL     1      -2.674 -15.997  -3.991  1.00  0.00     0.177 C 
BRANCH  28  33
ATOM     33  O   UNL     1      -4.515 -19.276  -3.768  1.00  0.00    -0.384 OA
ATOM     34  H   UNL     1      -4.964 -19.518  -2.917  1.00  0.00     0.211 HD
ENDBRANCH  28  33
BRANCH  30  35
ATOM     35  O   UNL     1      -2.084 -18.312  -4.512  1.00  0.00    -0.387 OA
ATOM     36  H   UNL     1      -1.557 -17.734  -5.116  1.00  0.00     0.211 HD
ENDBRANCH  30  35
BRANCH  31  37
ATOM     37  C   UNL     1      -3.308 -14.082  -5.565  1.00  0.00     0.191 C 
BRANCH  37  38
ATOM     38  O   UNL     1      -3.361 -13.856  -6.947  1.00  0.00    -0.394 OA
ATOM     39  H   UNL     1      -2.422 -13.877  -7.266  1.00  0.00     0.210 HD
ENDBRANCH  37  38
ENDBRANCH  31  37
BRANCH  32  40
ATOM     40  O   UNL     1      -3.100 -15.252  -2.876  1.00  0.00    -0.387 OA
ATOM     41  H   UNL     1      -4.091 -15.200  -2.918  1.00  0.00     0.211 HD
ENDBRANCH  32  40
ENDBRANCH   1  27
TORSDOF 12
ENDMDL
MODEL 2
REMARK VINA RESULT:     0.574      2.841      6.993
REMARK INTER + INTRA:           2.281
REMARK INTER:                   2.756
REMARK INTRA:                  -0.475
REMARK UNBOUND:                 1.439
REMARK SMILES O=c1c(O[C@@H]2O[C@@H](CO)[C@@H](O)[C@H](O)[C@@H]2O)c(-c2ccc(O)c(O)c2)oc2cc(O)cc(O)c12
REMARK SMILES IDX 4 1 3 2 16 3 25 4 2 5 26 6 1 7 33 8 27 9 31 10 28 11 30 12
REMARK SMILES IDX 17 13 18 14 19 15 20 16 24 17 22 18 21 19 23 21 32 23 29 25
REMARK SMILES IDX 5 27 14 28 6 29 12 30 7 31 10 32 15 33 13 35 8 37 9 38 11 40
REMARK H PARENT 21 20 23 22 32 24 29 26 15 34 13 36 9 39 11 41
REMARK Flexibility Score: inf
ROOT
ATOM      1  O   UNL     1      -3.392 -17.409  -3.955  1.00  0.00    -0.454 OA
ENDROOT
BRANCH   1   2
ATOM      2  C   UNL     1      -2.692 -16.215  -3.741  1.00  0.00     0.214 A 
ATOM      3  C   UNL     1      -3.337 -14.963  -3.748  1.00  0.00     0.180 A 
ATOM      4  O   UNL     1      -2.621 -13.854  -3.611  1.00  0.00    -0.452 OA
ATOM      5  C   UNL     1      -1.313 -16.266  -3.513  1.00  0.00     0.239 A 
ATOM      6  C   UNL     1      -1.304 -13.851  -3.437  1.00  0.00     0.146 A 
ATOM      7  O   UNL     1      -0.768 -17.396  -3.407  1.00  0.00    -0.285 OA
ATOM      8  C   UNL     1      -0.570 -15.066  -3.398  1.00  0.00     0.111 A 
ATOM      9  C   UNL     1      -0.657 -12.624  -3.275  1.00  0.00     0.094 A 
ATOM     10  C   UNL     1       0.846 -15.000  -3.227  1.00  0.00     0.134 A 
ATOM     11  C   UNL     1       0.720 -12.575  -3.058  1.00  0.00     0.123 A 
ATOM     12  C   UNL     1       1.460 -13.757  -3.031  1.00  0.00     0.093 A 
BRANCH   3  13
ATOM     13  C   UNL     1      -4.804 -14.833  -3.878  1.00  0.00     0.025 A 
ATOM     14  C   UNL     1      -5.564 -14.208  -2.875  1.00  0.00     0.016 A 
ATOM     15  C   UNL     1      -6.949 -14.085  -3.013  1.00  0.00     0.051 A 
ATOM     16  C   UNL     1      -7.590 -14.566  -4.160  1.00  0.00     0.157 A 
ATOM     17  C   UNL     1      -5.444 -15.292  -5.038  1.00  0.00     0.062 A 
ATOM     18  C   UNL     1      -6.834 -15.169  -5.180  1.00  0.00     0.158 A 
BRANCH  16  19
ATOM     19  O   UNL     1      -8.974 -14.432  -4.269  1.00  0.00    -0.504 OA
ATOM     20  H   UNL     1      -9.578 -14.420  -3.456  1.00  0.00     0.293 HD
ENDBRANCH  16  19
BRANCH  18  21
ATOM     21  O   UNL     1      -7.466 -15.643  -6.329  1.00  0.00    -0.504 OA
ATOM     22  H   UNL     1      -8.353 -16.130  -6.283  1.00  0.00     0.293 HD
ENDBRANCH  18  21
ENDBRANCH   3  13
BRANCH  10  23
ATOM     23  O   UNL     1       1.693 -16.111  -3.269  1.00  0.00    -0.507 OA
ATOM     24  H   UNL     1       1.555 -16.964  -2.750  1.00  0.00     0.293 HD
ENDBRANCH  10  23
BRANCH  11  25
ATOM     25  O   UNL     1       1.367 -11.354  -2.876  1.00  0.00    -0.508 OA
ATOM     26  H   UNL     1       1.774 -10.848  -3.654  1.00  0.00     0.293 HD
ENDBRANCH  11  25
ENDBRANCH   1   2
BRANCH   1  27
ATOM     27  C   UNL     1      -2.978 -18.397  -4.907  1.00  0.00     0.339 C 
ATOM     28  C   UNL     1      -3.782 -19.707  -4.743  1.00  0.00     0.214 C 
ATOM     29  O   UNL     1      -3.066 -17.894  -6.231  1.00  0.00    -0.332 OA
ATOM     30  C   UNL     1      -5.234 -19.571  -5.251  1.00  0.00     0.180 C 
ATOM     31  C   UNL     1      -4.401 -17.569  -6.575  1.00  0.00     0.179 C 
ATOM     32  C   UNL     1      -5.288 -18.839  -6.608  1.00  0.00     0.177 C 
BRANCH  28  33
ATOM     33  O   UNL     1      -3.783 -20.125  -3.403  1.00  0.00    -0.384 OA
ATOM     34  H   UNL     1      -2.930 -19.812  -3.003  1.00  0.00     0.211 HD
ENDBRANCH  28  33
BRANCH  30  35
ATOM     35  O   UNL     1      -6.074 -18.966  -4.296  1.00  0.00    -0.387 OA
ATOM     36  H   UNL     1      -5.707 -18.077  -4.068  1.00  0.00     0.211 HD
ENDBRANCH  30  35
BRANCH  31  37
ATOM     37  C   UNL     1      -4.404 -16.828  -7.920  1.00  0.00     0.191 C 
BRANCH  37  38
ATOM     38  O   UNL     1      -5.708 -16.476  -8.291  1.00  0.00    -0.394 OA
ATOM     39  H   UNL     1      -5.834 -16.817  -9.214  1.00  0.00     0.210 HD
ENDBRANCH  37  38
ENDBRANCH  31  37
BRANCH  32  40
ATOM     40  O   UNL     1      -4.841 -19.719  -7.611  1.00  0.00    -0.387 OA
ATOM     41  H   UNL     1      -5.586 -19.830  -8.259  1.00  0.00     0.211 HD
ENDBRANCH  32  40
ENDBRANCH   1  27
TORSDOF 12
ENDMDL
