MODEL 1
REMARK VINA RESULT:    -5.211      0.000      0.000
REMARK INTER + INTRA:          -6.505
REMARK INTER:                  -6.277
REMARK INTRA:                  -0.228
REMARK UNBOUND:                -0.228
REMARK SMILES C=CCc1ccc(O)c(OC)c1
REMARK SMILES IDX 9 1 7 2 6 3 5 4 4 5 12 6 10 7 11 8 8 9 3 11 2 12 1 13
REMARK H PARENT 8 10
REMARK Flexibility Score: inf
ROOT
ATOM      1  C   UNL     1      51.902  65.996   2.176  1.00  0.00     0.160 A 
ATOM      2  C   UNL     1      52.623  65.685   3.344  1.00  0.00     0.157 A 
ATOM      3  C   UNL     1      53.478  64.578   3.365  1.00  0.00     0.050 A 
ATOM      4  C   UNL     1      53.622  63.774   2.234  1.00  0.00     0.008 A 
ATOM      5  C   UNL     1      52.903  64.064   1.065  1.00  0.00    -0.040 A 
ATOM      6  C   UNL     1      52.052  65.180   1.037  1.00  0.00     0.054 A 
ENDROOT
BRANCH   1   7
ATOM      7  O   UNL     1      51.056  67.117   2.181  1.00  0.00    -0.493 OA
ATOM      8  C   UNL     1      49.677  67.086   2.535  1.00  0.00     0.278 C 
ENDBRANCH   1   7
BRANCH   2   9
ATOM      9  O   UNL     1      52.504  66.465   4.494  1.00  0.00    -0.504 OA
ATOM     10  H   UNL     1      52.244  66.070   5.390  1.00  0.00     0.293 HD
ENDBRANCH   2   9
BRANCH   5  11
ATOM     11  C   UNL     1      53.085  63.212  -0.164  1.00  0.00     0.062 C 
BRANCH  11  12
ATOM     12  C   UNL     1      54.243  62.270   0.007  1.00  0.00    -0.030 C 
ATOM     13  C   UNL     1      54.101  60.948  -0.133  1.00  0.00     0.004 C 
ENDBRANCH  11  12
ENDBRANCH   5  11
TORSDOF 4
ENDMDL
MODEL 2
REMARK VINA RESULT:    -5.133      9.038      9.600
REMARK INTER + INTRA:          -6.411
REMARK INTER:                  -6.185
REMARK INTRA:                  -0.226
REMARK UNBOUND:                -0.228
REMARK SMILES C=CCc1ccc(O)c(OC)c1
REMARK SMILES IDX 9 1 7 2 6 3 5 4 4 5 12 6 10 7 11 8 8 9 3 11 2 12 1 13
REMARK H PARENT 8 10
REMARK Flexibility Score: inf
ROOT
ATOM      1  C   UNL     1      46.474  57.834   4.442  1.00  0.00     0.160 A 
ATOM      2  C   UNL     1      47.038  57.266   3.285  1.00  0.00     0.157 A 
ATOM      3  C   UNL     1      48.387  56.895   3.272  1.00  0.00     0.050 A 
ATOM      4  C   UNL     1      49.183  57.087   4.401  1.00  0.00     0.008 A 
ATOM      5  C   UNL     1      48.641  57.661   5.560  1.00  0.00    -0.040 A 
ATOM      6  C   UNL     1      47.285  58.025   5.580  1.00  0.00     0.054 A 
ENDROOT
BRANCH   1   7
ATOM      7  O   UNL     1      45.116  58.191   4.429  1.00  0.00    -0.493 OA
ATOM      8  C   UNL     1      44.620  59.469   4.042  1.00  0.00     0.278 C 
ENDBRANCH   1   7
BRANCH   2   9
ATOM      9  O   UNL     1      46.273  57.060   2.137  1.00  0.00    -0.504 OA
ATOM     10  H   UNL     1      45.664  56.258   2.030  1.00  0.00     0.293 HD
ENDBRANCH   2   9
BRANCH   5  11
ATOM     11  C   UNL     1      49.496  57.837   6.787  1.00  0.00     0.062 C 
BRANCH  11  12
ATOM     12  C   UNL     1      50.788  57.084   6.649  1.00  0.00    -0.030 C 
ATOM     13  C   UNL     1      51.973  57.692   6.769  1.00  0.00     0.004 C 
ENDBRANCH  11  12
ENDBRANCH   5  11
TORSDOF 4
ENDMDL
MODEL 3
REMARK VINA RESULT:    -5.125      7.214      8.860
REMARK INTER + INTRA:          -6.402
REMARK INTER:                  -6.362
REMARK INTRA:                  -0.039
REMARK UNBOUND:                -0.228
REMARK SMILES C=CCc1ccc(O)c(OC)c1
REMARK SMILES IDX 9 1 7 2 6 3 5 4 4 5 12 6 10 7 11 8 8 9 3 11 2 12 1 13
REMARK H PARENT 8 10
REMARK Flexibility Score: inf
ROOT
ATOM      1  C   UNL     1      54.243  58.766   6.006  1.00  0.00     0.160 A 
ATOM      2  C   UNL     1      55.014  57.735   6.573  1.00  0.00     0.157 A 
ATOM      3  C   UNL     1      55.420  57.817   7.910  1.00  0.00     0.050 A 
ATOM      4  C   UNL     1      55.068  58.919   8.689  1.00  0.00     0.008 A 
ATOM      5  C   UNL     1      54.309  59.962   8.137  1.00  0.00    -0.040 A 
ATOM      6  C   UNL     1      53.892  59.878   6.799  1.00  0.00     0.054 A 
ENDROOT
BRANCH   1   7
ATOM      7  O   UNL     1      53.845  58.655   4.665  1.00  0.00    -0.493 OA
ATOM      8  C   UNL     1      52.808  59.424   4.063  1.00  0.00     0.278 C 
ENDBRANCH   1   7
BRANCH   2   9
ATOM      9  O   UNL     1      55.386  56.618   5.825  1.00  0.00    -0.504 OA
ATOM     10  H   UNL     1      55.874  55.831   6.236  1.00  0.00     0.293 HD
ENDBRANCH   2   9
BRANCH   5  11
ATOM     11  C   UNL     1      53.904  61.135   8.990  1.00  0.00     0.062 C 
BRANCH  11  12
ATOM     12  C   UNL     1      52.413  61.179   9.163  1.00  0.00    -0.030 C 
ATOM     13  C   UNL     1      51.629  61.872   8.332  1.00  0.00     0.004 C 
ENDBRANCH  11  12
ENDBRANCH   5  11
TORSDOF 4
ENDMDL
MODEL 4
REMARK VINA RESULT:    -5.066      8.768      9.341
REMARK INTER + INTRA:          -6.330
REMARK INTER:                  -6.106
REMARK INTRA:                  -0.224
REMARK UNBOUND:                -0.228
REMARK SMILES C=CCc1ccc(O)c(OC)c1
REMARK SMILES IDX 9 1 7 2 6 3 5 4 4 5 12 6 10 7 11 8 8 9 3 11 2 12 1 13
REMARK H PARENT 8 10
REMARK Flexibility Score: inf
ROOT
ATOM      1  C   UNL     1      50.159  57.761   6.952  1.00  0.00     0.160 A 
ATOM      2  C   UNL     1      48.990  58.220   7.586  1.00  0.00     0.157 A 
ATOM      3  C   UNL     1      47.780  58.254   6.884  1.00  0.00     0.050 A 
ATOM      4  C   UNL     1      47.723  57.837   5.554  1.00  0.00     0.008 A 
ATOM      5  C   UNL     1      48.881  57.388   4.903  1.00  0.00    -0.040 A 
ATOM      6  C   UNL     1      50.095  57.343   5.607  1.00  0.00     0.054 A 
ENDROOT
BRANCH   1   7
ATOM      7  O   UNL     1      51.358  57.732   7.682  1.00  0.00    -0.493 OA
ATOM      8  C   UNL     1      52.556  58.400   7.297  1.00  0.00     0.278 C 
ENDBRANCH   1   7
BRANCH   2   9
ATOM      9  O   UNL     1      49.009  58.645   8.914  1.00  0.00    -0.504 OA
ATOM     10  H   UNL     1      48.367  58.280   9.607  1.00  0.00     0.293 HD
ENDBRANCH   2   9
BRANCH   5  11
ATOM     11  C   UNL     1      48.809  56.910   3.476  1.00  0.00     0.062 C 
BRANCH  11  12
ATOM     12  C   UNL     1      47.398  56.977   2.963  1.00  0.00    -0.030 C 
ATOM     13  C   UNL     1      47.131  57.128   1.662  1.00  0.00     0.004 C 
ENDBRANCH  11  12
ENDBRANCH   5  11
TORSDOF 4
ENDMDL
MODEL 5
REMARK VINA RESULT:    -4.974      3.162      5.388
REMARK INTER + INTRA:          -6.219
REMARK INTER:                  -6.011
REMARK INTRA:                  -0.208
REMARK UNBOUND:                -0.228
REMARK SMILES C=CCc1ccc(O)c(OC)c1
REMARK SMILES IDX 9 1 7 2 6 3 5 4 4 5 12 6 10 7 11 8 8 9 3 11 2 12 1 13
REMARK H PARENT 8 10
REMARK Flexibility Score: inf
ROOT
ATOM      1  C   UNL     1      53.351  62.418  -0.401  1.00  0.00     0.160 A 
ATOM      2  C   UNL     1      52.539  63.346  -1.077  1.00  0.00     0.157 A 
ATOM      3  C   UNL     1      52.107  64.505  -0.424  1.00  0.00     0.050 A 
ATOM      4  C   UNL     1      52.474  64.750   0.899  1.00  0.00     0.008 A 
ATOM      5  C   UNL     1      53.275  63.830   1.593  1.00  0.00    -0.040 A 
ATOM      6  C   UNL     1      53.718  62.670   0.937  1.00  0.00     0.054 A 
ENDROOT
BRANCH   1   7
ATOM      7  O   UNL     1      53.775  61.266  -1.082  1.00  0.00    -0.493 OA
ATOM      8  C   UNL     1      54.136  60.040  -0.452  1.00  0.00     0.278 C 
ENDBRANCH   1   7
BRANCH   2   9
ATOM      9  O   UNL     1      52.150  63.135  -2.400  1.00  0.00    -0.504 OA
ATOM     10  H   UNL     1      51.282  62.672  -2.640  1.00  0.00     0.293 HD
ENDBRANCH   2   9
BRANCH   5  11
ATOM     11  C   UNL     1      53.695  64.112   3.011  1.00  0.00     0.062 C 
BRANCH  11  12
ATOM     12  C   UNL     1      52.919  65.268   3.577  1.00  0.00    -0.030 C 
ATOM     13  C   UNL     1      52.921  65.542   4.885  1.00  0.00     0.004 C 
ENDBRANCH  11  12
ENDBRANCH   5  11
TORSDOF 4
ENDMDL
MODEL 6
REMARK VINA RESULT:    -4.935      8.422      9.182
REMARK INTER + INTRA:          -6.173
REMARK INTER:                  -5.987
REMARK INTRA:                  -0.186
REMARK UNBOUND:                -0.228
REMARK SMILES C=CCc1ccc(O)c(OC)c1
REMARK SMILES IDX 9 1 7 2 6 3 5 4 4 5 12 6 10 7 11 8 8 9 3 11 2 12 1 13
REMARK H PARENT 8 10
REMARK Flexibility Score: inf
ROOT
ATOM      1  C   UNL     1      54.168  58.964   8.261  1.00  0.00     0.160 A 
ATOM      2  C   UNL     1      54.339  60.253   8.799  1.00  0.00     0.157 A 
ATOM      3  C   UNL     1      53.228  61.074   9.018  1.00  0.00     0.050 A 
ATOM      4  C   UNL     1      51.945  60.625   8.706  1.00  0.00     0.008 A 
ATOM      5  C   UNL     1      51.756  59.347   8.159  1.00  0.00    -0.040 A 
ATOM      6  C   UNL     1      52.869  58.517   7.946  1.00  0.00     0.054 A 
ENDROOT
BRANCH   1   7
ATOM      7  O   UNL     1      55.300  58.159   8.057  1.00  0.00    -0.493 OA
ATOM      8  C   UNL     1      55.391  57.124   7.083  1.00  0.00     0.278 C 
ENDBRANCH   1   7
BRANCH   2   9
ATOM      9  O   UNL     1      55.607  60.736   9.123  1.00  0.00    -0.504 OA
ATOM     10  H   UNL     1      56.402  60.621   8.506  1.00  0.00     0.293 HD
ENDBRANCH   2   9
BRANCH   5  11
ATOM     11  C   UNL     1      50.367  58.854   7.852  1.00  0.00     0.062 C 
BRANCH  11  12
ATOM     12  C   UNL     1      50.415  57.537   7.129  1.00  0.00    -0.030 C 
ATOM     13  C   UNL     1      50.042  57.423   5.851  1.00  0.00     0.004 C 
ENDBRANCH  11  12
ENDBRANCH   5  11
TORSDOF 4
ENDMDL
MODEL 7
REMARK VINA RESULT:    -4.827      5.319      7.921
REMARK INTER + INTRA:          -6.042
REMARK INTER:                  -5.844
REMARK INTRA:                  -0.199
REMARK UNBOUND:                -0.228
REMARK SMILES C=CCc1ccc(O)c(OC)c1
REMARK SMILES IDX 9 1 7 2 6 3 5 4 4 5 12 6 10 7 11 8 8 9 3 11 2 12 1 13
REMARK H PARENT 8 10
REMARK Flexibility Score: inf
ROOT
ATOM      1  C   UNL     1      53.899  58.301  -1.472  1.00  0.00     0.160 A 
ATOM      2  C   UNL     1      52.799  57.610  -2.013  1.00  0.00     0.157 A 
ATOM      3  C   UNL     1      51.617  58.298  -2.310  1.00  0.00     0.050 A 
ATOM      4  C   UNL     1      51.518  59.669  -2.072  1.00  0.00     0.008 A 
ATOM      5  C   UNL     1      52.601  60.371  -1.524  1.00  0.00    -0.040 A 
ATOM      6  C   UNL     1      53.792  59.686  -1.233  1.00  0.00     0.054 A 
ENDROOT
BRANCH   1   7
ATOM      7  O   UNL     1      55.074  57.587  -1.189  1.00  0.00    -0.493 OA
ATOM      8  C   UNL     1      55.984  57.910  -0.141  1.00  0.00     0.278 C 
ENDBRANCH   1   7
BRANCH   2   9
ATOM      9  O   UNL     1      52.861  56.239  -2.263  1.00  0.00    -0.504 OA
ATOM     10  H   UNL     1      52.333  55.802  -3.008  1.00  0.00     0.293 HD
ENDBRANCH   2   9
BRANCH   5  11
ATOM     11  C   UNL     1      52.501  61.857  -1.298  1.00  0.00     0.062 C 
BRANCH  11  12
ATOM     12  C   UNL     1      53.681  62.358  -0.513  1.00  0.00    -0.030 C 
ATOM     13  C   UNL     1      53.534  62.938   0.682  1.00  0.00     0.004 C 
ENDBRANCH  11  12
ENDBRANCH   5  11
TORSDOF 4
ENDMDL
MODEL 8
REMARK VINA RESULT:    -4.814      8.575      9.124
REMARK INTER + INTRA:          -6.027
REMARK INTER:                  -5.790
REMARK INTRA:                  -0.237
REMARK UNBOUND:                -0.228
REMARK SMILES C=CCc1ccc(O)c(OC)c1
REMARK SMILES IDX 9 1 7 2 6 3 5 4 4 5 12 6 10 7 11 8 8 9 3 11 2 12 1 13
REMARK H PARENT 8 10
REMARK Flexibility Score: inf
ROOT
ATOM      1  C   UNL     1      48.422  58.974   6.990  1.00  0.00     0.160 A 
ATOM      2  C   UNL     1      48.532  60.317   6.585  1.00  0.00     0.157 A 
ATOM      3  C   UNL     1      47.743  60.799   5.536  1.00  0.00     0.050 A 
ATOM      4  C   UNL     1      46.844  59.957   4.882  1.00  0.00     0.008 A 
ATOM      5  C   UNL     1      46.728  58.612   5.265  1.00  0.00    -0.040 A 
ATOM      6  C   UNL     1      47.512  58.127   6.324  1.00  0.00     0.054 A 
ENDROOT
BRANCH   1   7
ATOM      7  O   UNL     1      49.222  58.517   8.050  1.00  0.00    -0.493 OA
ATOM      8  C   UNL     1      50.186  57.475   7.943  1.00  0.00     0.278 C 
ENDBRANCH   1   7
BRANCH   2   9
ATOM      9  O   UNL     1      49.421  61.188   7.215  1.00  0.00    -0.504 OA
ATOM     10  H   UNL     1      50.079  60.874   7.917  1.00  0.00     0.293 HD
ENDBRANCH   2   9
BRANCH   5  11
ATOM     11  C   UNL     1      45.734  57.714   4.577  1.00  0.00     0.062 C 
BRANCH  11  12
ATOM     12  C   UNL     1      46.194  57.375   3.187  1.00  0.00    -0.030 C 
ATOM     13  C   UNL     1      47.403  56.855   2.955  1.00  0.00     0.004 C 
ENDBRANCH  11  12
ENDBRANCH   5  11
TORSDOF 4
ENDMDL
MODEL 9
REMARK VINA RESULT:    -4.776      6.648      7.688
REMARK INTER + INTRA:          -5.981
REMARK INTER:                  -5.689
REMARK INTRA:                  -0.292
REMARK UNBOUND:                -0.228
REMARK SMILES C=CCc1ccc(O)c(OC)c1
REMARK SMILES IDX 9 1 7 2 6 3 5 4 4 5 12 6 10 7 11 8 8 9 3 11 2 12 1 13
REMARK H PARENT 8 10
REMARK Flexibility Score: inf
ROOT
ATOM      1  C   UNL     1      52.446  61.106   6.981  1.00  0.00     0.160 A 
ATOM      2  C   UNL     1      51.337  60.565   7.656  1.00  0.00     0.157 A 
ATOM      3  C   UNL     1      51.502  59.467   8.507  1.00  0.00     0.050 A 
ATOM      4  C   UNL     1      52.763  58.900   8.692  1.00  0.00     0.008 A 
ATOM      5  C   UNL     1      53.878  59.419   8.019  1.00  0.00    -0.040 A 
ATOM      6  C   UNL     1      53.718  60.527   7.171  1.00  0.00     0.054 A 
ENDROOT
BRANCH   1   7
ATOM      7  O   UNL     1      52.252  62.212   6.137  1.00  0.00    -0.493 OA
ATOM      8  C   UNL     1      52.151  62.137   4.718  1.00  0.00     0.278 C 
ENDBRANCH   1   7
BRANCH   2   9
ATOM      9  O   UNL     1      50.061  61.105   7.495  1.00  0.00    -0.504 OA
ATOM     10  H   UNL     1      49.680  61.791   8.135  1.00  0.00     0.293 HD
ENDBRANCH   2   9
BRANCH   5  11
ATOM     11  C   UNL     1      55.243  58.823   8.245  1.00  0.00     0.062 C 
BRANCH  11  12
ATOM     12  C   UNL     1      55.287  57.398   7.773  1.00  0.00    -0.030 C 
ATOM     13  C   UNL     1      55.253  57.087   6.473  1.00  0.00     0.004 C 
ENDBRANCH  11  12
ENDBRANCH   5  11
TORSDOF 4
ENDMDL
