MODEL 1
REMARK VINA RESULT:    -4.164      0.000      0.000
REMARK INTER + INTRA:          -5.690
REMARK INTER:                  -5.624
REMARK INTRA:                  -0.066
REMARK UNBOUND:                -0.066
REMARK SMILES CCCCCCCC=O
REMARK SMILES IDX 5 1 4 2 3 3 2 4 1 5 6 6 7 7 8 8 9 9
REMARK H PARENT
REMARK Flexibility Score: inf
ROOT
ATOM      1  C   UNL     1      28.141  46.820  -0.950  1.00  0.00     0.000 C 
ENDROOT
BRANCH   1   2
ATOM      2  C   UNL     1      28.656  45.467  -0.430  1.00  0.00     0.000 C 
BRANCH   2   3
ATOM      3  C   UNL     1      29.844  45.613   0.539  1.00  0.00    -0.000 C 
BRANCH   3   4
ATOM      4  C   UNL     1      30.957  44.566   0.355  1.00  0.00    -0.003 C 
ATOM      5  C   UNL     1      31.980  44.576   1.490  1.00  0.00     0.004 C 
ENDBRANCH   3   4
ENDBRANCH   2   3
ENDBRANCH   1   2
BRANCH   1   6
ATOM      6  C   UNL     1      26.643  46.789  -1.291  1.00  0.00     0.008 C 
BRANCH   6   7
ATOM      7  C   UNL     1      26.214  47.974  -2.168  1.00  0.00     0.072 C 
BRANCH   7   8
ATOM      8  C   UNL     1      24.855  47.740  -2.756  1.00  0.00     0.224 C 
ATOM      9  O   UNL     1      23.942  48.521  -2.536  1.00  0.00    -0.303 OA
ENDBRANCH   7   8
ENDBRANCH   6   7
ENDBRANCH   1   6
TORSDOF 6
ENDMDL
MODEL 2
REMARK VINA RESULT:    -4.037      3.196      6.331
REMARK INTER + INTRA:          -5.519
REMARK INTER:                  -5.440
REMARK INTRA:                  -0.079
REMARK UNBOUND:                -0.066
REMARK SMILES CCCCCCCC=O
REMARK SMILES IDX 5 1 4 2 3 3 2 4 1 5 6 6 7 7 8 8 9 9
REMARK H PARENT
REMARK Flexibility Score: inf
ROOT
ATOM      1  C   UNL     1      28.421  45.650  -0.665  1.00  0.00     0.000 C 
ENDROOT
BRANCH   1   2
ATOM      2  C   UNL     1      27.935  47.065  -1.027  1.00  0.00     0.000 C 
BRANCH   2   3
ATOM      3  C   UNL     1      26.402  47.161  -1.132  1.00  0.00    -0.000 C 
BRANCH   3   4
ATOM      4  C   UNL     1      25.876  47.565  -2.520  1.00  0.00    -0.003 C 
ATOM      5  C   UNL     1      24.508  48.244  -2.466  1.00  0.00     0.004 C 
ENDBRANCH   3   4
ENDBRANCH   2   3
ENDBRANCH   1   2
BRANCH   1   6
ATOM      6  C   UNL     1      29.551  45.664   0.376  1.00  0.00     0.008 C 
BRANCH   6   7
ATOM      7  C   UNL     1      30.493  44.460   0.239  1.00  0.00     0.072 C 
BRANCH   7   8
ATOM      8  C   UNL     1      31.625  44.552   1.217  1.00  0.00     0.224 C 
ATOM      9  O   UNL     1      31.873  45.608   1.779  1.00  0.00    -0.303 OA
ENDBRANCH   7   8
ENDBRANCH   6   7
ENDBRANCH   1   6
TORSDOF 6
ENDMDL
MODEL 3
REMARK VINA RESULT:    -3.959     12.472     14.979
REMARK INTER + INTRA:          -5.414
REMARK INTER:                  -5.302
REMARK INTRA:                  -0.112
REMARK UNBOUND:                -0.066
REMARK SMILES CCCCCCCC=O
REMARK SMILES IDX 5 1 4 2 3 3 2 4 1 5 6 6 7 7 8 8 9 9
REMARK H PARENT
REMARK Flexibility Score: inf
ROOT
ATOM      1  C   UNL     1      25.805  58.304  -9.255  1.00  0.00     0.000 C 
ENDROOT
BRANCH   1   2
ATOM      2  C   UNL     1      27.007  58.666 -10.145  1.00  0.00     0.000 C 
BRANCH   2   3
ATOM      3  C   UNL     1      27.201  60.186 -10.295  1.00  0.00    -0.000 C 
BRANCH   3   4
ATOM      4  C   UNL     1      28.633  60.620 -10.655  1.00  0.00    -0.003 C 
ATOM      5  C   UNL     1      29.441  59.513 -11.332  1.00  0.00     0.004 C 
ENDBRANCH   3   4
ENDBRANCH   2   3
ENDBRANCH   1   2
BRANCH   1   6
ATOM      6  C   UNL     1      25.880  56.865  -8.721  1.00  0.00     0.008 C 
BRANCH   6   7
ATOM      7  C   UNL     1      24.537  56.129  -8.819  1.00  0.00     0.072 C 
BRANCH   7   8
ATOM      8  C   UNL     1      24.009  55.796  -7.457  1.00  0.00     0.224 C 
ATOM      9  O   UNL     1      22.971  55.163  -7.332  1.00  0.00    -0.303 OA
ENDBRANCH   7   8
ENDBRANCH   6   7
ENDBRANCH   1   6
TORSDOF 6
ENDMDL
MODEL 4
REMARK VINA RESULT:    -3.923     12.994     14.951
REMARK INTER + INTRA:          -5.365
REMARK INTER:                  -5.187
REMARK INTRA:                  -0.178
REMARK UNBOUND:                -0.066
REMARK SMILES CCCCCCCC=O
REMARK SMILES IDX 5 1 4 2 3 3 2 4 1 5 6 6 7 7 8 8 9 9
REMARK H PARENT
REMARK Flexibility Score: inf
ROOT
ATOM      1  C   UNL     1      25.335  58.523  -8.941  1.00  0.00     0.000 C 
ENDROOT
BRANCH   1   2
ATOM      2  C   UNL     1      25.859  57.076  -8.967  1.00  0.00     0.000 C 
BRANCH   2   3
ATOM      3  C   UNL     1      24.732  56.032  -8.860  1.00  0.00    -0.000 C 
BRANCH   3   4
ATOM      4  C   UNL     1      24.226  55.775  -7.430  1.00  0.00    -0.003 C 
ATOM      5  C   UNL     1      22.854  55.103  -7.393  1.00  0.00     0.004 C 
ENDBRANCH   3   4
ENDBRANCH   2   3
ENDBRANCH   1   2
BRANCH   1   6
ATOM      6  C   UNL     1      26.271  59.501  -9.669  1.00  0.00     0.008 C 
BRANCH   6   7
ATOM      7  C   UNL     1      27.347  58.783 -10.494  1.00  0.00     0.072 C 
BRANCH   7   8
ATOM      8  C   UNL     1      28.557  59.652 -10.666  1.00  0.00     0.224 C 
ATOM      9  O   UNL     1      29.536  59.238 -11.267  1.00  0.00    -0.303 OA
ENDBRANCH   7   8
ENDBRANCH   6   7
ENDBRANCH   1   6
TORSDOF 6
ENDMDL
MODEL 5
REMARK VINA RESULT:    -3.885      0.996      1.744
REMARK INTER + INTRA:          -5.315
REMARK INTER:                  -5.163
REMARK INTRA:                  -0.151
REMARK UNBOUND:                -0.066
REMARK SMILES CCCCCCCC=O
REMARK SMILES IDX 5 1 4 2 3 3 2 4 1 5 6 6 7 7 8 8 9 9
REMARK H PARENT
REMARK Flexibility Score: inf
ROOT
ATOM      1  C   UNL     1      28.825  45.474  -0.448  1.00  0.00     0.000 C 
ENDROOT
BRANCH   1   2
ATOM      2  C   UNL     1      29.872  45.658   0.665  1.00  0.00     0.000 C 
BRANCH   2   3
ATOM      3  C   UNL     1      31.295  45.282   0.213  1.00  0.00    -0.000 C 
BRANCH   3   4
ATOM      4  C   UNL     1      31.593  43.772   0.213  1.00  0.00    -0.003 C 
ATOM      5  C   UNL     1      31.756  43.195  -1.193  1.00  0.00     0.004 C 
ENDBRANCH   3   4
ENDBRANCH   2   3
ENDBRANCH   1   2
BRANCH   1   6
ATOM      6  C   UNL     1      28.082  46.778  -0.779  1.00  0.00     0.008 C 
BRANCH   6   7
ATOM      7  C   UNL     1      26.645  46.531  -1.258  1.00  0.00     0.072 C 
BRANCH   7   8
ATOM      8  C   UNL     1      26.213  47.594  -2.221  1.00  0.00     0.224 C 
ATOM      9  O   UNL     1      25.228  48.278  -1.988  1.00  0.00    -0.303 OA
ENDBRANCH   7   8
ENDBRANCH   6   7
ENDBRANCH   1   6
TORSDOF 6
ENDMDL
MODEL 6
REMARK VINA RESULT:    -3.785     13.260     15.487
REMARK INTER + INTRA:          -5.179
REMARK INTER:                  -4.976
REMARK INTRA:                  -0.204
REMARK UNBOUND:                -0.066
REMARK SMILES CCCCCCCC=O
REMARK SMILES IDX 5 1 4 2 3 3 2 4 1 5 6 6 7 7 8 8 9 9
REMARK H PARENT
REMARK Flexibility Score: inf
ROOT
ATOM      1  C   UNL     1      26.159  59.245  -9.432  1.00  0.00     0.000 C 
ENDROOT
BRANCH   1   2
ATOM      2  C   UNL     1      25.147  58.180  -8.974  1.00  0.00     0.000 C 
BRANCH   2   3
ATOM      3  C   UNL     1      25.801  56.813  -8.704  1.00  0.00    -0.000 C 
BRANCH   3   4
ATOM      4  C   UNL     1      24.824  55.624  -8.683  1.00  0.00    -0.003 C 
ATOM      5  C   UNL     1      23.880  55.647  -7.482  1.00  0.00     0.004 C 
ENDBRANCH   3   4
ENDBRANCH   2   3
ENDBRANCH   1   2
BRANCH   1   6
ATOM      6  C   UNL     1      27.164  58.700 -10.459  1.00  0.00     0.008 C 
BRANCH   6   7
ATOM      7  C   UNL     1      28.448  59.537 -10.528  1.00  0.00     0.072 C 
BRANCH   7   8
ATOM      8  C   UNL     1      28.129  61.000 -10.605  1.00  0.00     0.224 C 
ATOM      9  O   UNL     1      28.932  61.831 -10.211  1.00  0.00    -0.303 OA
ENDBRANCH   7   8
ENDBRANCH   6   7
ENDBRANCH   1   6
TORSDOF 6
ENDMDL
MODEL 7
REMARK VINA RESULT:    -3.564      1.488      2.615
REMARK INTER + INTRA:          -4.881
REMARK INTER:                  -4.731
REMARK INTRA:                  -0.149
REMARK UNBOUND:                -0.066
REMARK SMILES CCCCCCCC=O
REMARK SMILES IDX 5 1 4 2 3 3 2 4 1 5 6 6 7 7 8 8 9 9
REMARK H PARENT
REMARK Flexibility Score: inf
ROOT
ATOM      1  C   UNL     1      29.818  45.768   0.601  1.00  0.00     0.000 C 
ENDROOT
BRANCH   1   2
ATOM      2  C   UNL     1      30.879  44.665   0.435  1.00  0.00     0.000 C 
BRANCH   2   3
ATOM      3  C   UNL     1      32.305  45.158   0.744  1.00  0.00    -0.000 C 
BRANCH   3   4
ATOM      4  C   UNL     1      32.501  45.711   2.166  1.00  0.00    -0.003 C 
ATOM      5  C   UNL     1      33.325  46.997   2.199  1.00  0.00     0.004 C 
ENDBRANCH   3   4
ENDBRANCH   2   3
ENDBRANCH   1   2
BRANCH   1   6
ATOM      6  C   UNL     1      28.729  45.706  -0.482  1.00  0.00     0.008 C 
BRANCH   6   7
ATOM      7  C   UNL     1      27.762  46.895  -0.412  1.00  0.00     0.072 C 
BRANCH   7   8
ATOM      8  C   UNL     1      27.418  47.386  -1.786  1.00  0.00     0.224 C 
ATOM      9  O   UNL     1      26.491  48.164  -1.952  1.00  0.00    -0.303 OA
ENDBRANCH   7   8
ENDBRANCH   6   7
ENDBRANCH   1   6
TORSDOF 6
ENDMDL
MODEL 8
REMARK VINA RESULT:    -3.513     16.342     17.432
REMARK INTER + INTRA:          -4.811
REMARK INTER:                  -4.373
REMARK INTRA:                  -0.438
REMARK UNBOUND:                -0.066
REMARK SMILES CCCCCCCC=O
REMARK SMILES IDX 5 1 4 2 3 3 2 4 1 5 6 6 7 7 8 8 9 9
REMARK H PARENT
REMARK Flexibility Score: inf
ROOT
ATOM      1  C   UNL     1      31.062  59.269 -11.457  1.00  0.00     0.000 C 
ENDROOT
BRANCH   1   2
ATOM      2  C   UNL     1      30.144  59.876 -10.382  1.00  0.00     0.000 C 
BRANCH   2   3
ATOM      3  C   UNL     1      28.959  60.656 -10.980  1.00  0.00    -0.000 C 
BRANCH   3   4
ATOM      4  C   UNL     1      27.596  60.351 -10.335  1.00  0.00    -0.003 C 
ATOM      5  C   UNL     1      27.229  58.868 -10.385  1.00  0.00     0.004 C 
ENDBRANCH   3   4
ENDBRANCH   2   3
ENDBRANCH   1   2
BRANCH   1   6
ATOM      6  C   UNL     1      30.375  59.164 -12.828  1.00  0.00     0.008 C 
BRANCH   6   7
ATOM      7  C   UNL     1      29.960  57.727 -13.170  1.00  0.00     0.072 C 
BRANCH   7   8
ATOM      8  C   UNL     1      31.156  56.892 -13.512  1.00  0.00     0.224 C 
ATOM      9  O   UNL     1      32.005  57.311 -14.284  1.00  0.00    -0.303 OA
ENDBRANCH   7   8
ENDBRANCH   6   7
ENDBRANCH   1   6
TORSDOF 6
ENDMDL
MODEL 9
REMARK VINA RESULT:    -3.407     16.694     17.403
REMARK INTER + INTRA:          -4.668
REMARK INTER:                  -4.302
REMARK INTRA:                  -0.366
REMARK UNBOUND:                -0.066
REMARK SMILES CCCCCCCC=O
REMARK SMILES IDX 5 1 4 2 3 3 2 4 1 5 6 6 7 7 8 8 9 9
REMARK H PARENT
REMARK Flexibility Score: inf
ROOT
ATOM      1  C   UNL     1      30.227  57.614 -13.157  1.00  0.00     0.000 C 
ENDROOT
BRANCH   1   2
ATOM      2  C   UNL     1      31.436  56.986 -13.872  1.00  0.00     0.000 C 
BRANCH   2   3
ATOM      3  C   UNL     1      32.678  56.883 -12.967  1.00  0.00    -0.000 C 
BRANCH   3   4
ATOM      4  C   UNL     1      33.990  57.356 -13.617  1.00  0.00    -0.003 C 
ATOM      5  C   UNL     1      33.798  58.551 -14.550  1.00  0.00     0.004 C 
ENDBRANCH   3   4
ENDBRANCH   2   3
ENDBRANCH   1   2
BRANCH   1   6
ATOM      6  C   UNL     1      30.400  59.122 -12.921  1.00  0.00     0.008 C 
BRANCH   6   7
ATOM      7  C   UNL     1      30.384  59.491 -11.431  1.00  0.00     0.072 C 
BRANCH   7   8
ATOM      8  C   UNL     1      28.982  59.514 -10.901  1.00  0.00     0.224 C 
ATOM      9  O   UNL     1      28.336  60.551 -10.903  1.00  0.00    -0.303 OA
ENDBRANCH   7   8
ENDBRANCH   6   7
ENDBRANCH   1   6
TORSDOF 6
ENDMDL
