MODEL 1
REMARK VINA RESULT:    -8.289      0.000      0.000
REMARK INTER + INTRA:         -10.309
REMARK INTER:                  -9.986
REMARK INTRA:                  -0.323
REMARK UNBOUND:                -0.323
REMARK SMILES O=c1c(O)c(-c2ccc(O)c(O)c2)oc2cc(O)cc(O)c12
REMARK SMILES IDX 5 1 3 2 2 3 1 4 22 5 20 6 19 7 17 8 16 9 15 10 14 11 6 12
REMARK SMILES IDX 7 13 8 14 9 15 13 16 11 17 10 18 12 20 4 22 21 24 18 26
REMARK H PARENT 10 19 12 21 4 23 21 25 18 27
REMARK Flexibility Score: inf
ROOT
ATOM      1  C   UNL     1      24.210  23.811  34.669  1.00  0.00     0.180 A 
ATOM      2  C   UNL     1      22.819  23.947  34.515  1.00  0.00     0.208 A 
ATOM      3  C   UNL     1      22.293  25.196  34.143  1.00  0.00     0.238 A 
ATOM      4  O   UNL     1      21.045  25.324  34.060  1.00  0.00    -0.285 OA
ATOM      5  C   UNL     1      23.166  26.286  33.913  1.00  0.00     0.111 A 
ATOM      6  C   UNL     1      22.746  27.585  33.494  1.00  0.00     0.134 A 
ATOM      7  C   UNL     1      23.682  28.624  33.424  1.00  0.00     0.093 A 
ATOM      8  C   UNL     1      25.034  28.396  33.696  1.00  0.00     0.123 A 
ATOM      9  C   UNL     1      25.462  27.119  34.049  1.00  0.00     0.094 A 
ATOM     10  C   UNL     1      24.547  26.070  34.162  1.00  0.00     0.146 A 
ATOM     11  O   UNL     1      24.996  24.870  34.511  1.00  0.00    -0.452 OA
ENDROOT
BRANCH   1  12
ATOM     12  C   UNL     1      24.840  22.523  35.035  1.00  0.00     0.025 A 
ATOM     13  C   UNL     1      25.016  22.150  36.379  1.00  0.00     0.016 A 
ATOM     14  C   UNL     1      25.592  20.918  36.702  1.00  0.00     0.051 A 
ATOM     15  C   UNL     1      25.986  20.035  35.689  1.00  0.00     0.157 A 
ATOM     16  C   UNL     1      25.218  21.625  34.023  1.00  0.00     0.062 A 
ATOM     17  C   UNL     1      25.795  20.391  34.342  1.00  0.00     0.158 A 
BRANCH  15  18
ATOM     18  O   UNL     1      26.561  18.808  36.013  1.00  0.00    -0.504 OA
ATOM     19  H   UNL     1      27.407  18.483  35.560  1.00  0.00     0.293 HD
ENDBRANCH  15  18
BRANCH  17  20
ATOM     20  O   UNL     1      26.171  19.532  33.310  1.00  0.00    -0.504 OA
ATOM     21  H   UNL     1      27.000  19.692  32.751  1.00  0.00     0.293 HD
ENDBRANCH  17  20
ENDBRANCH   1  12
BRANCH   2  22
ATOM     22  O   UNL     1      21.975  22.862  34.767  1.00  0.00    -0.502 OA
ATOM     23  H   UNL     1      21.497  22.362  34.027  1.00  0.00     0.293 HD
ENDBRANCH   2  22
BRANCH   6  24
ATOM     24  O   UNL     1      21.438  27.896  33.110  1.00  0.00    -0.507 OA
ATOM     25  H   UNL     1      20.659  27.258  33.154  1.00  0.00     0.293 HD
ENDBRANCH   6  24
BRANCH   8  26
ATOM     26  O   UNL     1      25.960  29.432  33.611  1.00  0.00    -0.508 OA
ATOM     27  H   UNL     1      26.137  30.052  34.393  1.00  0.00     0.293 HD
ENDBRANCH   8  26
TORSDOF 6
ENDMDL
MODEL 2
REMARK VINA RESULT:    -8.043      3.243      5.563
REMARK INTER + INTRA:         -10.012
REMARK INTER:                  -9.805
REMARK INTRA:                  -0.206
REMARK UNBOUND:                -0.323
REMARK SMILES O=c1c(O)c(-c2ccc(O)c(O)c2)oc2cc(O)cc(O)c12
REMARK SMILES IDX 5 1 3 2 2 3 1 4 22 5 20 6 19 7 17 8 16 9 15 10 14 11 6 12
REMARK SMILES IDX 7 13 8 14 9 15 13 16 11 17 10 18 12 20 4 22 21 24 18 26
REMARK H PARENT 10 19 12 21 4 23 21 25 18 27
REMARK Flexibility Score: inf
ROOT
ATOM      1  C   UNL     1      26.333  25.026  32.902  1.00  0.00     0.180 A 
ATOM      2  C   UNL     1      26.064  23.786  33.506  1.00  0.00     0.208 A 
ATOM      3  C   UNL     1      24.767  23.526  33.980  1.00  0.00     0.238 A 
ATOM      4  O   UNL     1      24.546  22.436  34.568  1.00  0.00    -0.285 OA
ATOM      5  C   UNL     1      23.753  24.502  33.827  1.00  0.00     0.111 A 
ATOM      6  C   UNL     1      22.396  24.330  34.233  1.00  0.00     0.134 A 
ATOM      7  C   UNL     1      21.508  25.411  34.153  1.00  0.00     0.093 A 
ATOM      8  C   UNL     1      21.915  26.638  33.621  1.00  0.00     0.123 A 
ATOM      9  C   UNL     1      23.221  26.797  33.168  1.00  0.00     0.094 A 
ATOM     10  C   UNL     1      24.139  25.748  33.268  1.00  0.00     0.146 A 
ATOM     11  O   UNL     1      25.378  25.946  32.834  1.00  0.00    -0.452 OA
ENDROOT
BRANCH   1  12
ATOM     12  C   UNL     1      27.668  25.364  32.358  1.00  0.00     0.025 A 
ATOM     13  C   UNL     1      28.202  24.679  31.252  1.00  0.00     0.016 A 
ATOM     14  C   UNL     1      29.454  25.032  30.739  1.00  0.00     0.051 A 
ATOM     15  C   UNL     1      30.184  26.079  31.315  1.00  0.00     0.157 A 
ATOM     16  C   UNL     1      28.396  26.427  32.918  1.00  0.00     0.062 A 
ATOM     17  C   UNL     1      29.649  26.781  32.408  1.00  0.00     0.158 A 
BRANCH  15  18
ATOM     18  O   UNL     1      31.433  26.427  30.803  1.00  0.00    -0.504 OA
ATOM     19  H   UNL     1      32.242  25.830  30.928  1.00  0.00     0.293 HD
ENDBRANCH  15  18
BRANCH  17  20
ATOM     20  O   UNL     1      30.348  27.834  32.999  1.00  0.00    -0.504 OA
ATOM     21  H   UNL     1      31.358  27.901  32.956  1.00  0.00     0.293 HD
ENDBRANCH  17  20
ENDBRANCH   1  12
BRANCH   2  22
ATOM     22  O   UNL     1      27.085  22.845  33.665  1.00  0.00    -0.502 OA
ATOM     23  H   UNL     1      27.112  22.199  34.446  1.00  0.00     0.293 HD
ENDBRANCH   2  22
BRANCH   6  24
ATOM     24  O   UNL     1      21.866  23.120  34.690  1.00  0.00    -0.507 OA
ATOM     25  H   UNL     1      21.306  22.491  34.136  1.00  0.00     0.293 HD
ENDBRANCH   6  24
BRANCH   8  26
ATOM     26  O   UNL     1      21.022  27.703  33.532  1.00  0.00    -0.508 OA
ATOM     27  H   UNL     1      21.048  28.474  34.190  1.00  0.00     0.293 HD
ENDBRANCH   8  26
TORSDOF 6
ENDMDL
MODEL 3
REMARK VINA RESULT:    -7.941      2.410      6.869
REMARK INTER + INTRA:          -9.889
REMARK INTER:                 -10.081
REMARK INTRA:                   0.192
REMARK UNBOUND:                -0.323
REMARK SMILES O=c1c(O)c(-c2ccc(O)c(O)c2)oc2cc(O)cc(O)c12
REMARK SMILES IDX 5 1 3 2 2 3 1 4 22 5 20 6 19 7 17 8 16 9 15 10 14 11 6 12
REMARK SMILES IDX 7 13 8 14 9 15 13 16 11 17 10 18 12 20 4 22 21 24 18 26
REMARK H PARENT 10 19 12 21 4 23 21 25 18 27
REMARK Flexibility Score: inf
ROOT
ATOM      1  C   UNL     1      25.411  24.284  33.464  1.00  0.00     0.180 A 
ATOM      2  C   UNL     1      24.888  23.109  34.030  1.00  0.00     0.208 A 
ATOM      3  C   UNL     1      25.661  21.936  34.000  1.00  0.00     0.238 A 
ATOM      4  O   UNL     1      25.165  20.874  34.460  1.00  0.00    -0.285 OA
ATOM      5  C   UNL     1      26.952  21.958  33.421  1.00  0.00     0.111 A 
ATOM      6  C   UNL     1      27.837  20.839  33.372  1.00  0.00     0.134 A 
ATOM      7  C   UNL     1      29.038  20.939  32.658  1.00  0.00     0.093 A 
ATOM      8  C   UNL     1      29.415  22.138  32.046  1.00  0.00     0.123 A 
ATOM      9  C   UNL     1      28.585  23.252  32.139  1.00  0.00     0.094 A 
ATOM     10  C   UNL     1      27.364  23.173  32.813  1.00  0.00     0.146 A 
ATOM     11  O   UNL     1      26.598  24.256  32.868  1.00  0.00    -0.452 OA
ENDROOT
BRANCH   1  12
ATOM     12  C   UNL     1      24.667  25.564  33.478  1.00  0.00     0.025 A 
ATOM     13  C   UNL     1      23.272  25.601  33.309  1.00  0.00     0.016 A 
ATOM     14  C   UNL     1      22.588  26.819  33.351  1.00  0.00     0.051 A 
ATOM     15  C   UNL     1      23.283  28.014  33.574  1.00  0.00     0.157 A 
ATOM     16  C   UNL     1      25.357  26.763  33.723  1.00  0.00     0.062 A 
ATOM     17  C   UNL     1      24.675  27.983  33.764  1.00  0.00     0.158 A 
BRANCH  15  18
ATOM     18  O   UNL     1      22.598  29.227  33.613  1.00  0.00    -0.504 OA
ATOM     19  H   UNL     1      22.975  30.063  33.182  1.00  0.00     0.293 HD
ENDBRANCH  15  18
BRANCH  17  20
ATOM     20  O   UNL     1      25.396  29.155  33.995  1.00  0.00    -0.504 OA
ATOM     21  H   UNL     1      25.460  29.574  34.915  1.00  0.00     0.293 HD
ENDBRANCH  17  20
ENDBRANCH   1  12
BRANCH   2  22
ATOM     22  O   UNL     1      23.603  23.104  34.578  1.00  0.00    -0.502 OA
ATOM     23  H   UNL     1      23.185  22.272  34.978  1.00  0.00     0.293 HD
ENDBRANCH   2  22
BRANCH   6  24
ATOM     24  O   UNL     1      27.599  19.627  34.026  1.00  0.00    -0.507 OA
ATOM     25  H   UNL     1      27.776  18.716  33.631  1.00  0.00     0.293 HD
ENDBRANCH   6  24
BRANCH   8  26
ATOM     26  O   UNL     1      30.618  22.233  31.351  1.00  0.00    -0.508 OA
ATOM     27  H   UNL     1      30.736  21.812  30.437  1.00  0.00     0.293 HD
ENDBRANCH   8  26
TORSDOF 6
ENDMDL
MODEL 4
REMARK VINA RESULT:    -7.831      2.230      7.455
REMARK INTER + INTRA:          -9.757
REMARK INTER:                  -9.715
REMARK INTRA:                  -0.042
REMARK UNBOUND:                -0.323
REMARK SMILES O=c1c(O)c(-c2ccc(O)c(O)c2)oc2cc(O)cc(O)c12
REMARK SMILES IDX 5 1 3 2 2 3 1 4 22 5 20 6 19 7 17 8 16 9 15 10 14 11 6 12
REMARK SMILES IDX 7 13 8 14 9 15 13 16 11 17 10 18 12 20 4 22 21 24 18 26
REMARK H PARENT 10 19 12 21 4 23 21 25 18 27
REMARK Flexibility Score: inf
ROOT
ATOM      1  C   UNL     1      26.024  24.473  33.371  1.00  0.00     0.180 A 
ATOM      2  C   UNL     1      27.173  24.393  32.565  1.00  0.00     0.208 A 
ATOM      3  C   UNL     1      27.923  23.205  32.563  1.00  0.00     0.238 A 
ATOM      4  O   UNL     1      28.980  23.160  31.882  1.00  0.00    -0.285 OA
ATOM      5  C   UNL     1      27.505  22.108  33.354  1.00  0.00     0.111 A 
ATOM      6  C   UNL     1      28.166  20.843  33.398  1.00  0.00     0.134 A 
ATOM      7  C   UNL     1      27.741  19.873  34.314  1.00  0.00     0.093 A 
ATOM      8  C   UNL     1      26.639  20.099  35.143  1.00  0.00     0.123 A 
ATOM      9  C   UNL     1      25.951  21.308  35.065  1.00  0.00     0.094 A 
ATOM     10  C   UNL     1      26.373  22.308  34.186  1.00  0.00     0.146 A 
ATOM     11  O   UNL     1      25.696  23.450  34.152  1.00  0.00    -0.452 OA
ENDROOT
BRANCH   1  12
ATOM     12  C   UNL     1      25.169  25.681  33.408  1.00  0.00     0.025 A 
ATOM     13  C   UNL     1      23.789  25.609  33.152  1.00  0.00     0.016 A 
ATOM     14  C   UNL     1      22.997  26.759  33.216  1.00  0.00     0.051 A 
ATOM     15  C   UNL     1      23.569  27.993  33.549  1.00  0.00     0.157 A 
ATOM     16  C   UNL     1      25.734  26.918  33.762  1.00  0.00     0.062 A 
ATOM     17  C   UNL     1      24.944  28.071  33.825  1.00  0.00     0.158 A 
BRANCH  15  18
ATOM     18  O   UNL     1      22.777  29.139  33.610  1.00  0.00    -0.504 OA
ATOM     19  H   UNL     1      22.639  29.642  34.478  1.00  0.00     0.293 HD
ENDBRANCH  15  18
BRANCH  17  20
ATOM     20  O   UNL     1      25.543  29.283  34.167  1.00  0.00    -0.504 OA
ATOM     21  H   UNL     1      25.652  30.037  33.498  1.00  0.00     0.293 HD
ENDBRANCH  17  20
ENDBRANCH   1  12
BRANCH   2  22
ATOM     22  O   UNL     1      27.578  25.496  31.809  1.00  0.00    -0.502 OA
ATOM     23  H   UNL     1      27.155  26.411  31.911  1.00  0.00     0.293 HD
ENDBRANCH   2  22
BRANCH   6  24
ATOM     24  O   UNL     1      29.217  20.483  32.550  1.00  0.00    -0.507 OA
ATOM     25  H   UNL     1      29.382  20.878  31.637  1.00  0.00     0.293 HD
ENDBRANCH   6  24
BRANCH   8  26
ATOM     26  O   UNL     1      26.214  19.124  36.041  1.00  0.00    -0.508 OA
ATOM     27  H   UNL     1      25.390  19.256  36.618  1.00  0.00     0.293 HD
ENDBRANCH   8  26
TORSDOF 6
ENDMDL
MODEL 5
REMARK VINA RESULT:    -7.724      3.267      6.322
REMARK INTER + INTRA:          -9.627
REMARK INTER:                  -9.444
REMARK INTRA:                  -0.183
REMARK UNBOUND:                -0.323
REMARK SMILES O=c1c(O)c(-c2ccc(O)c(O)c2)oc2cc(O)cc(O)c12
REMARK SMILES IDX 5 1 3 2 2 3 1 4 22 5 20 6 19 7 17 8 16 9 15 10 14 11 6 12
REMARK SMILES IDX 7 13 8 14 9 15 13 16 11 17 10 18 12 20 4 22 21 24 18 26
REMARK H PARENT 10 19 12 21 4 23 21 25 18 27
REMARK Flexibility Score: inf
ROOT
ATOM      1  C   UNL     1      26.510  24.301  33.082  1.00  0.00     0.180 A 
ATOM      2  C   UNL     1      25.265  24.945  32.979  1.00  0.00     0.208 A 
ATOM      3  C   UNL     1      24.149  24.374  33.615  1.00  0.00     0.238 A 
ATOM      4  O   UNL     1      23.027  24.926  33.475  1.00  0.00    -0.285 OA
ATOM      5  C   UNL     1      24.297  23.179  34.358  1.00  0.00     0.111 A 
ATOM      6  C   UNL     1      23.244  22.535  35.075  1.00  0.00     0.134 A 
ATOM      7  C   UNL     1      23.473  21.287  35.667  1.00  0.00     0.093 A 
ATOM      8  C   UNL     1      24.736  20.690  35.622  1.00  0.00     0.123 A 
ATOM      9  C   UNL     1      25.785  21.338  34.975  1.00  0.00     0.094 A 
ATOM     10  C   UNL     1      25.578  22.567  34.344  1.00  0.00     0.146 A 
ATOM     11  O   UNL     1      26.603  23.146  33.730  1.00  0.00    -0.452 OA
ENDROOT
BRANCH   1  12
ATOM     12  C   UNL     1      27.735  24.853  32.460  1.00  0.00     0.025 A 
ATOM     13  C   UNL     1      28.359  24.211  31.376  1.00  0.00     0.016 A 
ATOM     14  C   UNL     1      29.501  24.763  30.790  1.00  0.00     0.051 A 
ATOM     15  C   UNL     1      30.028  25.969  31.267  1.00  0.00     0.157 A 
ATOM     16  C   UNL     1      28.256  26.073  32.922  1.00  0.00     0.062 A 
ATOM     17  C   UNL     1      29.400  26.628  32.338  1.00  0.00     0.158 A 
BRANCH  15  18
ATOM     18  O   UNL     1      31.169  26.517  30.682  1.00  0.00    -0.504 OA
ATOM     19  H   UNL     1      31.598  27.360  31.045  1.00  0.00     0.293 HD
ENDBRANCH  15  18
BRANCH  17  20
ATOM     20  O   UNL     1      29.896  27.834  32.832  1.00  0.00    -0.504 OA
ATOM     21  H   UNL     1      30.695  28.298  32.417  1.00  0.00     0.293 HD
ENDBRANCH  17  20
ENDBRANCH   1  12
BRANCH   2  22
ATOM     22  O   UNL     1      25.137  26.113  32.224  1.00  0.00    -0.502 OA
ATOM     23  H   UNL     1      25.876  26.454  31.620  1.00  0.00     0.293 HD
ENDBRANCH   2  22
BRANCH   6  24
ATOM     24  O   UNL     1      21.973  23.089  35.259  1.00  0.00    -0.507 OA
ATOM     25  H   UNL     1      21.593  23.375  36.148  1.00  0.00     0.293 HD
ENDBRANCH   6  24
BRANCH   8  26
ATOM     26  O   UNL     1      24.960  19.455  36.226  1.00  0.00    -0.508 OA
ATOM     27  H   UNL     1      24.199  18.814  36.421  1.00  0.00     0.293 HD
ENDBRANCH   8  26
TORSDOF 6
ENDMDL
MODEL 6
REMARK VINA RESULT:    -7.705      1.413      6.722
REMARK INTER + INTRA:          -9.604
REMARK INTER:                  -9.782
REMARK INTRA:                   0.178
REMARK UNBOUND:                -0.323
REMARK SMILES O=c1c(O)c(-c2ccc(O)c(O)c2)oc2cc(O)cc(O)c12
REMARK SMILES IDX 5 1 3 2 2 3 1 4 22 5 20 6 19 7 17 8 16 9 15 10 14 11 6 12
REMARK SMILES IDX 7 13 8 14 9 15 13 16 11 17 10 18 12 20 4 22 21 24 18 26
REMARK H PARENT 10 19 12 21 4 23 21 25 18 27
REMARK Flexibility Score: inf
ROOT
ATOM      1  C   UNL     1      23.882  24.019  34.304  1.00  0.00     0.180 A 
ATOM      2  C   UNL     1      23.225  23.088  35.127  1.00  0.00     0.208 A 
ATOM      3  C   UNL     1      23.833  21.844  35.369  1.00  0.00     0.238 A 
ATOM      4  O   UNL     1      23.215  20.995  36.062  1.00  0.00    -0.285 OA
ATOM      5  C   UNL     1      25.096  21.556  34.800  1.00  0.00     0.111 A 
ATOM      6  C   UNL     1      25.822  20.345  35.010  1.00  0.00     0.134 A 
ATOM      7  C   UNL     1      27.002  20.113  34.292  1.00  0.00     0.093 A 
ATOM      8  C   UNL     1      27.515  21.077  33.420  1.00  0.00     0.123 A 
ATOM      9  C   UNL     1      26.845  22.286  33.253  1.00  0.00     0.094 A 
ATOM     10  C   UNL     1      25.647  22.532  33.928  1.00  0.00     0.146 A 
ATOM     11  O   UNL     1      25.035  23.693  33.731  1.00  0.00    -0.452 OA
ENDROOT
BRANCH   1  12
ATOM     12  C   UNL     1      23.317  25.358  34.023  1.00  0.00     0.025 A 
ATOM     13  C   UNL     1      21.937  25.544  33.830  1.00  0.00     0.016 A 
ATOM     14  C   UNL     1      21.423  26.821  33.590  1.00  0.00     0.051 A 
ATOM     15  C   UNL     1      22.275  27.931  33.552  1.00  0.00     0.157 A 
ATOM     16  C   UNL     1      24.165  26.478  34.004  1.00  0.00     0.062 A 
ATOM     17  C   UNL     1      23.654  27.757  33.763  1.00  0.00     0.158 A 
BRANCH  15  18
ATOM     18  O   UNL     1      21.760  29.204  33.310  1.00  0.00    -0.504 OA
ATOM     19  H   UNL     1      22.270  30.040  33.568  1.00  0.00     0.293 HD
ENDBRANCH  15  18
BRANCH  17  20
ATOM     20  O   UNL     1      24.529  28.843  33.738  1.00  0.00    -0.504 OA
ATOM     21  H   UNL     1      25.351  28.858  33.146  1.00  0.00     0.293 HD
ENDBRANCH  17  20
ENDBRANCH   1  12
BRANCH   2  22
ATOM     22  O   UNL     1      21.969  23.386  35.662  1.00  0.00    -0.502 OA
ATOM     23  H   UNL     1      21.106  23.111  35.208  1.00  0.00     0.293 HD
ENDBRANCH   2  22
BRANCH   6  24
ATOM     24  O   UNL     1      25.446  19.359  35.927  1.00  0.00    -0.507 OA
ATOM     25  H   UNL     1      24.892  18.547  35.703  1.00  0.00     0.293 HD
ENDBRANCH   6  24
BRANCH   8  26
ATOM     26  O   UNL     1      28.697  20.844  32.720  1.00  0.00    -0.508 OA
ATOM     27  H   UNL     1      29.073  21.526  32.072  1.00  0.00     0.293 HD
ENDBRANCH   8  26
TORSDOF 6
ENDMDL
MODEL 7
REMARK VINA RESULT:    -7.619      3.171      6.754
REMARK INTER + INTRA:          -9.501
REMARK INTER:                  -9.555
REMARK INTRA:                   0.054
REMARK UNBOUND:                -0.323
REMARK SMILES O=c1c(O)c(-c2ccc(O)c(O)c2)oc2cc(O)cc(O)c12
REMARK SMILES IDX 5 1 3 2 2 3 1 4 22 5 20 6 19 7 17 8 16 9 15 10 14 11 6 12
REMARK SMILES IDX 7 13 8 14 9 15 13 16 11 17 10 18 12 20 4 22 21 24 18 26
REMARK H PARENT 10 19 12 21 4 23 21 25 18 27
REMARK Flexibility Score: inf
ROOT
ATOM      1  C   UNL     1      25.846  25.211  33.251  1.00  0.00     0.180 A 
ATOM      2  C   UNL     1      26.734  26.300  33.300  1.00  0.00     0.208 A 
ATOM      3  C   UNL     1      28.092  26.084  33.011  1.00  0.00     0.238 A 
ATOM      4  O   UNL     1      28.891  27.051  33.108  1.00  0.00    -0.285 OA
ATOM      5  C   UNL     1      28.540  24.788  32.661  1.00  0.00     0.111 A 
ATOM      6  C   UNL     1      29.885  24.463  32.309  1.00  0.00     0.134 A 
ATOM      7  C   UNL     1      30.243  23.124  32.108  1.00  0.00     0.093 A 
ATOM      8  C   UNL     1      29.289  22.105  32.182  1.00  0.00     0.123 A 
ATOM      9  C   UNL     1      27.962  22.419  32.466  1.00  0.00     0.094 A 
ATOM     10  C   UNL     1      27.582  23.741  32.707  1.00  0.00     0.146 A 
ATOM     11  O   UNL     1      26.309  23.995  32.985  1.00  0.00    -0.452 OA
ENDROOT
BRANCH   1  12
ATOM     12  C   UNL     1      24.398  25.364  33.519  1.00  0.00     0.025 A 
ATOM     13  C   UNL     1      23.730  24.525  34.427  1.00  0.00     0.016 A 
ATOM     14  C   UNL     1      22.367  24.703  34.683  1.00  0.00     0.051 A 
ATOM     15  C   UNL     1      21.657  25.728  34.047  1.00  0.00     0.157 A 
ATOM     16  C   UNL     1      23.685  26.404  32.899  1.00  0.00     0.062 A 
ATOM     17  C   UNL     1      22.321  26.584  33.152  1.00  0.00     0.158 A 
BRANCH  15  18
ATOM     18  O   UNL     1      20.297  25.902  34.302  1.00  0.00    -0.504 OA
ATOM     19  H   UNL     1      19.817  26.760  34.056  1.00  0.00     0.293 HD
ENDBRANCH  15  18
BRANCH  17  20
ATOM     20  O   UNL     1      21.644  27.619  32.508  1.00  0.00    -0.504 OA
ATOM     21  H   UNL     1      21.351  28.457  32.996  1.00  0.00     0.293 HD
ENDBRANCH  17  20
ENDBRANCH   1  12
BRANCH   2  22
ATOM     22  O   UNL     1      26.274  27.567  33.667  1.00  0.00    -0.502 OA
ATOM     23  H   UNL     1      25.727  28.149  33.044  1.00  0.00     0.293 HD
ENDBRANCH   2  22
BRANCH   6  24
ATOM     24  O   UNL     1      30.893  25.413  32.119  1.00  0.00    -0.507 OA
ATOM     25  H   UNL     1      31.542  25.416  31.347  1.00  0.00     0.293 HD
ENDBRANCH   6  24
BRANCH   8  26
ATOM     26  O   UNL     1      29.650  20.777  31.967  1.00  0.00    -0.508 OA
ATOM     27  H   UNL     1      30.550  20.530  31.572  1.00  0.00     0.293 HD
ENDBRANCH   8  26
TORSDOF 6
ENDMDL
MODEL 8
REMARK VINA RESULT:    -7.477      1.226      2.923
REMARK INTER + INTRA:          -9.330
REMARK INTER:                  -9.006
REMARK INTRA:                  -0.324
REMARK UNBOUND:                -0.323
REMARK SMILES O=c1c(O)c(-c2ccc(O)c(O)c2)oc2cc(O)cc(O)c12
REMARK SMILES IDX 5 1 3 2 2 3 1 4 22 5 20 6 19 7 17 8 16 9 15 10 14 11 6 12
REMARK SMILES IDX 7 13 8 14 9 15 13 16 11 17 10 18 12 20 4 22 21 24 18 26
REMARK H PARENT 10 19 12 21 4 23 21 25 18 27
REMARK Flexibility Score: inf
ROOT
ATOM      1  C   UNL     1      24.803  24.111  34.545  1.00  0.00     0.180 A 
ATOM      2  C   UNL     1      25.623  25.222  34.280  1.00  0.00     0.208 A 
ATOM      3  C   UNL     1      25.022  26.454  33.973  1.00  0.00     0.238 A 
ATOM      4  O   UNL     1      25.761  27.431  33.684  1.00  0.00    -0.285 OA
ATOM      5  C   UNL     1      23.611  26.564  33.953  1.00  0.00     0.111 A 
ATOM      6  C   UNL     1      22.896  27.772  33.695  1.00  0.00     0.134 A 
ATOM      7  C   UNL     1      21.501  27.736  33.570  1.00  0.00     0.093 A 
ATOM      8  C   UNL     1      20.792  26.547  33.759  1.00  0.00     0.123 A 
ATOM      9  C   UNL     1      21.476  25.375  34.070  1.00  0.00     0.094 A 
ATOM     10  C   UNL     1      22.870  25.372  34.165  1.00  0.00     0.146 A 
ATOM     11  O   UNL     1      23.484  24.230  34.453  1.00  0.00    -0.452 OA
ENDROOT
BRANCH   1  12
ATOM     12  C   UNL     1      25.362  22.787  34.899  1.00  0.00     0.025 A 
ATOM     13  C   UNL     1      25.742  22.482  36.218  1.00  0.00     0.016 A 
ATOM     14  C   UNL     1      26.244  21.216  36.534  1.00  0.00     0.051 A 
ATOM     15  C   UNL     1      26.362  20.235  35.542  1.00  0.00     0.157 A 
ATOM     16  C   UNL     1      25.462  21.791  33.913  1.00  0.00     0.062 A 
ATOM     17  C   UNL     1      25.965  20.525  34.226  1.00  0.00     0.158 A 
BRANCH  15  18
ATOM     18  O   UNL     1      26.865  18.974  35.860  1.00  0.00    -0.504 OA
ATOM     19  H   UNL     1      26.731  18.565  36.777  1.00  0.00     0.293 HD
ENDBRANCH  15  18
BRANCH  17  20
ATOM     20  O   UNL     1      26.063  19.567  33.216  1.00  0.00    -0.504 OA
ATOM     21  H   UNL     1      25.580  19.666  32.331  1.00  0.00     0.293 HD
ENDBRANCH  17  20
ENDBRANCH   1  12
BRANCH   2  22
ATOM     22  O   UNL     1      27.014  25.087  34.285  1.00  0.00    -0.502 OA
ATOM     23  H   UNL     1      27.473  24.188  34.187  1.00  0.00     0.293 HD
ENDBRANCH   2  22
BRANCH   6  24
ATOM     24  O   UNL     1      23.500  29.027  33.582  1.00  0.00    -0.507 OA
ATOM     25  H   UNL     1      24.496  29.189  33.589  1.00  0.00     0.293 HD
ENDBRANCH   6  24
BRANCH   8  26
ATOM     26  O   UNL     1      19.404  26.523  33.647  1.00  0.00    -0.508 OA
ATOM     27  H   UNL     1      18.804  26.698  34.446  1.00  0.00     0.293 HD
ENDBRANCH   8  26
TORSDOF 6
ENDMDL
MODEL 9
REMARK VINA RESULT:    -7.415      3.246      3.830
REMARK INTER + INTRA:          -9.255
REMARK INTER:                  -9.030
REMARK INTRA:                  -0.224
REMARK UNBOUND:                -0.323
REMARK SMILES O=c1c(O)c(-c2ccc(O)c(O)c2)oc2cc(O)cc(O)c12
REMARK SMILES IDX 5 1 3 2 2 3 1 4 22 5 20 6 19 7 17 8 16 9 15 10 14 11 6 12
REMARK SMILES IDX 7 13 8 14 9 15 13 16 11 17 10 18 12 20 4 22 21 24 18 26
REMARK H PARENT 10 19 12 21 4 23 21 25 18 27
REMARK Flexibility Score: inf
ROOT
ATOM      1  C   UNL     1      26.388  24.236  33.547  1.00  0.00     0.180 A 
ATOM      2  C   UNL     1      25.438  23.252  33.871  1.00  0.00     0.208 A 
ATOM      3  C   UNL     1      24.091  23.626  34.017  1.00  0.00     0.238 A 
ATOM      4  O   UNL     1      23.255  22.751  34.360  1.00  0.00    -0.285 OA
ATOM      5  C   UNL     1      23.711  24.975  33.821  1.00  0.00     0.111 A 
ATOM      6  C   UNL     1      22.370  25.459  33.903  1.00  0.00     0.134 A 
ATOM      7  C   UNL     1      22.126  26.836  33.820  1.00  0.00     0.093 A 
ATOM      8  C   UNL     1      23.168  27.739  33.592  1.00  0.00     0.123 A 
ATOM      9  C   UNL     1      24.472  27.271  33.451  1.00  0.00     0.094 A 
ATOM     10  C   UNL     1      24.751  25.907  33.565  1.00  0.00     0.146 A 
ATOM     11  O   UNL     1      26.009  25.504  33.435  1.00  0.00    -0.452 OA
ENDROOT
BRANCH   1  12
ATOM     12  C   UNL     1      27.820  23.915  33.353  1.00  0.00     0.025 A 
ATOM     13  C   UNL     1      28.788  24.284  34.304  1.00  0.00     0.016 A 
ATOM     14  C   UNL     1      30.131  23.949  34.111  1.00  0.00     0.051 A 
ATOM     15  C   UNL     1      30.524  23.230  32.976  1.00  0.00     0.157 A 
ATOM     16  C   UNL     1      28.217  23.175  32.227  1.00  0.00     0.062 A 
ATOM     17  C   UNL     1      29.560  22.839  32.031  1.00  0.00     0.158 A 
BRANCH  15  18
ATOM     18  O   UNL     1      31.865  22.898  32.786  1.00  0.00    -0.504 OA
ATOM     19  H   UNL     1      32.145  21.970  32.490  1.00  0.00     0.293 HD
ENDBRANCH  15  18
BRANCH  17  20
ATOM     20  O   UNL     1      29.919  22.116  30.893  1.00  0.00    -0.504 OA
ATOM     21  H   UNL     1      30.465  21.265  30.946  1.00  0.00     0.293 HD
ENDBRANCH  17  20
ENDBRANCH   1  12
BRANCH   2  22
ATOM     22  O   UNL     1      25.838  21.930  34.081  1.00  0.00    -0.502 OA
ATOM     23  H   UNL     1      26.141  21.591  34.987  1.00  0.00     0.293 HD
ENDBRANCH   2  22
BRANCH   6  24
ATOM     24  O   UNL     1      21.250  24.634  34.037  1.00  0.00    -0.507 OA
ATOM     25  H   UNL     1      20.564  24.710  34.772  1.00  0.00     0.293 HD
ENDBRANCH   6  24
BRANCH   8  26
ATOM     26  O   UNL     1      22.915  29.106  33.496  1.00  0.00    -0.508 OA
ATOM     27  H   UNL     1      23.566  29.735  33.042  1.00  0.00     0.293 HD
ENDBRANCH   8  26
TORSDOF 6
ENDMDL
