MODEL 1
REMARK VINA RESULT:    -4.829      0.000      0.000
REMARK INTER + INTRA:          -5.209
REMARK INTER:                  -5.112
REMARK INTRA:                  -0.097
REMARK UNBOUND:                -0.097
REMARK SMILES C=C(C)[C@H]1CC=C(C)C(=O)C1
REMARK SMILES IDX 8 1 7 2 6 3 5 4 4 5 11 6 9 7 10 8 2 9 1 10 3 11
REMARK H PARENT
REMARK Flexibility Score: inf
ROOT
ATOM      1  C   UNL     1      46.820  58.366  27.826  1.00  0.00     0.048 C 
ATOM      2  C   UNL     1      45.611  57.471  27.850  1.00  0.00    -0.012 C 
ATOM      3  C   UNL     1      44.641  57.681  28.756  1.00  0.00    -0.019 C 
ATOM      4  C   UNL     1      43.419  56.805  28.835  1.00  0.00     0.036 C 
ATOM      5  C   UNL     1      43.021  56.282  27.442  1.00  0.00     0.025 C 
ATOM      6  C   UNL     1      44.211  55.563  26.781  1.00  0.00     0.089 C 
ATOM      7  C   UNL     1      45.433  56.441  26.796  1.00  0.00     0.158 C 
ATOM      8  O   UNL     1      46.326  56.266  25.923  1.00  0.00    -0.295 OA
ENDROOT
BRANCH   5   9
ATOM      9  C   UNL     1      41.797  55.379  27.515  1.00  0.00    -0.077 C 
ATOM     10  C   UNL     1      41.927  54.099  27.900  1.00  0.00     0.008 C 
ATOM     11  C   UNL     1      40.421  55.888  27.164  1.00  0.00     0.039 C 
ENDBRANCH   5   9
TORSDOF 1
ENDMDL
MODEL 2
REMARK VINA RESULT:    -4.750      1.564      4.421
REMARK INTER + INTRA:          -5.125
REMARK INTER:                  -5.028
REMARK INTRA:                  -0.097
REMARK UNBOUND:                -0.097
REMARK SMILES C=C(C)[C@H]1CC=C(C)C(=O)C1
REMARK SMILES IDX 8 1 7 2 6 3 5 4 4 5 11 6 9 7 10 8 2 9 1 10 3 11
REMARK H PARENT
REMARK Flexibility Score: inf
ROOT
ATOM      1  C   UNL     1      41.046  55.826  27.485  1.00  0.00     0.048 C 
ATOM      2  C   UNL     1      42.438  56.394  27.482  1.00  0.00    -0.012 C 
ATOM      3  C   UNL     1      43.102  56.548  28.641  1.00  0.00    -0.019 C 
ATOM      4  C   UNL     1      44.490  57.128  28.697  1.00  0.00     0.036 C 
ATOM      5  C   UNL     1      45.294  56.764  27.435  1.00  0.00     0.025 C 
ATOM      6  C   UNL     1      44.530  57.199  26.170  1.00  0.00     0.089 C 
ATOM      7  C   UNL     1      43.123  56.667  26.193  1.00  0.00     0.158 C 
ATOM      8  O   UNL     1      42.516  56.490  25.103  1.00  0.00    -0.295 OA
ENDROOT
BRANCH   5   9
ATOM      9  C   UNL     1      46.693  57.363  27.473  1.00  0.00    -0.077 C 
ATOM     10  C   UNL     1      46.876  58.616  27.921  1.00  0.00     0.008 C 
ATOM     11  C   UNL     1      47.898  56.578  27.018  1.00  0.00     0.039 C 
ENDBRANCH   5   9
TORSDOF 1
ENDMDL
MODEL 3
REMARK VINA RESULT:    -4.628      2.102      3.256
REMARK INTER + INTRA:          -4.996
REMARK INTER:                  -4.898
REMARK INTRA:                  -0.097
REMARK UNBOUND:                -0.097
REMARK SMILES C=C(C)[C@H]1CC=C(C)C(=O)C1
REMARK SMILES IDX 8 1 7 2 6 3 5 4 4 5 11 6 9 7 10 8 2 9 1 10 3 11
REMARK H PARENT
REMARK Flexibility Score: inf
ROOT
ATOM      1  C   UNL     1      47.793  59.734  24.519  1.00  0.00     0.048 C 
ATOM      2  C   UNL     1      46.854  59.143  25.534  1.00  0.00    -0.012 C 
ATOM      3  C   UNL     1      45.526  59.202  25.333  1.00  0.00    -0.019 C 
ATOM      4  C   UNL     1      44.541  58.643  26.325  1.00  0.00     0.036 C 
ATOM      5  C   UNL     1      45.119  57.409  27.042  1.00  0.00     0.025 C 
ATOM      6  C   UNL     1      46.471  57.754  27.694  1.00  0.00     0.089 C 
ATOM      7  C   UNL     1      47.396  58.386  26.690  1.00  0.00     0.158 C 
ATOM      8  O   UNL     1      48.642  58.298  26.862  1.00  0.00    -0.295 OA
ENDROOT
BRANCH   5   9
ATOM      9  C   UNL     1      44.137  56.847  28.062  1.00  0.00    -0.077 C 
ATOM     10  C   UNL     1      44.147  57.300  29.326  1.00  0.00     0.008 C 
ATOM     11  C   UNL     1      43.137  55.781  27.688  1.00  0.00     0.039 C 
ENDBRANCH   5   9
TORSDOF 1
ENDMDL
MODEL 4
REMARK VINA RESULT:    -4.392      1.986      4.897
REMARK INTER + INTRA:          -4.746
REMARK INTER:                  -4.647
REMARK INTRA:                  -0.098
REMARK UNBOUND:                -0.097
REMARK SMILES C=C(C)[C@H]1CC=C(C)C(=O)C1
REMARK SMILES IDX 8 1 7 2 6 3 5 4 4 5 11 6 9 7 10 8 2 9 1 10 3 11
REMARK H PARENT
REMARK Flexibility Score: inf
ROOT
ATOM      1  C   UNL     1      42.756  56.289  28.488  1.00  0.00     0.048 C 
ATOM      2  C   UNL     1      43.869  57.088  27.869  1.00  0.00    -0.012 C 
ATOM      3  C   UNL     1      44.911  57.481  28.623  1.00  0.00    -0.019 C 
ATOM      4  C   UNL     1      46.043  58.298  28.059  1.00  0.00     0.036 C 
ATOM      5  C   UNL     1      46.300  57.942  26.583  1.00  0.00     0.025 C 
ATOM      6  C   UNL     1      45.005  58.096  25.763  1.00  0.00     0.089 C 
ATOM      7  C   UNL     1      43.879  57.332  26.405  1.00  0.00     0.158 C 
ATOM      8  O   UNL     1      42.921  56.933  25.690  1.00  0.00    -0.295 OA
ENDROOT
BRANCH   5   9
ATOM      9  C   UNL     1      47.430  58.778  25.997  1.00  0.00    -0.077 C 
ATOM     10  C   UNL     1      47.159  59.755  25.118  1.00  0.00     0.008 C 
ATOM     11  C   UNL     1      48.869  58.537  26.384  1.00  0.00     0.039 C 
ENDBRANCH   5   9
TORSDOF 1
ENDMDL
MODEL 5
REMARK VINA RESULT:    -4.289      2.114      3.185
REMARK INTER + INTRA:          -4.637
REMARK INTER:                  -4.546
REMARK INTRA:                  -0.091
REMARK UNBOUND:                -0.097
REMARK SMILES C=C(C)[C@H]1CC=C(C)C(=O)C1
REMARK SMILES IDX 8 1 7 2 6 3 5 4 4 5 11 6 9 7 10 8 2 9 1 10 3 11
REMARK H PARENT
REMARK Flexibility Score: inf
ROOT
ATOM      1  C   UNL     1      48.166  59.520  24.864  1.00  0.00     0.048 C 
ATOM      2  C   UNL     1      47.107  58.756  25.609  1.00  0.00    -0.012 C 
ATOM      3  C   UNL     1      47.426  58.092  26.734  1.00  0.00    -0.019 C 
ATOM      4  C   UNL     1      46.409  57.297  27.508  1.00  0.00     0.036 C 
ATOM      5  C   UNL     1      45.012  57.936  27.405  1.00  0.00     0.025 C 
ATOM      6  C   UNL     1      44.612  58.112  25.929  1.00  0.00     0.089 C 
ATOM      7  C   UNL     1      45.690  58.839  25.172  1.00  0.00     0.158 C 
ATOM      8  O   UNL     1      45.383  59.490  24.138  1.00  0.00    -0.295 OA
ENDROOT
BRANCH   5   9
ATOM      9  C   UNL     1      43.972  57.127  28.170  1.00  0.00    -0.077 C 
ATOM     10  C   UNL     1      43.963  57.141  29.512  1.00  0.00     0.008 C 
ATOM     11  C   UNL     1      42.935  56.299  27.451  1.00  0.00     0.039 C 
ENDBRANCH   5   9
TORSDOF 1
ENDMDL
MODEL 6
REMARK VINA RESULT:    -4.184      2.073      4.586
REMARK INTER + INTRA:          -4.526
REMARK INTER:                  -4.427
REMARK INTRA:                  -0.098
REMARK UNBOUND:                -0.097
REMARK SMILES C=C(C)[C@H]1CC=C(C)C(=O)C1
REMARK SMILES IDX 8 1 7 2 6 3 5 4 4 5 11 6 9 7 10 8 2 9 1 10 3 11
REMARK H PARENT
REMARK Flexibility Score: inf
ROOT
ATOM      1  C   UNL     1      39.265  55.546  25.185  1.00  0.00     0.048 C 
ATOM      2  C   UNL     1      40.503  56.033  25.888  1.00  0.00    -0.012 C 
ATOM      3  C   UNL     1      40.596  55.933  27.226  1.00  0.00    -0.019 C 
ATOM      4  C   UNL     1      41.803  56.421  27.981  1.00  0.00     0.036 C 
ATOM      5  C   UNL     1      43.084  56.257  27.143  1.00  0.00     0.025 C 
ATOM      6  C   UNL     1      42.926  56.959  25.782  1.00  0.00     0.089 C 
ATOM      7  C   UNL     1      41.666  56.505  25.096  1.00  0.00     0.158 C 
ATOM      8  O   UNL     1      41.594  56.566  23.839  1.00  0.00    -0.295 OA
ENDROOT
BRANCH   5   9
ATOM      9  C   UNL     1      44.309  56.766  27.892  1.00  0.00    -0.077 C 
ATOM     10  C   UNL     1      44.179  57.274  29.128  1.00  0.00     0.008 C 
ATOM     11  C   UNL     1      45.686  56.712  27.277  1.00  0.00     0.039 C 
ENDBRANCH   5   9
TORSDOF 1
ENDMDL
MODEL 7
REMARK VINA RESULT:    -4.162     17.555     18.739
REMARK INTER + INTRA:          -4.502
REMARK INTER:                  -4.405
REMARK INTRA:                  -0.097
REMARK UNBOUND:                -0.097
REMARK SMILES C=C(C)[C@H]1CC=C(C)C(=O)C1
REMARK SMILES IDX 8 1 7 2 6 3 5 4 4 5 11 6 9 7 10 8 2 9 1 10 3 11
REMARK H PARENT
REMARK Flexibility Score: inf
ROOT
ATOM      1  C   UNL     1      33.440  66.943  41.618  1.00  0.00     0.048 C 
ATOM      2  C   UNL     1      34.129  65.608  41.539  1.00  0.00    -0.012 C 
ATOM      3  C   UNL     1      35.464  65.534  41.677  1.00  0.00    -0.019 C 
ATOM      4  C   UNL     1      36.205  64.226  41.588  1.00  0.00     0.036 C 
ATOM      5  C   UNL     1      35.346  63.066  42.125  1.00  0.00     0.025 C 
ATOM      6  C   UNL     1      33.992  63.019  41.393  1.00  0.00     0.089 C 
ATOM      7  C   UNL     1      33.323  64.366  41.434  1.00  0.00     0.158 C 
ATOM      8  O   UNL     1      32.067  64.431  41.340  1.00  0.00    -0.295 OA
ENDROOT
BRANCH   5   9
ATOM      9  C   UNL     1      36.080  61.735  42.021  1.00  0.00    -0.077 C 
ATOM     10  C   UNL     1      35.400  60.582  42.123  1.00  0.00     0.008 C 
ATOM     11  C   UNL     1      37.571  61.674  41.801  1.00  0.00     0.039 C 
ENDBRANCH   5   9
TORSDOF 1
ENDMDL
MODEL 8
REMARK VINA RESULT:    -4.067      2.155      3.233
REMARK INTER + INTRA:          -4.401
REMARK INTER:                  -4.307
REMARK INTRA:                  -0.094
REMARK UNBOUND:                -0.097
REMARK SMILES C=C(C)[C@H]1CC=C(C)C(=O)C1
REMARK SMILES IDX 8 1 7 2 6 3 5 4 4 5 11 6 9 7 10 8 2 9 1 10 3 11
REMARK H PARENT
REMARK Flexibility Score: inf
ROOT
ATOM      1  C   UNL     1      47.187  58.518  23.656  1.00  0.00     0.048 C 
ATOM      2  C   UNL     1      46.266  58.212  24.805  1.00  0.00    -0.012 C 
ATOM      3  C   UNL     1      45.053  57.682  24.568  1.00  0.00    -0.019 C 
ATOM      4  C   UNL     1      44.085  57.375  25.679  1.00  0.00     0.036 C 
ATOM      5  C   UNL     1      44.828  56.959  26.962  1.00  0.00     0.025 C 
ATOM      6  C   UNL     1      45.849  58.041  27.362  1.00  0.00     0.089 C 
ATOM      7  C   UNL     1      46.743  58.379  26.201  1.00  0.00     0.158 C 
ATOM      8  O   UNL     1      47.894  58.842  26.426  1.00  0.00    -0.295 OA
ENDROOT
BRANCH   5   9
ATOM      9  C   UNL     1      43.857  56.664  28.098  1.00  0.00    -0.077 C 
ATOM     10  C   UNL     1      42.805  55.856  27.891  1.00  0.00     0.008 C 
ATOM     11  C   UNL     1      44.047  57.262  29.470  1.00  0.00     0.039 C 
ENDBRANCH   5   9
TORSDOF 1
ENDMDL
MODEL 9
REMARK VINA RESULT:    -4.024      2.063      4.908
REMARK INTER + INTRA:          -4.356
REMARK INTER:                  -4.258
REMARK INTRA:                  -0.098
REMARK UNBOUND:                -0.097
REMARK SMILES C=C(C)[C@H]1CC=C(C)C(=O)C1
REMARK SMILES IDX 8 1 7 2 6 3 5 4 4 5 11 6 9 7 10 8 2 9 1 10 3 11
REMARK H PARENT
REMARK Flexibility Score: inf
ROOT
ATOM      1  C   UNL     1      42.190  56.080  27.865  1.00  0.00     0.048 C 
ATOM      2  C   UNL     1      43.490  56.671  27.395  1.00  0.00    -0.012 C 
ATOM      3  C   UNL     1      43.744  56.771  26.079  1.00  0.00    -0.019 C 
ATOM      4  C   UNL     1      45.037  57.338  25.555  1.00  0.00     0.036 C 
ATOM      5  C   UNL     1      45.582  58.432  26.492  1.00  0.00     0.025 C 
ATOM      6  C   UNL     1      45.722  57.887  27.926  1.00  0.00     0.089 C 
ATOM      7  C   UNL     1      44.434  57.257  28.380  1.00  0.00     0.158 C 
ATOM      8  O   UNL     1      44.182  57.196  29.614  1.00  0.00    -0.295 OA
ENDROOT
BRANCH   5   9
ATOM      9  C   UNL     1      46.900  58.998  25.981  1.00  0.00    -0.077 C 
ATOM     10  C   UNL     1      48.055  58.649  26.569  1.00  0.00     0.008 C 
ATOM     11  C   UNL     1      46.947  59.953  24.814  1.00  0.00     0.039 C 
ENDBRANCH   5   9
TORSDOF 1
ENDMDL
