MODEL 1
REMARK VINA RESULT:    -7.631      0.000      0.000
REMARK INTER + INTRA:          -8.300
REMARK INTER:                  -8.300
REMARK INTRA:                   0.000
REMARK UNBOUND:                 0.000
REMARK SMILES Cc1cc(O)c2c(c1)C(=O)c1cc(O)cc(O)c1C2=O
REMARK SMILES IDX 1 1 2 2 8 3 7 4 6 5 4 6 3 7 19 8 20 9 18 10 11 11 9 12 10 13
REMARK SMILES IDX 12 14 13 15 15 16 16 17 5 18 17 20 14 22
REMARK H PARENT 5 19 17 21 14 23
REMARK Flexibility Score: inf
ROOT
ATOM      1  C   UNL     1      18.809  12.128   2.814  1.00  0.00     0.044 C 
ATOM      2  C   UNL     1      20.027  12.980   3.017  1.00  0.00    -0.047 A 
ATOM      3  C   UNL     1      19.900  14.281   3.520  1.00  0.00     0.016 A 
ATOM      4  C   UNL     1      21.032  15.100   3.682  1.00  0.00     0.038 A 
ATOM      5  C   UNL     1      22.306  14.617   3.316  1.00  0.00     0.076 A 
ATOM      6  C   UNL     1      22.427  13.308   2.796  1.00  0.00     0.127 A 
ATOM      7  C   UNL     1      21.289  12.506   2.644  1.00  0.00     0.050 A 
ATOM      8  C   UNL     1      23.486  15.511   3.457  1.00  0.00     0.201 C 
ATOM      9  O   UNL     1      24.540  15.250   2.819  1.00  0.00    -0.288 OA
ATOM     10  C   UNL     1      23.385  16.766   4.253  1.00  0.00     0.076 A 
ATOM     11  C   UNL     1      22.096  17.267   4.556  1.00  0.00     0.041 A 
ATOM     12  C   UNL     1      20.891  16.468   4.230  1.00  0.00     0.194 C 
ATOM     13  O   UNL     1      19.742  16.948   4.437  1.00  0.00    -0.289 OA
ATOM     14  C   UNL     1      21.962  18.521   5.177  1.00  0.00     0.059 A 
ATOM     15  C   UNL     1      23.090  19.272   5.513  1.00  0.00     0.120 A 
ATOM     16  C   UNL     1      24.361  18.762   5.260  1.00  0.00     0.093 A 
ATOM     17  C   UNL     1      24.525  17.505   4.669  1.00  0.00     0.131 A 
ENDROOT
BRANCH   6  18
ATOM     18  O   UNL     1      23.675  12.798   2.437  1.00  0.00    -0.507 OA
ATOM     19  H   UNL     1      23.889  12.535   1.482  1.00  0.00     0.293 HD
ENDBRANCH   6  18
BRANCH  17  20
ATOM     20  O   UNL     1      25.831  17.024   4.549  1.00  0.00    -0.507 OA
ATOM     21  H   UNL     1      26.059  16.051   4.397  1.00  0.00     0.293 HD
ENDBRANCH  17  20
BRANCH  15  22
ATOM     22  O   UNL     1      22.958  20.523   6.114  1.00  0.00    -0.508 OA
ATOM     23  H   UNL     1      22.622  21.327   5.597  1.00  0.00     0.293 HD
ENDBRANCH  15  22
TORSDOF 3
ENDMDL
MODEL 2
REMARK VINA RESULT:    -6.617      1.448      5.506
REMARK INTER + INTRA:          -7.197
REMARK INTER:                  -7.197
REMARK INTRA:                   0.000
REMARK UNBOUND:                 0.000
REMARK SMILES Cc1cc(O)c2c(c1)C(=O)c1cc(O)cc(O)c1C2=O
REMARK SMILES IDX 1 1 2 2 8 3 7 4 6 5 4 6 3 7 19 8 20 9 18 10 11 11 9 12 10 13
REMARK SMILES IDX 12 14 13 15 15 16 16 17 5 18 17 20 14 22
REMARK H PARENT 5 19 17 21 14 23
REMARK Flexibility Score: inf
ROOT
ATOM      1  C   UNL     1      23.703  20.050   5.353  1.00  0.00     0.044 C 
ATOM      2  C   UNL     1      23.500  18.646   4.863  1.00  0.00    -0.047 A 
ATOM      3  C   UNL     1      22.217  18.084   4.849  1.00  0.00     0.016 A 
ATOM      4  C   UNL     1      22.021  16.758   4.424  1.00  0.00     0.038 A 
ATOM      5  C   UNL     1      23.127  15.977   4.027  1.00  0.00     0.076 A 
ATOM      6  C   UNL     1      24.421  16.545   4.055  1.00  0.00     0.127 A 
ATOM      7  C   UNL     1      24.597  17.868   4.480  1.00  0.00     0.050 A 
ATOM      8  C   UNL     1      22.906  14.565   3.618  1.00  0.00     0.201 C 
ATOM      9  O   UNL     1      23.877  13.762   3.612  1.00  0.00    -0.288 OA
ATOM     10  C   UNL     1      21.528  14.075   3.331  1.00  0.00     0.076 A 
ATOM     11  C   UNL     1      20.432  14.842   3.793  1.00  0.00     0.041 A 
ATOM     12  C   UNL     1      20.659  16.176   4.396  1.00  0.00     0.194 C 
ATOM     13  O   UNL     1      19.688  16.827   4.872  1.00  0.00    -0.289 OA
ATOM     14  C   UNL     1      19.125  14.339   3.670  1.00  0.00     0.059 A 
ATOM     15  C   UNL     1      18.896  13.094   3.080  1.00  0.00     0.120 A 
ATOM     16  C   UNL     1      19.967  12.357   2.580  1.00  0.00     0.093 A 
ATOM     17  C   UNL     1      21.274  12.845   2.665  1.00  0.00     0.131 A 
ENDROOT
BRANCH   6  18
ATOM     18  O   UNL     1      25.533  15.802   3.656  1.00  0.00    -0.507 OA
ATOM     19  H   UNL     1      25.511  15.210   2.835  1.00  0.00     0.293 HD
ENDBRANCH   6  18
BRANCH  17  20
ATOM     20  O   UNL     1      22.275  12.093   2.044  1.00  0.00    -0.507 OA
ATOM     21  H   UNL     1      22.093  11.374   1.358  1.00  0.00     0.293 HD
ENDBRANCH  17  20
BRANCH  15  22
ATOM     22  O   UNL     1      17.602  12.587   2.972  1.00  0.00    -0.508 OA
ATOM     23  H   UNL     1      17.318  12.021   2.181  1.00  0.00     0.293 HD
ENDBRANCH  15  22
TORSDOF 3
ENDMDL
MODEL 3
REMARK VINA RESULT:    -6.497      2.051      3.419
REMARK INTER + INTRA:          -7.067
REMARK INTER:                  -7.067
REMARK INTRA:                   0.000
REMARK UNBOUND:                 0.000
REMARK SMILES Cc1cc(O)c2c(c1)C(=O)c1cc(O)cc(O)c1C2=O
REMARK SMILES IDX 1 1 2 2 8 3 7 4 6 5 4 6 3 7 19 8 20 9 18 10 11 11 9 12 10 13
REMARK SMILES IDX 12 14 13 15 15 16 16 17 5 18 17 20 14 22
REMARK H PARENT 5 19 17 21 14 23
REMARK Flexibility Score: inf
ROOT
ATOM      1  C   UNL     1      17.238  15.917   5.709  1.00  0.00     0.044 C 
ATOM      2  C   UNL     1      18.479  15.492   4.982  1.00  0.00    -0.047 A 
ATOM      3  C   UNL     1      19.441  16.441   4.614  1.00  0.00     0.016 A 
ATOM      4  C   UNL     1      20.591  16.058   3.902  1.00  0.00     0.038 A 
ATOM      5  C   UNL     1      20.772  14.707   3.536  1.00  0.00     0.076 A 
ATOM      6  C   UNL     1      19.792  13.755   3.899  1.00  0.00     0.127 A 
ATOM      7  C   UNL     1      18.654  14.155   4.609  1.00  0.00     0.050 A 
ATOM      8  C   UNL     1      21.975  14.326   2.750  1.00  0.00     0.201 C 
ATOM      9  O   UNL     1      21.981  13.238   2.115  1.00  0.00    -0.288 OA
ATOM     10  C   UNL     1      23.116  15.275   2.618  1.00  0.00     0.076 A 
ATOM     11  C   UNL     1      22.896  16.637   2.931  1.00  0.00     0.041 A 
ATOM     12  C   UNL     1      21.610  17.065   3.531  1.00  0.00     0.194 C 
ATOM     13  O   UNL     1      21.391  18.290   3.743  1.00  0.00    -0.289 OA
ATOM     14  C   UNL     1      23.905  17.584   2.681  1.00  0.00     0.059 A 
ATOM     15  C   UNL     1      25.130  17.190   2.139  1.00  0.00     0.120 A 
ATOM     16  C   UNL     1      25.369  15.843   1.875  1.00  0.00     0.093 A 
ATOM     17  C   UNL     1      24.394  14.877   2.140  1.00  0.00     0.131 A 
ENDROOT
BRANCH   6  18
ATOM     18  O   UNL     1      19.950  12.409   3.562  1.00  0.00    -0.507 OA
ATOM     19  H   UNL     1      19.907  11.677   4.260  1.00  0.00     0.293 HD
ENDBRANCH   6  18
BRANCH  17  20
ATOM     20  O   UNL     1      24.753  13.541   1.946  1.00  0.00    -0.507 OA
ATOM     21  H   UNL     1      24.326  12.939   1.255  1.00  0.00     0.293 HD
ENDBRANCH  17  20
BRANCH  15  22
ATOM     22  O   UNL     1      26.125  18.129   1.875  1.00  0.00    -0.508 OA
ATOM     23  H   UNL     1      25.978  19.118   2.039  1.00  0.00     0.293 HD
ENDBRANCH  15  22
TORSDOF 3
ENDMDL
MODEL 4
REMARK VINA RESULT:    -5.601      2.112      4.426
REMARK INTER + INTRA:          -6.092
REMARK INTER:                  -6.092
REMARK INTRA:                   0.000
REMARK UNBOUND:                 0.000
REMARK SMILES Cc1cc(O)c2c(c1)C(=O)c1cc(O)cc(O)c1C2=O
REMARK SMILES IDX 1 1 2 2 8 3 7 4 6 5 4 6 3 7 19 8 20 9 18 10 11 11 9 12 10 13
REMARK SMILES IDX 12 14 13 15 15 16 16 17 5 18 17 20 14 22
REMARK H PARENT 5 19 17 21 14 23
REMARK Flexibility Score: inf
ROOT
ATOM      1  C   UNL     1      26.125  12.121   1.875  1.00  0.00     0.044 C 
ATOM      2  C   UNL     1      25.250  13.290   2.223  1.00  0.00    -0.047 A 
ATOM      3  C   UNL     1      23.919  13.084   2.607  1.00  0.00     0.016 A 
ATOM      4  C   UNL     1      23.081  14.174   2.902  1.00  0.00     0.038 A 
ATOM      5  C   UNL     1      23.577  15.490   2.790  1.00  0.00     0.076 A 
ATOM      6  C   UNL     1      24.917  15.693   2.389  1.00  0.00     0.127 A 
ATOM      7  C   UNL     1      25.737  14.595   2.102  1.00  0.00     0.050 A 
ATOM      8  C   UNL     1      22.666  16.632   3.067  1.00  0.00     0.201 C 
ATOM      9  O   UNL     1      22.960  17.778   2.636  1.00  0.00    -0.288 OA
ATOM     10  C   UNL     1      21.360  16.401   3.747  1.00  0.00     0.076 A 
ATOM     11  C   UNL     1      20.851  15.081   3.793  1.00  0.00     0.041 A 
ATOM     12  C   UNL     1      21.680  13.947   3.323  1.00  0.00     0.194 C 
ATOM     13  O   UNL     1      21.197  12.780   3.299  1.00  0.00    -0.289 OA
ATOM     14  C   UNL     1      19.559  14.847   4.295  1.00  0.00     0.059 A 
ATOM     15  C   UNL     1      18.777  15.905   4.764  1.00  0.00     0.120 A 
ATOM     16  C   UNL     1      19.292  17.199   4.766  1.00  0.00     0.093 A 
ATOM     17  C   UNL     1      20.584  17.457   4.298  1.00  0.00     0.131 A 
ENDROOT
BRANCH   6  18
ATOM     18  O   UNL     1      25.439  16.983   2.282  1.00  0.00    -0.507 OA
ATOM     19  H   UNL     1      26.436  17.150   2.216  1.00  0.00     0.293 HD
ENDBRANCH   6  18
BRANCH  17  20
ATOM     20  O   UNL     1      21.062  18.763   4.434  1.00  0.00    -0.507 OA
ATOM     21  H   UNL     1      20.531  19.584   4.178  1.00  0.00     0.293 HD
ENDBRANCH  17  20
BRANCH  15  22
ATOM     22  O   UNL     1      17.490  15.677   5.247  1.00  0.00    -0.508 OA
ATOM     23  H   UNL     1      17.329  15.214   6.134  1.00  0.00     0.293 HD
ENDBRANCH  15  22
TORSDOF 3
ENDMDL
MODEL 5
REMARK VINA RESULT:    -5.188      1.387      5.498
REMARK INTER + INTRA:          -5.643
REMARK INTER:                  -5.643
REMARK INTRA:                   0.000
REMARK UNBOUND:                 0.000
REMARK SMILES Cc1cc(O)c2c(c1)C(=O)c1cc(O)cc(O)c1C2=O
REMARK SMILES IDX 1 1 2 2 8 3 7 4 6 5 4 6 3 7 19 8 20 9 18 10 11 11 9 12 10 13
REMARK SMILES IDX 12 14 13 15 15 16 16 17 5 18 17 20 14 22
REMARK H PARENT 5 19 17 21 14 23
REMARK Flexibility Score: inf
ROOT
ATOM      1  C   UNL     1      21.329  20.888   6.109  1.00  0.00     0.044 C 
ATOM      2  C   UNL     1      21.781  19.586   5.515  1.00  0.00    -0.047 A 
ATOM      3  C   UNL     1      20.849  18.580   5.232  1.00  0.00     0.016 A 
ATOM      4  C   UNL     1      21.267  17.344   4.707  1.00  0.00     0.038 A 
ATOM      5  C   UNL     1      22.639  17.104   4.483  1.00  0.00     0.076 A 
ATOM      6  C   UNL     1      23.577  18.119   4.783  1.00  0.00     0.127 A 
ATOM      7  C   UNL     1      23.142  19.344   5.303  1.00  0.00     0.050 A 
ATOM      8  C   UNL     1      23.066  15.777   3.965  1.00  0.00     0.201 C 
ATOM      9  O   UNL     1      24.266  15.418   4.098  1.00  0.00    -0.288 OA
ATOM     10  C   UNL     1      22.060  14.835   3.400  1.00  0.00     0.076 A 
ATOM     11  C   UNL     1      20.693  15.058   3.689  1.00  0.00     0.041 A 
ATOM     12  C   UNL     1      20.273  16.292   4.395  1.00  0.00     0.194 C 
ATOM     13  O   UNL     1      19.063  16.454   4.714  1.00  0.00    -0.289 OA
ATOM     14  C   UNL     1      19.732  14.110   3.297  1.00  0.00     0.059 A 
ATOM     15  C   UNL     1      20.111  12.956   2.609  1.00  0.00     0.120 A 
ATOM     16  C   UNL     1      21.450  12.755   2.280  1.00  0.00     0.093 A 
ATOM     17  C   UNL     1      22.423  13.694   2.633  1.00  0.00     0.131 A 
ENDROOT
BRANCH   6  18
ATOM     18  O   UNL     1      24.939  17.915   4.560  1.00  0.00    -0.507 OA
ATOM     19  H   UNL     1      25.431  17.122   4.954  1.00  0.00     0.293 HD
ENDBRANCH   6  18
BRANCH  17  20
ATOM     20  O   UNL     1      23.723  13.468   2.172  1.00  0.00    -0.507 OA
ATOM     21  H   UNL     1      23.944  13.216   1.218  1.00  0.00     0.293 HD
ENDBRANCH  17  20
BRANCH  15  22
ATOM     22  O   UNL     1      19.161  12.008   2.234  1.00  0.00    -0.508 OA
ATOM     23  H   UNL     1      18.896  11.877   1.265  1.00  0.00     0.293 HD
ENDBRANCH  15  22
TORSDOF 3
ENDMDL
MODEL 6
REMARK VINA RESULT:    -4.680     15.873     17.877
REMARK INTER + INTRA:          -5.090
REMARK INTER:                  -5.090
REMARK INTRA:                   0.000
REMARK UNBOUND:                 0.000
REMARK SMILES Cc1cc(O)c2c(c1)C(=O)c1cc(O)cc(O)c1C2=O
REMARK SMILES IDX 1 1 2 2 8 3 7 4 6 5 4 6 3 7 19 8 20 9 18 10 11 11 9 12 10 13
REMARK SMILES IDX 12 14 13 15 15 16 16 17 5 18 17 20 14 22
REMARK H PARENT 5 19 17 21 14 23
REMARK Flexibility Score: inf
ROOT
ATOM      1  C   UNL     1      15.650  19.261  13.571  1.00  0.00     0.044 C 
ATOM      2  C   UNL     1      14.358  19.490  14.299  1.00  0.00    -0.047 A 
ATOM      3  C   UNL     1      14.342  19.565  15.697  1.00  0.00     0.016 A 
ATOM      4  C   UNL     1      13.132  19.745  16.391  1.00  0.00     0.038 A 
ATOM      5  C   UNL     1      11.919  19.830  15.676  1.00  0.00     0.076 A 
ATOM      6  C   UNL     1      11.939  19.740  14.265  1.00  0.00     0.127 A 
ATOM      7  C   UNL     1      13.154  19.563  13.592  1.00  0.00     0.050 A 
ATOM      8  C   UNL     1      10.645  19.981  16.428  1.00  0.00     0.201 C 
ATOM      9  O   UNL     1       9.555  19.699  15.862  1.00  0.00    -0.288 OA
ATOM     10  C   UNL     1      10.666  20.348  17.871  1.00  0.00     0.076 A 
ATOM     11  C   UNL     1      11.878  20.196  18.586  1.00  0.00     0.041 A 
ATOM     12  C   UNL     1      13.125  19.841  17.869  1.00  0.00     0.194 C 
ATOM     13  O   UNL     1      14.189  19.637  18.517  1.00  0.00    -0.289 OA
ATOM     14  C   UNL     1      11.899  20.393  19.977  1.00  0.00     0.059 A 
ATOM     15  C   UNL     1      10.736  20.753  20.661  1.00  0.00     0.120 A 
ATOM     16  C   UNL     1       9.551  20.951  19.956  1.00  0.00     0.093 A 
ATOM     17  C   UNL     1       9.508  20.789  18.568  1.00  0.00     0.131 A 
ENDROOT
BRANCH   6  18
ATOM     18  O   UNL     1      10.757  19.833  13.529  1.00  0.00    -0.507 OA
ATOM     19  H   UNL     1      10.060  19.098  13.546  1.00  0.00     0.293 HD
ENDBRANCH   6  18
BRANCH  17  20
ATOM     20  O   UNL     1       8.309  21.110  17.927  1.00  0.00    -0.507 OA
ATOM     21  H   UNL     1       7.615  20.426  17.659  1.00  0.00     0.293 HD
ENDBRANCH  17  20
BRANCH  15  22
ATOM     22  O   UNL     1      10.752  20.932  22.043  1.00  0.00    -0.508 OA
ATOM     23  H   UNL     1      10.168  20.377  22.658  1.00  0.00     0.293 HD
ENDBRANCH  15  22
TORSDOF 3
ENDMDL
