MODEL 1
REMARK VINA RESULT:    -3.877      0.000      0.000
REMARK INTER + INTRA:          -4.805
REMARK INTER:                  -4.557
REMARK INTRA:                  -0.249
REMARK UNBOUND:                -0.249
REMARK SMILES [NH3+][C@H](CO)C(=O)[O-]
REMARK SMILES IDX 3 1 2 2 1 3 5 7 6 8 7 9 4 10
REMARK H PARENT 1 4 1 5 1 6 4 11
REMARK Flexibility Score: inf
ROOT
ATOM      1  C   UNL     1     -14.894   4.255  22.876  1.00  0.00     0.227 C 
ENDROOT
BRANCH   1   2
ATOM      2  C   UNL     1     -13.674   3.644  22.168  1.00  0.00     0.253 C 
BRANCH   2   3
ATOM      3  N   UNL     1     -13.960   3.371  20.754  1.00  0.00    -0.348 N 
ATOM      4  H   UNL     1     -14.711   4.017  20.414  1.00  0.00     0.345 HD
ATOM      5  H   UNL     1     -14.272   2.382  20.617  1.00  0.00     0.345 HD
ATOM      6  H   UNL     1     -13.101   3.540  20.181  1.00  0.00     0.345 HD
ENDBRANCH   2   3
BRANCH   2   7
ATOM      7  C   UNL     1     -12.468   4.535  22.314  1.00  0.00     0.102 C 
ATOM      8  O   UNL     1     -12.150   5.007  23.438  1.00  0.00    -0.544 OA
ATOM      9  O   UNL     1     -11.672   4.809  21.207  1.00  0.00    -0.544 OA
ENDBRANCH   2   7
ENDBRANCH   1   2
BRANCH   1  10
ATOM     10  O   UNL     1     -14.875   5.653  22.782  1.00  0.00    -0.390 OA
ATOM     11  H   UNL     1     -13.923   5.922  22.864  1.00  0.00     0.210 HD
ENDBRANCH   1  10
TORSDOF 4
ENDMDL
MODEL 2
REMARK VINA RESULT:    -3.866     20.391     20.885
REMARK INTER + INTRA:          -4.793
REMARK INTER:                  -4.567
REMARK INTRA:                  -0.226
REMARK UNBOUND:                -0.249
REMARK SMILES [NH3+][C@H](CO)C(=O)[O-]
REMARK SMILES IDX 3 1 2 2 1 3 5 7 6 8 7 9 4 10
REMARK H PARENT 1 4 1 5 1 6 4 11
REMARK Flexibility Score: inf
ROOT
ATOM      1  C   UNL     1     -18.317 -13.743  12.175  1.00  0.00     0.227 C 
ENDROOT
BRANCH   1   2
ATOM      2  C   UNL     1     -18.869 -12.851  13.300  1.00  0.00     0.253 C 
BRANCH   2   3
ATOM      3  N   UNL     1     -18.379 -11.473  13.177  1.00  0.00    -0.348 N 
ATOM      4  H   UNL     1     -18.041 -11.304  12.200  1.00  0.00     0.345 HD
ATOM      5  H   UNL     1     -17.594 -11.291  13.845  1.00  0.00     0.345 HD
ATOM      6  H   UNL     1     -19.156 -10.802  13.374  1.00  0.00     0.345 HD
ENDBRANCH   2   3
BRANCH   2   7
ATOM      7  C   UNL     1     -20.375 -12.889  13.324  1.00  0.00     0.102 C 
ATOM      8  O   UNL     1     -20.985 -13.717  14.052  1.00  0.00    -0.544 OA
ATOM      9  O   UNL     1     -21.102 -11.977  12.569  1.00  0.00    -0.544 OA
ENDBRANCH   2   7
ENDBRANCH   1   2
BRANCH   1  10
ATOM     10  O   UNL     1     -18.890 -13.400  10.943  1.00  0.00    -0.390 OA
ATOM     11  H   UNL     1     -18.331 -13.835  10.249  1.00  0.00     0.210 HD
ENDBRANCH   1  10
TORSDOF 4
ENDMDL
MODEL 3
REMARK VINA RESULT:    -3.845     19.257     19.833
REMARK INTER + INTRA:          -4.768
REMARK INTER:                  -4.514
REMARK INTRA:                  -0.254
REMARK UNBOUND:                -0.249
REMARK SMILES [NH3+][C@H](CO)C(=O)[O-]
REMARK SMILES IDX 3 1 2 2 1 3 5 7 6 8 7 9 4 10
REMARK H PARENT 1 4 1 5 1 6 4 11
REMARK Flexibility Score: inf
ROOT
ATOM      1  C   UNL     1     -16.048 -13.006  13.476  1.00  0.00     0.227 C 
ENDROOT
BRANCH   1   2
ATOM      2  C   UNL     1     -17.136 -12.835  14.548  1.00  0.00     0.253 C 
BRANCH   2   3
ATOM      3  N   UNL     1     -16.800 -11.751  15.480  1.00  0.00    -0.348 N 
ATOM      4  H   UNL     1     -15.922 -11.989  15.998  1.00  0.00     0.345 HD
ATOM      5  H   UNL     1     -17.572 -11.595  16.169  1.00  0.00     0.345 HD
ATOM      6  H   UNL     1     -16.635 -10.866  14.947  1.00  0.00     0.345 HD
ENDBRANCH   2   3
BRANCH   2   7
ATOM      7  C   UNL     1     -18.483 -12.605  13.913  1.00  0.00     0.102 C 
ATOM      8  O   UNL     1     -18.629 -11.734  13.015  1.00  0.00    -0.544 OA
ATOM      9  O   UNL     1     -19.568 -13.386  14.291  1.00  0.00    -0.544 OA
ENDBRANCH   2   7
ENDBRANCH   1   2
BRANCH   1  10
ATOM     10  O   UNL     1     -16.534 -13.744  12.388  1.00  0.00    -0.390 OA
ATOM     11  H   UNL     1     -15.887 -13.604  11.649  1.00  0.00     0.210 HD
ENDBRANCH   1  10
TORSDOF 4
ENDMDL
MODEL 4
REMARK VINA RESULT:    -3.818      1.674      2.307
REMARK INTER + INTRA:          -4.736
REMARK INTER:                  -4.552
REMARK INTRA:                  -0.184
REMARK UNBOUND:                -0.249
REMARK SMILES [NH3+][C@H](CO)C(=O)[O-]
REMARK SMILES IDX 3 1 2 2 1 3 5 7 6 8 7 9 4 10
REMARK H PARENT 1 4 1 5 1 6 4 11
REMARK Flexibility Score: inf
ROOT
ATOM      1  C   UNL     1     -12.739   4.933  22.794  1.00  0.00     0.227 C 
ENDROOT
BRANCH   1   2
ATOM      2  C   UNL     1     -13.029   3.789  21.809  1.00  0.00     0.253 C 
BRANCH   2   3
ATOM      3  N   UNL     1     -14.439   3.784  21.399  1.00  0.00    -0.348 N 
ATOM      4  H   UNL     1     -15.002   3.217  22.076  1.00  0.00     0.345 HD
ATOM      5  H   UNL     1     -14.550   3.380  20.441  1.00  0.00     0.345 HD
ATOM      6  H   UNL     1     -14.812   4.761  21.403  1.00  0.00     0.345 HD
ENDBRANCH   2   3
BRANCH   2   7
ATOM      7  C   UNL     1     -12.119   3.869  20.611  1.00  0.00     0.102 C 
ATOM      8  O   UNL     1     -11.077   4.578  20.642  1.00  0.00    -0.544 OA
ATOM      9  O   UNL     1     -12.405   3.124  19.474  1.00  0.00    -0.544 OA
ENDBRANCH   2   7
ENDBRANCH   1   2
BRANCH   1  10
ATOM     10  O   UNL     1     -11.766   4.551  23.728  1.00  0.00    -0.390 OA
ATOM     11  H   UNL     1     -10.974   4.269  23.200  1.00  0.00     0.210 HD
ENDBRANCH   1  10
TORSDOF 4
ENDMDL
MODEL 5
REMARK VINA RESULT:    -3.812      1.416      2.883
REMARK INTER + INTRA:          -4.730
REMARK INTER:                  -4.500
REMARK INTRA:                  -0.229
REMARK UNBOUND:                -0.249
REMARK SMILES [NH3+][C@H](CO)C(=O)[O-]
REMARK SMILES IDX 3 1 2 2 1 3 5 7 6 8 7 9 4 10
REMARK H PARENT 1 4 1 5 1 6 4 11
REMARK Flexibility Score: inf
ROOT
ATOM      1  C   UNL     1     -12.472   4.884  22.886  1.00  0.00     0.227 C 
ENDROOT
BRANCH   1   2
ATOM      2  C   UNL     1     -13.730   4.222  22.301  1.00  0.00     0.253 C 
BRANCH   2   3
ATOM      3  N   UNL     1     -13.508   2.794  22.039  1.00  0.00    -0.348 N 
ATOM      4  H   UNL     1     -12.924   2.381  22.804  1.00  0.00     0.345 HD
ATOM      5  H   UNL     1     -13.021   2.652  21.124  1.00  0.00     0.345 HD
ATOM      6  H   UNL     1     -14.424   2.292  22.019  1.00  0.00     0.345 HD
ENDBRANCH   2   3
BRANCH   2   7
ATOM      7  C   UNL     1     -14.915   4.426  23.209  1.00  0.00     0.102 C 
ATOM      8  O   UNL     1     -15.031   3.761  24.273  1.00  0.00    -0.544 OA
ATOM      9  O   UNL     1     -15.870   5.385  22.895  1.00  0.00    -0.544 OA
ENDBRANCH   2   7
ENDBRANCH   1   2
BRANCH   1  10
ATOM     10  O   UNL     1     -12.116   4.288  24.104  1.00  0.00    -0.390 OA
ATOM     11  H   UNL     1     -12.418   4.911  24.814  1.00  0.00     0.210 HD
ENDBRANCH   1  10
TORSDOF 4
ENDMDL
MODEL 6
REMARK VINA RESULT:    -3.803     20.203     20.696
REMARK INTER + INTRA:          -4.718
REMARK INTER:                  -4.335
REMARK INTRA:                  -0.383
REMARK UNBOUND:                -0.249
REMARK SMILES [NH3+][C@H](CO)C(=O)[O-]
REMARK SMILES IDX 3 1 2 2 1 3 5 7 6 8 7 9 4 10
REMARK H PARENT 1 4 1 5 1 6 4 11
REMARK Flexibility Score: inf
ROOT
ATOM      1  C   UNL     1     -19.252 -12.602  11.012  1.00  0.00     0.227 C 
ENDROOT
BRANCH   1   2
ATOM      2  C   UNL     1     -19.595 -11.894  12.333  1.00  0.00     0.253 C 
BRANCH   2   3
ATOM      3  N   UNL     1     -21.009 -11.500  12.374  1.00  0.00    -0.348 N 
ATOM      4  H   UNL     1     -21.148 -10.760  13.101  1.00  0.00     0.345 HD
ATOM      5  H   UNL     1     -21.621 -12.318  12.599  1.00  0.00     0.345 HD
ATOM      6  H   UNL     1     -21.293 -11.106  11.448  1.00  0.00     0.345 HD
ENDBRANCH   2   3
BRANCH   2   7
ATOM      7  C   UNL     1     -19.241 -12.761  13.513  1.00  0.00     0.102 C 
ATOM      8  O   UNL     1     -20.092 -13.546  14.012  1.00  0.00    -0.544 OA
ATOM      9  O   UNL     1     -17.953 -12.727  14.035  1.00  0.00    -0.544 OA
ENDBRANCH   2   7
ENDBRANCH   1   2
BRANCH   1  10
ATOM     10  O   UNL     1     -18.497 -13.759  11.250  1.00  0.00    -0.390 OA
ATOM     11  H   UNL     1     -17.733 -13.477  11.817  1.00  0.00     0.210 HD
ENDBRANCH   1  10
TORSDOF 4
ENDMDL
MODEL 7
REMARK VINA RESULT:    -3.789     19.870     20.391
REMARK INTER + INTRA:          -4.702
REMARK INTER:                  -4.476
REMARK INTRA:                  -0.226
REMARK UNBOUND:                -0.249
REMARK SMILES [NH3+][C@H](CO)C(=O)[O-]
REMARK SMILES IDX 3 1 2 2 1 3 5 7 6 8 7 9 4 10
REMARK H PARENT 1 4 1 5 1 6 4 11
REMARK Flexibility Score: inf
ROOT
ATOM      1  C   UNL     1     -18.778 -13.777  12.142  1.00  0.00     0.227 C 
ENDROOT
BRANCH   1   2
ATOM      2  C   UNL     1     -18.406 -12.843  13.306  1.00  0.00     0.253 C 
BRANCH   2   3
ATOM      3  N   UNL     1     -19.245 -13.099  14.483  1.00  0.00    -0.348 N 
ATOM      4  H   UNL     1     -19.608 -12.193  14.862  1.00  0.00     0.345 HD
ATOM      5  H   UNL     1     -18.703 -13.589  15.232  1.00  0.00     0.345 HD
ATOM      6  H   UNL     1     -20.064 -13.690  14.212  1.00  0.00     0.345 HD
ENDBRANCH   2   3
BRANCH   2   7
ATOM      7  C   UNL     1     -16.944 -12.969  13.647  1.00  0.00     0.102 C 
ATOM      8  O   UNL     1     -16.121 -13.405  12.798  1.00  0.00    -0.544 OA
ATOM      9  O   UNL     1     -16.487 -12.562  14.895  1.00  0.00    -0.544 OA
ENDBRANCH   2   7
ENDBRANCH   1   2
BRANCH   1  10
ATOM     10  O   UNL     1     -18.380 -13.226  10.916  1.00  0.00    -0.390 OA
ATOM     11  H   UNL     1     -17.563 -13.720  10.644  1.00  0.00     0.210 HD
ENDBRANCH   1  10
TORSDOF 4
ENDMDL
MODEL 8
REMARK VINA RESULT:    -3.779     20.191     20.623
REMARK INTER + INTRA:          -4.691
REMARK INTER:                  -4.324
REMARK INTRA:                  -0.367
REMARK UNBOUND:                -0.249
REMARK SMILES [NH3+][C@H](CO)C(=O)[O-]
REMARK SMILES IDX 3 1 2 2 1 3 5 7 6 8 7 9 4 10
REMARK H PARENT 1 4 1 5 1 6 4 11
REMARK Flexibility Score: inf
ROOT
ATOM      1  C   UNL     1     -19.301 -12.394  11.287  1.00  0.00     0.227 C 
ENDROOT
BRANCH   1   2
ATOM      2  C   UNL     1     -18.841 -13.471  12.283  1.00  0.00     0.253 C 
BRANCH   2   3
ATOM      3  N   UNL     1     -17.420 -13.792  12.103  1.00  0.00    -0.348 N 
ATOM      4  H   UNL     1     -17.320 -14.776  11.760  1.00  0.00     0.345 HD
ATOM      5  H   UNL     1     -16.894 -13.689  13.002  1.00  0.00     0.345 HD
ATOM      6  H   UNL     1     -17.001 -13.154  11.389  1.00  0.00     0.345 HD
ENDBRANCH   2   3
BRANCH   2   7
ATOM      7  C   UNL     1     -19.124 -13.046  13.701  1.00  0.00     0.102 C 
ATOM      8  O   UNL     1     -18.361 -12.236  14.292  1.00  0.00    -0.544 OA
ATOM      9  O   UNL     1     -20.258 -13.518  14.352  1.00  0.00    -0.544 OA
ENDBRANCH   2   7
ENDBRANCH   1   2
BRANCH   1  10
ATOM     10  O   UNL     1     -20.249 -11.546  11.874  1.00  0.00    -0.390 OA
ATOM     11  H   UNL     1     -20.984 -12.133  12.191  1.00  0.00     0.210 HD
ENDBRANCH   1  10
TORSDOF 4
ENDMDL
MODEL 9
REMARK VINA RESULT:    -3.751     20.006     20.405
REMARK INTER + INTRA:          -4.657
REMARK INTER:                  -4.438
REMARK INTRA:                  -0.219
REMARK UNBOUND:                -0.249
REMARK SMILES [NH3+][C@H](CO)C(=O)[O-]
REMARK SMILES IDX 3 1 2 2 1 3 5 7 6 8 7 9 4 10
REMARK H PARENT 1 4 1 5 1 6 4 11
REMARK Flexibility Score: inf
ROOT
ATOM      1  C   UNL     1     -19.807 -12.980  13.253  1.00  0.00     0.227 C 
ENDROOT
BRANCH   1   2
ATOM      2  C   UNL     1     -18.529 -13.578  12.641  1.00  0.00     0.253 C 
BRANCH   2   3
ATOM      3  N   UNL     1     -18.487 -13.370  11.188  1.00  0.00    -0.348 N 
ATOM      4  H   UNL     1     -19.368 -12.900  10.873  1.00  0.00     0.345 HD
ATOM      5  H   UNL     1     -18.384 -14.280  10.682  1.00  0.00     0.345 HD
ATOM      6  H   UNL     1     -17.681 -12.751  10.943  1.00  0.00     0.345 HD
ENDBRANCH   2   3
BRANCH   2   7
ATOM      7  C   UNL     1     -17.302 -13.010  13.305  1.00  0.00     0.102 C 
ATOM      8  O   UNL     1     -17.404 -12.261  14.313  1.00  0.00    -0.544 OA
ATOM      9  O   UNL     1     -16.040 -13.344  12.828  1.00  0.00    -0.544 OA
ENDBRANCH   2   7
ENDBRANCH   1   2
BRANCH   1  10
ATOM     10  O   UNL     1     -19.979 -13.420  14.573  1.00  0.00    -0.390 OA
ATOM     11  H   UNL     1     -19.268 -14.094  14.733  1.00  0.00     0.210 HD
ENDBRANCH   1  10
TORSDOF 4
ENDMDL
