MODEL 1
REMARK VINA RESULT:     0.000      0.000      0.000
REMARK INTER + INTRA:           0.000
REMARK INTER:                   0.000
REMARK INTRA:                   0.000
REMARK UNBOUND:                 0.000
REMARK SMILES CC1=CC[C@@H]2C[C@H]1C2(C)C
REMARK SMILES IDX 1 1 2 2 3 3 4 4 5 5 6 6 7 7 8 8 9 9 10 10
REMARK H PARENT
REMARK Flexibility Score: inf
ROOT
ATOM      1  C   UNL     1      28.188  -7.432  27.287  1.00  0.00     0.039 C 
ATOM      2  C   UNL     1      28.098  -8.918  27.115  1.00  0.00    -0.074 C 
ATOM      3  C   UNL     1      27.671  -9.727  28.127  1.00  0.00    -0.027 C 
ATOM      4  C   UNL     1      27.575 -11.245  27.873  1.00  0.00     0.031 C 
ATOM      5  C   UNL     1      28.057 -11.578  26.419  1.00  0.00    -0.000 C 
ATOM      6  C   UNL     1      29.374 -10.800  26.228  1.00  0.00     0.013 C 
ATOM      7  C   UNL     1      28.497  -9.606  25.801  1.00  0.00     0.021 C 
ATOM      8  C   UNL     1      27.392 -10.617  25.395  1.00  0.00    -0.026 C 
ATOM      9  C   UNL     1      27.556 -11.112  23.936  1.00  0.00     0.012 C 
ATOM     10  C   UNL     1      25.907 -10.213  25.609  1.00  0.00     0.012 C 
ENDROOT
TORSDOF 0
ENDMDL
MODEL 2
REMARK VINA RESULT:     0.000      1.613      2.177
REMARK INTER + INTRA:           0.000
REMARK INTER:                   0.000
REMARK INTRA:                   0.000
REMARK UNBOUND:                 0.000
REMARK SMILES CC1=CC[C@@H]2C[C@H]1C2(C)C
REMARK SMILES IDX 1 1 2 2 3 3 4 4 5 5 6 6 7 7 8 8 9 9 10 10
REMARK H PARENT
REMARK Flexibility Score: inf
ROOT
ATOM      1  C   UNL     1      29.271  -8.734  27.895  1.00  0.00     0.039 C 
ATOM      2  C   UNL     1      29.683  -9.995  27.198  1.00  0.00    -0.074 C 
ATOM      3  C   UNL     1      29.997 -11.124  27.896  1.00  0.00    -0.027 C 
ATOM      4  C   UNL     1      30.386 -12.395  27.114  1.00  0.00     0.031 C 
ATOM      5  C   UNL     1      30.381 -12.103  25.575  1.00  0.00    -0.000 C 
ATOM      6  C   UNL     1      31.140 -10.772  25.400  1.00  0.00     0.013 C 
ATOM      7  C   UNL     1      29.791 -10.076  25.668  1.00  0.00     0.021 C 
ATOM      8  C   UNL     1      29.077 -11.360  25.170  1.00  0.00    -0.026 C 
ATOM      9  C   UNL     1      28.859 -11.353  23.636  1.00  0.00     0.012 C 
ATOM     10  C   UNL     1      27.742 -11.773  25.850  1.00  0.00     0.012 C 
ENDROOT
TORSDOF 0
ENDMDL
MODEL 3
REMARK VINA RESULT:     0.000      8.290      9.969
REMARK INTER + INTRA:           0.000
REMARK INTER:                   0.000
REMARK INTRA:                   0.000
REMARK UNBOUND:                 0.000
REMARK SMILES CC1=CC[C@@H]2C[C@H]1C2(C)C
REMARK SMILES IDX 1 1 2 2 3 3 4 4 5 5 6 6 7 7 8 8 9 9 10 10
REMARK H PARENT
REMARK Flexibility Score: inf
ROOT
ATOM      1  C   UNL     1      16.707  -8.734  27.895  1.00  0.00     0.039 C 
ATOM      2  C   UNL     1      17.709  -7.746  28.411  1.00  0.00    -0.074 C 
ATOM      3  C   UNL     1      17.596  -7.203  29.657  1.00  0.00    -0.027 C 
ATOM      4  C   UNL     1      18.677  -6.213  30.136  1.00  0.00     0.031 C 
ATOM      5  C   UNL     1      19.736  -5.984  29.004  1.00  0.00    -0.000 C 
ATOM      6  C   UNL     1      18.923  -5.746  27.715  1.00  0.00     0.013 C 
ATOM      7  C   UNL     1      18.899  -7.280  27.559  1.00  0.00     0.021 C 
ATOM      8  C   UNL     1      20.195  -7.344  28.410  1.00  0.00    -0.026 C 
ATOM      9  C   UNL     1      21.473  -7.205  27.545  1.00  0.00     0.012 C 
ATOM     10  C   UNL     1      20.387  -8.550  29.372  1.00  0.00     0.012 C 
ENDROOT
TORSDOF 0
ENDMDL
MODEL 4
REMARK VINA RESULT:     0.000     10.165     11.886
REMARK INTER + INTRA:           0.000
REMARK INTER:                   0.000
REMARK INTRA:                   0.000
REMARK UNBOUND:                 0.000
REMARK SMILES CC1=CC[C@@H]2C[C@H]1C2(C)C
REMARK SMILES IDX 1 1 2 2 3 3 4 4 5 5 6 6 7 7 8 8 9 9 10 10
REMARK H PARENT
REMARK Flexibility Score: inf
ROOT
ATOM      1  C   UNL     1      16.707  -8.734  27.895  1.00  0.00     0.039 C 
ATOM      2  C   UNL     1      16.777  -7.371  28.515  1.00  0.00    -0.074 C 
ATOM      3  C   UNL     1      15.757  -6.884  29.279  1.00  0.00    -0.027 C 
ATOM      4  C   UNL     1      15.906  -5.485  29.910  1.00  0.00     0.031 C 
ATOM      5  C   UNL     1      17.273  -4.846  29.485  1.00  0.00    -0.000 C 
ATOM      6  C   UNL     1      17.384  -5.072  27.964  1.00  0.00     0.013 C 
ATOM      7  C   UNL     1      17.987  -6.449  28.308  1.00  0.00     0.021 C 
ATOM      8  C   UNL     1      18.429  -5.866  29.676  1.00  0.00    -0.026 C 
ATOM      9  C   UNL     1      19.823  -5.193  29.605  1.00  0.00     0.012 C 
ATOM     10  C   UNL     1      18.402  -6.800  30.919  1.00  0.00     0.012 C 
ENDROOT
TORSDOF 0
ENDMDL
MODEL 5
REMARK VINA RESULT:     0.000      8.198     10.208
REMARK INTER + INTRA:           0.000
REMARK INTER:                   0.000
REMARK INTRA:                   0.000
REMARK UNBOUND:                 0.000
REMARK SMILES CC1=CC[C@@H]2C[C@H]1C2(C)C
REMARK SMILES IDX 1 1 2 2 3 3 4 4 5 5 6 6 7 7 8 8 9 9 10 10
REMARK H PARENT
REMARK Flexibility Score: inf
ROOT
ATOM      1  C   UNL     1      24.994  -9.564  18.946  1.00  0.00     0.039 C 
ATOM      2  C   UNL     1      25.617  -8.804  17.815  1.00  0.00    -0.074 C 
ATOM      3  C   UNL     1      25.539  -9.253  16.528  1.00  0.00    -0.027 C 
ATOM      4  C   UNL     1      26.177  -8.408  15.408  1.00  0.00     0.031 C 
ATOM      5  C   UNL     1      26.870  -7.141  16.018  1.00  0.00    -0.000 C 
ATOM      6  C   UNL     1      27.686  -7.651  17.223  1.00  0.00     0.013 C 
ATOM      7  C   UNL     1      26.390  -7.497  18.045  1.00  0.00     0.021 C 
ATOM      8  C   UNL     1      25.916  -6.433  17.020  1.00  0.00    -0.026 C 
ATOM      9  C   UNL     1      26.403  -5.008  17.385  1.00  0.00     0.012 C 
ATOM     10  C   UNL     1      24.401  -6.359  16.681  1.00  0.00     0.012 C 
ENDROOT
TORSDOF 0
ENDMDL
MODEL 6
REMARK VINA RESULT:     0.000      7.569      9.636
REMARK INTER + INTRA:           0.000
REMARK INTER:                   0.000
REMARK INTRA:                   0.000
REMARK UNBOUND:                 0.000
REMARK SMILES CC1=CC[C@@H]2C[C@H]1C2(C)C
REMARK SMILES IDX 1 1 2 2 3 3 4 4 5 5 6 6 7 7 8 8 9 9 10 10
REMARK H PARENT
REMARK Flexibility Score: inf
ROOT
ATOM      1  C   UNL     1      26.466  -9.268  19.329  1.00  0.00     0.039 C 
ATOM      2  C   UNL     1      26.995  -8.390  18.236  1.00  0.00    -0.074 C 
ATOM      3  C   UNL     1      26.296  -8.192  17.081  1.00  0.00    -0.027 C 
ATOM      4  C   UNL     1      26.886  -7.253  16.009  1.00  0.00     0.031 C 
ATOM      5  C   UNL     1      28.281  -6.712  16.476  1.00  0.00    -0.000 C 
ATOM      6  C   UNL     1      29.051  -7.941  16.999  1.00  0.00     0.013 C 
ATOM      7  C   UNL     1      28.355  -7.685  18.350  1.00  0.00     0.021 C 
ATOM      8  C   UNL     1      28.198  -6.197  17.940  1.00  0.00    -0.026 C 
ATOM      9  C   UNL     1      29.432  -5.346  18.332  1.00  0.00     0.012 C 
ATOM     10  C   UNL     1      26.919  -5.438  18.391  1.00  0.00     0.012 C 
ENDROOT
TORSDOF 0
ENDMDL
MODEL 7
REMARK VINA RESULT:     0.000      8.753     10.925
REMARK INTER + INTRA:           0.000
REMARK INTER:                   0.000
REMARK INTRA:                   0.000
REMARK UNBOUND:                 0.000
REMARK SMILES CC1=CC[C@@H]2C[C@H]1C2(C)C
REMARK SMILES IDX 1 1 2 2 3 3 4 4 5 5 6 6 7 7 8 8 9 9 10 10
REMARK H PARENT
REMARK Flexibility Score: inf
ROOT
ATOM      1  C   UNL     1      28.656 -10.047  17.928  1.00  0.00     0.039 C 
ATOM      2  C   UNL     1      29.186  -9.170  16.836  1.00  0.00    -0.074 C 
ATOM      3  C   UNL     1      28.487  -8.971  15.680  1.00  0.00    -0.027 C 
ATOM      4  C   UNL     1      29.076  -8.033  14.609  1.00  0.00     0.031 C 
ATOM      5  C   UNL     1      30.471  -7.492  15.076  1.00  0.00    -0.000 C 
ATOM      6  C   UNL     1      31.242  -8.721  15.599  1.00  0.00     0.013 C 
ATOM      7  C   UNL     1      30.546  -8.464  16.950  1.00  0.00     0.021 C 
ATOM      8  C   UNL     1      30.388  -6.977  16.539  1.00  0.00    -0.026 C 
ATOM      9  C   UNL     1      31.623  -6.126  16.932  1.00  0.00     0.012 C 
ATOM     10  C   UNL     1      29.110  -6.217  16.991  1.00  0.00     0.012 C 
ENDROOT
TORSDOF 0
ENDMDL
MODEL 8
REMARK VINA RESULT:     0.000      9.389     11.475
REMARK INTER + INTRA:           0.000
REMARK INTER:                   0.000
REMARK INTRA:                   0.000
REMARK UNBOUND:                 0.000
REMARK SMILES CC1=CC[C@@H]2C[C@H]1C2(C)C
REMARK SMILES IDX 1 1 2 2 3 3 4 4 5 5 6 6 7 7 8 8 9 9 10 10
REMARK H PARENT
REMARK Flexibility Score: inf
ROOT
ATOM      1  C   UNL     1      27.028  -8.439  18.051  1.00  0.00     0.039 C 
ATOM      2  C   UNL     1      27.298  -7.990  16.647  1.00  0.00    -0.074 C 
ATOM      3  C   UNL     1      26.331  -8.041  15.686  1.00  0.00    -0.027 C 
ATOM      4  C   UNL     1      26.668  -7.536  14.268  1.00  0.00     0.031 C 
ATOM      5  C   UNL     1      28.164  -7.074  14.203  1.00  0.00    -0.000 C 
ATOM      6  C   UNL     1      28.977  -8.192  14.887  1.00  0.00     0.013 C 
ATOM      7  C   UNL     1      28.676  -7.468  16.215  1.00  0.00     0.021 C 
ATOM      8  C   UNL     1      28.498  -6.154  15.410  1.00  0.00    -0.026 C 
ATOM      9  C   UNL     1      29.837  -5.397  15.218  1.00  0.00     0.012 C 
ATOM     10  C   UNL     1      27.427  -5.135  15.889  1.00  0.00     0.012 C 
ENDROOT
TORSDOF 0
ENDMDL
MODEL 9
REMARK VINA RESULT:     0.000      7.612      9.018
REMARK INTER + INTRA:           0.000
REMARK INTER:                   0.000
REMARK INTRA:                   0.000
REMARK UNBOUND:                 0.000
REMARK SMILES CC1=CC[C@@H]2C[C@H]1C2(C)C
REMARK SMILES IDX 1 1 2 2 3 3 4 4 5 5 6 6 7 7 8 8 9 9 10 10
REMARK H PARENT
REMARK Flexibility Score: inf
ROOT
ATOM      1  C   UNL     1      25.053  -3.944  23.317  1.00  0.00     0.039 C 
ATOM      2  C   UNL     1      26.019  -3.868  22.174  1.00  0.00    -0.074 C 
ATOM      3  C   UNL     1      25.773  -4.501  20.991  1.00  0.00    -0.027 C 
ATOM      4  C   UNL     1      26.796  -4.357  19.846  1.00  0.00     0.031 C 
ATOM      5  C   UNL     1      28.013  -3.489  20.318  1.00  0.00    -0.000 C 
ATOM      6  C   UNL     1      28.408  -4.041  21.702  1.00  0.00     0.013 C 
ATOM      7  C   UNL     1      27.340  -3.092  22.281  1.00  0.00     0.021 C 
ATOM      8  C   UNL     1      27.514  -2.198  21.024  1.00  0.00    -0.026 C 
ATOM      9  C   UNL     1      28.643  -1.152  21.199  1.00  0.00     0.012 C 
ATOM     10  C   UNL     1      26.263  -1.474  20.455  1.00  0.00     0.012 C 
ENDROOT
TORSDOF 0
ENDMDL
