MODEL 1
REMARK VINA RESULT:    -4.364      0.000      0.000
REMARK INTER + INTRA:          -5.667
REMARK INTER:                  -6.405
REMARK INTRA:                   0.737
REMARK UNBOUND:                 0.737
REMARK SMILES C=C1CC=CC(C)(C)CC=C(C)CCC1
REMARK SMILES IDX 2 1 1 2 15 3 14 4 13 5 11 6 12 7 10 8 3 10 4 11 5 12 6 13
REMARK SMILES IDX 7 14 8 15 9 16
REMARK H PARENT
REMARK Flexibility Score: 60.00
ROOT
ATOM      1  C   UNL     1     -49.297 -50.848  16.535  1.00  0.00    -0.074 C 
ATOM      2  C   UNL     1     -50.363 -51.037  15.740  1.00  0.00     0.008 C 
ENDROOT
BRANCH   1   3
ATOM      3  C   UNL     1     -47.942 -50.543  15.929  1.00  0.00     0.031 C 
BRANCH   3   4
ATOM      4  C   UNL     1     -47.737 -49.018  15.756  1.00  0.00     0.009 C 
BRANCH   4   5
ATOM      5  C   UNL     1     -47.172 -48.261  16.983  1.00  0.00     0.030 C 
BRANCH   5   6
ATOM      6  C   UNL     1     -48.086 -47.215  17.608  1.00  0.00    -0.077 C 
ATOM      7  C   UNL     1     -48.353 -45.942  16.842  1.00  0.00     0.039 C 
ATOM      8  C   UNL     1     -48.679 -47.355  18.817  1.00  0.00    -0.027 CG0
ATOM      9  G   UNL     1     -48.510 -48.530  19.762  1.00  0.00     0.000 G0
ENDBRANCH   5   6
ENDBRANCH   4   5
ENDBRANCH   3   4
ENDBRANCH   1   3
BRANCH   1  10
ATOM     10  C   UNL     1     -49.424 -51.012  18.037  1.00  0.00     0.057 C 
BRANCH  10  11
ATOM     11  C   UNL     1     -50.704 -50.393  18.536  1.00  0.00    -0.026 C 
ATOM     12  C   UNL     1     -50.869 -49.548  19.581  1.00  0.00    -0.024 C 
BRANCH  12  13
ATOM     13  C   UNL     1     -49.815 -48.948  20.526  1.00  0.00    -0.014 C 
ATOM     14  C   UNL     1     -50.431 -47.683  21.180  1.00  0.00     0.016 C 
ATOM     15  C   UNL     1     -49.498 -49.922  21.687  1.00  0.00     0.016 C 
BRANCH  13  16
ATOM     16  C   UNL     1     -48.504 -48.541  19.780  1.00  0.00     0.038 CG0
ATOM     17  G   UNL     1     -48.695 -47.372  18.833  1.00  0.00     0.000 G0
ENDBRANCH  13  16
ENDBRANCH  12  13
ENDBRANCH  10  11
ENDBRANCH   1  10
TORSDOF 0
ENDMDL
MODEL 2
REMARK VINA RESULT:    -4.083     10.240     12.741
REMARK INTER + INTRA:          -5.255
REMARK INTER:                  -5.756
REMARK INTRA:                   0.501
REMARK UNBOUND:                 0.737
REMARK SMILES C=C1CC=CC(C)(C)CC=C(C)CCC1
REMARK SMILES IDX 2 1 1 2 15 3 14 4 13 5 11 6 12 7 10 8 3 10 4 11 5 12 6 13
REMARK SMILES IDX 7 14 8 15 9 16
REMARK H PARENT
REMARK Flexibility Score: 60.00
ROOT
ATOM      1  C   UNL     1     -39.976 -47.263  28.497  1.00  0.00    -0.074 C 
ATOM      2  C   UNL     1     -39.173 -46.406  29.148  1.00  0.00     0.008 C 
ENDROOT
BRANCH   1   3
ATOM      3  C   UNL     1     -39.783 -48.758  28.661  1.00  0.00     0.031 C 
BRANCH   3   4
ATOM      4  C   UNL     1     -40.202 -49.224  30.076  1.00  0.00     0.009 C 
BRANCH   4   5
ATOM      5  C   UNL     1     -41.717 -49.460  30.297  1.00  0.00     0.030 C 
BRANCH   5   6
ATOM      6  C   UNL     1     -42.390 -50.447  29.353  1.00  0.00    -0.077 C 
ATOM      7  C   UNL     1     -42.125 -51.920  29.543  1.00  0.00     0.039 C 
ATOM      8  C   UNL     1     -43.218 -50.084  28.345  1.00  0.00    -0.027 CG0
ATOM      9  G   UNL     1     -43.579 -48.663  27.957  1.00  0.00     0.000 G0
ENDBRANCH   5   6
ENDBRANCH   4   5
ENDBRANCH   3   4
ENDBRANCH   1   3
BRANCH   1  10
ATOM     10  C   UNL     1     -41.031 -46.747  27.538  1.00  0.00     0.057 C 
BRANCH  10  11
ATOM     11  C   UNL     1     -41.090 -47.601  26.299  1.00  0.00    -0.026 C 
ATOM     12  C   UNL     1     -42.139 -48.316  25.829  1.00  0.00    -0.024 C 
BRANCH  12  13
ATOM     13  C   UNL     1     -43.567 -48.433  26.387  1.00  0.00    -0.014 C 
ATOM     14  C   UNL     1     -44.309 -47.107  26.073  1.00  0.00     0.016 C 
ATOM     15  C   UNL     1     -44.353 -49.549  25.657  1.00  0.00     0.016 C 
BRANCH  13  16
ATOM     16  C   UNL     1     -43.590 -48.669  27.931  1.00  0.00     0.038 CG0
ATOM     17  G   UNL     1     -43.219 -50.087  28.323  1.00  0.00     0.000 G0
ENDBRANCH  13  16
ENDBRANCH  12  13
ENDBRANCH  10  11
ENDBRANCH   1  10
TORSDOF 0
ENDMDL
MODEL 3
REMARK VINA RESULT:    -4.081     10.041     12.333
REMARK INTER + INTRA:          -5.252
REMARK INTER:                  -6.032
REMARK INTRA:                   0.779
REMARK UNBOUND:                 0.737
REMARK SMILES C=C1CC=CC(C)(C)CC=C(C)CCC1
REMARK SMILES IDX 2 1 1 2 15 3 14 4 13 5 11 6 12 7 10 8 3 10 4 11 5 12 6 13
REMARK SMILES IDX 7 14 8 15 9 16
REMARK H PARENT
REMARK Flexibility Score: 60.00
ROOT
ATOM      1  C   UNL     1     -40.414 -47.444  27.705  1.00  0.00    -0.074 C 
ATOM      2  C   UNL     1     -40.041 -46.433  28.507  1.00  0.00     0.008 C 
ENDROOT
BRANCH   1   3
ATOM      3  C   UNL     1     -41.043 -47.151  26.358  1.00  0.00     0.031 C 
BRANCH   3   4
ATOM      4  C   UNL     1     -41.910 -48.340  25.875  1.00  0.00     0.009 C 
BRANCH   4   5
ATOM      5  C   UNL     1     -43.438 -48.199  26.082  1.00  0.00     0.030 C 
BRANCH   5   6
ATOM      6  C   UNL     1     -44.173 -49.450  26.545  1.00  0.00    -0.077 C 
ATOM      7  C   UNL     1     -44.908 -50.275  25.517  1.00  0.00     0.039 C 
ATOM      8  C   UNL     1     -44.210 -49.874  27.831  1.00  0.00    -0.027 CG0
ATOM      9  G   UNL     1     -43.578 -49.172  29.018  1.00  0.00     0.000 G0
ENDBRANCH   5   6
ENDBRANCH   4   5
ENDBRANCH   3   4
ENDBRANCH   1   3
BRANCH   1  10
ATOM     10  C   UNL     1     -40.280 -48.881  28.171  1.00  0.00     0.057 C 
BRANCH  10  11
ATOM     11  C   UNL     1     -40.394 -48.970  29.670  1.00  0.00    -0.026 C 
ATOM     12  C   UNL     1     -41.415 -49.477  30.399  1.00  0.00    -0.024 C 
BRANCH  12  13
ATOM     13  C   UNL     1     -42.719 -50.139  29.923  1.00  0.00    -0.014 C 
ATOM     14  C   UNL     1     -42.338 -51.390  29.088  1.00  0.00     0.016 C 
ATOM     15  C   UNL     1     -43.543 -50.659  31.125  1.00  0.00     0.016 C 
BRANCH  13  16
ATOM     16  C   UNL     1     -43.585 -49.188  29.037  1.00  0.00     0.038 CG0
ATOM     17  G   UNL     1     -44.199 -49.885  27.838  1.00  0.00     0.000 G0
ENDBRANCH  13  16
ENDBRANCH  12  13
ENDBRANCH  10  11
ENDBRANCH   1  10
TORSDOF 0
ENDMDL
MODEL 4
REMARK VINA RESULT:    -4.071      3.816      5.750
REMARK INTER + INTRA:          -5.238
REMARK INTER:                  -5.621
REMARK INTRA:                   0.383
REMARK UNBOUND:                 0.737
REMARK SMILES C=C1CC=CC(C)(C)CC=C(C)CCC1
REMARK SMILES IDX 2 1 1 2 15 3 14 4 13 5 11 6 12 7 10 8 3 10 4 11 5 12 6 13
REMARK SMILES IDX 7 14 8 15 9 16
REMARK H PARENT
REMARK Flexibility Score: 60.00
ROOT
ATOM      1  C   UNL     1     -53.988 -47.403  22.113  1.00  0.00    -0.074 C 
ATOM      2  C   UNL     1     -54.855 -46.472  21.681  1.00  0.00     0.008 C 
ENDROOT
BRANCH   1   3
ATOM      3  C   UNL     1     -54.141 -48.845  21.673  1.00  0.00     0.031 C 
BRANCH   3   4
ATOM      4  C   UNL     1     -53.871 -48.999  20.156  1.00  0.00     0.009 C 
BRANCH   4   5
ATOM      5  C   UNL     1     -52.384 -48.991  19.723  1.00  0.00     0.030 C 
BRANCH   5   6
ATOM      6  C   UNL     1     -51.504 -50.084  20.314  1.00  0.00    -0.077 C 
ATOM      7  C   UNL     1     -51.763 -51.515  19.909  1.00  0.00     0.039 C 
ATOM      8  C   UNL     1     -50.495 -49.853  21.187  1.00  0.00    -0.027 CG0
ATOM      9  G   UNL     1     -50.098 -48.503  21.753  1.00  0.00     0.000 G0
ENDBRANCH   5   6
ENDBRANCH   4   5
ENDBRANCH   3   4
ENDBRANCH   1   3
BRANCH   1  10
ATOM     10  C   UNL     1     -52.899 -47.036  23.101  1.00  0.00     0.057 C 
BRANCH  10  11
ATOM     11  C   UNL     1     -52.505 -48.229  23.931  1.00  0.00    -0.026 C 
ATOM     12  C   UNL     1     -51.294 -48.829  24.007  1.00  0.00    -0.024 C 
BRANCH  12  13
ATOM     13  C   UNL     1     -49.975 -48.454  23.311  1.00  0.00    -0.014 C 
ATOM     14  C   UNL     1     -49.600 -47.014  23.753  1.00  0.00     0.016 C 
ATOM     15  C   UNL     1     -48.820 -49.366  23.792  1.00  0.00     0.016 C 
BRANCH  13  16
ATOM     16  C   UNL     1     -50.087 -48.489  21.754  1.00  0.00     0.038 CG0
ATOM     17  G   UNL     1     -50.502 -49.846  21.216  1.00  0.00     0.000 G0
ENDBRANCH  13  16
ENDBRANCH  12  13
ENDBRANCH  10  11
ENDBRANCH   1  10
TORSDOF 0
ENDMDL
MODEL 5
REMARK VINA RESULT:    -4.055      8.894     11.441
REMARK INTER + INTRA:          -5.213
REMARK INTER:                  -5.730
REMARK INTRA:                   0.517
REMARK UNBOUND:                 0.737
REMARK SMILES C=C1CC=CC(C)(C)CC=C(C)CCC1
REMARK SMILES IDX 2 1 1 2 15 3 14 4 13 5 11 6 12 7 10 8 3 10 4 11 5 12 6 13
REMARK SMILES IDX 7 14 8 15 9 16
REMARK H PARENT
REMARK Flexibility Score: 60.00
ROOT
ATOM      1  C   UNL     1     -41.115 -47.499  27.111  1.00  0.00    -0.074 C 
ATOM      2  C   UNL     1     -41.074 -46.279  27.671  1.00  0.00     0.008 C 
ENDROOT
BRANCH   1   3
ATOM      3  C   UNL     1     -40.437 -48.671  27.793  1.00  0.00     0.031 C 
BRANCH   3   4
ATOM      4  C   UNL     1     -41.111 -48.995  29.149  1.00  0.00     0.009 C 
BRANCH   4   5
ATOM      5  C   UNL     1     -42.167 -50.128  29.134  1.00  0.00     0.030 C 
BRANCH   5   6
ATOM      6  C   UNL     1     -43.624 -49.689  29.067  1.00  0.00    -0.077 C 
ATOM      7  C   UNL     1     -44.264 -49.125  30.312  1.00  0.00     0.039 C 
ATOM      8  C   UNL     1     -44.389 -49.775  27.953  1.00  0.00    -0.027 CG0
ATOM      9  G   UNL     1     -43.955 -50.347  26.617  1.00  0.00     0.000 G0
ENDBRANCH   5   6
ENDBRANCH   4   5
ENDBRANCH   3   4
ENDBRANCH   1   3
BRANCH   1  10
ATOM     10  C   UNL     1     -41.772 -47.700  25.760  1.00  0.00     0.057 C 
BRANCH  10  11
ATOM     11  C   UNL     1     -43.207 -47.243  25.791  1.00  0.00    -0.026 C 
ATOM     12  C   UNL     1     -44.323 -47.990  25.618  1.00  0.00    -0.024 C 
BRANCH  12  13
ATOM     13  C   UNL     1     -44.457 -49.504  25.384  1.00  0.00    -0.014 C 
ATOM     14  C   UNL     1     -45.958 -49.815  25.139  1.00  0.00     0.016 C 
ATOM     15  C   UNL     1     -43.714 -49.930  24.095  1.00  0.00     0.016 C 
BRANCH  13  16
ATOM     16  C   UNL     1     -43.962 -50.345  26.604  1.00  0.00     0.038 CG0
ATOM     17  G   UNL     1     -44.396 -49.771  27.939  1.00  0.00     0.000 G0
ENDBRANCH  13  16
ENDBRANCH  12  13
ENDBRANCH  10  11
ENDBRANCH   1  10
TORSDOF 0
ENDMDL
MODEL 6
REMARK VINA RESULT:    -3.896     10.703     13.116
REMARK INTER + INTRA:          -4.981
REMARK INTER:                  -5.568
REMARK INTRA:                   0.587
REMARK UNBOUND:                 0.737
REMARK SMILES C=C1CC=CC(C)(C)CC=C(C)CCC1
REMARK SMILES IDX 2 1 1 2 15 3 14 4 13 5 11 6 12 7 10 8 3 10 4 11 5 12 6 13
REMARK SMILES IDX 7 14 8 15 9 16
REMARK H PARENT
REMARK Flexibility Score: 60.00
ROOT
ATOM      1  C   UNL     1     -43.485 -50.185  30.492  1.00  0.00    -0.074 C 
ATOM      2  C   UNL     1     -44.161 -51.188  31.074  1.00  0.00     0.008 C 
ENDROOT
BRANCH   1   3
ATOM      3  C   UNL     1     -44.127 -48.820  30.346  1.00  0.00     0.031 C 
BRANCH   3   4
ATOM      4  C   UNL     1     -44.730 -48.634  28.932  1.00  0.00     0.009 C 
BRANCH   4   5
ATOM      5  C   UNL     1     -44.012 -47.618  28.011  1.00  0.00     0.030 C 
BRANCH   5   6
ATOM      6  C   UNL     1     -43.075 -48.204  26.962  1.00  0.00    -0.077 C 
ATOM      7  C   UNL     1     -43.678 -48.916  25.776  1.00  0.00     0.039 C 
ATOM      8  C   UNL     1     -41.725 -48.126  27.027  1.00  0.00    -0.027 CG0
ATOM      9  G   UNL     1     -40.922 -47.496  28.148  1.00  0.00     0.000 G0
ENDBRANCH   5   6
ENDBRANCH   4   5
ENDBRANCH   3   4
ENDBRANCH   1   3
BRANCH   1  10
ATOM     10  C   UNL     1     -42.106 -50.427  29.909  1.00  0.00     0.057 C 
BRANCH  10  11
ATOM     11  C   UNL     1     -41.060 -49.658  30.673  1.00  0.00    -0.026 C 
ATOM     12  C   UNL     1     -40.095 -48.848  30.178  1.00  0.00    -0.024 C 
BRANCH  12  13
ATOM     13  C   UNL     1     -39.809 -48.449  28.721  1.00  0.00    -0.014 C 
ATOM     14  C   UNL     1     -38.440 -47.718  28.689  1.00  0.00     0.016 C 
ATOM     15  C   UNL     1     -39.648 -49.703  27.828  1.00  0.00     0.016 C 
BRANCH  13  16
ATOM     16  C   UNL     1     -40.900 -47.497  28.135  1.00  0.00     0.038 CG0
ATOM     17  G   UNL     1     -41.718 -48.137  27.029  1.00  0.00     0.000 G0
ENDBRANCH  13  16
ENDBRANCH  12  13
ENDBRANCH  10  11
ENDBRANCH   1  10
TORSDOF 0
ENDMDL
MODEL 7
REMARK VINA RESULT:    -3.883      9.764     11.981
REMARK INTER + INTRA:          -4.961
REMARK INTER:                  -5.378
REMARK INTRA:                   0.417
REMARK UNBOUND:                 0.737
REMARK SMILES C=C1CC=CC(C)(C)CC=C(C)CCC1
REMARK SMILES IDX 2 1 1 2 15 3 14 4 13 5 11 6 12 7 10 8 3 10 4 11 5 12 6 13
REMARK SMILES IDX 7 14 8 15 9 16
REMARK H PARENT
REMARK Flexibility Score: 60.00
ROOT
ATOM      1  C   UNL     1     -42.566 -50.603  29.206  1.00  0.00    -0.074 C 
ATOM      2  C   UNL     1     -42.262 -51.852  29.594  1.00  0.00     0.008 C 
ENDROOT
BRANCH   1   3
ATOM      3  C   UNL     1     -42.074 -49.417  30.012  1.00  0.00     0.031 C 
BRANCH   3   4
ATOM      4  C   UNL     1     -40.572 -49.147  29.749  1.00  0.00     0.009 C 
BRANCH   4   5
ATOM      5  C   UNL     1     -40.179 -48.841  28.283  1.00  0.00     0.030 C 
BRANCH   5   6
ATOM      6  C   UNL     1     -40.483 -47.435  27.784  1.00  0.00    -0.077 C 
ATOM      7  C   UNL     1     -39.895 -46.263  28.531  1.00  0.00     0.039 C 
ATOM      8  C   UNL     1     -41.254 -47.166  26.704  1.00  0.00    -0.027 CG0
ATOM      9  G   UNL     1     -41.970 -48.190  25.844  1.00  0.00     0.000 G0
ENDBRANCH   5   6
ENDBRANCH   4   5
ENDBRANCH   3   4
ENDBRANCH   1   3
BRANCH   1  10
ATOM     10  C   UNL     1     -43.465 -50.369  28.007  1.00  0.00     0.057 C 
BRANCH  10  11
ATOM     11  C   UNL     1     -44.145 -49.029  28.102  1.00  0.00    -0.026 C 
ATOM     12  C   UNL     1     -44.153 -48.032  27.186  1.00  0.00    -0.024 C 
BRANCH  12  13
ATOM     13  C   UNL     1     -43.515 -47.988  25.787  1.00  0.00    -0.014 C 
ATOM     14  C   UNL     1     -44.144 -49.128  24.944  1.00  0.00     0.016 C 
ATOM     15  C   UNL     1     -43.873 -46.669  25.061  1.00  0.00     0.016 C 
BRANCH  13  16
ATOM     16  C   UNL     1     -41.967 -48.188  25.828  1.00  0.00     0.038 CG0
ATOM     17  G   UNL     1     -41.255 -47.161  26.689  1.00  0.00     0.000 G0
ENDBRANCH  13  16
ENDBRANCH  12  13
ENDBRANCH  10  11
ENDBRANCH   1  10
TORSDOF 0
ENDMDL
MODEL 8
REMARK VINA RESULT:    -3.880      9.778     12.367
REMARK INTER + INTRA:          -4.957
REMARK INTER:                  -5.482
REMARK INTRA:                   0.525
REMARK UNBOUND:                 0.737
REMARK SMILES C=C1CC=CC(C)(C)CC=C(C)CCC1
REMARK SMILES IDX 2 1 1 2 15 3 14 4 13 5 11 6 12 7 10 8 3 10 4 11 5 12 6 13
REMARK SMILES IDX 7 14 8 15 9 16
REMARK H PARENT
REMARK Flexibility Score: 60.00
ROOT
ATOM      1  C   UNL     1     -42.308 -50.378  29.875  1.00  0.00    -0.074 C 
ATOM      2  C   UNL     1     -42.090 -51.570  29.296  1.00  0.00     0.008 C 
ENDROOT
BRANCH   1   3
ATOM      3  C   UNL     1     -43.599 -50.123  30.627  1.00  0.00     0.031 C 
BRANCH   3   4
ATOM      4  C   UNL     1     -44.825 -50.229  29.688  1.00  0.00     0.009 C 
BRANCH   4   5
ATOM      5  C   UNL     1     -45.174 -48.957  28.875  1.00  0.00     0.030 C 
BRANCH   5   6
ATOM      6  C   UNL     1     -44.730 -48.946  27.419  1.00  0.00    -0.077 C 
ATOM      7  C   UNL     1     -45.438 -49.852  26.442  1.00  0.00     0.039 C 
ATOM      8  C   UNL     1     -43.731 -48.167  26.939  1.00  0.00    -0.027 CG0
ATOM      9  G   UNL     1     -42.869 -47.223  27.755  1.00  0.00     0.000 G0
ENDBRANCH   5   6
ENDBRANCH   4   5
ENDBRANCH   3   4
ENDBRANCH   1   3
BRANCH   1  10
ATOM     10  C   UNL     1     -41.302 -49.254  29.716  1.00  0.00     0.057 C 
BRANCH  10  11
ATOM     11  C   UNL     1     -40.599 -49.350  28.388  1.00  0.00    -0.026 C 
ATOM     12  C   UNL     1     -40.648 -48.477  27.354  1.00  0.00    -0.024 C 
BRANCH  12  13
ATOM     13  C   UNL     1     -41.389 -47.134  27.247  1.00  0.00    -0.014 C 
ATOM     14  C   UNL     1     -40.621 -46.098  28.110  1.00  0.00     0.016 C 
ATOM     15  C   UNL     1     -41.350 -46.598  25.796  1.00  0.00     0.016 C 
BRANCH  13  16
ATOM     16  C   UNL     1     -42.863 -47.219  27.758  1.00  0.00     0.038 CG0
ATOM     17  G   UNL     1     -43.728 -48.151  26.930  1.00  0.00     0.000 G0
ENDBRANCH  13  16
ENDBRANCH  12  13
ENDBRANCH  10  11
ENDBRANCH   1  10
TORSDOF 0
ENDMDL
MODEL 9
REMARK VINA RESULT:    -3.814      4.159      5.721
REMARK INTER + INTRA:          -4.860
REMARK INTER:                  -5.256
REMARK INTRA:                   0.396
REMARK UNBOUND:                 0.737
REMARK SMILES C=C1CC=CC(C)(C)CC=C(C)CCC1
REMARK SMILES IDX 2 1 1 2 15 3 14 4 13 5 11 6 12 7 10 8 3 10 4 11 5 12 6 13
REMARK SMILES IDX 7 14 8 15 9 16
REMARK H PARENT
REMARK Flexibility Score: 60.00
ROOT
ATOM      1  C   UNL     1     -51.501 -50.221  20.542  1.00  0.00    -0.074 C 
ATOM      2  C   UNL     1     -51.830 -51.489  20.245  1.00  0.00     0.008 C 
ENDROOT
BRANCH   1   3
ATOM      3  C   UNL     1     -52.209 -49.072  19.853  1.00  0.00     0.031 C 
BRANCH   3   4
ATOM      4  C   UNL     1     -53.704 -49.015  20.254  1.00  0.00     0.009 C 
BRANCH   4   5
ATOM      5  C   UNL     1     -54.001 -48.943  21.773  1.00  0.00     0.030 C 
BRANCH   5   6
ATOM      6  C   UNL     1     -53.874 -47.570  22.419  1.00  0.00    -0.077 C 
ATOM      7  C   UNL     1     -54.788 -46.465  21.949  1.00  0.00     0.039 C 
ATOM      8  C   UNL     1     -52.987 -47.274  23.398  1.00  0.00    -0.027 CG0
ATOM      9  G   UNL     1     -51.956 -48.222  23.981  1.00  0.00     0.000 G0
ENDBRANCH   5   6
ENDBRANCH   4   5
ENDBRANCH   3   4
ENDBRANCH   1   3
BRANCH   1  10
ATOM     10  C   UNL     1     -50.371 -49.929  21.509  1.00  0.00     0.057 C 
BRANCH  10  11
ATOM     11  C   UNL     1     -49.965 -48.481  21.435  1.00  0.00    -0.026 C 
ATOM     12  C   UNL     1     -50.026 -47.547  22.413  1.00  0.00    -0.024 C 
BRANCH  12  13
ATOM     13  C   UNL     1     -50.482 -47.694  23.875  1.00  0.00    -0.014 C 
ATOM     14  C   UNL     1     -49.527 -48.700  24.569  1.00  0.00     0.016 C 
ATOM     15  C   UNL     1     -50.326 -46.356  24.637  1.00  0.00     0.016 C 
BRANCH  13  16
ATOM     16  C   UNL     1     -51.946 -48.225  23.995  1.00  0.00     0.038 CG0
ATOM     17  G   UNL     1     -52.973 -47.281  23.400  1.00  0.00     0.000 G0
ENDBRANCH  13  16
ENDBRANCH  12  13
ENDBRANCH  10  11
ENDBRANCH   1  10
TORSDOF 0
ENDMDL
