MODEL 1
REMARK VINA RESULT:    -4.283      0.000      0.000
REMARK INTER + INTRA:         -11.780
REMARK INTER:                  -9.290
REMARK INTRA:                  -2.490
REMARK UNBOUND:                -2.490
REMARK SMILES CCCCCCCCCCCCCCCCCCCCCC(=O)[O-]
REMARK SMILES IDX 12 1 11 2 10 3 9 4 8 5 7 6 6 7 5 8 4 9 3 10 2 11 1 12 13 13
REMARK SMILES IDX 14 14 15 15 16 16 17 17 18 18 19 19 20 20 21 21 22 22 23 23
REMARK SMILES IDX 24 24
REMARK H PARENT
REMARK Flexibility Score: inf
ROOT
ATOM      1  C   UNL     1       2.372 -32.916  23.685  1.00  0.00     0.000 C 
ENDROOT
BRANCH   1   2
ATOM      2  C   UNL     1       2.401 -34.372  23.187  1.00  0.00     0.000 C 
BRANCH   2   3
ATOM      3  C   UNL     1       3.818 -34.853  22.833  1.00  0.00     0.000 C 
BRANCH   3   4
ATOM      4  C   UNL     1       4.051 -36.335  23.179  1.00  0.00    -0.000 C 
BRANCH   4   5
ATOM      5  C   UNL     1       5.406 -36.911  22.721  1.00  0.00    -0.000 C 
BRANCH   5   6
ATOM      6  C   UNL     1       5.837 -36.519  21.293  1.00  0.00    -0.000 C 
BRANCH   6   7
ATOM      7  C   UNL     1       5.390 -37.490  20.186  1.00  0.00    -0.000 C 
BRANCH   7   8
ATOM      8  C   UNL     1       4.683 -36.780  19.020  1.00  0.00    -0.000 C 
BRANCH   8   9
ATOM      9  C   UNL     1       3.164 -37.024  19.018  1.00  0.00    -0.000 C 
BRANCH   9  10
ATOM     10  C   UNL     1       2.358 -35.722  19.176  1.00  0.00    -0.000 C 
BRANCH  10  11
ATOM     11  C   UNL     1       1.215 -35.859  20.194  1.00  0.00    -0.003 C 
ATOM     12  C   UNL     1       1.251 -37.185  20.953  1.00  0.00     0.004 C 
ENDBRANCH  10  11
ENDBRANCH   9  10
ENDBRANCH   8   9
ENDBRANCH   7   8
ENDBRANCH   6   7
ENDBRANCH   5   6
ENDBRANCH   4   5
ENDBRANCH   3   4
ENDBRANCH   2   3
ENDBRANCH   1   2
BRANCH   1  13
ATOM     13  C   UNL     1       1.226 -32.574  24.659  1.00  0.00     0.000 C 
BRANCH  13  14
ATOM     14  C   UNL     1      -0.075 -32.089  23.996  1.00  0.00     0.000 C 
BRANCH  14  15
ATOM     15  C   UNL     1      -1.281 -32.988  24.322  1.00  0.00     0.000 C 
BRANCH  15  16
ATOM     16  C   UNL     1      -2.129 -33.309  23.080  1.00  0.00     0.000 C 
BRANCH  16  17
ATOM     17  C   UNL     1      -1.786 -34.679  22.470  1.00  0.00     0.000 C 
BRANCH  17  18
ATOM     18  C   UNL     1      -3.038 -35.481  22.081  1.00  0.00     0.000 C 
BRANCH  18  19
ATOM     19  C   UNL     1      -2.708 -36.915  21.633  1.00  0.00     0.000 C 
BRANCH  19  20
ATOM     20  C   UNL     1      -2.341 -37.001  20.139  1.00  0.00     0.006 C 
BRANCH  20  21
ATOM     21  C   UNL     1      -3.256 -37.925  19.318  1.00  0.00     0.053 C 
BRANCH  21  22
ATOM     22  C   UNL     1      -3.915 -37.203  18.185  1.00  0.00     0.041 C 
ATOM     23  O   UNL     1      -4.391 -37.848  17.214  1.00  0.00    -0.550 OA
ATOM     24  O   UNL     1      -4.034 -35.818  18.217  1.00  0.00    -0.550 OA
ENDBRANCH  21  22
ENDBRANCH  20  21
ENDBRANCH  19  20
ENDBRANCH  18  19
ENDBRANCH  17  18
ENDBRANCH  16  17
ENDBRANCH  15  16
ENDBRANCH  14  15
ENDBRANCH  13  14
ENDBRANCH   1  13
TORSDOF 20
ENDMDL
MODEL 2
REMARK VINA RESULT:    -4.236      2.321      6.340
REMARK INTER + INTRA:         -11.678
REMARK INTER:                  -9.093
REMARK INTRA:                  -2.585
REMARK UNBOUND:                -2.490
REMARK SMILES CCCCCCCCCCCCCCCCCCCCCC(=O)[O-]
REMARK SMILES IDX 12 1 11 2 10 3 9 4 8 5 7 6 6 7 5 8 4 9 3 10 2 11 1 12 13 13
REMARK SMILES IDX 14 14 15 15 16 16 17 17 18 18 19 19 20 20 21 21 22 22 23 23
REMARK SMILES IDX 24 24
REMARK H PARENT
REMARK Flexibility Score: inf
ROOT
ATOM      1  C   UNL     1       5.006 -37.173  18.975  1.00  0.00     0.000 C 
ENDROOT
BRANCH   1   2
ATOM      2  C   UNL     1       3.976 -36.082  18.627  1.00  0.00     0.000 C 
BRANCH   2   3
ATOM      3  C   UNL     1       2.707 -36.650  17.969  1.00  0.00     0.000 C 
BRANCH   3   4
ATOM      4  C   UNL     1       2.324 -38.040  18.510  1.00  0.00    -0.000 C 
BRANCH   4   5
ATOM      5  C   UNL     1       1.105 -38.063  19.455  1.00  0.00    -0.000 C 
BRANCH   5   6
ATOM      6  C   UNL     1       1.381 -37.589  20.896  1.00  0.00    -0.000 C 
BRANCH   6   7
ATOM      7  C   UNL     1       0.764 -36.228  21.264  1.00  0.00    -0.000 C 
BRANCH   7   8
ATOM      8  C   UNL     1      -0.591 -35.983  20.578  1.00  0.00    -0.000 C 
BRANCH   8   9
ATOM      9  C   UNL     1      -1.654 -35.448  21.552  1.00  0.00    -0.000 C 
BRANCH   9  10
ATOM     10  C   UNL     1      -2.967 -36.249  21.489  1.00  0.00    -0.000 C 
BRANCH  10  11
ATOM     11  C   UNL     1      -2.746 -37.705  21.051  1.00  0.00    -0.003 C 
ATOM     12  C   UNL     1      -3.654 -38.122  19.894  1.00  0.00     0.004 C 
ENDBRANCH  10  11
ENDBRANCH   9  10
ENDBRANCH   8   9
ENDBRANCH   7   8
ENDBRANCH   6   7
ENDBRANCH   5   6
ENDBRANCH   4   5
ENDBRANCH   3   4
ENDBRANCH   2   3
ENDBRANCH   1   2
BRANCH   1  13
ATOM     13  C   UNL     1       5.101 -37.537  20.470  1.00  0.00     0.000 C 
BRANCH  13  14
ATOM     14  C   UNL     1       5.001 -36.348  21.442  1.00  0.00     0.000 C 
BRANCH  14  15
ATOM     15  C   UNL     1       4.240 -36.698  22.734  1.00  0.00     0.000 C 
BRANCH  15  16
ATOM     16  C   UNL     1       3.991 -35.468  23.622  1.00  0.00     0.000 C 
BRANCH  16  17
ATOM     17  C   UNL     1       3.313 -34.318  22.859  1.00  0.00     0.000 C 
BRANCH  17  18
ATOM     18  C   UNL     1       2.000 -33.866  23.519  1.00  0.00     0.000 C 
BRANCH  18  19
ATOM     19  C   UNL     1       2.107 -32.469  24.156  1.00  0.00     0.000 C 
BRANCH  19  20
ATOM     20  C   UNL     1       0.746 -31.928  24.633  1.00  0.00     0.006 C 
BRANCH  20  21
ATOM     21  C   UNL     1      -0.374 -32.031  23.586  1.00  0.00     0.053 C 
BRANCH  21  22
ATOM     22  C   UNL     1      -1.633 -32.600  24.162  1.00  0.00     0.041 C 
ATOM     23  O   UNL     1      -1.644 -33.051  25.337  1.00  0.00    -0.550 OA
ATOM     24  O   UNL     1      -2.804 -32.602  23.412  1.00  0.00    -0.550 OA
ENDBRANCH  21  22
ENDBRANCH  20  21
ENDBRANCH  19  20
ENDBRANCH  18  19
ENDBRANCH  17  18
ENDBRANCH  16  17
ENDBRANCH  15  16
ENDBRANCH  14  15
ENDBRANCH  13  14
ENDBRANCH   1  13
TORSDOF 20
ENDMDL
MODEL 3
REMARK VINA RESULT:    -4.054      1.994      6.455
REMARK INTER + INTRA:         -11.285
REMARK INTER:                  -9.384
REMARK INTRA:                  -1.901
REMARK UNBOUND:                -2.490
REMARK SMILES CCCCCCCCCCCCCCCCCCCCCC(=O)[O-]
REMARK SMILES IDX 12 1 11 2 10 3 9 4 8 5 7 6 6 7 5 8 4 9 3 10 2 11 1 12 13 13
REMARK SMILES IDX 14 14 15 15 16 16 17 17 18 18 19 19 20 20 21 21 22 22 23 23
REMARK SMILES IDX 24 24
REMARK H PARENT
REMARK Flexibility Score: inf
ROOT
ATOM      1  C   UNL     1       1.803 -33.980  23.619  1.00  0.00     0.000 C 
ENDROOT
BRANCH   1   2
ATOM      2  C   UNL     1       1.784 -32.538  24.158  1.00  0.00     0.000 C 
BRANCH   2   3
ATOM      3  C   UNL     1       0.409 -31.866  24.012  1.00  0.00     0.000 C 
BRANCH   3   4
ATOM      4  C   UNL     1      -0.757 -32.806  24.372  1.00  0.00    -0.000 C 
BRANCH   4   5
ATOM      5  C   UNL     1      -1.831 -32.969  23.278  1.00  0.00    -0.000 C 
BRANCH   5   6
ATOM      6  C   UNL     1      -2.141 -34.424  22.873  1.00  0.00    -0.000 C 
BRANCH   6   7
ATOM      7  C   UNL     1      -1.271 -34.984  21.734  1.00  0.00    -0.000 C 
BRANCH   7   8
ATOM      8  C   UNL     1      -1.637 -36.431  21.361  1.00  0.00    -0.000 C 
BRANCH   8   9
ATOM      9  C   UNL     1      -3.029 -36.536  20.714  1.00  0.00    -0.000 C 
BRANCH   9  10
ATOM     10  C   UNL     1      -3.360 -37.969  20.260  1.00  0.00    -0.000 C 
BRANCH  10  11
ATOM     11  C   UNL     1      -3.777 -38.036  18.782  1.00  0.00    -0.003 C 
ATOM     12  C   UNL     1      -4.102 -36.663  18.194  1.00  0.00     0.004 C 
ENDBRANCH  10  11
ENDBRANCH   9  10
ENDBRANCH   8   9
ENDBRANCH   7   8
ENDBRANCH   6   7
ENDBRANCH   5   6
ENDBRANCH   4   5
ENDBRANCH   3   4
ENDBRANCH   2   3
ENDBRANCH   1   2
BRANCH   1  13
ATOM     13  C   UNL     1       3.013 -34.338  22.734  1.00  0.00     0.000 C 
BRANCH  13  14
ATOM     14  C   UNL     1       3.508 -35.790  22.853  1.00  0.00     0.000 C 
BRANCH  14  15
ATOM     15  C   UNL     1       5.030 -35.886  23.061  1.00  0.00     0.000 C 
BRANCH  15  16
ATOM     16  C   UNL     1       5.631 -37.156  22.437  1.00  0.00     0.000 C 
BRANCH  16  17
ATOM     17  C   UNL     1       4.613 -37.932  21.584  1.00  0.00     0.000 C 
BRANCH  17  18
ATOM     18  C   UNL     1       4.960 -37.906  20.086  1.00  0.00     0.000 C 
BRANCH  18  19
ATOM     19  C   UNL     1       4.847 -36.498  19.476  1.00  0.00     0.000 C 
BRANCH  19  20
ATOM     20  C   UNL     1       3.959 -36.466  18.217  1.00  0.00     0.006 C 
BRANCH  20  21
ATOM     21  C   UNL     1       2.633 -37.230  18.363  1.00  0.00     0.053 C 
BRANCH  21  22
ATOM     22  C   UNL     1       1.813 -36.720  19.507  1.00  0.00     0.041 C 
ATOM     23  O   UNL     1       1.564 -35.490  19.610  1.00  0.00    -0.550 OA
ATOM     24  O   UNL     1       1.295 -37.608  20.443  1.00  0.00    -0.550 OA
ENDBRANCH  21  22
ENDBRANCH  20  21
ENDBRANCH  19  20
ENDBRANCH  18  19
ENDBRANCH  17  18
ENDBRANCH  16  17
ENDBRANCH  15  16
ENDBRANCH  14  15
ENDBRANCH  13  14
ENDBRANCH   1  13
TORSDOF 20
ENDMDL
MODEL 4
REMARK VINA RESULT:    -3.822      2.901      5.292
REMARK INTER + INTRA:         -10.780
REMARK INTER:                  -8.473
REMARK INTRA:                  -2.308
REMARK UNBOUND:                -2.490
REMARK SMILES CCCCCCCCCCCCCCCCCCCCCC(=O)[O-]
REMARK SMILES IDX 12 1 11 2 10 3 9 4 8 5 7 6 6 7 5 8 4 9 3 10 2 11 1 12 13 13
REMARK SMILES IDX 14 14 15 15 16 16 17 17 18 18 19 19 20 20 21 21 22 22 23 23
REMARK SMILES IDX 24 24
REMARK H PARENT
REMARK Flexibility Score: inf
ROOT
ATOM      1  C   UNL     1       1.403 -38.059  19.375  1.00  0.00     0.000 C 
ENDROOT
BRANCH   1   2
ATOM      2  C   UNL     1       1.998 -37.789  17.981  1.00  0.00     0.000 C 
BRANCH   2   3
ATOM      3  C   UNL     1       2.724 -36.436  17.896  1.00  0.00     0.000 C 
BRANCH   3   4
ATOM      4  C   UNL     1       4.249 -36.584  17.745  1.00  0.00    -0.000 C 
BRANCH   4   5
ATOM      5  C   UNL     1       4.820 -37.955  18.162  1.00  0.00    -0.000 C 
BRANCH   5   6
ATOM      6  C   UNL     1       6.123 -37.903  18.984  1.00  0.00    -0.000 C 
BRANCH   6   7
ATOM      7  C   UNL     1       5.943 -38.067  20.503  1.00  0.00    -0.000 C 
BRANCH   7   8
ATOM      8  C   UNL     1       4.465 -38.122  20.925  1.00  0.00    -0.000 C 
BRANCH   8   9
ATOM      9  C   UNL     1       4.192 -37.333  22.217  1.00  0.00    -0.000 C 
BRANCH   9  10
ATOM     10  C   UNL     1       5.305 -36.317  22.532  1.00  0.00    -0.000 C 
BRANCH  10  11
ATOM     11  C   UNL     1       4.757 -35.007  23.119  1.00  0.00    -0.003 C 
ATOM     12  C   UNL     1       3.289 -34.767  22.768  1.00  0.00     0.004 C 
ENDBRANCH  10  11
ENDBRANCH   9  10
ENDBRANCH   8   9
ENDBRANCH   7   8
ENDBRANCH   6   7
ENDBRANCH   5   6
ENDBRANCH   4   5
ENDBRANCH   3   4
ENDBRANCH   2   3
ENDBRANCH   1   2
BRANCH   1  13
ATOM     13  C   UNL     1       1.263 -36.821  20.283  1.00  0.00     0.000 C 
BRANCH  13  14
ATOM     14  C   UNL     1       0.025 -36.814  21.199  1.00  0.00     0.000 C 
BRANCH  14  15
ATOM     15  C   UNL     1      -0.826 -38.088  21.059  1.00  0.00     0.000 C 
BRANCH  15  16
ATOM     16  C   UNL     1      -2.197 -37.813  20.418  1.00  0.00     0.000 C 
BRANCH  16  17
ATOM     17  C   UNL     1      -2.745 -36.421  20.775  1.00  0.00     0.000 C 
BRANCH  17  18
ATOM     18  C   UNL     1      -3.656 -36.445  22.013  1.00  0.00     0.000 C 
BRANCH  18  19
ATOM     19  C   UNL     1      -3.572 -35.148  22.837  1.00  0.00     0.000 C 
BRANCH  19  20
ATOM     20  C   UNL     1      -2.161 -34.532  22.832  1.00  0.00     0.006 C 
BRANCH  20  21
ATOM     21  C   UNL     1      -2.142 -32.999  22.948  1.00  0.00     0.053 C 
BRANCH  21  22
ATOM     22  C   UNL     1      -1.468 -32.537  24.202  1.00  0.00     0.041 C 
ATOM     23  O   UNL     1      -0.756 -31.499  24.193  1.00  0.00    -0.550 OA
ATOM     24  O   UNL     1      -1.654 -33.235  25.390  1.00  0.00    -0.550 OA
ENDBRANCH  21  22
ENDBRANCH  20  21
ENDBRANCH  19  20
ENDBRANCH  18  19
ENDBRANCH  17  18
ENDBRANCH  16  17
ENDBRANCH  15  16
ENDBRANCH  14  15
ENDBRANCH  13  14
ENDBRANCH   1  13
TORSDOF 20
ENDMDL
MODEL 5
REMARK VINA RESULT:    -3.644      3.142      5.475
REMARK INTER + INTRA:         -10.394
REMARK INTER:                  -8.404
REMARK INTRA:                  -1.990
REMARK UNBOUND:                -2.490
REMARK SMILES CCCCCCCCCCCCCCCCCCCCCC(=O)[O-]
REMARK SMILES IDX 12 1 11 2 10 3 9 4 8 5 7 6 6 7 5 8 4 9 3 10 2 11 1 12 13 13
REMARK SMILES IDX 14 14 15 15 16 16 17 17 18 18 19 19 20 20 21 21 22 22 23 23
REMARK SMILES IDX 24 24
REMARK H PARENT
REMARK Flexibility Score: inf
ROOT
ATOM      1  C   UNL     1       0.361 -35.904  21.212  1.00  0.00     0.000 C 
ENDROOT
BRANCH   1   2
ATOM      2  C   UNL     1       1.872 -36.153  21.048  1.00  0.00     0.000 C 
BRANCH   2   3
ATOM      3  C   UNL     1       2.216 -37.644  20.899  1.00  0.00     0.000 C 
BRANCH   3   4
ATOM      4  C   UNL     1       2.223 -38.113  19.432  1.00  0.00    -0.000 C 
BRANCH   4   5
ATOM      5  C   UNL     1       2.598 -37.030  18.399  1.00  0.00    -0.000 C 
BRANCH   5   6
ATOM      6  C   UNL     1       3.904 -37.288  17.621  1.00  0.00    -0.000 C 
BRANCH   6   7
ATOM      7  C   UNL     1       5.194 -36.904  18.366  1.00  0.00    -0.000 C 
BRANCH   7   8
ATOM      8  C   UNL     1       5.778 -38.068  19.185  1.00  0.00    -0.000 C 
BRANCH   8   9
ATOM      9  C   UNL     1       6.123 -37.656  20.627  1.00  0.00    -0.000 C 
BRANCH   9  10
ATOM     10  C   UNL     1       5.435 -36.345  21.045  1.00  0.00    -0.000 C 
BRANCH  10  11
ATOM     11  C   UNL     1       5.769 -35.940  22.489  1.00  0.00    -0.003 C 
ATOM     12  C   UNL     1       4.613 -36.186  23.458  1.00  0.00     0.004 C 
ENDBRANCH  10  11
ENDBRANCH   9  10
ENDBRANCH   8   9
ENDBRANCH   7   8
ENDBRANCH   6   7
ENDBRANCH   5   6
ENDBRANCH   4   5
ENDBRANCH   3   4
ENDBRANCH   2   3
ENDBRANCH   1   2
BRANCH   1  13
ATOM     13  C   UNL     1      -0.554 -36.844  20.403  1.00  0.00     0.000 C 
BRANCH  13  14
ATOM     14  C   UNL     1      -1.458 -37.765  21.243  1.00  0.00     0.000 C 
BRANCH  14  15
ATOM     15  C   UNL     1      -2.956 -37.509  21.002  1.00  0.00     0.000 C 
BRANCH  15  16
ATOM     16  C   UNL     1      -3.312 -36.014  21.040  1.00  0.00     0.000 C 
BRANCH  16  17
ATOM     17  C   UNL     1      -3.436 -35.474  22.475  1.00  0.00     0.000 C 
BRANCH  17  18
ATOM     18  C   UNL     1      -2.214 -34.642  22.899  1.00  0.00     0.000 C 
BRANCH  18  19
ATOM     19  C   UNL     1      -2.558 -33.160  23.131  1.00  0.00     0.000 C 
BRANCH  19  20
ATOM     20  C   UNL     1      -1.470 -32.417  23.929  1.00  0.00     0.006 C 
BRANCH  20  21
ATOM     21  C   UNL     1      -0.138 -33.177  24.036  1.00  0.00     0.053 C 
BRANCH  21  22
ATOM     22  C   UNL     1       1.026 -32.251  24.210  1.00  0.00     0.041 C 
ATOM     23  O   UNL     1       0.852 -31.097  24.682  1.00  0.00    -0.550 OA
ATOM     24  O   UNL     1       2.308 -32.676  23.883  1.00  0.00    -0.550 OA
ENDBRANCH  21  22
ENDBRANCH  20  21
ENDBRANCH  19  20
ENDBRANCH  18  19
ENDBRANCH  17  18
ENDBRANCH  16  17
ENDBRANCH  15  16
ENDBRANCH  14  15
ENDBRANCH  13  14
ENDBRANCH   1  13
TORSDOF 20
ENDMDL
MODEL 6
REMARK VINA RESULT:    -3.620      2.906      7.958
REMARK INTER + INTRA:         -10.342
REMARK INTER:                  -8.232
REMARK INTRA:                  -2.109
REMARK UNBOUND:                -2.490
REMARK SMILES CCCCCCCCCCCCCCCCCCCCCC(=O)[O-]
REMARK SMILES IDX 12 1 11 2 10 3 9 4 8 5 7 6 6 7 5 8 4 9 3 10 2 11 1 12 13 13
REMARK SMILES IDX 14 14 15 15 16 16 17 17 18 18 19 19 20 20 21 21 22 22 23 23
REMARK SMILES IDX 24 24
REMARK H PARENT
REMARK Flexibility Score: inf
ROOT
ATOM      1  C   UNL     1       1.380 -36.709  20.191  1.00  0.00     0.000 C 
ENDROOT
BRANCH   1   2
ATOM      2  C   UNL     1       0.024 -36.621  20.916  1.00  0.00     0.000 C 
BRANCH   2   3
ATOM      3  C   UNL     1      -0.658 -37.990  21.072  1.00  0.00     0.000 C 
BRANCH   3   4
ATOM      4  C   UNL     1      -1.962 -38.104  20.261  1.00  0.00    -0.000 C 
BRANCH   4   5
ATOM      5  C   UNL     1      -2.761 -36.792  20.116  1.00  0.00    -0.000 C 
BRANCH   5   6
ATOM      6  C   UNL     1      -3.849 -36.563  21.185  1.00  0.00    -0.000 C 
BRANCH   6   7
ATOM      7  C   UNL     1      -3.355 -35.914  22.490  1.00  0.00    -0.000 C 
BRANCH   7   8
ATOM      8  C   UNL     1      -2.341 -34.783  22.246  1.00  0.00    -0.000 C 
BRANCH   8   9
ATOM      9  C   UNL     1      -1.984 -34.026  23.537  1.00  0.00    -0.000 C 
BRANCH   9  10
ATOM     10  C   UNL     1      -2.272 -32.517  23.432  1.00  0.00    -0.000 C 
BRANCH  10  11
ATOM     11  C   UNL     1      -1.241 -31.668  24.191  1.00  0.00    -0.003 C 
ATOM     12  C   UNL     1       0.165 -32.266  24.154  1.00  0.00     0.004 C 
ENDBRANCH  10  11
ENDBRANCH   9  10
ENDBRANCH   8   9
ENDBRANCH   7   8
ENDBRANCH   6   7
ENDBRANCH   5   6
ENDBRANCH   4   5
ENDBRANCH   3   4
ENDBRANCH   2   3
ENDBRANCH   1   2
BRANCH   1  13
ATOM     13  C   UNL     1       1.488 -37.820  19.128  1.00  0.00     0.000 C 
BRANCH  13  14
ATOM     14  C   UNL     1       2.748 -37.766  18.246  1.00  0.00     0.000 C 
BRANCH  14  15
ATOM     15  C   UNL     1       3.212 -36.327  17.959  1.00  0.00     0.000 C 
BRANCH  15  16
ATOM     16  C   UNL     1       4.731 -36.153  18.125  1.00  0.00     0.000 C 
BRANCH  16  17
ATOM     17  C   UNL     1       5.432 -37.460  18.530  1.00  0.00     0.000 C 
BRANCH  17  18
ATOM     18  C   UNL     1       5.999 -37.407  19.958  1.00  0.00     0.000 C 
BRANCH  18  19
ATOM     19  C   UNL     1       5.100 -38.125  20.980  1.00  0.00     0.000 C 
BRANCH  19  20
ATOM     20  C   UNL     1       5.183 -37.500  22.386  1.00  0.00     0.006 C 
BRANCH  20  21
ATOM     21  C   UNL     1       3.856 -36.913  22.893  1.00  0.00     0.053 C 
BRANCH  21  22
ATOM     22  C   UNL     1       3.737 -35.451  22.596  1.00  0.00     0.041 C 
ATOM     23  O   UNL     1       4.520 -34.906  21.775  1.00  0.00    -0.550 OA
ATOM     24  O   UNL     1       2.739 -34.696  23.202  1.00  0.00    -0.550 OA
ENDBRANCH  21  22
ENDBRANCH  20  21
ENDBRANCH  19  20
ENDBRANCH  18  19
ENDBRANCH  17  18
ENDBRANCH  16  17
ENDBRANCH  15  16
ENDBRANCH  14  15
ENDBRANCH  13  14
ENDBRANCH   1  13
TORSDOF 20
ENDMDL
MODEL 7
REMARK VINA RESULT:    -3.538      0.941      2.494
REMARK INTER + INTRA:         -10.164
REMARK INTER:                  -8.352
REMARK INTRA:                  -1.811
REMARK UNBOUND:                -2.490
REMARK SMILES CCCCCCCCCCCCCCCCCCCCCC(=O)[O-]
REMARK SMILES IDX 12 1 11 2 10 3 9 4 8 5 7 6 6 7 5 8 4 9 3 10 2 11 1 12 13 13
REMARK SMILES IDX 14 14 15 15 16 16 17 17 18 18 19 19 20 20 21 21 22 22 23 23
REMARK SMILES IDX 24 24
REMARK H PARENT
REMARK Flexibility Score: inf
ROOT
ATOM      1  C   UNL     1       0.769 -32.023  24.001  1.00  0.00     0.000 C 
ENDROOT
BRANCH   1   2
ATOM      2  C   UNL     1       2.176 -32.552  23.663  1.00  0.00     0.000 C 
BRANCH   2   3
ATOM      3  C   UNL     1       2.264 -34.086  23.723  1.00  0.00     0.000 C 
BRANCH   3   4
ATOM      4  C   UNL     1       2.711 -34.711  22.388  1.00  0.00    -0.000 C 
BRANCH   4   5
ATOM      5  C   UNL     1       1.706 -35.694  21.755  1.00  0.00    -0.000 C 
BRANCH   5   6
ATOM      6  C   UNL     1       1.446 -35.490  20.249  1.00  0.00    -0.000 C 
BRANCH   6   7
ATOM      7  C   UNL     1       2.161 -36.489  19.322  1.00  0.00    -0.000 C 
BRANCH   7   8
ATOM      8  C   UNL     1       3.332 -35.856  18.552  1.00  0.00    -0.000 C 
BRANCH   8   9
ATOM      9  C   UNL     1       4.567 -36.772  18.503  1.00  0.00    -0.000 C 
BRANCH   9  10
ATOM     10  C   UNL     1       4.638 -37.728  19.707  1.00  0.00    -0.000 C 
BRANCH  10  11
ATOM     11  C   UNL     1       5.613 -37.239  20.789  1.00  0.00    -0.003 C 
ATOM     12  C   UNL     1       5.051 -37.384  22.203  1.00  0.00     0.004 C 
ENDBRANCH  10  11
ENDBRANCH   9  10
ENDBRANCH   8   9
ENDBRANCH   7   8
ENDBRANCH   6   7
ENDBRANCH   5   6
ENDBRANCH   4   5
ENDBRANCH   3   4
ENDBRANCH   2   3
ENDBRANCH   1   2
BRANCH   1  13
ATOM     13  C   UNL     1      -0.305 -33.105  24.229  1.00  0.00     0.000 C 
BRANCH  13  14
ATOM     14  C   UNL     1      -1.713 -32.752  23.717  1.00  0.00     0.000 C 
BRANCH  14  15
ATOM     15  C   UNL     1      -2.479 -33.978  23.190  1.00  0.00     0.000 C 
BRANCH  15  16
ATOM     16  C   UNL     1      -1.696 -34.742  22.109  1.00  0.00     0.000 C 
BRANCH  16  17
ATOM     17  C   UNL     1      -2.467 -35.959  21.571  1.00  0.00     0.000 C 
BRANCH  17  18
ATOM     18  C   UNL     1      -1.615 -37.238  21.559  1.00  0.00     0.000 C 
BRANCH  18  19
ATOM     19  C   UNL     1      -1.642 -37.955  20.198  1.00  0.00     0.000 C 
BRANCH  19  20
ATOM     20  C   UNL     1      -3.065 -38.079  19.620  1.00  0.00     0.006 C 
BRANCH  20  21
ATOM     21  C   UNL     1      -3.641 -36.760  19.079  1.00  0.00     0.053 C 
BRANCH  21  22
ATOM     22  C   UNL     1      -4.218 -36.919  17.707  1.00  0.00     0.041 C 
ATOM     23  O   UNL     1      -4.231 -38.049  17.152  1.00  0.00    -0.550 OA
ATOM     24  O   UNL     1      -4.773 -35.824  17.054  1.00  0.00    -0.550 OA
ENDBRANCH  21  22
ENDBRANCH  20  21
ENDBRANCH  19  20
ENDBRANCH  18  19
ENDBRANCH  17  18
ENDBRANCH  16  17
ENDBRANCH  15  16
ENDBRANCH  14  15
ENDBRANCH  13  14
ENDBRANCH   1  13
TORSDOF 20
ENDMDL
