MODEL 1
REMARK VINA RESULT:    -3.263      0.000      0.000
REMARK INTER + INTRA:          -3.955
REMARK INTER:                  -3.835
REMARK INTRA:                  -0.120
REMARK UNBOUND:                -0.120
REMARK SMILES O=C([O-])CCC(=O)[O-]
REMARK SMILES IDX 4 1 2 2 1 3 3 4 5 5 6 6 7 7 8 8
REMARK H PARENT
REMARK Flexibility Score: inf
ROOT
ATOM      1  C   UNL     1      -1.213  54.898   4.858  1.00  0.00     0.059 C 
ENDROOT
BRANCH   1   2
ATOM      2  C   UNL     1      -1.415  54.965   6.341  1.00  0.00     0.042 C 
ATOM      3  O   UNL     1      -2.125  55.874   6.844  1.00  0.00    -0.550 OA
ATOM      4  O   UNL     1      -0.785  54.045   7.171  1.00  0.00    -0.550 OA
ENDBRANCH   1   2
BRANCH   1   5
ATOM      5  C   UNL     1       0.229  54.522   4.501  1.00  0.00     0.059 C 
BRANCH   5   6
ATOM      6  C   UNL     1       0.307  53.160   3.878  1.00  0.00     0.042 C 
ATOM      7  O   UNL     1       1.250  52.876   3.094  1.00  0.00    -0.550 OA
ATOM      8  O   UNL     1      -0.685  52.221   4.133  1.00  0.00    -0.550 OA
ENDBRANCH   5   6
ENDBRANCH   1   5
TORSDOF 3
ENDMDL
MODEL 2
REMARK VINA RESULT:    -3.256      0.121      3.904
REMARK INTER + INTRA:          -3.947
REMARK INTER:                  -3.832
REMARK INTRA:                  -0.116
REMARK UNBOUND:                -0.120
REMARK SMILES O=C([O-])CCC(=O)[O-]
REMARK SMILES IDX 4 1 2 2 1 3 3 4 5 5 6 6 7 7 8 8
REMARK H PARENT
REMARK Flexibility Score: inf
ROOT
ATOM      1  C   UNL     1       0.168  54.555   4.525  1.00  0.00     0.059 C 
ENDROOT
BRANCH   1   2
ATOM      2  C   UNL     1       0.265  53.188   3.918  1.00  0.00     0.042 C 
ATOM      3  O   UNL     1       1.246  52.887   3.188  1.00  0.00    -0.550 OA
ATOM      4  O   UNL     1      -0.748  52.261   4.126  1.00  0.00    -0.550 OA
ENDBRANCH   1   2
BRANCH   1   5
ATOM      5  C   UNL     1      -1.280  54.916   4.872  1.00  0.00     0.059 C 
BRANCH   5   6
ATOM      6  C   UNL     1      -1.509  54.920   6.354  1.00  0.00     0.042 C 
ATOM      7  O   UNL     1      -2.125  55.873   6.897  1.00  0.00    -0.550 OA
ATOM      8  O   UNL     1      -1.006  53.888   7.137  1.00  0.00    -0.550 OA
ENDBRANCH   5   6
ENDBRANCH   1   5
TORSDOF 3
ENDMDL
MODEL 3
REMARK VINA RESULT:    -3.248      0.171      3.889
REMARK INTER + INTRA:          -3.938
REMARK INTER:                  -3.819
REMARK INTRA:                  -0.119
REMARK UNBOUND:                -0.120
REMARK SMILES O=C([O-])CCC(=O)[O-]
REMARK SMILES IDX 4 1 2 2 1 3 3 4 5 5 6 6 7 7 8 8
REMARK H PARENT
REMARK Flexibility Score: inf
ROOT
ATOM      1  C   UNL     1       0.092  54.527   4.503  1.00  0.00     0.059 C 
ENDROOT
BRANCH   1   2
ATOM      2  C   UNL     1       0.193  53.172   3.871  1.00  0.00     0.042 C 
ATOM      3  O   UNL     1      -0.666  52.288   4.127  1.00  0.00    -0.550 OA
ATOM      4  O   UNL     1       1.257  52.873   3.029  1.00  0.00    -0.550 OA
ENDBRANCH   1   2
BRANCH   1   5
ATOM      5  C   UNL     1      -1.356  54.873   4.867  1.00  0.00     0.059 C 
BRANCH   5   6
ATOM      6  C   UNL     1      -1.562  54.891   6.352  1.00  0.00     0.042 C 
ATOM      7  O   UNL     1      -2.125  55.874   6.901  1.00  0.00    -0.550 OA
ATOM      8  O   UNL     1      -1.096  53.840   7.132  1.00  0.00    -0.550 OA
ENDBRANCH   5   6
ENDBRANCH   1   5
TORSDOF 3
ENDMDL
MODEL 4
REMARK VINA RESULT:    -3.230      1.447      2.057
REMARK INTER + INTRA:          -3.917
REMARK INTER:                  -3.826
REMARK INTRA:                  -0.091
REMARK UNBOUND:                -0.120
REMARK SMILES O=C([O-])CCC(=O)[O-]
REMARK SMILES IDX 4 1 2 2 1 3 3 4 5 5 6 6 7 7 8 8
REMARK H PARENT
REMARK Flexibility Score: inf
ROOT
ATOM      1  C   UNL     1       1.142  55.115   5.293  1.00  0.00     0.059 C 
ENDROOT
BRANCH   1   2
ATOM      2  C   UNL     1       0.682  55.428   6.683  1.00  0.00     0.042 C 
ATOM      3  O   UNL     1       1.276  56.303   7.366  1.00  0.00    -0.550 OA
ATOM      4  O   UNL     1      -0.379  54.725   7.240  1.00  0.00    -0.550 OA
ENDBRANCH   1   2
BRANCH   1   5
ATOM      5  C   UNL     1      -0.011  54.616   4.415  1.00  0.00     0.059 C 
BRANCH   5   6
ATOM      6  C   UNL     1       0.186  53.189   4.002  1.00  0.00     0.042 C 
ATOM      7  O   UNL     1      -0.619  52.301   4.386  1.00  0.00    -0.550 OA
ATOM      8  O   UNL     1       1.284  52.835   3.227  1.00  0.00    -0.550 OA
ENDBRANCH   5   6
ENDBRANCH   1   5
TORSDOF 3
ENDMDL
MODEL 5
REMARK VINA RESULT:    -3.154     22.071     22.745
REMARK INTER + INTRA:          -3.827
REMARK INTER:                  -3.723
REMARK INTRA:                  -0.104
REMARK UNBOUND:                -0.120
REMARK SMILES O=C([O-])CCC(=O)[O-]
REMARK SMILES IDX 4 1 2 2 1 3 3 4 5 5 6 6 7 7 8 8
REMARK H PARENT
REMARK Flexibility Score: inf
ROOT
ATOM      1  C   UNL     1      15.304  37.974   1.401  1.00  0.00     0.059 C 
ENDROOT
BRANCH   1   2
ATOM      2  C   UNL     1      15.993  38.663   2.539  1.00  0.00     0.042 C 
ATOM      3  O   UNL     1      15.354  38.953   3.584  1.00  0.00    -0.550 OA
ATOM      4  O   UNL     1      17.331  39.021   2.429  1.00  0.00    -0.550 OA
ENDBRANCH   1   2
BRANCH   1   5
ATOM      5  C   UNL     1      14.715  38.980   0.405  1.00  0.00     0.059 C 
BRANCH   5   6
ATOM      6  C   UNL     1      15.728  39.405  -0.615  1.00  0.00     0.042 C 
ATOM      7  O   UNL     1      16.385  40.466  -0.452  1.00  0.00    -0.550 OA
ATOM      8  O   UNL     1      15.915  38.648  -1.765  1.00  0.00    -0.550 OA
ENDBRANCH   5   6
ENDBRANCH   1   5
TORSDOF 3
ENDMDL
MODEL 6
REMARK VINA RESULT:    -3.151      1.895      2.638
REMARK INTER + INTRA:          -3.823
REMARK INTER:                  -3.702
REMARK INTRA:                  -0.121
REMARK UNBOUND:                -0.120
REMARK SMILES O=C([O-])CCC(=O)[O-]
REMARK SMILES IDX 4 1 2 2 1 3 3 4 5 5 6 6 7 7 8 8
REMARK H PARENT
REMARK Flexibility Score: inf
ROOT
ATOM      1  C   UNL     1       0.453  54.138   4.437  1.00  0.00     0.059 C 
ENDROOT
BRANCH   1   2
ATOM      2  C   UNL     1       0.817  55.145   5.485  1.00  0.00     0.042 C 
ATOM      3  O   UNL     1       2.017  55.491   5.641  1.00  0.00    -0.550 OA
ATOM      4  O   UNL     1      -0.164  55.671   6.316  1.00  0.00    -0.550 OA
ENDBRANCH   1   2
BRANCH   1   5
ATOM      5  C   UNL     1      -1.031  53.760   4.509  1.00  0.00     0.059 C 
BRANCH   5   6
ATOM      6  C   UNL     1      -1.232  52.435   5.180  1.00  0.00     0.042 C 
ATOM      7  O   UNL     1      -1.307  51.383   4.494  1.00  0.00    -0.550 OA
ATOM      8  O   UNL     1      -1.376  52.369   6.561  1.00  0.00    -0.550 OA
ENDBRANCH   5   6
ENDBRANCH   1   5
TORSDOF 3
ENDMDL
MODEL 7
REMARK VINA RESULT:    -3.121      1.654      3.760
REMARK INTER + INTRA:          -3.788
REMARK INTER:                  -3.689
REMARK INTRA:                  -0.100
REMARK UNBOUND:                -0.120
REMARK SMILES O=C([O-])CCC(=O)[O-]
REMARK SMILES IDX 4 1 2 2 1 3 3 4 5 5 6 6 7 7 8 8
REMARK H PARENT
REMARK Flexibility Score: inf
ROOT
ATOM      1  C   UNL     1      -1.001  52.377   4.561  1.00  0.00     0.059 C 
ENDROOT
BRANCH   1   2
ATOM      2  C   UNL     1       0.009  53.342   4.019  1.00  0.00     0.042 C 
ATOM      3  O   UNL     1      -0.183  54.582   4.120  1.00  0.00    -0.550 OA
ATOM      4  O   UNL     1       1.142  52.871   3.367  1.00  0.00    -0.550 OA
ENDBRANCH   1   2
BRANCH   1   5
ATOM      5  C   UNL     1      -1.959  53.056   5.545  1.00  0.00     0.059 C 
BRANCH   5   6
ATOM      6  C   UNL     1      -1.396  53.086   6.934  1.00  0.00     0.042 C 
ATOM      7  O   UNL     1      -1.434  52.054   7.655  1.00  0.00    -0.550 OA
ATOM      8  O   UNL     1      -0.867  54.265   7.445  1.00  0.00    -0.550 OA
ENDBRANCH   5   6
ENDBRANCH   1   5
TORSDOF 3
ENDMDL
MODEL 8
REMARK VINA RESULT:    -3.118      1.907      3.205
REMARK INTER + INTRA:          -3.784
REMARK INTER:                  -3.668
REMARK INTRA:                  -0.117
REMARK UNBOUND:                -0.120
REMARK SMILES O=C([O-])CCC(=O)[O-]
REMARK SMILES IDX 4 1 2 2 1 3 3 4 5 5 6 6 7 7 8 8
REMARK H PARENT
REMARK Flexibility Score: inf
ROOT
ATOM      1  C   UNL     1      -1.423  53.859   4.902  1.00  0.00     0.059 C 
ENDROOT
BRANCH   1   2
ATOM      2  C   UNL     1      -1.314  52.467   5.445  1.00  0.00     0.042 C 
ATOM      3  O   UNL     1      -1.367  52.265   6.686  1.00  0.00    -0.550 OA
ATOM      4  O   UNL     1      -1.116  51.396   4.582  1.00  0.00    -0.550 OA
ENDBRANCH   1   2
BRANCH   1   5
ATOM      5  C   UNL     1      -0.060  54.395   4.449  1.00  0.00     0.059 C 
BRANCH   5   6
ATOM      6  C   UNL     1       0.624  55.160   5.543  1.00  0.00     0.042 C 
ATOM      7  O   UNL     1      -0.055  55.739   6.430  1.00  0.00    -0.550 OA
ATOM      8  O   UNL     1       2.009  55.265   5.556  1.00  0.00    -0.550 OA
ENDBRANCH   5   6
ENDBRANCH   1   5
TORSDOF 3
ENDMDL
MODEL 9
REMARK VINA RESULT:    -3.044      9.461     10.545
REMARK INTER + INTRA:          -3.698
REMARK INTER:                  -3.656
REMARK INTRA:                  -0.042
REMARK UNBOUND:                -0.120
REMARK SMILES O=C([O-])CCC(=O)[O-]
REMARK SMILES IDX 4 1 2 2 1 3 3 4 5 5 6 6 7 7 8 8
REMARK H PARENT
REMARK Flexibility Score: inf
ROOT
ATOM      1  C   UNL     1       8.929  57.060   5.867  1.00  0.00     0.059 C 
ENDROOT
BRANCH   1   2
ATOM      2  C   UNL     1      10.223  56.763   6.560  1.00  0.00     0.042 C 
ATOM      3  O   UNL     1      11.075  56.013   6.017  1.00  0.00    -0.550 OA
ATOM      4  O   UNL     1      10.470  57.283   7.825  1.00  0.00    -0.550 OA
ENDBRANCH   1   2
BRANCH   1   5
ATOM      5  C   UNL     1       8.820  56.315   4.531  1.00  0.00     0.059 C 
BRANCH   5   6
ATOM      6  C   UNL     1       8.152  57.153   3.483  1.00  0.00     0.042 C 
ATOM      7  O   UNL     1       7.059  57.727   3.733  1.00  0.00    -0.550 OA
ATOM      8  O   UNL     1       8.716  57.265   2.219  1.00  0.00    -0.550 OA
ENDBRANCH   5   6
ENDBRANCH   1   5
TORSDOF 3
ENDMDL
