MODEL 1
REMARK VINA RESULT:    -3.454      0.000      0.000
REMARK INTER + INTRA:          -4.661
REMARK INTER:                  -4.463
REMARK INTRA:                  -0.197
REMARK UNBOUND:                -0.197
REMARK SMILES CCCCCCC(=O)[O-]
REMARK SMILES IDX 5 1 6 2 7 3 8 4 9 5 4 6 3 7 2 8 1 9
REMARK H PARENT
REMARK Flexibility Score: inf
ROOT
ATOM      1  C   UNL     1      -8.931  16.357 -12.264  1.00  0.00     0.006 C 
ENDROOT
BRANCH   1   2
ATOM      2  C   UNL     1      -8.105  15.466 -13.200  1.00  0.00     0.053 C 
BRANCH   2   3
ATOM      3  C   UNL     1      -7.270  14.484 -12.437  1.00  0.00     0.041 C 
ATOM      4  O   UNL     1      -6.538  13.662 -13.051  1.00  0.00    -0.550 OA
ATOM      5  O   UNL     1      -7.277  14.497 -11.049  1.00  0.00    -0.550 OA
ENDBRANCH   2   3
ENDBRANCH   1   2
BRANCH   1   6
ATOM      6  C   UNL     1      -8.694  17.852 -12.525  1.00  0.00     0.000 C 
BRANCH   6   7
ATOM      7  C   UNL     1      -7.700  18.060 -13.673  1.00  0.00    -0.000 C 
BRANCH   7   8
ATOM      8  C   UNL     1      -7.650  19.532 -14.098  1.00  0.00    -0.003 C 
ATOM      9  C   UNL     1      -7.163  20.419 -12.956  1.00  0.00     0.004 C 
ENDBRANCH   7   8
ENDBRANCH   6   7
ENDBRANCH   1   6
TORSDOF 5
ENDMDL
MODEL 2
REMARK VINA RESULT:    -3.415      2.368      4.694
REMARK INTER + INTRA:          -4.611
REMARK INTER:                  -4.277
REMARK INTRA:                  -0.334
REMARK UNBOUND:                -0.197
REMARK SMILES CCCCCCC(=O)[O-]
REMARK SMILES IDX 5 1 6 2 7 3 8 4 9 5 4 6 3 7 2 8 1 9
REMARK H PARENT
REMARK Flexibility Score: inf
ROOT
ATOM      1  C   UNL     1      -7.340  15.372 -14.822  1.00  0.00     0.006 C 
ENDROOT
BRANCH   1   2
ATOM      2  C   UNL     1      -8.070  16.660 -14.423  1.00  0.00     0.053 C 
BRANCH   2   3
ATOM      3  C   UNL     1      -8.590  16.592 -13.020  1.00  0.00     0.041 C 
ATOM      4  O   UNL     1      -9.831  16.582 -12.802  1.00  0.00    -0.550 OA
ATOM      5  O   UNL     1      -7.704  16.507 -11.954  1.00  0.00    -0.550 OA
ENDBRANCH   2   3
ENDBRANCH   1   2
BRANCH   1   6
ATOM      6  C   UNL     1      -8.295  14.176 -14.946  1.00  0.00     0.000 C 
BRANCH   6   7
ATOM      7  C   UNL     1      -7.674  12.911 -14.341  1.00  0.00    -0.000 C 
BRANCH   7   8
ATOM      8  C   UNL     1      -6.576  13.267 -13.332  1.00  0.00    -0.003 C 
ATOM      9  C   UNL     1      -5.295  12.487 -13.613  1.00  0.00     0.004 C 
ENDBRANCH   7   8
ENDBRANCH   6   7
ENDBRANCH   1   6
TORSDOF 5
ENDMDL
MODEL 3
REMARK VINA RESULT:    -3.407      1.009      1.674
REMARK INTER + INTRA:          -4.600
REMARK INTER:                  -4.408
REMARK INTRA:                  -0.193
REMARK UNBOUND:                -0.197
REMARK SMILES CCCCCCC(=O)[O-]
REMARK SMILES IDX 5 1 6 2 7 3 8 4 9 5 4 6 3 7 2 8 1 9
REMARK H PARENT
REMARK Flexibility Score: inf
ROOT
ATOM      1  C   UNL     1      -8.618  18.091 -12.517  1.00  0.00     0.006 C 
ENDROOT
BRANCH   1   2
ATOM      2  C   UNL     1      -9.182  16.665 -12.547  1.00  0.00     0.053 C 
BRANCH   2   3
ATOM      3  C   UNL     1      -8.102  15.637 -12.403  1.00  0.00     0.041 C 
ATOM      4  O   UNL     1      -8.044  14.661 -13.197  1.00  0.00    -0.550 OA
ATOM      5  O   UNL     1      -7.140  15.775 -11.411  1.00  0.00    -0.550 OA
ENDBRANCH   2   3
ENDBRANCH   1   2
BRANCH   1   6
ATOM      6  C   UNL     1      -7.726  18.390 -13.730  1.00  0.00     0.000 C 
BRANCH   6   7
ATOM      7  C   UNL     1      -7.748  19.884 -14.074  1.00  0.00    -0.000 C 
BRANCH   7   8
ATOM      8  C   UNL     1      -7.046  20.708 -12.988  1.00  0.00    -0.003 C 
ATOM      9  C   UNL     1      -5.532  20.691 -13.175  1.00  0.00     0.004 C 
ENDBRANCH   7   8
ENDBRANCH   6   7
ENDBRANCH   1   6
TORSDOF 5
ENDMDL
MODEL 4
REMARK VINA RESULT:    -3.396      2.897      4.764
REMARK INTER + INTRA:          -4.587
REMARK INTER:                  -4.296
REMARK INTRA:                  -0.291
REMARK UNBOUND:                -0.197
REMARK SMILES CCCCCCC(=O)[O-]
REMARK SMILES IDX 5 1 6 2 7 3 8 4 9 5 4 6 3 7 2 8 1 9
REMARK H PARENT
REMARK Flexibility Score: inf
ROOT
ATOM      1  C   UNL     1      -8.851  16.572 -12.449  1.00  0.00     0.006 C 
ENDROOT
BRANCH   1   2
ATOM      2  C   UNL     1      -8.546  17.234 -13.798  1.00  0.00     0.053 C 
BRANCH   2   3
ATOM      3  C   UNL     1      -8.007  18.621 -13.627  1.00  0.00     0.041 C 
ATOM      4  O   UNL     1      -7.674  19.036 -12.485  1.00  0.00    -0.550 OA
ATOM      5  O   UNL     1      -7.842  19.444 -14.733  1.00  0.00    -0.550 OA
ENDBRANCH   2   3
ENDBRANCH   1   2
BRANCH   1   6
ATOM      6  C   UNL     1      -7.899  15.406 -12.144  1.00  0.00     0.000 C 
BRANCH   6   7
ATOM      7  C   UNL     1      -7.227  14.896 -13.424  1.00  0.00    -0.000 C 
BRANCH   7   8
ATOM      8  C   UNL     1      -7.494  13.399 -13.625  1.00  0.00    -0.003 C 
ATOM      9  C   UNL     1      -8.481  13.163 -14.765  1.00  0.00     0.004 C 
ENDBRANCH   7   8
ENDBRANCH   6   7
ENDBRANCH   1   6
TORSDOF 5
ENDMDL
MODEL 5
REMARK VINA RESULT:    -3.373      2.747      4.755
REMARK INTER + INTRA:          -4.557
REMARK INTER:                  -4.368
REMARK INTRA:                  -0.189
REMARK UNBOUND:                -0.197
REMARK SMILES CCCCCCC(=O)[O-]
REMARK SMILES IDX 5 1 6 2 7 3 8 4 9 5 4 6 3 7 2 8 1 9
REMARK H PARENT
REMARK Flexibility Score: inf
ROOT
ATOM      1  C   UNL     1      -7.872  15.601 -12.110  1.00  0.00     0.006 C 
ENDROOT
BRANCH   1   2
ATOM      2  C   UNL     1      -8.998  16.513 -12.610  1.00  0.00     0.053 C 
BRANCH   2   3
ATOM      3  C   UNL     1      -8.472  17.631 -13.457  1.00  0.00     0.041 C 
ATOM      4  O   UNL     1      -8.613  17.601 -14.708  1.00  0.00    -0.550 OA
ATOM      5  O   UNL     1      -7.854  18.723 -12.860  1.00  0.00    -0.550 OA
ENDBRANCH   2   3
ENDBRANCH   1   2
BRANCH   1   6
ATOM      6  C   UNL     1      -7.119  14.919 -13.262  1.00  0.00     0.000 C 
BRANCH   6   7
ATOM      7  C   UNL     1      -7.368  13.406 -13.262  1.00  0.00    -0.000 C 
BRANCH   7   8
ATOM      8  C   UNL     1      -7.524  12.875 -14.692  1.00  0.00    -0.003 C 
ATOM      9  C   UNL     1      -8.987  12.879 -15.125  1.00  0.00     0.004 C 
ENDBRANCH   7   8
ENDBRANCH   6   7
ENDBRANCH   1   6
TORSDOF 5
ENDMDL
MODEL 6
REMARK VINA RESULT:    -3.327      2.326      4.573
REMARK INTER + INTRA:          -4.497
REMARK INTER:                  -4.080
REMARK INTRA:                  -0.417
REMARK UNBOUND:                -0.197
REMARK SMILES CCCCCCC(=O)[O-]
REMARK SMILES IDX 5 1 6 2 7 3 8 4 9 5 4 6 3 7 2 8 1 9
REMARK H PARENT
REMARK Flexibility Score: inf
ROOT
ATOM      1  C   UNL     1      -6.494  16.206 -14.400  1.00  0.00     0.006 C 
ENDROOT
BRANCH   1   2
ATOM      2  C   UNL     1      -7.884  16.845 -14.284  1.00  0.00     0.053 C 
BRANCH   2   3
ATOM      3  C   UNL     1      -8.509  16.575 -12.950  1.00  0.00     0.041 C 
ATOM      4  O   UNL     1      -9.763  16.544 -12.831  1.00  0.00    -0.550 OA
ATOM      5  O   UNL     1      -7.706  16.327 -11.845  1.00  0.00    -0.550 OA
ENDBRANCH   2   3
ENDBRANCH   1   2
BRANCH   1   6
ATOM      6  C   UNL     1      -6.544  14.819 -15.058  1.00  0.00     0.000 C 
BRANCH   6   7
ATOM      7  C   UNL     1      -6.267  13.714 -14.032  1.00  0.00    -0.000 C 
BRANCH   7   8
ATOM      8  C   UNL     1      -7.504  12.831 -13.828  1.00  0.00    -0.003 C 
ATOM      9  C   UNL     1      -8.560  13.106 -14.895  1.00  0.00     0.004 C 
ENDBRANCH   7   8
ENDBRANCH   6   7
ENDBRANCH   1   6
TORSDOF 5
ENDMDL
MODEL 7
REMARK VINA RESULT:    -3.113      2.326      2.872
REMARK INTER + INTRA:          -4.220
REMARK INTER:                  -3.855
REMARK INTRA:                  -0.365
REMARK UNBOUND:                -0.197
REMARK SMILES CCCCCCC(=O)[O-]
REMARK SMILES IDX 5 1 6 2 7 3 8 4 9 5 4 6 3 7 2 8 1 9
REMARK H PARENT
REMARK Flexibility Score: inf
ROOT
ATOM      1  C   UNL     1      -6.504  17.015 -13.902  1.00  0.00     0.006 C 
ENDROOT
BRANCH   1   2
ATOM      2  C   UNL     1      -8.003  17.174 -14.186  1.00  0.00     0.053 C 
BRANCH   2   3
ATOM      3  C   UNL     1      -8.815  17.116 -12.929  1.00  0.00     0.041 C 
ATOM      4  O   UNL     1      -9.926  16.522 -12.918  1.00  0.00    -0.550 OA
ATOM      5  O   UNL     1      -8.331  17.690 -11.761  1.00  0.00    -0.550 OA
ENDBRANCH   2   3
ENDBRANCH   1   2
BRANCH   1   6
ATOM      6  C   UNL     1      -5.690  18.228 -14.377  1.00  0.00     0.000 C 
BRANCH   6   7
ATOM      7  C   UNL     1      -6.611  19.358 -14.850  1.00  0.00    -0.000 C 
BRANCH   7   8
ATOM      8  C   UNL     1      -6.266  20.678 -14.152  1.00  0.00    -0.003 C 
ATOM      9  C   UNL     1      -6.984  20.796 -12.810  1.00  0.00     0.004 C 
ENDBRANCH   7   8
ENDBRANCH   6   7
ENDBRANCH   1   6
TORSDOF 5
ENDMDL
MODEL 8
REMARK VINA RESULT:    -2.854      2.083      2.526
REMARK INTER + INTRA:          -3.886
REMARK INTER:                  -3.482
REMARK INTRA:                  -0.403
REMARK UNBOUND:                -0.197
REMARK SMILES CCCCCCC(=O)[O-]
REMARK SMILES IDX 5 1 6 2 7 3 8 4 9 5 4 6 3 7 2 8 1 9
REMARK H PARENT
REMARK Flexibility Score: inf
ROOT
ATOM      1  C   UNL     1      -7.429  14.348 -11.911  1.00  0.00     0.006 C 
ENDROOT
BRANCH   1   2
ATOM      2  C   UNL     1      -7.324  13.565 -13.225  1.00  0.00     0.053 C 
BRANCH   2   3
ATOM      3  C   UNL     1      -5.904  13.446 -13.688  1.00  0.00     0.041 C 
ATOM      4  O   UNL     1      -5.549  13.958 -14.783  1.00  0.00    -0.550 OA
ATOM      5  O   UNL     1      -4.967  12.798 -12.894  1.00  0.00    -0.550 OA
ENDBRANCH   2   3
ENDBRANCH   1   2
BRANCH   1   6
ATOM      6  C   UNL     1      -7.750  15.833 -12.142  1.00  0.00     0.000 C 
BRANCH   6   7
ATOM      7  C   UNL     1      -8.550  16.028 -13.434  1.00  0.00    -0.000 C 
BRANCH   7   8
ATOM      8  C   UNL     1      -7.993  17.197 -14.255  1.00  0.00    -0.003 C 
ATOM      9  C   UNL     1      -6.491  17.359 -14.035  1.00  0.00     0.004 C 
ENDBRANCH   7   8
ENDBRANCH   6   7
ENDBRANCH   1   6
TORSDOF 5
ENDMDL
MODEL 9
REMARK VINA RESULT:    -2.817      3.201      4.651
REMARK INTER + INTRA:          -3.838
REMARK INTER:                  -3.502
REMARK INTRA:                  -0.336
REMARK UNBOUND:                -0.197
REMARK SMILES CCCCCCC(=O)[O-]
REMARK SMILES IDX 5 1 6 2 7 3 8 4 9 5 4 6 3 7 2 8 1 9
REMARK H PARENT
REMARK Flexibility Score: inf
ROOT
ATOM      1  C   UNL     1      -5.823  17.732 -14.168  1.00  0.00     0.006 C 
ENDROOT
BRANCH   1   2
ATOM      2  C   UNL     1      -5.967  19.185 -14.637  1.00  0.00     0.053 C 
BRANCH   2   3
ATOM      3  C   UNL     1      -7.100  19.882 -13.947  1.00  0.00     0.041 C 
ATOM      4  O   UNL     1      -8.067  20.334 -14.615  1.00  0.00    -0.550 OA
ATOM      5  O   UNL     1      -7.102  20.002 -12.564  1.00  0.00    -0.550 OA
ENDBRANCH   2   3
ENDBRANCH   1   2
BRANCH   1   6
ATOM      6  C   UNL     1      -7.112  16.923 -14.376  1.00  0.00     0.000 C 
BRANCH   6   7
ATOM      7  C   UNL     1      -7.135  15.684 -13.474  1.00  0.00    -0.000 C 
BRANCH   7   8
ATOM      8  C   UNL     1      -8.211  15.813 -12.389  1.00  0.00    -0.003 C 
ATOM      9  C   UNL     1      -9.143  16.987 -12.675  1.00  0.00     0.004 C 
ENDBRANCH   7   8
ENDBRANCH   6   7
ENDBRANCH   1   6
TORSDOF 5
ENDMDL
