MODEL 1
REMARK VINA RESULT:    -4.561      0.000      0.000
REMARK INTER + INTRA:          -5.872
REMARK INTER:                  -5.627
REMARK INTRA:                  -0.245
REMARK UNBOUND:                -0.245
REMARK SMILES CCCCC=CC(C)=O
REMARK SMILES IDX 4 1 3 2 2 3 1 4 5 5 6 6 7 7 9 8 8 9
REMARK H PARENT
REMARK Flexibility Score: inf
ROOT
ATOM      1  C   UNL     1      -7.509  30.114  23.924  1.00  0.00     0.027 C 
ENDROOT
BRANCH   1   2
ATOM      2  C   UNL     1      -7.147  29.024  22.909  1.00  0.00     0.004 C 
BRANCH   2   3
ATOM      3  C   UNL     1      -8.327  28.073  22.682  1.00  0.00    -0.003 C 
ATOM      4  C   UNL     1      -9.321  28.139  23.839  1.00  0.00     0.004 C 
ENDBRANCH   2   3
ENDBRANCH   1   2
BRANCH   1   5
ATOM      5  C   UNL     1      -7.561  31.468  23.274  1.00  0.00    -0.023 C 
ATOM      6  C   UNL     1      -7.915  31.615  21.992  1.00  0.00     0.042 C 
BRANCH   6   7
ATOM      7  C   UNL     1      -7.960  32.933  21.333  1.00  0.00     0.152 C 
ATOM      8  O   UNL     1      -8.627  33.881  21.830  1.00  0.00    -0.295 OA
ATOM      9  C   UNL     1      -7.208  33.148  20.059  1.00  0.00     0.093 C 
ENDBRANCH   6   7
ENDBRANCH   1   5
TORSDOF 4
ENDMDL
MODEL 2
REMARK VINA RESULT:    -4.548      2.487      4.803
REMARK INTER + INTRA:          -5.856
REMARK INTER:                  -5.593
REMARK INTRA:                  -0.263
REMARK UNBOUND:                -0.245
REMARK SMILES CCCCC=CC(C)=O
REMARK SMILES IDX 4 1 3 2 2 3 1 4 5 5 6 6 7 7 9 8 8 9
REMARK H PARENT
REMARK Flexibility Score: inf
ROOT
ATOM      1  C   UNL     1      -8.408  33.590  21.247  1.00  0.00     0.027 C 
ENDROOT
BRANCH   1   2
ATOM      2  C   UNL     1      -7.715  34.763  21.950  1.00  0.00     0.004 C 
BRANCH   2   3
ATOM      3  C   UNL     1      -7.444  34.437  23.422  1.00  0.00    -0.003 C 
ATOM      4  C   UNL     1      -8.373  35.224  24.343  1.00  0.00     0.004 C 
ENDBRANCH   2   3
ENDBRANCH   1   2
BRANCH   1   5
ATOM      5  C   UNL     1      -7.894  32.272  21.752  1.00  0.00    -0.023 C 
ATOM      6  C   UNL     1      -8.677  31.188  21.801  1.00  0.00     0.042 C 
BRANCH   6   7
ATOM      7  C   UNL     1      -8.195  29.889  22.305  1.00  0.00     0.152 C 
ATOM      8  O   UNL     1      -8.828  28.826  22.063  1.00  0.00    -0.295 OA
ATOM      9  C   UNL     1      -6.939  29.831  23.116  1.00  0.00     0.093 C 
ENDBRANCH   6   7
ENDBRANCH   1   5
TORSDOF 4
ENDMDL
MODEL 3
REMARK VINA RESULT:    -4.525      2.237      4.886
REMARK INTER + INTRA:          -5.828
REMARK INTER:                  -5.589
REMARK INTRA:                  -0.239
REMARK UNBOUND:                -0.245
REMARK SMILES CCCCC=CC(C)=O
REMARK SMILES IDX 4 1 3 2 2 3 1 4 5 5 6 6 7 7 9 8 8 9
REMARK H PARENT
REMARK Flexibility Score: inf
ROOT
ATOM      1  C   UNL     1      -8.965  32.904  21.581  1.00  0.00     0.027 C 
ENDROOT
BRANCH   1   2
ATOM      2  C   UNL     1      -7.868  33.836  21.054  1.00  0.00     0.004 C 
BRANCH   2   3
ATOM      3  C   UNL     1      -7.619  34.995  22.026  1.00  0.00    -0.003 C 
ATOM      4  C   UNL     1      -7.463  34.491  23.458  1.00  0.00     0.004 C 
ENDBRANCH   2   3
ENDBRANCH   1   2
BRANCH   1   5
ATOM      5  C   UNL     1      -8.503  31.475  21.597  1.00  0.00    -0.023 C 
ATOM      6  C   UNL     1      -8.378  30.794  22.741  1.00  0.00     0.042 C 
BRANCH   6   7
ATOM      7  C   UNL     1      -7.914  29.395  22.779  1.00  0.00     0.152 C 
ATOM      8  O   UNL     1      -6.729  29.115  23.105  1.00  0.00    -0.295 OA
ATOM      9  C   UNL     1      -8.861  28.293  22.424  1.00  0.00     0.093 C 
ENDBRANCH   6   7
ENDBRANCH   1   5
TORSDOF 4
ENDMDL
MODEL 4
REMARK VINA RESULT:    -4.490      1.698      1.975
REMARK INTER + INTRA:          -5.786
REMARK INTER:                  -5.611
REMARK INTRA:                  -0.175
REMARK UNBOUND:                -0.245
REMARK SMILES CCCCC=CC(C)=O
REMARK SMILES IDX 4 1 3 2 2 3 1 4 5 5 6 6 7 7 9 8 8 9
REMARK H PARENT
REMARK Flexibility Score: inf
ROOT
ATOM      1  C   UNL     1      -7.127  30.677  24.171  1.00  0.00     0.027 C 
ENDROOT
BRANCH   1   2
ATOM      2  C   UNL     1      -6.969  29.567  23.126  1.00  0.00     0.004 C 
BRANCH   2   3
ATOM      3  C   UNL     1      -8.282  29.331  22.372  1.00  0.00    -0.003 C 
ATOM      4  C   UNL     1      -8.728  27.875  22.482  1.00  0.00     0.004 C 
ENDBRANCH   2   3
ENDBRANCH   1   2
BRANCH   1   5
ATOM      5  C   UNL     1      -7.522  31.976  23.529  1.00  0.00    -0.023 C 
ATOM      6  C   UNL     1      -7.499  33.128  24.210  1.00  0.00     0.042 C 
BRANCH   6   7
ATOM      7  C   UNL     1      -7.895  34.411  23.601  1.00  0.00     0.152 C 
ATOM      8  O   UNL     1      -8.256  35.383  24.319  1.00  0.00    -0.295 OA
ATOM      9  C   UNL     1      -7.869  34.563  22.114  1.00  0.00     0.093 C 
ENDBRANCH   6   7
ENDBRANCH   1   5
TORSDOF 4
ENDMDL
MODEL 5
REMARK VINA RESULT:    -4.467     16.175     17.221
REMARK INTER + INTRA:          -5.757
REMARK INTER:                  -5.503
REMARK INTRA:                  -0.254
REMARK UNBOUND:                -0.245
REMARK SMILES CCCCC=CC(C)=O
REMARK SMILES IDX 4 1 3 2 2 3 1 4 5 5 6 6 7 7 9 8 8 9
REMARK H PARENT
REMARK Flexibility Score: inf
ROOT
ATOM      1  C   UNL     1       6.889  32.378  28.568  1.00  0.00     0.027 C 
ENDROOT
BRANCH   1   2
ATOM      2  C   UNL     1       8.264  32.897  29.004  1.00  0.00     0.004 C 
BRANCH   2   3
ATOM      3  C   UNL     1       9.207  33.029  27.803  1.00  0.00    -0.003 C 
ATOM      4  C   UNL     1      10.124  31.814  27.685  1.00  0.00     0.004 C 
ENDBRANCH   2   3
ENDBRANCH   1   2
BRANCH   1   5
ATOM      5  C   UNL     1       6.776  30.895  28.775  1.00  0.00    -0.023 C 
ATOM      6  C   UNL     1       6.931  30.034  27.762  1.00  0.00     0.042 C 
BRANCH   6   7
ATOM      7  C   UNL     1       6.812  28.575  27.943  1.00  0.00     0.152 C 
ATOM      8  O   UNL     1       6.149  27.875  27.130  1.00  0.00    -0.295 OA
ATOM      9  C   UNL     1       7.485  27.917  29.105  1.00  0.00     0.093 C 
ENDBRANCH   6   7
ENDBRANCH   1   5
TORSDOF 4
ENDMDL
MODEL 6
REMARK VINA RESULT:    -4.368      3.081      4.720
REMARK INTER + INTRA:          -5.634
REMARK INTER:                  -5.431
REMARK INTRA:                  -0.204
REMARK UNBOUND:                -0.245
REMARK SMILES CCCCC=CC(C)=O
REMARK SMILES IDX 4 1 3 2 2 3 1 4 5 5 6 6 7 7 9 8 8 9
REMARK H PARENT
REMARK Flexibility Score: inf
ROOT
ATOM      1  C   UNL     1      -7.550  34.742  21.666  1.00  0.00     0.027 C 
ENDROOT
BRANCH   1   2
ATOM      2  C   UNL     1      -7.803  33.477  20.840  1.00  0.00     0.004 C 
BRANCH   2   3
ATOM      3  C   UNL     1      -9.071  32.757  21.312  1.00  0.00    -0.003 C 
ATOM      4  C   UNL     1      -8.770  31.318  21.721  1.00  0.00     0.004 C 
ENDBRANCH   2   3
ENDBRANCH   1   2
BRANCH   1   5
ATOM      5  C   UNL     1      -8.113  34.609  23.052  1.00  0.00    -0.023 C 
ATOM      6  C   UNL     1      -7.338  34.732  24.136  1.00  0.00     0.042 C 
BRANCH   6   7
ATOM      7  C   UNL     1      -7.869  34.592  25.505  1.00  0.00     0.152 C 
ATOM      8  O   UNL     1      -7.698  33.527  26.158  1.00  0.00    -0.295 OA
ATOM      9  C   UNL     1      -8.620  35.726  26.125  1.00  0.00     0.093 C 
ENDBRANCH   6   7
ENDBRANCH   1   5
TORSDOF 4
ENDMDL
MODEL 7
REMARK VINA RESULT:    -4.349      1.307      1.805
REMARK INTER + INTRA:          -5.611
REMARK INTER:                  -5.382
REMARK INTRA:                  -0.230
REMARK UNBOUND:                -0.245
REMARK SMILES CCCCC=CC(C)=O
REMARK SMILES IDX 4 1 3 2 2 3 1 4 5 5 6 6 7 7 9 8 8 9
REMARK H PARENT
REMARK Flexibility Score: inf
ROOT
ATOM      1  C   UNL     1      -7.189  29.647  23.067  1.00  0.00     0.027 C 
ENDROOT
BRANCH   1   2
ATOM      2  C   UNL     1      -8.444  29.291  22.263  1.00  0.00     0.004 C 
BRANCH   2   3
ATOM      3  C   UNL     1      -8.946  27.888  22.621  1.00  0.00    -0.003 C 
ATOM      4  C   UNL     1      -9.618  27.876  23.992  1.00  0.00     0.004 C 
ENDBRANCH   2   3
ENDBRANCH   1   2
BRANCH   1   5
ATOM      5  C   UNL     1      -7.184  31.098  23.454  1.00  0.00    -0.023 C 
ATOM      6  C   UNL     1      -7.825  32.019  22.724  1.00  0.00     0.042 C 
BRANCH   6   7
ATOM      7  C   UNL     1      -7.822  33.449  23.081  1.00  0.00     0.152 C 
ATOM      8  O   UNL     1      -7.998  34.335  22.200  1.00  0.00    -0.295 OA
ATOM      9  C   UNL     1      -7.605  33.856  24.503  1.00  0.00     0.093 C 
ENDBRANCH   6   7
ENDBRANCH   1   5
TORSDOF 4
ENDMDL
MODEL 8
REMARK VINA RESULT:    -4.313      2.328      4.729
REMARK INTER + INTRA:          -5.567
REMARK INTER:                  -5.336
REMARK INTRA:                  -0.231
REMARK UNBOUND:                -0.245
REMARK SMILES CCCCC=CC(C)=O
REMARK SMILES IDX 4 1 3 2 2 3 1 4 5 5 6 6 7 7 9 8 8 9
REMARK H PARENT
REMARK Flexibility Score: inf
ROOT
ATOM      1  C   UNL     1      -7.778  33.981  23.655  1.00  0.00     0.027 C 
ENDROOT
BRANCH   1   2
ATOM      2  C   UNL     1      -7.910  34.541  22.234  1.00  0.00     0.004 C 
BRANCH   2   3
ATOM      3  C   UNL     1      -8.259  33.431  21.237  1.00  0.00    -0.003 C 
ATOM      4  C   UNL     1      -7.288  33.421  20.059  1.00  0.00     0.004 C 
ENDBRANCH   2   3
ENDBRANCH   1   2
BRANCH   1   5
ATOM      5  C   UNL     1      -7.451  32.515  23.634  1.00  0.00    -0.023 C 
ATOM      6  C   UNL     1      -8.170  31.628  24.331  1.00  0.00     0.042 C 
BRANCH   6   7
ATOM      7  C   UNL     1      -7.857  30.188  24.333  1.00  0.00     0.152 C 
ATOM      8  O   UNL     1      -8.320  29.427  25.227  1.00  0.00    -0.295 OA
ATOM      9  C   UNL     1      -6.980  29.620  23.264  1.00  0.00     0.093 C 
ENDBRANCH   6   7
ENDBRANCH   1   5
TORSDOF 4
ENDMDL
MODEL 9
REMARK VINA RESULT:    -4.273      2.807      4.783
REMARK INTER + INTRA:          -5.517
REMARK INTER:                  -5.302
REMARK INTRA:                  -0.215
REMARK UNBOUND:                -0.245
REMARK SMILES CCCCC=CC(C)=O
REMARK SMILES IDX 4 1 3 2 2 3 1 4 5 5 6 6 7 7 9 8 8 9
REMARK H PARENT
REMARK Flexibility Score: inf
ROOT
ATOM      1  C   UNL     1      -7.833  34.724  22.689  1.00  0.00     0.027 C 
ENDROOT
BRANCH   1   2
ATOM      2  C   UNL     1      -7.154  34.596  24.057  1.00  0.00     0.004 C 
BRANCH   2   3
ATOM      3  C   UNL     1      -8.190  34.612  25.187  1.00  0.00    -0.003 C 
ATOM      4  C   UNL     1      -8.898  35.962  25.267  1.00  0.00     0.004 C 
ENDBRANCH   2   3
ENDBRANCH   1   2
BRANCH   1   5
ATOM      5  C   UNL     1      -8.637  33.498  22.363  1.00  0.00    -0.023 C 
ATOM      6  C   UNL     1      -8.047  32.343  22.032  1.00  0.00     0.042 C 
BRANCH   6   7
ATOM      7  C   UNL     1      -8.819  31.132  21.697  1.00  0.00     0.152 C 
ATOM      8  O   UNL     1      -9.762  31.178  20.861  1.00  0.00    -0.295 OA
ATOM      9  C   UNL     1      -8.480  29.834  22.357  1.00  0.00     0.093 C 
ENDBRANCH   6   7
ENDBRANCH   1   5
TORSDOF 4
ENDMDL
