MODEL 1
REMARK VINA RESULT:    -6.928      0.000      0.000
REMARK INTER + INTRA:         -11.507
REMARK INTER:                  -9.560
REMARK INTRA:                  -1.947
REMARK UNBOUND:                -1.947
REMARK SMILES C=C(CC[C@@H](C(=O)[O-])[C@H]1CC[C@]2(C)C3=C(CC[C@@]12C)[C@@]1(C)CC[C@H](O)C(C)(C)[C@H]1CC3)C(C)C
REMARK SMILES IDX 4 1 5 2 6 3 7 4 8 5 9 6 10 7 18 8 11 9 12 10 17 11 19 12
REMARK SMILES IDX 13 13 14 14 16 15 15 16 31 17 20 18 30 19 29 20 22 21 21 22
REMARK SMILES IDX 26 23 23 24 24 25 27 26 28 27 25 28 3 30 2 31 1 32 32 33
REMARK SMILES IDX 33 34 34 35
REMARK H PARENT 25 29
REMARK Flexibility Score: inf
ROOT
ATOM      1  C   UNL     1      49.140   1.137  21.977  1.00  0.00     0.014 C 
ENDROOT
BRANCH   1   2
ATOM      2  C   UNL     1      49.138   2.084  23.218  1.00  0.00     0.039 C 
BRANCH   2   3
ATOM      3  C   UNL     1      49.816   1.366  24.362  1.00  0.00     0.045 C 
ATOM      4  O   UNL     1      49.601   1.713  25.554  1.00  0.00    -0.550 OA
ATOM      5  O   UNL     1      50.727   0.350  24.102  1.00  0.00    -0.550 OA
ENDBRANCH   2   3
BRANCH   2   6
ATOM      6  C   UNL     1      49.822   3.466  22.938  1.00  0.00     0.004 C 
ATOM      7  C   UNL     1      50.182   3.704  21.445  1.00  0.00     0.006 C 
ATOM      8  C   UNL     1      49.027   4.759  23.354  1.00  0.00    -0.020 C 
ATOM      9  C   UNL     1      49.663   5.095  21.063  1.00  0.00     0.012 C 
ATOM     10  C   UNL     1      48.484   5.334  22.013  1.00  0.00    -0.006 C 
ATOM     11  C   UNL     1      47.830   4.634  24.320  1.00  0.00     0.012 C 
ATOM     12  C   UNL     1      50.072   5.708  24.043  1.00  0.00     0.012 C 
ATOM     13  C   UNL     1      47.251   4.580  21.412  1.00  0.00     0.017 C 
ATOM     14  C   UNL     1      48.030   6.772  22.236  1.00  0.00    -0.064 C 
ATOM     15  C   UNL     1      46.994   5.949  24.395  1.00  0.00     0.032 C 
ATOM     16  C   UNL     1      47.265   7.059  23.338  1.00  0.00    -0.064 C 
ATOM     17  C   UNL     1      48.217   7.770  21.128  1.00  0.00     0.032 C 
ATOM     18  C   UNL     1      46.693   8.490  23.607  1.00  0.00    -0.008 C 
ATOM     19  C   UNL     1      48.167   9.195  21.638  1.00  0.00     0.009 C 
ATOM     20  C   UNL     1      46.824   9.466  22.354  1.00  0.00     0.007 C 
ATOM     21  C   UNL     1      47.475   9.079  24.817  1.00  0.00     0.014 C 
ATOM     22  C   UNL     1      45.196   8.303  23.976  1.00  0.00     0.016 C 
ATOM     23  C   UNL     1      46.612  11.026  22.660  1.00  0.00    -0.006 C 
ATOM     24  C   UNL     1      47.145  10.539  25.127  1.00  0.00     0.033 C 
ATOM     25  C   UNL     1      47.418  11.448  23.923  1.00  0.00     0.120 C 
ATOM     26  C   UNL     1      47.108  11.908  21.473  1.00  0.00     0.014 C 
ATOM     27  C   UNL     1      45.098  11.377  22.824  1.00  0.00     0.014 C 
BRANCH  25  28
ATOM     28  O   UNL     1      47.119  12.779  24.266  1.00  0.00    -0.393 OA
ATOM     29  H   UNL     1      47.202  12.850  25.253  1.00  0.00     0.210 HD
ENDBRANCH  25  28
ENDBRANCH   2   6
ENDBRANCH   1   2
BRANCH   1  30
ATOM     30  C   UNL     1      47.866   0.277  21.866  1.00  0.00     0.031 C 
BRANCH  30  31
ATOM     31  C   UNL     1      46.752   0.962  21.096  1.00  0.00    -0.075 C 
ATOM     32  C   UNL     1      47.009   1.459  19.871  1.00  0.00     0.008 C 
BRANCH  31  33
ATOM     33  C   UNL     1      45.395   1.175  21.759  1.00  0.00     0.008 C 
ATOM     34  C   UNL     1      44.477   2.078  20.924  1.00  0.00     0.012 C 
ATOM     35  C   UNL     1      45.565   1.730  23.177  1.00  0.00     0.012 C 
ENDBRANCH  31  33
ENDBRANCH  30  31
ENDBRANCH   1  30
TORSDOF 7
ENDMDL
MODEL 2
REMARK VINA RESULT:    -6.835      2.385      8.588
REMARK INTER + INTRA:         -11.379
REMARK INTER:                  -9.612
REMARK INTRA:                  -1.768
REMARK UNBOUND:                -1.947
REMARK SMILES C=C(CC[C@@H](C(=O)[O-])[C@H]1CC[C@]2(C)C3=C(CC[C@@]12C)[C@@]1(C)CC[C@H](O)C(C)(C)[C@H]1CC3)C(C)C
REMARK SMILES IDX 4 1 5 2 6 3 7 4 8 5 9 6 10 7 18 8 11 9 12 10 17 11 19 12
REMARK SMILES IDX 13 13 14 14 16 15 15 16 31 17 20 18 30 19 29 20 22 21 21 22
REMARK SMILES IDX 26 23 23 24 24 25 27 26 28 27 25 28 3 30 2 31 1 32 32 33
REMARK SMILES IDX 33 34 34 35
REMARK H PARENT 25 29
REMARK Flexibility Score: inf
ROOT
ATOM      1  C   UNL     1      47.945   8.674  22.701  1.00  0.00     0.014 C 
ENDROOT
BRANCH   1   2
ATOM      2  C   UNL     1      47.068   7.383  22.656  1.00  0.00     0.039 C 
BRANCH   2   3
ATOM      3  C   UNL     1      45.644   7.788  22.353  1.00  0.00     0.045 C 
ATOM      4  O   UNL     1      45.398   8.866  21.749  1.00  0.00    -0.550 OA
ATOM      5  O   UNL     1      44.589   6.998  22.792  1.00  0.00    -0.550 OA
ENDBRANCH   2   3
BRANCH   2   6
ATOM      6  C   UNL     1      47.584   6.325  21.621  1.00  0.00     0.004 C 
ATOM      7  C   UNL     1      49.006   6.619  21.069  1.00  0.00     0.006 C 
ATOM      8  C   UNL     1      47.659   4.827  22.102  1.00  0.00    -0.020 C 
ATOM      9  C   UNL     1      49.820   5.325  21.180  1.00  0.00     0.012 C 
ATOM     10  C   UNL     1      49.174   4.571  22.348  1.00  0.00    -0.006 C 
ATOM     11  C   UNL     1      46.906   4.403  23.380  1.00  0.00     0.012 C 
ATOM     12  C   UNL     1      47.079   3.965  20.924  1.00  0.00     0.012 C 
ATOM     13  C   UNL     1      49.752   5.185  23.666  1.00  0.00     0.017 C 
ATOM     14  C   UNL     1      49.415   3.069  22.444  1.00  0.00    -0.064 C 
ATOM     15  C   UNL     1      47.317   2.978  23.861  1.00  0.00     0.032 C 
ATOM     16  C   UNL     1      48.569   2.313  23.216  1.00  0.00    -0.064 C 
ATOM     17  C   UNL     1      50.699   2.505  21.903  1.00  0.00     0.032 C 
ATOM     18  C   UNL     1      48.783   0.778  23.432  1.00  0.00    -0.008 C 
ATOM     19  C   UNL     1      50.596   1.017  21.642  1.00  0.00     0.009 C 
ATOM     20  C   UNL     1      50.209   0.266  22.937  1.00  0.00     0.007 C 
ATOM     21  C   UNL     1      47.659   0.041  22.650  1.00  0.00     0.014 C 
ATOM     22  C   UNL     1      48.631   0.524  24.957  1.00  0.00     0.016 C 
ATOM     23  C   UNL     1      50.363  -1.322  22.777  1.00  0.00    -0.006 C 
ATOM     24  C   UNL     1      47.801  -1.480  22.629  1.00  0.00     0.033 C 
ATOM     25  C   UNL     1      49.139  -1.914  22.019  1.00  0.00     0.120 C 
ATOM     26  C   UNL     1      51.640  -1.688  21.961  1.00  0.00     0.014 C 
ATOM     27  C   UNL     1      50.550  -2.021  24.163  1.00  0.00     0.014 C 
BRANCH  25  28
ATOM     28  O   UNL     1      49.212  -3.319  22.004  1.00  0.00    -0.393 OA
ATOM     29  H   UNL     1      50.169  -3.561  22.123  1.00  0.00     0.210 HD
ENDBRANCH  25  28
ENDBRANCH   2   6
ENDBRANCH   1   2
BRANCH   1  30
ATOM     30  C   UNL     1      48.083   9.267  24.117  1.00  0.00     0.031 C 
BRANCH  30  31
ATOM     31  C   UNL     1      49.040   8.483  24.997  1.00  0.00    -0.075 C 
ATOM     32  C   UNL     1      50.363   8.556  24.758  1.00  0.00     0.008 C 
BRANCH  31  33
ATOM     33  C   UNL     1      48.487   7.545  26.065  1.00  0.00     0.008 C 
ATOM     34  C   UNL     1      47.338   8.182  26.859  1.00  0.00     0.012 C 
ATOM     35  C   UNL     1      49.603   7.072  27.002  1.00  0.00     0.012 C 
ENDBRANCH  31  33
ENDBRANCH  30  31
ENDBRANCH   1  30
TORSDOF 7
ENDMDL
MODEL 3
REMARK VINA RESULT:    -6.705      2.244      4.354
REMARK INTER + INTRA:         -11.199
REMARK INTER:                  -9.247
REMARK INTRA:                  -1.953
REMARK UNBOUND:                -1.947
REMARK SMILES C=C(CC[C@@H](C(=O)[O-])[C@H]1CC[C@]2(C)C3=C(CC[C@@]12C)[C@@]1(C)CC[C@H](O)C(C)(C)[C@H]1CC3)C(C)C
REMARK SMILES IDX 4 1 5 2 6 3 7 4 8 5 9 6 10 7 18 8 11 9 12 10 17 11 19 12
REMARK SMILES IDX 13 13 14 14 16 15 15 16 31 17 20 18 30 19 29 20 22 21 21 22
REMARK SMILES IDX 26 23 23 24 24 25 27 26 28 27 25 28 3 30 2 31 1 32 32 33
REMARK SMILES IDX 33 34 34 35
REMARK H PARENT 25 29
REMARK Flexibility Score: inf
ROOT
ATOM      1  C   UNL     1      48.842  -1.667  23.465  1.00  0.00     0.014 C 
ENDROOT
BRANCH   1   2
ATOM      2  C   UNL     1      49.781  -0.570  22.873  1.00  0.00     0.039 C 
BRANCH   2   3
ATOM      3  C   UNL     1      51.029  -1.245  22.351  1.00  0.00     0.045 C 
ATOM      4  O   UNL     1      51.930  -0.575  21.781  1.00  0.00    -0.550 OA
ATOM      5  O   UNL     1      51.163  -2.625  22.448  1.00  0.00    -0.550 OA
ENDBRANCH   2   3
BRANCH   2   6
ATOM      6  C   UNL     1      49.096   0.288  21.753  1.00  0.00     0.004 C 
ATOM      7  C   UNL     1      47.552   0.123  21.685  1.00  0.00     0.006 C 
ATOM      8  C   UNL     1      49.316   1.846  21.806  1.00  0.00    -0.020 C 
ATOM      9  C   UNL     1      46.941   1.528  21.639  1.00  0.00     0.012 C 
ATOM     10  C   UNL     1      47.972   2.413  22.349  1.00  0.00    -0.006 C 
ATOM     11  C   UNL     1      50.448   2.422  22.682  1.00  0.00     0.012 C 
ATOM     12  C   UNL     1      49.611   2.291  20.328  1.00  0.00     0.012 C 
ATOM     13  C   UNL     1      47.745   2.237  23.888  1.00  0.00     0.017 C 
ATOM     14  C   UNL     1      47.923   3.913  22.087  1.00  0.00    -0.064 C 
ATOM     15  C   UNL     1      50.341   3.970  22.840  1.00  0.00     0.032 C 
ATOM     16  C   UNL     1      49.029   4.671  22.378  1.00  0.00    -0.064 C 
ATOM     17  C   UNL     1      46.601   4.548  21.757  1.00  0.00     0.032 C 
ATOM     18  C   UNL     1      49.044   6.227  22.210  1.00  0.00    -0.008 C 
ATOM     19  C   UNL     1      46.773   5.891  21.079  1.00  0.00     0.009 C 
ATOM     20  C   UNL     1      47.595   6.848  21.974  1.00  0.00     0.007 C 
ATOM     21  C   UNL     1      49.960   6.550  20.996  1.00  0.00     0.014 C 
ATOM     22  C   UNL     1      49.659   6.803  23.515  1.00  0.00     0.016 C 
ATOM     23  C   UNL     1      47.563   8.355  21.428  1.00  0.00    -0.006 C 
ATOM     24  C   UNL     1      49.972   8.025  20.594  1.00  0.00     0.033 C 
ATOM     25  C   UNL     1      48.566   8.528  20.249  1.00  0.00     0.120 C 
ATOM     26  C   UNL     1      46.147   8.734  20.896  1.00  0.00     0.014 C 
ATOM     27  C   UNL     1      47.860   9.383  22.567  1.00  0.00     0.014 C 
BRANCH  25  28
ATOM     28  O   UNL     1      48.634   9.881  19.868  1.00  0.00    -0.393 OA
ATOM     29  H   UNL     1      47.749  10.119  19.483  1.00  0.00     0.210 HD
ENDBRANCH  25  28
ENDBRANCH   2   6
ENDBRANCH   1   2
BRANCH   1  30
ATOM     30  C   UNL     1      48.999  -1.845  24.988  1.00  0.00     0.031 C 
BRANCH  30  31
ATOM     31  C   UNL     1      48.058  -0.963  25.788  1.00  0.00    -0.075 C 
ATOM     32  C   UNL     1      46.755  -0.919  25.454  1.00  0.00     0.008 C 
BRANCH  31  33
ATOM     33  C   UNL     1      48.618  -0.061  26.883  1.00  0.00     0.008 C 
ATOM     34  C   UNL     1      47.580   0.952  27.388  1.00  0.00     0.012 C 
ATOM     35  C   UNL     1      49.888   0.651  26.405  1.00  0.00     0.012 C 
ENDBRANCH  31  33
ENDBRANCH  30  31
ENDBRANCH   1  30
TORSDOF 7
ENDMDL
MODEL 4
REMARK VINA RESULT:    -6.670      1.855      8.211
REMARK INTER + INTRA:         -11.151
REMARK INTER:                  -9.134
REMARK INTRA:                  -2.016
REMARK UNBOUND:                -1.947
REMARK SMILES C=C(CC[C@@H](C(=O)[O-])[C@H]1CC[C@]2(C)C3=C(CC[C@@]12C)[C@@]1(C)CC[C@H](O)C(C)(C)[C@H]1CC3)C(C)C
REMARK SMILES IDX 4 1 5 2 6 3 7 4 8 5 9 6 10 7 18 8 11 9 12 10 17 11 19 12
REMARK SMILES IDX 13 13 14 14 16 15 15 16 31 17 20 18 30 19 29 20 22 21 21 22
REMARK SMILES IDX 26 23 23 24 24 25 27 26 28 27 25 28 3 30 2 31 1 32 32 33
REMARK SMILES IDX 33 34 34 35
REMARK H PARENT 25 29
REMARK Flexibility Score: inf
ROOT
ATOM      1  C   UNL     1      47.752  10.844  23.881  1.00  0.00     0.014 C 
ENDROOT
BRANCH   1   2
ATOM      2  C   UNL     1      47.364   9.959  22.655  1.00  0.00     0.039 C 
BRANCH   2   3
ATOM      3  C   UNL     1      47.143  10.867  21.467  1.00  0.00     0.045 C 
ATOM      4  O   UNL     1      46.367  11.856  21.551  1.00  0.00    -0.550 OA
ATOM      5  O   UNL     1      47.754  10.582  20.252  1.00  0.00    -0.550 OA
ENDBRANCH   2   3
BRANCH   2   6
ATOM      6  C   UNL     1      48.430   8.857  22.329  1.00  0.00     0.004 C 
ATOM      7  C   UNL     1      49.525   8.693  23.420  1.00  0.00     0.006 C 
ATOM      8  C   UNL     1      47.901   7.394  22.090  1.00  0.00    -0.020 C 
ATOM      9  C   UNL     1      49.644   7.197  23.730  1.00  0.00     0.012 C 
ATOM     10  C   UNL     1      48.259   6.630  23.398  1.00  0.00    -0.006 C 
ATOM     11  C   UNL     1      46.399   7.166  21.819  1.00  0.00     0.012 C 
ATOM     12  C   UNL     1      48.678   6.853  20.837  1.00  0.00     0.012 C 
ATOM     13  C   UNL     1      47.334   6.930  24.624  1.00  0.00     0.017 C 
ATOM     14  C   UNL     1      48.146   5.131  23.144  1.00  0.00    -0.064 C 
ATOM     15  C   UNL     1      46.010   5.658  21.891  1.00  0.00     0.032 C 
ATOM     16  C   UNL     1      47.044   4.654  22.480  1.00  0.00    -0.064 C 
ATOM     17  C   UNL     1      49.106   4.205  23.837  1.00  0.00     0.032 C 
ATOM     18  C   UNL     1      46.809   3.126  22.241  1.00  0.00    -0.008 C 
ATOM     19  C   UNL     1      49.185   2.857  23.151  1.00  0.00     0.009 C 
ATOM     20  C   UNL     1      47.787   2.198  23.091  1.00  0.00     0.007 C 
ATOM     21  C   UNL     1      47.017   2.860  20.723  1.00  0.00     0.014 C 
ATOM     22  C   UNL     1      45.334   2.841  22.639  1.00  0.00     0.016 C 
ATOM     23  C   UNL     1      47.867   0.664  22.632  1.00  0.00    -0.006 C 
ATOM     24  C   UNL     1      46.970   1.383  20.333  1.00  0.00     0.033 C 
ATOM     25  C   UNL     1      48.026   0.566  21.086  1.00  0.00     0.120 C 
ATOM     26  C   UNL     1      49.092  -0.056  23.273  1.00  0.00     0.014 C 
ATOM     27  C   UNL     1      46.619  -0.144  23.115  1.00  0.00     0.014 C 
BRANCH  25  28
ATOM     28  O   UNL     1      47.955  -0.778  20.677  1.00  0.00    -0.393 OA
ATOM     29  H   UNL     1      48.616  -0.894  19.944  1.00  0.00     0.210 HD
ENDBRANCH  25  28
ENDBRANCH   2   6
ENDBRANCH   1   2
BRANCH   1  30
ATOM     30  C   UNL     1      46.916  10.541  25.139  1.00  0.00     0.031 C 
BRANCH  30  31
ATOM     31  C   UNL     1      45.422  10.521  24.869  1.00  0.00    -0.075 C 
ATOM     32  C   UNL     1      44.771  11.685  24.688  1.00  0.00     0.008 C 
BRANCH  31  33
ATOM     33  C   UNL     1      44.665   9.197  24.913  1.00  0.00     0.008 C 
ATOM     34  C   UNL     1      43.718   9.030  23.717  1.00  0.00     0.012 C 
ATOM     35  C   UNL     1      43.906   9.050  26.236  1.00  0.00     0.012 C 
ENDBRANCH  31  33
ENDBRANCH  30  31
ENDBRANCH   1  30
TORSDOF 7
ENDMDL
MODEL 5
REMARK VINA RESULT:    -6.640      1.974      3.860
REMARK INTER + INTRA:         -11.110
REMARK INTER:                  -9.359
REMARK INTRA:                  -1.751
REMARK UNBOUND:                -1.947
REMARK SMILES C=C(CC[C@@H](C(=O)[O-])[C@H]1CC[C@]2(C)C3=C(CC[C@@]12C)[C@@]1(C)CC[C@H](O)C(C)(C)[C@H]1CC3)C(C)C
REMARK SMILES IDX 4 1 5 2 6 3 7 4 8 5 9 6 10 7 18 8 11 9 12 10 17 11 19 12
REMARK SMILES IDX 13 13 14 14 16 15 15 16 31 17 20 18 30 19 29 20 22 21 21 22
REMARK SMILES IDX 26 23 23 24 24 25 27 26 28 27 25 28 3 30 2 31 1 32 32 33
REMARK SMILES IDX 33 34 34 35
REMARK H PARENT 25 29
REMARK Flexibility Score: inf
ROOT
ATOM      1  C   UNL     1      49.713   1.152  21.951  1.00  0.00     0.014 C 
ENDROOT
BRANCH   1   2
ATOM      2  C   UNL     1      48.223   1.614  21.994  1.00  0.00     0.039 C 
BRANCH   2   3
ATOM      3  C   UNL     1      47.351   0.387  22.129  1.00  0.00     0.045 C 
ATOM      4  O   UNL     1      47.782  -0.747  21.787  1.00  0.00    -0.550 OA
ATOM      5  O   UNL     1      46.043   0.511  22.580  1.00  0.00    -0.550 OA
ENDBRANCH   2   3
BRANCH   2   6
ATOM      6  C   UNL     1      47.930   2.641  23.142  1.00  0.00     0.004 C 
ATOM      7  C   UNL     1      49.167   2.981  24.019  1.00  0.00     0.006 C 
ATOM      8  C   UNL     1      47.357   4.046  22.721  1.00  0.00    -0.020 C 
ATOM      9  C   UNL     1      49.244   4.507  24.133  1.00  0.00     0.012 C 
ATOM     10  C   UNL     1      48.566   5.017  22.856  1.00  0.00    -0.006 C 
ATOM     11  C   UNL     1      46.771   4.232  21.306  1.00  0.00     0.012 C 
ATOM     12  C   UNL     1      46.203   4.364  23.738  1.00  0.00     0.012 C 
ATOM     13  C   UNL     1      49.625   4.932  21.708  1.00  0.00     0.017 C 
ATOM     14  C   UNL     1      48.053   6.452  22.848  1.00  0.00    -0.064 C 
ATOM     15  C   UNL     1      46.519   5.732  20.966  1.00  0.00     0.032 C 
ATOM     16  C   UNL     1      47.122   6.816  21.908  1.00  0.00    -0.064 C 
ATOM     17  C   UNL     1      48.754   7.477  23.696  1.00  0.00     0.032 C 
ATOM     18  C   UNL     1      46.595   8.283  21.778  1.00  0.00    -0.008 C 
ATOM     19  C   UNL     1      47.884   8.690  23.951  1.00  0.00     0.009 C 
ATOM     20  C   UNL     1      47.451   9.336  22.614  1.00  0.00     0.007 C 
ATOM     21  C   UNL     1      45.121   8.289  22.276  1.00  0.00     0.014 C 
ATOM     22  C   UNL     1      46.652   8.638  20.267  1.00  0.00     0.016 C 
ATOM     23  C   UNL     1      46.770  10.771  22.835  1.00  0.00    -0.006 C 
ATOM     24  C   UNL     1      44.492   9.680  22.357  1.00  0.00     0.033 C 
ATOM     25  C   UNL     1      45.288  10.606  23.283  1.00  0.00     0.120 C 
ATOM     26  C   UNL     1      47.506  11.582  23.944  1.00  0.00     0.014 C 
ATOM     27  C   UNL     1      46.867  11.654  21.549  1.00  0.00     0.014 C 
BRANCH  25  28
ATOM     28  O   UNL     1      44.658  11.863  23.340  1.00  0.00    -0.393 OA
ATOM     29  H   UNL     1      44.881  12.260  24.223  1.00  0.00     0.210 HD
ENDBRANCH  25  28
ENDBRANCH   2   6
ENDBRANCH   1   2
BRANCH   1  30
ATOM     30  C   UNL     1      50.421   1.503  20.627  1.00  0.00     0.031 C 
BRANCH  30  31
ATOM     31  C   UNL     1      51.812   2.074  20.831  1.00  0.00    -0.075 C 
ATOM     32  C   UNL     1      52.281   2.231  22.083  1.00  0.00     0.008 C 
BRANCH  31  33
ATOM     33  C   UNL     1      52.612   2.562  19.627  1.00  0.00     0.008 C 
ATOM     34  C   UNL     1      54.054   2.930  20.000  1.00  0.00     0.012 C 
ATOM     35  C   UNL     1      51.905   3.739  18.946  1.00  0.00     0.012 C 
ENDBRANCH  31  33
ENDBRANCH  30  31
ENDBRANCH   1  30
TORSDOF 7
ENDMDL
MODEL 6
REMARK VINA RESULT:    -6.604      1.947      3.182
REMARK INTER + INTRA:         -11.061
REMARK INTER:                  -9.200
REMARK INTRA:                  -1.860
REMARK UNBOUND:                -1.947
REMARK SMILES C=C(CC[C@@H](C(=O)[O-])[C@H]1CC[C@]2(C)C3=C(CC[C@@]12C)[C@@]1(C)CC[C@H](O)C(C)(C)[C@H]1CC3)C(C)C
REMARK SMILES IDX 4 1 5 2 6 3 7 4 8 5 9 6 10 7 18 8 11 9 12 10 17 11 19 12
REMARK SMILES IDX 13 13 14 14 16 15 15 16 31 17 20 18 30 19 29 20 22 21 21 22
REMARK SMILES IDX 26 23 23 24 24 25 27 26 28 27 25 28 3 30 2 31 1 32 32 33
REMARK SMILES IDX 33 34 34 35
REMARK H PARENT 25 29
REMARK Flexibility Score: inf
ROOT
ATOM      1  C   UNL     1      48.927  -0.778  21.740  1.00  0.00     0.014 C 
ENDROOT
BRANCH   1   2
ATOM      2  C   UNL     1      49.794   0.455  22.147  1.00  0.00     0.039 C 
BRANCH   2   3
ATOM      3  C   UNL     1      51.248   0.103  21.930  1.00  0.00     0.045 C 
ATOM      4  O   UNL     1      52.031   0.921  21.377  1.00  0.00    -0.550 OA
ATOM      5  O   UNL     1      51.720  -1.153  22.290  1.00  0.00    -0.550 OA
ENDBRANCH   2   3
BRANCH   2   6
ATOM      6  C   UNL     1      49.410   1.761  21.369  1.00  0.00     0.004 C 
ATOM      7  C   UNL     1      48.019   1.701  20.679  1.00  0.00     0.006 C 
ATOM      8  C   UNL     1      49.376   3.103  22.192  1.00  0.00    -0.020 C 
ATOM      9  C   UNL     1      47.266   2.983  21.051  1.00  0.00     0.012 C 
ATOM     10  C   UNL     1      47.861   3.394  22.403  1.00  0.00    -0.006 C 
ATOM     11  C   UNL     1      50.054   3.160  23.577  1.00  0.00     0.012 C 
ATOM     12  C   UNL     1      50.083   4.179  21.293  1.00  0.00     0.012 C 
ATOM     13  C   UNL     1      47.158   2.524  23.497  1.00  0.00     0.017 C 
ATOM     14  C   UNL     1      47.690   4.842  22.845  1.00  0.00    -0.064 C 
ATOM     15  C   UNL     1      49.681   4.454  24.362  1.00  0.00     0.032 C 
ATOM     16  C   UNL     1      48.515   5.336  23.825  1.00  0.00    -0.064 C 
ATOM     17  C   UNL     1      46.479   5.603  22.381  1.00  0.00     0.032 C 
ATOM     18  C   UNL     1      48.363   6.786  24.392  1.00  0.00    -0.008 C 
ATOM     19  C   UNL     1      46.676   7.100  22.494  1.00  0.00     0.009 C 
ATOM     20  C   UNL     1      47.005   7.495  23.952  1.00  0.00     0.007 C 
ATOM     21  C   UNL     1      49.578   7.610  23.879  1.00  0.00     0.014 C 
ATOM     22  C   UNL     1      48.416   6.660  25.939  1.00  0.00     0.016 C 
ATOM     23  C   UNL     1      46.944   9.082  24.172  1.00  0.00    -0.006 C 
ATOM     24  C   UNL     1      49.514   9.100  24.218  1.00  0.00     0.033 C 
ATOM     25  C   UNL     1      48.249   9.754  23.652  1.00  0.00     0.120 C 
ATOM     26  C   UNL     1      45.750   9.716  23.394  1.00  0.00     0.014 C 
ATOM     27  C   UNL     1      46.692   9.443  25.672  1.00  0.00     0.014 C 
BRANCH  25  28
ATOM     28  O   UNL     1      48.248  11.124  23.973  1.00  0.00    -0.393 OA
ATOM     29  H   UNL     1      48.213  11.190  24.964  1.00  0.00     0.210 HD
ENDBRANCH  25  28
ENDBRANCH   2   6
ENDBRANCH   1   2
BRANCH   1  30
ATOM     30  C   UNL     1      48.485  -1.634  22.943  1.00  0.00     0.031 C 
BRANCH  30  31
ATOM     31  C   UNL     1      47.226  -1.112  23.611  1.00  0.00    -0.075 C 
ATOM     32  C   UNL     1      46.161  -0.794  22.851  1.00  0.00     0.008 C 
BRANCH  31  33
ATOM     33  C   UNL     1      47.221  -0.853  25.115  1.00  0.00     0.008 C 
ATOM     34  C   UNL     1      48.525  -0.203  25.596  1.00  0.00     0.012 C 
ATOM     35  C   UNL     1      46.937  -2.146  25.887  1.00  0.00     0.012 C 
ENDBRANCH  31  33
ENDBRANCH  30  31
ENDBRANCH   1  30
TORSDOF 7
ENDMDL
MODEL 7
REMARK VINA RESULT:    -6.539     12.942     14.747
REMARK INTER + INTRA:         -10.971
REMARK INTER:                  -9.511
REMARK INTRA:                  -1.460
REMARK UNBOUND:                -1.947
REMARK SMILES C=C(CC[C@@H](C(=O)[O-])[C@H]1CC[C@]2(C)C3=C(CC[C@@]12C)[C@@]1(C)CC[C@H](O)C(C)(C)[C@H]1CC3)C(C)C
REMARK SMILES IDX 4 1 5 2 6 3 7 4 8 5 9 6 10 7 18 8 11 9 12 10 17 11 19 12
REMARK SMILES IDX 13 13 14 14 16 15 15 16 31 17 20 18 30 19 29 20 22 21 21 22
REMARK SMILES IDX 26 23 23 24 24 25 27 26 28 27 25 28 3 30 2 31 1 32 32 33
REMARK SMILES IDX 33 34 34 35
REMARK H PARENT 25 29
REMARK Flexibility Score: inf
ROOT
ATOM      1  C   UNL     1      61.750   2.973  16.604  1.00  0.00     0.014 C 
ENDROOT
BRANCH   1   2
ATOM      2  C   UNL     1      61.320   4.406  17.050  1.00  0.00     0.039 C 
BRANCH   2   3
ATOM      3  C   UNL     1      62.158   4.802  18.244  1.00  0.00     0.045 C 
ATOM      4  O   UNL     1      62.428   6.012  18.466  1.00  0.00    -0.550 OA
ATOM      5  O   UNL     1      62.685   3.823  19.077  1.00  0.00    -0.550 OA
ENDBRANCH   2   3
BRANCH   2   6
ATOM      6  C   UNL     1      61.437   5.469  15.904  1.00  0.00     0.004 C 
ATOM      7  C   UNL     1      62.285   5.000  14.689  1.00  0.00     0.006 C 
ATOM      8  C   UNL     1      60.095   5.984  15.261  1.00  0.00    -0.020 C 
ATOM      9  C   UNL     1      61.477   5.297  13.421  1.00  0.00     0.012 C 
ATOM     10  C   UNL     1      60.017   5.260  13.886  1.00  0.00    -0.006 C 
ATOM     11  C   UNL     1      58.759   5.731  15.992  1.00  0.00     0.012 C 
ATOM     12  C   UNL     1      60.251   7.541  15.122  1.00  0.00     0.012 C 
ATOM     13  C   UNL     1      59.593   3.754  13.944  1.00  0.00     0.017 C 
ATOM     14  C   UNL     1      58.976   5.955  13.016  1.00  0.00    -0.064 C 
ATOM     15  C   UNL     1      57.527   6.047  15.091  1.00  0.00     0.032 C 
ATOM     16  C   UNL     1      57.762   6.277  13.569  1.00  0.00    -0.064 C 
ATOM     17  C   UNL     1      59.211   6.043  11.534  1.00  0.00     0.032 C 
ATOM     18  C   UNL     1      56.609   6.924  12.733  1.00  0.00    -0.008 C 
ATOM     19  C   UNL     1      58.374   7.129  10.892  1.00  0.00     0.009 C 
ATOM     20  C   UNL     1      56.871   6.885  11.162  1.00  0.00     0.007 C 
ATOM     21  C   UNL     1      56.469   8.399  13.206  1.00  0.00     0.014 C 
ATOM     22  C   UNL     1      55.319   6.128  13.073  1.00  0.00     0.016 C 
ATOM     23  C   UNL     1      55.940   7.841  10.274  1.00  0.00    -0.006 C 
ATOM     24  C   UNL     1      55.481   9.230  12.388  1.00  0.00     0.033 C 
ATOM     25  C   UNL     1      55.864   9.263  10.904  1.00  0.00     0.120 C 
ATOM     26  C   UNL     1      56.505   8.000   8.830  1.00  0.00     0.014 C 
ATOM     27  C   UNL     1      54.510   7.238  10.090  1.00  0.00     0.014 C 
BRANCH  25  28
ATOM     28  O   UNL     1      54.938  10.054  10.200  1.00  0.00    -0.393 OA
ATOM     29  H   UNL     1      55.323  10.220   9.299  1.00  0.00     0.210 HD
ENDBRANCH  25  28
ENDBRANCH   2   6
ENDBRANCH   1   2
BRANCH   1  30
ATOM     30  C   UNL     1      60.684   1.900  16.892  1.00  0.00     0.031 C 
BRANCH  30  31
ATOM     31  C   UNL     1      60.545   0.885  15.772  1.00  0.00    -0.075 C 
ATOM     32  C   UNL     1      61.595   0.654  14.960  1.00  0.00     0.008 C 
BRANCH  31  33
ATOM     33  C   UNL     1      59.195   0.224  15.514  1.00  0.00     0.008 C 
ATOM     34  C   UNL     1      58.554  -0.308  16.803  1.00  0.00     0.012 C 
ATOM     35  C   UNL     1      59.326  -0.889  14.468  1.00  0.00     0.012 C 
ENDBRANCH  31  33
ENDBRANCH  30  31
ENDBRANCH   1  30
TORSDOF 7
ENDMDL
MODEL 8
REMARK VINA RESULT:    -6.527      2.027      8.380
REMARK INTER + INTRA:         -10.954
REMARK INTER:                  -9.190
REMARK INTRA:                  -1.764
REMARK UNBOUND:                -1.947
REMARK SMILES C=C(CC[C@@H](C(=O)[O-])[C@H]1CC[C@]2(C)C3=C(CC[C@@]12C)[C@@]1(C)CC[C@H](O)C(C)(C)[C@H]1CC3)C(C)C
REMARK SMILES IDX 4 1 5 2 6 3 7 4 8 5 9 6 10 7 18 8 11 9 12 10 17 11 19 12
REMARK SMILES IDX 13 13 14 14 16 15 15 16 31 17 20 18 30 19 29 20 22 21 21 22
REMARK SMILES IDX 26 23 23 24 24 25 27 26 28 27 25 28 3 30 2 31 1 32 32 33
REMARK SMILES IDX 33 34 34 35
REMARK H PARENT 25 29
REMARK Flexibility Score: inf
ROOT
ATOM      1  C   UNL     1      47.737   8.841  22.153  1.00  0.00     0.014 C 
ENDROOT
BRANCH   1   2
ATOM      2  C   UNL     1      47.961   8.074  23.494  1.00  0.00     0.039 C 
BRANCH   2   3
ATOM      3  C   UNL     1      47.560   8.983  24.633  1.00  0.00     0.045 C 
ATOM      4  O   UNL     1      47.054   8.510  25.685  1.00  0.00    -0.550 OA
ATOM      5  O   UNL     1      47.697  10.360  24.503  1.00  0.00    -0.550 OA
ENDBRANCH   2   3
BRANCH   2   6
ATOM      6  C   UNL     1      47.185   6.713  23.562  1.00  0.00     0.004 C 
ATOM      7  C   UNL     1      46.316   6.416  22.308  1.00  0.00     0.006 C 
ATOM      8  C   UNL     1      48.041   5.406  23.756  1.00  0.00    -0.020 C 
ATOM      9  C   UNL     1      46.629   4.984  21.860  1.00  0.00     0.012 C 
ATOM     10  C   UNL     1      48.061   4.739  22.350  1.00  0.00    -0.006 C 
ATOM     11  C   UNL     1      49.505   5.524  24.232  1.00  0.00     0.012 C 
ATOM     12  C   UNL     1      47.280   4.546  24.828  1.00  0.00     0.012 C 
ATOM     13  C   UNL     1      49.023   5.400  21.308  1.00  0.00     0.017 C 
ATOM     14  C   UNL     1      48.526   3.294  22.493  1.00  0.00    -0.064 C 
ATOM     15  C   UNL     1      50.277   4.176  24.095  1.00  0.00     0.032 C 
ATOM     16  C   UNL     1      49.622   3.027  23.274  1.00  0.00    -0.064 C 
ATOM     17  C   UNL     1      47.934   2.250  21.588  1.00  0.00     0.032 C 
ATOM     18  C   UNL     1      50.213   1.586  23.419  1.00  0.00    -0.008 C 
ATOM     19  C   UNL     1      48.122   0.853  22.140  1.00  0.00     0.009 C 
ATOM     20  C   UNL     1      49.623   0.554  22.357  1.00  0.00     0.007 C 
ATOM     21  C   UNL     1      49.893   1.099  24.860  1.00  0.00     0.014 C 
ATOM     22  C   UNL     1      51.749   1.720  23.227  1.00  0.00     0.016 C 
ATOM     23  C   UNL     1      49.887  -0.996  22.669  1.00  0.00    -0.006 C 
ATOM     24  C   UNL     1      50.271  -0.358  25.130  1.00  0.00     0.033 C 
ATOM     25  C   UNL     1      49.567  -1.313  24.160  1.00  0.00     0.120 C 
ATOM     26  C   UNL     1      48.982  -1.913  21.792  1.00  0.00     0.014 C 
ATOM     27  C   UNL     1      51.353  -1.410  22.316  1.00  0.00     0.014 C 
BRANCH  25  28
ATOM     28  O   UNL     1      49.932  -2.638  24.461  1.00  0.00    -0.393 OA
ATOM     29  H   UNL     1      50.918  -2.646  24.586  1.00  0.00     0.210 HD
ENDBRANCH  25  28
ENDBRANCH   2   6
ENDBRANCH   1   2
BRANCH   1  30
ATOM     30  C   UNL     1      49.029   9.025  21.334  1.00  0.00     0.031 C 
BRANCH  30  31
ATOM     31  C   UNL     1      48.838   8.748  19.854  1.00  0.00    -0.075 C 
ATOM     32  C   UNL     1      47.642   8.311  19.416  1.00  0.00     0.008 C 
BRANCH  31  33
ATOM     33  C   UNL     1      50.026   8.861  18.905  1.00  0.00     0.008 C 
ATOM     34  C   UNL     1      49.682   8.392  17.485  1.00  0.00     0.012 C 
ATOM     35  C   UNL     1      51.235   8.096  19.455  1.00  0.00     0.012 C 
ENDBRANCH  31  33
ENDBRANCH  30  31
ENDBRANCH   1  30
TORSDOF 7
ENDMDL
MODEL 9
REMARK VINA RESULT:    -6.410     12.564     15.697
REMARK INTER + INTRA:         -10.792
REMARK INTER:                  -8.969
REMARK INTRA:                  -1.823
REMARK UNBOUND:                -1.947
REMARK SMILES C=C(CC[C@@H](C(=O)[O-])[C@H]1CC[C@]2(C)C3=C(CC[C@@]12C)[C@@]1(C)CC[C@H](O)C(C)(C)[C@H]1CC3)C(C)C
REMARK SMILES IDX 4 1 5 2 6 3 7 4 8 5 9 6 10 7 18 8 11 9 12 10 17 11 19 12
REMARK SMILES IDX 13 13 14 14 16 15 15 16 31 17 20 18 30 19 29 20 22 21 21 22
REMARK SMILES IDX 26 23 23 24 24 25 27 26 28 27 25 28 3 30 2 31 1 32 32 33
REMARK SMILES IDX 33 34 34 35
REMARK H PARENT 25 29
REMARK Flexibility Score: inf
ROOT
ATOM      1  C   UNL     1      53.242  10.743   9.294  1.00  0.00     0.014 C 
ENDROOT
BRANCH   1   2
ATOM      2  C   UNL     1      53.082   9.399  10.072  1.00  0.00     0.039 C 
BRANCH   2   3
ATOM      3  C   UNL     1      51.750   8.792   9.699  1.00  0.00     0.045 C 
ATOM      4  O   UNL     1      50.720   9.031  10.385  1.00  0.00    -0.550 OA
ATOM      5  O   UNL     1      51.663   7.916   8.624  1.00  0.00    -0.550 OA
ENDBRANCH   2   3
BRANCH   2   6
ATOM      6  C   UNL     1      54.254   8.392   9.808  1.00  0.00     0.004 C 
ATOM      7  C   UNL     1      55.329   8.917   8.817  1.00  0.00     0.006 C 
ATOM      8  C   UNL     1      55.083   7.910  11.057  1.00  0.00    -0.020 C 
ATOM      9  C   UNL     1      56.701   8.681   9.458  1.00  0.00     0.012 C 
ATOM     10  C   UNL     1      56.422   8.698  10.966  1.00  0.00    -0.006 C 
ATOM     11  C   UNL     1      54.513   8.129  12.474  1.00  0.00     0.012 C 
ATOM     12  C   UNL     1      55.275   6.361  10.877  1.00  0.00     0.012 C 
ATOM     13  C   UNL     1      56.346  10.199  11.401  1.00  0.00     0.017 C 
ATOM     14  C   UNL     1      57.446   8.045  11.887  1.00  0.00    -0.064 C 
ATOM     15  C   UNL     1      55.575   7.858  13.583  1.00  0.00     0.032 C 
ATOM     16  C   UNL     1      57.065   7.700  13.159  1.00  0.00    -0.064 C 
ATOM     17  C   UNL     1      58.890   8.028  11.467  1.00  0.00     0.032 C 
ATOM     18  C   UNL     1      58.068   7.094  14.195  1.00  0.00    -0.008 C 
ATOM     19  C   UNL     1      59.681   6.975  12.212  1.00  0.00     0.009 C 
ATOM     20  C   UNL     1      59.591   7.208  13.738  1.00  0.00     0.007 C 
ATOM     21  C   UNL     1      57.686   5.598  14.386  1.00  0.00     0.014 C 
ATOM     22  C   UNL     1      57.855   7.875  15.521  1.00  0.00     0.016 C 
ATOM     23  C   UNL     1      60.632   6.295  14.547  1.00  0.00    -0.006 C 
ATOM     24  C   UNL     1      58.660   4.808  15.260  1.00  0.00     0.033 C 
ATOM     25  C   UNL     1      60.084   4.845  14.694  1.00  0.00     0.120 C 
ATOM     26  C   UNL     1      62.000   6.204  13.805  1.00  0.00     0.014 C 
ATOM     27  C   UNL     1      60.965   6.909  15.945  1.00  0.00     0.014 C 
BRANCH  25  28
ATOM     28  O   UNL     1      60.935   4.089  15.521  1.00  0.00    -0.393 OA
ATOM     29  H   UNL     1      61.397   3.431  14.938  1.00  0.00     0.210 HD
ENDBRANCH  25  28
ENDBRANCH   2   6
ENDBRANCH   1   2
BRANCH   1  30
ATOM     30  C   UNL     1      52.596  11.943  10.013  1.00  0.00     0.031 C 
BRANCH  30  31
ATOM     31  C   UNL     1      53.471  12.518  11.112  1.00  0.00    -0.075 C 
ATOM     32  C   UNL     1      54.508  13.311  10.781  1.00  0.00     0.008 C 
BRANCH  31  33
ATOM     33  C   UNL     1      53.233  12.104  12.561  1.00  0.00     0.008 C 
ATOM     34  C   UNL     1      51.874  11.418  12.752  1.00  0.00     0.012 C 
ATOM     35  C   UNL     1      53.375  13.308  13.499  1.00  0.00     0.012 C 
ENDBRANCH  31  33
ENDBRANCH  30  31
ENDBRANCH   1  30
TORSDOF 7
ENDMDL
