MODEL 1
REMARK VINA RESULT:    -3.007      0.000      0.000
REMARK INTER + INTRA:          -2.963
REMARK INTER:                  -3.710
REMARK INTRA:                   0.746
REMARK UNBOUND:                 0.746
REMARK SMILES CC1=CC=CC(C)(C)CC1=O
REMARK SMILES IDX 1 1 2 2 3 3 10 4 11 5 9 6 4 8 5 9 6 10 7 11 8 12
REMARK H PARENT
REMARK Flexibility Score: 80.00
ROOT
ATOM      1  C   UNL     1      20.171  33.891  29.489  1.00  0.00     0.048 C 
ATOM      2  C   UNL     1      18.942  33.015  29.567  1.00  0.00    -0.008 C 
ATOM      3  C   UNL     1      17.747  33.592  29.319  1.00  0.00     0.007 C 
ENDROOT
BRANCH   2   4
ATOM      4  C   UNL     1      19.143  31.605  29.984  1.00  0.00     0.159 C 
ATOM      5  O   UNL     1      20.267  31.260  30.442  1.00  0.00    -0.295 OA
BRANCH   4   6
ATOM      6  C   UNL     1      18.081  30.554  29.880  1.00  0.00     0.091 CG0
ATOM      7  G   UNL     1      16.809  30.891  30.691  1.00  0.00     0.000 G0
ENDBRANCH   4   6
ENDBRANCH   2   4
BRANCH   3   8
ATOM      8  C   UNL     1      16.385  33.007  29.345  1.00  0.00    -0.003 C 
ATOM      9  C   UNL     1      15.962  31.878  29.927  1.00  0.00    -0.020 C 
BRANCH   9  10
ATOM     10  C   UNL     1      16.810  30.892  30.694  1.00  0.00    -0.010 CG0
ATOM     11  C   UNL     1      17.114  31.443  32.106  1.00  0.00     0.016 C 
ATOM     12  C   UNL     1      16.005  29.583  30.857  1.00  0.00     0.016 C 
ATOM     13  G   UNL     1      18.091  30.571  29.891  1.00  0.00     0.000 G0
ENDBRANCH   9  10
ENDBRANCH   3   8
TORSDOF 0
ENDMDL
MODEL 2
REMARK VINA RESULT:    -2.948      1.881      3.653
REMARK INTER + INTRA:          -2.891
REMARK INTER:                  -3.645
REMARK INTRA:                   0.754
REMARK UNBOUND:                 0.746
REMARK SMILES CC1=CC=CC(C)(C)CC1=O
REMARK SMILES IDX 1 1 2 2 3 3 10 4 11 5 9 6 4 8 5 9 6 10 7 11 8 12
REMARK H PARENT
REMARK Flexibility Score: 80.00
ROOT
ATOM      1  C   UNL     1      16.219  32.498  29.526  1.00  0.00     0.048 C 
ATOM      2  C   UNL     1      17.677  32.624  29.901  1.00  0.00    -0.008 C 
ATOM      3  C   UNL     1      18.379  33.635  29.348  1.00  0.00     0.007 C 
ENDROOT
BRANCH   2   4
ATOM      4  C   UNL     1      18.238  31.577  30.791  1.00  0.00     0.159 C 
ATOM      5  O   UNL     1      17.556  30.540  31.018  1.00  0.00    -0.295 OA
BRANCH   4   6
ATOM      6  C   UNL     1      19.578  31.687  31.453  1.00  0.00     0.091 CG0
ATOM      7  G   UNL     1      20.745  31.819  30.447  1.00  0.00     0.000 G0
ENDBRANCH   4   6
ENDBRANCH   2   4
BRANCH   3   8
ATOM      8  C   UNL     1      19.809  33.995  29.499  1.00  0.00    -0.003 C 
ATOM      9  C   UNL     1      20.825  33.245  29.946  1.00  0.00    -0.020 C 
BRANCH   9  10
ATOM     10  C   UNL     1      20.740  31.822  30.440  1.00  0.00    -0.010 CG0
ATOM     11  C   UNL     1      20.611  30.852  29.242  1.00  0.00     0.016 C 
ATOM     12  C   UNL     1      22.053  31.487  31.184  1.00  0.00     0.016 C 
ATOM     13  G   UNL     1      19.572  31.687  31.443  1.00  0.00     0.000 G0
ENDBRANCH   9  10
ENDBRANCH   3   8
TORSDOF 0
ENDMDL
MODEL 3
REMARK VINA RESULT:    -2.915      1.546      3.190
REMARK INTER + INTRA:          -2.850
REMARK INTER:                  -3.910
REMARK INTRA:                   1.061
REMARK UNBOUND:                 0.746
REMARK SMILES CC1=CC=CC(C)(C)CC1=O
REMARK SMILES IDX 1 1 2 2 3 3 10 4 11 5 9 6 4 8 5 9 6 10 7 11 8 12
REMARK H PARENT
REMARK Flexibility Score: 80.00
ROOT
ATOM      1  C   UNL     1      15.157  30.329  29.750  1.00  0.00     0.048 C 
ATOM      2  C   UNL     1      16.453  31.099  29.641  1.00  0.00    -0.008 C 
ATOM      3  C   UNL     1      16.376  32.404  29.304  1.00  0.00     0.007 C 
ENDROOT
BRANCH   2   4
ATOM      4  C   UNL     1      17.711  30.337  29.839  1.00  0.00     0.159 C 
ATOM      5  O   UNL     1      17.657  29.207  30.397  1.00  0.00    -0.295 OA
BRANCH   4   6
ATOM      6  C   UNL     1      19.057  30.844  29.420  1.00  0.00     0.091 CG0
ATOM      7  G   UNL     1      19.452  32.167  30.115  1.00  0.00     0.000 G0
ENDBRANCH   4   6
ENDBRANCH   2   4
BRANCH   3   8
ATOM      8  C   UNL     1      17.457  33.398  29.097  1.00  0.00    -0.003 C 
ATOM      9  C   UNL     1      18.754  33.314  29.419  1.00  0.00    -0.020 C 
BRANCH   9  10
ATOM     10  C   UNL     1      19.432  32.159  30.115  1.00  0.00    -0.010 CG0
ATOM     11  C   UNL     1      20.961  32.389  30.155  1.00  0.00     0.016 C 
ATOM     12  C   UNL     1      18.921  32.102  31.572  1.00  0.00     0.016 C 
ATOM     13  G   UNL     1      19.048  30.833  29.419  1.00  0.00     0.000 G0
ENDBRANCH   9  10
ENDBRANCH   3   8
TORSDOF 0
ENDMDL
MODEL 4
REMARK VINA RESULT:    -2.888      4.932      6.360
REMARK INTER + INTRA:          -2.818
REMARK INTER:                  -3.570
REMARK INTRA:                   0.753
REMARK UNBOUND:                 0.746
REMARK SMILES CC1=CC=CC(C)(C)CC1=O
REMARK SMILES IDX 1 1 2 2 3 3 10 4 11 5 9 6 4 8 5 9 6 10 7 11 8 12
REMARK H PARENT
REMARK Flexibility Score: 80.00
ROOT
ATOM      1  C   UNL     1      20.978  24.326  26.410  1.00  0.00     0.048 C 
ATOM      2  C   UNL     1      20.140  25.107  27.396  1.00  0.00    -0.008 C 
ATOM      3  C   UNL     1      18.809  24.883  27.399  1.00  0.00     0.007 C 
ENDROOT
BRANCH   2   4
ATOM      4  C   UNL     1      20.842  26.114  28.230  1.00  0.00     0.159 C 
ATOM      5  O   UNL     1      22.033  26.416  27.946  1.00  0.00    -0.295 OA
BRANCH   4   6
ATOM      6  C   UNL     1      20.214  26.790  29.411  1.00  0.00     0.091 CG0
ATOM      7  G   UNL     1      18.946  27.594  29.048  1.00  0.00     0.000 G0
ENDBRANCH   4   6
ENDBRANCH   2   4
BRANCH   3   8
ATOM      8  C   UNL     1      17.742  25.505  28.218  1.00  0.00    -0.003 C 
ATOM      9  C   UNL     1      17.770  26.649  28.914  1.00  0.00    -0.020 C 
BRANCH   9  10
ATOM     10  C   UNL     1      18.946  27.586  29.051  1.00  0.00    -0.010 CG0
ATOM     11  C   UNL     1      19.106  28.426  27.763  1.00  0.00     0.016 C 
ATOM     12  C   UNL     1      18.659  28.557  30.219  1.00  0.00     0.016 C 
ATOM     13  G   UNL     1      20.217  26.780  29.398  1.00  0.00     0.000 G0
ENDBRANCH   9  10
ENDBRANCH   3   8
TORSDOF 0
ENDMDL
MODEL 5
REMARK VINA RESULT:    -2.870      3.663      5.118
REMARK INTER + INTRA:          -2.794
REMARK INTER:                  -3.547
REMARK INTRA:                   0.753
REMARK UNBOUND:                 0.746
REMARK SMILES CC1=CC=CC(C)(C)CC1=O
REMARK SMILES IDX 1 1 2 2 3 3 10 4 11 5 9 6 4 8 5 9 6 10 7 11 8 12
REMARK H PARENT
REMARK Flexibility Score: 80.00
ROOT
ATOM      1  C   UNL     1      21.586  25.520  28.892  1.00  0.00     0.048 C 
ATOM      2  C   UNL     1      21.087  26.945  28.849  1.00  0.00    -0.008 C 
ATOM      3  C   UNL     1      21.977  27.927  29.108  1.00  0.00     0.007 C 
ENDROOT
BRANCH   2   4
ATOM      4  C   UNL     1      19.638  27.147  28.598  1.00  0.00     0.159 C 
ATOM      5  O   UNL     1      18.871  26.145  28.622  1.00  0.00    -0.295 OA
BRANCH   4   6
ATOM      6  C   UNL     1      19.029  28.483  28.302  1.00  0.00     0.091 CG0
ATOM      7  G   UNL     1      19.263  29.520  29.424  1.00  0.00     0.000 G0
ENDBRANCH   4   6
ENDBRANCH   2   4
BRANCH   3   8
ATOM      8  C   UNL     1      21.783  29.395  29.165  1.00  0.00    -0.003 C 
ATOM      9  C   UNL     1      20.649  30.093  29.308  1.00  0.00    -0.020 C 
BRANCH   9  10
ATOM     10  C   UNL     1      19.255  29.524  29.420  1.00  0.00    -0.010 CG0
ATOM     11  C   UNL     1      19.030  28.950  30.837  1.00  0.00     0.016 C 
ATOM     12  C   UNL     1      18.244  30.673  29.205  1.00  0.00     0.016 C 
ATOM     13  G   UNL     1      19.030  28.474  28.309  1.00  0.00     0.000 G0
ENDBRANCH   9  10
ENDBRANCH   3   8
TORSDOF 0
ENDMDL
MODEL 6
REMARK VINA RESULT:    -2.815      4.653      5.921
REMARK INTER + INTRA:          -2.727
REMARK INTER:                  -3.483
REMARK INTRA:                   0.756
REMARK UNBOUND:                 0.746
REMARK SMILES CC1=CC=CC(C)(C)CC1=O
REMARK SMILES IDX 1 1 2 2 3 3 10 4 11 5 9 6 4 8 5 9 6 10 7 11 8 12
REMARK H PARENT
REMARK Flexibility Score: 80.00
ROOT
ATOM      1  C   UNL     1      24.610  27.725  27.546  1.00  0.00     0.048 C 
ATOM      2  C   UNL     1      23.463  27.867  28.519  1.00  0.00    -0.008 C 
ATOM      3  C   UNL     1      22.383  27.078  28.330  1.00  0.00     0.007 C 
ENDROOT
BRANCH   2   4
ATOM      4  C   UNL     1      23.585  28.917  29.560  1.00  0.00     0.159 C 
ATOM      5  O   UNL     1      24.520  29.760  29.468  1.00  0.00    -0.295 OA
BRANCH   4   6
ATOM      6  C   UNL     1      22.662  29.027  30.735  1.00  0.00     0.091 CG0
ATOM      7  G   UNL     1      21.184  29.227  30.330  1.00  0.00     0.000 G0
ENDBRANCH   4   6
ENDBRANCH   2   4
BRANCH   3   8
ATOM      8  C   UNL     1      21.113  27.007  29.091  1.00  0.00    -0.003 C 
ATOM      9  C   UNL     1      20.581  27.903  29.931  1.00  0.00    -0.020 C 
BRANCH   9  10
ATOM     10  C   UNL     1      21.187  29.227  30.332  1.00  0.00    -0.010 CG0
ATOM     11  C   UNL     1      21.008  30.257  29.194  1.00  0.00     0.016 C 
ATOM     12  C   UNL     1      20.429  29.751  31.573  1.00  0.00     0.016 C 
ATOM     13  G   UNL     1      22.668  29.024  30.725  1.00  0.00     0.000 G0
ENDBRANCH   9  10
ENDBRANCH   3   8
TORSDOF 0
ENDMDL
MODEL 7
REMARK VINA RESULT:    -2.790     13.469     15.690
REMARK INTER + INTRA:          -2.697
REMARK INTER:                  -3.448
REMARK INTRA:                   0.751
REMARK UNBOUND:                 0.746
REMARK SMILES CC1=CC=CC(C)(C)CC1=O
REMARK SMILES IDX 1 1 2 2 3 3 10 4 11 5 9 6 4 8 5 9 6 10 7 11 8 12
REMARK H PARENT
REMARK Flexibility Score: 80.00
ROOT
ATOM      1  C   UNL     1      30.434  30.177  29.365  1.00  0.00     0.048 C 
ATOM      2  C   UNL     1      31.515  30.962  28.658  1.00  0.00    -0.008 C 
ATOM      3  C   UNL     1      32.125  30.377  27.605  1.00  0.00     0.007 C 
ENDROOT
BRANCH   2   4
ATOM      4  C   UNL     1      31.871  32.286  29.228  1.00  0.00     0.159 C 
ATOM      5  O   UNL     1      31.430  32.596  30.368  1.00  0.00    -0.295 OA
BRANCH   4   6
ATOM      6  C   UNL     1      32.723  33.290  28.513  1.00  0.00     0.091 CG0
ATOM      7  G   UNL     1      34.139  32.764  28.185  1.00  0.00     0.000 G0
ENDBRANCH   4   6
ENDBRANCH   2   4
BRANCH   3   8
ATOM      8  C   UNL     1      33.221  30.878  26.742  1.00  0.00    -0.003 C 
ATOM      9  C   UNL     1      34.089  31.872  26.971  1.00  0.00    -0.020 C 
BRANCH   9  10
ATOM     10  C   UNL     1      34.134  32.760  28.191  1.00  0.00    -0.010 CG0
ATOM     11  C   UNL     1      34.776  32.000  29.375  1.00  0.00     0.016 C 
ATOM     12  C   UNL     1      35.025  33.981  27.870  1.00  0.00     0.016 C 
ATOM     13  G   UNL     1      32.713  33.274  28.514  1.00  0.00     0.000 G0
ENDBRANCH   9  10
ENDBRANCH   3   8
TORSDOF 0
ENDMDL
MODEL 8
REMARK VINA RESULT:    -2.735     13.019     15.050
REMARK INTER + INTRA:          -2.629
REMARK INTER:                  -3.383
REMARK INTRA:                   0.755
REMARK UNBOUND:                 0.746
REMARK SMILES CC1=CC=CC(C)(C)CC1=O
REMARK SMILES IDX 1 1 2 2 3 3 10 4 11 5 9 6 4 8 5 9 6 10 7 11 8 12
REMARK H PARENT
REMARK Flexibility Score: 80.00
ROOT
ATOM      1  C   UNL     1      29.635  30.673  28.270  1.00  0.00     0.048 C 
ATOM      2  C   UNL     1      30.828  31.288  28.965  1.00  0.00    -0.008 C 
ATOM      3  C   UNL     1      30.618  31.883  30.158  1.00  0.00     0.007 C 
ENDROOT
BRANCH   2   4
ATOM      4  C   UNL     1      32.123  31.252  28.241  1.00  0.00     0.159 C 
ATOM      5  O   UNL     1      32.135  30.893  27.031  1.00  0.00    -0.295 OA
BRANCH   4   6
ATOM      6  C   UNL     1      33.433  31.610  28.874  1.00  0.00     0.091 CG0
ATOM      7  G   UNL     1      33.469  33.053  29.424  1.00  0.00     0.000 G0
ENDBRANCH   4   6
ENDBRANCH   2   4
BRANCH   3   8
ATOM      8  C   UNL     1      31.570  32.585  31.051  1.00  0.00    -0.003 C 
ATOM      9  C   UNL     1      32.774  33.097  30.766  1.00  0.00    -0.020 C 
BRANCH   9  10
ATOM     10  C   UNL     1      33.475  33.052  29.430  1.00  0.00    -0.010 CG0
ATOM     11  C   UNL     1      32.851  34.090  28.470  1.00  0.00     0.016 C 
ATOM     12  C   UNL     1      34.957  33.433  29.646  1.00  0.00     0.016 C 
ATOM     13  G   UNL     1      33.427  31.614  28.865  1.00  0.00     0.000 G0
ENDBRANCH   9  10
ENDBRANCH   3   8
TORSDOF 0
ENDMDL
MODEL 9
REMARK VINA RESULT:    -2.688      2.896      4.498
REMARK INTER + INTRA:          -2.571
REMARK INTER:                  -3.327
REMARK INTRA:                   0.756
REMARK UNBOUND:                 0.746
REMARK SMILES CC1=CC=CC(C)(C)CC1=O
REMARK SMILES IDX 1 1 2 2 3 3 10 4 11 5 9 6 4 8 5 9 6 10 7 11 8 12
REMARK H PARENT
REMARK Flexibility Score: 80.00
ROOT
ATOM      1  C   UNL     1      17.403  25.845  28.114  1.00  0.00     0.048 C 
ATOM      2  C   UNL     1      17.598  27.284  28.533  1.00  0.00    -0.008 C 
ATOM      3  C   UNL     1      18.739  27.896  28.151  1.00  0.00     0.007 C 
ENDROOT
BRANCH   2   4
ATOM      4  C   UNL     1      16.551  27.884  29.397  1.00  0.00     0.159 C 
ATOM      5  O   UNL     1      15.672  27.132  29.900  1.00  0.00    -0.295 OA
BRANCH   4   6
ATOM      6  C   UNL     1      16.470  29.349  29.698  1.00  0.00     0.091 CG0
ATOM      7  G   UNL     1      17.734  29.898  30.397  1.00  0.00     0.000 G0
ENDBRANCH   4   6
ENDBRANCH   2   4
BRANCH   3   8
ATOM      8  C   UNL     1      19.219  29.271  28.427  1.00  0.00    -0.003 C 
ATOM      9  C   UNL     1      18.820  30.131  29.373  1.00  0.00    -0.020 C 
BRANCH   9  10
ATOM     10  C   UNL     1      17.733  29.898  30.395  1.00  0.00    -0.010 CG0
ATOM     11  C   UNL     1      18.253  28.972  31.518  1.00  0.00     0.016 C 
ATOM     12  C   UNL     1      17.366  31.258  31.031  1.00  0.00     0.016 C 
ATOM     13  G   UNL     1      16.473  29.339  29.697  1.00  0.00     0.000 G0
ENDBRANCH   9  10
ENDBRANCH   3   8
TORSDOF 0
ENDMDL
