MODEL 1
REMARK VINA RESULT:    -6.157      0.000      0.000
REMARK INTER + INTRA:         -11.207
REMARK INTER:                  -9.397
REMARK INTRA:                  -1.810
REMARK UNBOUND:                -1.810
REMARK SMILES OC[C@@H]1O[C@](CO)(O[C@@H]2O[C@H](CO)[C@H](O)[C@@H](O)[C@@H]2O)[C@H](O)[C@H]1O
REMARK SMILES IDX 8 1 9 2 11 3 14 4 10 5 16 6 18 7 12 8 13 9 15 11 17 13 19 15
REMARK SMILES IDX 5 17 20 18 4 19 22 20 3 21 6 22 7 23 21 25 23 27 2 29 1 30
REMARK H PARENT 13 10 15 12 17 14 19 16 7 24 21 26 23 28 1 31
REMARK Flexibility Score: inf
ROOT
ATOM      1  O   UNL     1      23.447  -4.736  15.961  1.00  0.00    -0.313 OA
ENDROOT
BRANCH   1   2
ATOM      2  C   UNL     1      24.434  -5.143  16.903  1.00  0.00     0.285 C 
ATOM      3  C   UNL     1      25.381  -2.979  17.376  1.00  0.00     0.178 C 
ATOM      4  C   UNL     1      26.708  -3.366  16.682  1.00  0.00     0.177 C 
ATOM      5  O   UNL     1      24.666  -4.115  17.867  1.00  0.00    -0.341 OA
ATOM      6  C   UNL     1      26.472  -4.405  15.581  1.00  0.00     0.179 C 
ATOM      7  C   UNL     1      25.731  -5.597  16.195  1.00  0.00     0.202 C 
BRANCH   3   8
ATOM      8  C   UNL     1      24.496  -2.014  16.552  1.00  0.00     0.191 C 
BRANCH   8   9
ATOM      9  O   UNL     1      23.195  -1.968  17.068  1.00  0.00    -0.394 OA
ATOM     10  H   UNL     1      22.654  -2.614  16.541  1.00  0.00     0.210 HD
ENDBRANCH   8   9
ENDBRANCH   3   8
BRANCH   4  11
ATOM     11  O   UNL     1      27.395  -2.235  16.202  1.00  0.00    -0.387 OA
ATOM     12  H   UNL     1      27.046  -1.433  16.673  1.00  0.00     0.211 HD
ENDBRANCH   4  11
BRANCH   6  13
ATOM     13  O   UNL     1      27.713  -4.820  15.068  1.00  0.00    -0.387 OA
ATOM     14  H   UNL     1      27.969  -4.167  14.365  1.00  0.00     0.211 HD
ENDBRANCH   6  13
BRANCH   7  15
ATOM     15  O   UNL     1      25.428  -6.537  15.198  1.00  0.00    -0.385 OA
ATOM     16  H   UNL     1      24.955  -6.052  14.472  1.00  0.00     0.211 HD
ENDBRANCH   7  15
ENDBRANCH   1   2
BRANCH   1  17
ATOM     17  C   UNL     1      22.136  -5.269  16.190  1.00  0.00     0.224 C 
ATOM     18  C   UNL     1      21.375  -5.497  14.860  1.00  0.00     0.208 C 
ATOM     19  O   UNL     1      21.424  -4.286  16.913  1.00  0.00    -0.337 OA
ATOM     20  C   UNL     1      19.959  -5.033  15.145  1.00  0.00     0.180 C 
ATOM     21  C   UNL     1      20.087  -4.249  16.457  1.00  0.00     0.179 C 
BRANCH  17  22
ATOM     22  C   UNL     1      22.163  -6.565  17.061  1.00  0.00     0.225 C 
BRANCH  22  23
ATOM     23  O   UNL     1      21.446  -7.602  16.449  1.00  0.00    -0.391 OA
ATOM     24  H   UNL     1      21.938  -7.829  15.618  1.00  0.00     0.210 HD
ENDBRANCH  22  23
ENDBRANCH  17  22
BRANCH  18  25
ATOM     25  O   UNL     1      21.923  -4.756  13.795  1.00  0.00    -0.385 OA
ATOM     26  H   UNL     1      21.194  -4.557  13.151  1.00  0.00     0.211 HD
ENDBRANCH  18  25
BRANCH  20  27
ATOM     27  O   UNL     1      19.103  -6.132  15.324  1.00  0.00    -0.387 OA
ATOM     28  H   UNL     1      19.677  -6.903  15.573  1.00  0.00     0.211 HD
ENDBRANCH  20  27
BRANCH  21  29
ATOM     29  C   UNL     1      19.634  -2.790  16.319  1.00  0.00     0.191 C 
BRANCH  29  30
ATOM     30  O   UNL     1      20.627  -2.023  15.695  1.00  0.00    -0.394 OA
ATOM     31  H   UNL     1      21.473  -2.228  16.171  1.00  0.00     0.210 HD
ENDBRANCH  29  30
ENDBRANCH  21  29
ENDBRANCH   1  17
TORSDOF 13
ENDMDL
MODEL 2
REMARK VINA RESULT:    -6.016      1.771      3.723
REMARK INTER + INTRA:         -10.991
REMARK INTER:                  -9.743
REMARK INTRA:                  -1.249
REMARK UNBOUND:                -1.810
REMARK SMILES OC[C@@H]1O[C@](CO)(O[C@@H]2O[C@H](CO)[C@H](O)[C@@H](O)[C@@H]2O)[C@H](O)[C@H]1O
REMARK SMILES IDX 8 1 9 2 11 3 14 4 10 5 16 6 18 7 12 8 13 9 15 11 17 13 19 15
REMARK SMILES IDX 5 17 20 18 4 19 22 20 3 21 6 22 7 23 21 25 23 27 2 29 1 30
REMARK H PARENT 13 10 15 12 17 14 19 16 7 24 21 26 23 28 1 31
REMARK Flexibility Score: inf
ROOT
ATOM      1  O   UNL     1      22.745  -5.632  16.404  1.00  0.00    -0.313 OA
ENDROOT
BRANCH   1   2
ATOM      2  C   UNL     1      23.857  -4.942  15.844  1.00  0.00     0.285 C 
ATOM      3  C   UNL     1      25.620  -6.229  16.863  1.00  0.00     0.178 C 
ATOM      4  C   UNL     1      26.044  -5.025  17.737  1.00  0.00     0.177 C 
ATOM      5  O   UNL     1      24.961  -5.828  15.660  1.00  0.00    -0.341 OA
ATOM      6  C   UNL     1      24.854  -4.103  18.023  1.00  0.00     0.179 C 
ATOM      7  C   UNL     1      24.227  -3.699  16.685  1.00  0.00     0.202 C 
BRANCH   3   8
ATOM      8  C   UNL     1      24.856  -7.330  17.635  1.00  0.00     0.191 C 
BRANCH   8   9
ATOM      9  O   UNL     1      25.734  -8.328  18.080  1.00  0.00    -0.394 OA
ATOM     10  H   UNL     1      26.442  -8.415  17.388  1.00  0.00     0.210 HD
ENDBRANCH   8   9
ENDBRANCH   3   8
BRANCH   4  11
ATOM     11  O   UNL     1      26.687  -5.439  18.919  1.00  0.00    -0.387 OA
ATOM     12  H   UNL     1      26.963  -4.630  19.425  1.00  0.00     0.211 HD
ENDBRANCH   4  11
BRANCH   6  13
ATOM     13  O   UNL     1      25.311  -2.963  18.706  1.00  0.00    -0.387 OA
ATOM     14  H   UNL     1      24.887  -2.975  19.605  1.00  0.00     0.211 HD
ENDBRANCH   6  13
BRANCH   7  15
ATOM     15  O   UNL     1      23.084  -2.916  16.910  1.00  0.00    -0.385 OA
ATOM     16  H   UNL     1      23.048  -2.722  17.883  1.00  0.00     0.211 HD
ENDBRANCH   7  15
ENDBRANCH   1   2
BRANCH   1  17
ATOM     17  C   UNL     1      21.521  -5.507  15.669  1.00  0.00     0.224 C 
ATOM     18  C   UNL     1      20.475  -4.669  16.444  1.00  0.00     0.208 C 
ATOM     19  O   UNL     1      20.996  -6.812  15.539  1.00  0.00    -0.337 OA
ATOM     20  C   UNL     1      19.162  -5.399  16.227  1.00  0.00     0.180 C 
ATOM     21  C   UNL     1      19.590  -6.763  15.673  1.00  0.00     0.179 C 
BRANCH  17  22
ATOM     22  C   UNL     1      21.746  -4.947  14.228  1.00  0.00     0.225 C 
BRANCH  22  23
ATOM     23  O   UNL     1      20.908  -3.853  13.973  1.00  0.00    -0.391 OA
ATOM     24  H   UNL     1      20.364  -3.721  14.793  1.00  0.00     0.210 HD
ENDBRANCH  22  23
ENDBRANCH  17  22
BRANCH  18  25
ATOM     25  O   UNL     1      20.764  -4.591  17.820  1.00  0.00    -0.385 OA
ATOM     26  H   UNL     1      20.053  -4.050  18.254  1.00  0.00     0.211 HD
ENDBRANCH  18  25
BRANCH  20  27
ATOM     27  O   UNL     1      18.369  -4.724  15.285  1.00  0.00    -0.387 OA
ATOM     28  H   UNL     1      17.429  -4.800  15.596  1.00  0.00     0.211 HD
ENDBRANCH  20  27
BRANCH  21  29
ATOM     29  C   UNL     1      19.118  -7.931  16.550  1.00  0.00     0.191 C 
BRANCH  29  30
ATOM     30  O   UNL     1      19.162  -7.576  17.904  1.00  0.00    -0.394 OA
ATOM     31  H   UNL     1      18.286  -7.156  18.108  1.00  0.00     0.210 HD
ENDBRANCH  29  30
ENDBRANCH  21  29
ENDBRANCH   1  17
TORSDOF 13
ENDMDL
MODEL 3
REMARK VINA RESULT:    -5.984      1.672      6.214
REMARK INTER + INTRA:         -10.943
REMARK INTER:                 -10.247
REMARK INTRA:                  -0.696
REMARK UNBOUND:                -1.810
REMARK SMILES OC[C@@H]1O[C@](CO)(O[C@@H]2O[C@H](CO)[C@H](O)[C@@H](O)[C@@H]2O)[C@H](O)[C@H]1O
REMARK SMILES IDX 8 1 9 2 11 3 14 4 10 5 16 6 18 7 12 8 13 9 15 11 17 13 19 15
REMARK SMILES IDX 5 17 20 18 4 19 22 20 3 21 6 22 7 23 21 25 23 27 2 29 1 30
REMARK H PARENT 13 10 15 12 17 14 19 16 7 24 21 26 23 28 1 31
REMARK Flexibility Score: inf
ROOT
ATOM      1  O   UNL     1      22.425  -5.120  15.660  1.00  0.00    -0.313 OA
ENDROOT
BRANCH   1   2
ATOM      2  C   UNL     1      21.467  -4.817  16.667  1.00  0.00     0.285 C 
ATOM      3  C   UNL     1      20.088  -6.780  16.442  1.00  0.00     0.178 C 
ATOM      4  C   UNL     1      18.917  -5.939  15.881  1.00  0.00     0.177 C 
ATOM      5  O   UNL     1      20.969  -6.013  17.267  1.00  0.00    -0.341 OA
ATOM      6  C   UNL     1      19.430  -4.692  15.155  1.00  0.00     0.179 C 
ATOM      7  C   UNL     1      20.338  -3.916  16.114  1.00  0.00     0.202 C 
BRANCH   3   8
ATOM      8  C   UNL     1      20.831  -7.617  15.375  1.00  0.00     0.191 C 
BRANCH   8   9
ATOM      9  O   UNL     1      20.327  -8.923  15.324  1.00  0.00    -0.394 OA
ATOM     10  H   UNL     1      19.568  -8.962  15.964  1.00  0.00     0.210 HD
ENDBRANCH   8   9
ENDBRANCH   3   8
BRANCH   4  11
ATOM     11  O   UNL     1      18.063  -6.710  15.069  1.00  0.00    -0.387 OA
ATOM     12  H   UNL     1      17.503  -7.281  15.658  1.00  0.00     0.211 HD
ENDBRANCH   4  11
BRANCH   6  13
ATOM     13  O   UNL     1      18.335  -3.897  14.777  1.00  0.00    -0.387 OA
ATOM     14  H   UNL     1      17.780  -4.443  14.160  1.00  0.00     0.211 HD
ENDBRANCH   6  13
BRANCH   7  15
ATOM     15  O   UNL     1      20.891  -2.806  15.457  1.00  0.00    -0.385 OA
ATOM     16  H   UNL     1      20.811  -2.973  14.482  1.00  0.00     0.211 HD
ENDBRANCH   7  15
ENDBRANCH   1   2
BRANCH   1  17
ATOM     17  C   UNL     1      23.787  -4.856  16.021  1.00  0.00     0.224 C 
ATOM     18  C   UNL     1      24.746  -5.087  14.827  1.00  0.00     0.208 C 
ATOM     19  O   UNL     1      24.128  -5.798  17.017  1.00  0.00    -0.337 OA
ATOM     20  C   UNL     1      25.951  -5.783  15.433  1.00  0.00     0.180 C 
ATOM     21  C   UNL     1      25.460  -6.225  16.817  1.00  0.00     0.179 C 
BRANCH  17  22
ATOM     22  C   UNL     1      23.975  -3.433  16.637  1.00  0.00     0.225 C 
BRANCH  22  23
ATOM     23  O   UNL     1      24.326  -3.510  17.992  1.00  0.00    -0.391 OA
ATOM     24  H   UNL     1      23.477  -3.478  18.503  1.00  0.00     0.210 HD
ENDBRANCH  22  23
ENDBRANCH  17  22
BRANCH  18  25
ATOM     25  O   UNL     1      24.173  -5.894  13.826  1.00  0.00    -0.385 OA
ATOM     26  H   UNL     1      23.720  -6.659  14.268  1.00  0.00     0.211 HD
ENDBRANCH  18  25
BRANCH  20  27
ATOM     27  O   UNL     1      27.026  -4.889  15.568  1.00  0.00    -0.387 OA
ATOM     28  H   UNL     1      27.621  -5.261  16.270  1.00  0.00     0.211 HD
ENDBRANCH  20  27
BRANCH  21  29
ATOM     29  C   UNL     1      25.545  -7.745  17.015  1.00  0.00     0.191 C 
BRANCH  29  30
ATOM     30  O   UNL     1      25.173  -8.091  18.321  1.00  0.00    -0.394 OA
ATOM     31  H   UNL     1      25.071  -9.078  18.326  1.00  0.00     0.210 HD
ENDBRANCH  29  30
ENDBRANCH  21  29
ENDBRANCH   1  17
TORSDOF 13
ENDMDL
MODEL 4
REMARK VINA RESULT:    -5.826      1.862      3.328
REMARK INTER + INTRA:         -10.702
REMARK INTER:                  -9.745
REMARK INTRA:                  -0.957
REMARK UNBOUND:                -1.810
REMARK SMILES OC[C@@H]1O[C@](CO)(O[C@@H]2O[C@H](CO)[C@H](O)[C@@H](O)[C@@H]2O)[C@H](O)[C@H]1O
REMARK SMILES IDX 8 1 9 2 11 3 14 4 10 5 16 6 18 7 12 8 13 9 15 11 17 13 19 15
REMARK SMILES IDX 5 17 20 18 4 19 22 20 3 21 6 22 7 23 21 25 23 27 2 29 1 30
REMARK H PARENT 13 10 15 12 17 14 19 16 7 24 21 26 23 28 1 31
REMARK Flexibility Score: inf
ROOT
ATOM      1  O   UNL     1      23.624  -4.306  16.857  1.00  0.00    -0.313 OA
ENDROOT
BRANCH   1   2
ATOM      2  C   UNL     1      24.607  -3.448  16.288  1.00  0.00     0.285 C 
ATOM      3  C   UNL     1      26.538  -4.310  17.444  1.00  0.00     0.178 C 
ATOM      4  C   UNL     1      26.686  -2.998  18.250  1.00  0.00     0.177 C 
ATOM      5  O   UNL     1      25.867  -4.114  16.197  1.00  0.00    -0.341 OA
ATOM      6  C   UNL     1      25.332  -2.308  18.438  1.00  0.00     0.179 C 
ATOM      7  C   UNL     1      24.697  -2.110  17.058  1.00  0.00     0.202 C 
BRANCH   3   8
ATOM      8  C   UNL     1      25.965  -5.491  18.262  1.00  0.00     0.191 C 
BRANCH   8   9
ATOM      9  O   UNL     1      26.890  -5.930  19.218  1.00  0.00    -0.394 OA
ATOM     10  H   UNL     1      26.675  -6.881  19.409  1.00  0.00     0.210 HD
ENDBRANCH   8   9
ENDBRANCH   3   8
BRANCH   4  11
ATOM     11  O   UNL     1      27.345  -3.211  19.476  1.00  0.00    -0.387 OA
ATOM     12  H   UNL     1      28.284  -2.902  19.384  1.00  0.00     0.211 HD
ENDBRANCH   4  11
BRANCH   6  13
ATOM     13  O   UNL     1      25.533  -1.064  19.060  1.00  0.00    -0.387 OA
ATOM     14  H   UNL     1      24.665  -0.799  19.466  1.00  0.00     0.211 HD
ENDBRANCH   6  13
BRANCH   7  15
ATOM     15  O   UNL     1      23.417  -1.551  17.196  1.00  0.00    -0.385 OA
ATOM     16  H   UNL     1      22.927  -1.730  16.352  1.00  0.00     0.211 HD
ENDBRANCH   7  15
ENDBRANCH   1   2
BRANCH   1  17
ATOM     17  C   UNL     1      22.895  -5.101  15.914  1.00  0.00     0.224 C 
ATOM     18  C   UNL     1      21.725  -4.306  15.283  1.00  0.00     0.208 C 
ATOM     19  O   UNL     1      22.326  -6.169  16.644  1.00  0.00    -0.337 OA
ATOM     20  C   UNL     1      20.574  -5.294  15.230  1.00  0.00     0.180 C 
ATOM     21  C   UNL     1      21.031  -6.437  16.144  1.00  0.00     0.179 C 
BRANCH  17  22
ATOM     22  C   UNL     1      23.818  -5.722  14.818  1.00  0.00     0.225 C 
BRANCH  22  23
ATOM     23  O   UNL     1      23.220  -5.653  13.552  1.00  0.00    -0.391 OA
ATOM     24  H   UNL     1      22.257  -5.851  13.687  1.00  0.00     0.210 HD
ENDBRANCH  22  23
ENDBRANCH  17  22
BRANCH  18  25
ATOM     25  O   UNL     1      21.365  -3.183  16.052  1.00  0.00    -0.385 OA
ATOM     26  H   UNL     1      21.091  -2.458  15.430  1.00  0.00     0.211 HD
ENDBRANCH  18  25
BRANCH  20  27
ATOM     27  O   UNL     1      20.388  -5.769  13.921  1.00  0.00    -0.387 OA
ATOM     28  H   UNL     1      21.025  -6.521  13.798  1.00  0.00     0.211 HD
ENDBRANCH  20  27
BRANCH  21  29
ATOM     29  C   UNL     1      20.070  -6.676  17.315  1.00  0.00     0.191 C 
BRANCH  29  30
ATOM     30  O   UNL     1      19.422  -5.485  17.670  1.00  0.00    -0.394 OA
ATOM     31  H   UNL     1      20.134  -4.864  17.972  1.00  0.00     0.210 HD
ENDBRANCH  29  30
ENDBRANCH  21  29
ENDBRANCH   1  17
TORSDOF 13
ENDMDL
MODEL 5
REMARK VINA RESULT:    -5.753      1.658      5.622
REMARK INTER + INTRA:         -10.590
REMARK INTER:                  -9.327
REMARK INTRA:                  -1.263
REMARK UNBOUND:                -1.810
REMARK SMILES OC[C@@H]1O[C@](CO)(O[C@@H]2O[C@H](CO)[C@H](O)[C@@H](O)[C@@H]2O)[C@H](O)[C@H]1O
REMARK SMILES IDX 8 1 9 2 11 3 14 4 10 5 16 6 18 7 12 8 13 9 15 11 17 13 19 15
REMARK SMILES IDX 5 17 20 18 4 19 22 20 3 21 6 22 7 23 21 25 23 27 2 29 1 30
REMARK H PARENT 13 10 15 12 17 14 19 16 7 24 21 26 23 28 1 31
REMARK Flexibility Score: inf
ROOT
ATOM      1  O   UNL     1      22.756  -5.184  16.140  1.00  0.00    -0.313 OA
ENDROOT
BRANCH   1   2
ATOM      2  C   UNL     1      21.906  -5.658  15.102  1.00  0.00     0.285 C 
ATOM      3  C   UNL     1      20.401  -3.780  14.994  1.00  0.00     0.178 C 
ATOM      4  C   UNL     1      19.237  -4.632  15.554  1.00  0.00     0.177 C 
ATOM      5  O   UNL     1      21.391  -4.571  14.333  1.00  0.00    -0.341 OA
ATOM      6  C   UNL     1      19.760  -5.755  16.456  1.00  0.00     0.179 C 
ATOM      7  C   UNL     1      20.789  -6.568  15.665  1.00  0.00     0.202 C 
BRANCH   3   8
ATOM      8  C   UNL     1      21.001  -2.784  16.014  1.00  0.00     0.191 C 
BRANCH   8   9
ATOM      9  O   UNL     1      20.098  -1.748  16.289  1.00  0.00    -0.394 OA
ATOM     10  H   UNL     1      20.639  -0.962  16.563  1.00  0.00     0.210 HD
ENDBRANCH   8   9
ENDBRANCH   3   8
BRANCH   4  11
ATOM     11  O   UNL     1      18.274  -3.837  16.205  1.00  0.00    -0.387 OA
ATOM     12  H   UNL     1      18.110  -4.220  17.106  1.00  0.00     0.211 HD
ENDBRANCH   4  11
BRANCH   6  13
ATOM     13  O   UNL     1      18.684  -6.577  16.835  1.00  0.00    -0.387 OA
ATOM     14  H   UNL     1      18.967  -7.515  16.677  1.00  0.00     0.211 HD
ENDBRANCH   6  13
BRANCH   7  15
ATOM     15  O   UNL     1      21.348  -7.560  16.485  1.00  0.00    -0.385 OA
ATOM     16  H   UNL     1      21.111  -8.438  16.086  1.00  0.00     0.211 HD
ENDBRANCH   7  15
ENDBRANCH   1   2
BRANCH   1  17
ATOM     17  C   UNL     1      24.160  -5.287  15.868  1.00  0.00     0.224 C 
ATOM     18  C   UNL     1      24.770  -6.561  16.501  1.00  0.00     0.208 C 
ATOM     19  O   UNL     1      24.773  -4.177  16.493  1.00  0.00    -0.337 OA
ATOM     20  C   UNL     1      26.106  -6.109  17.062  1.00  0.00     0.180 C 
ATOM     21  C   UNL     1      26.010  -4.579  17.043  1.00  0.00     0.179 C 
BRANCH  17  22
ATOM     22  C   UNL     1      24.478  -5.200  14.341  1.00  0.00     0.225 C 
BRANCH  22  23
ATOM     23  O   UNL     1      24.978  -6.418  13.858  1.00  0.00    -0.391 OA
ATOM     24  H   UNL     1      25.964  -6.372  13.953  1.00  0.00     0.210 HD
ENDBRANCH  22  23
ENDBRANCH  17  22
BRANCH  18  25
ATOM     25  O   UNL     1      23.965  -7.087  17.530  1.00  0.00    -0.385 OA
ATOM     26  H   UNL     1      23.895  -8.068  17.397  1.00  0.00     0.211 HD
ENDBRANCH  18  25
BRANCH  20  27
ATOM     27  O   UNL     1      27.160  -6.535  16.238  1.00  0.00    -0.387 OA
ATOM     28  H   UNL     1      27.877  -5.854  16.316  1.00  0.00     0.211 HD
ENDBRANCH  20  27
BRANCH  21  29
ATOM     29  C   UNL     1      26.174  -3.960  18.438  1.00  0.00     0.191 C 
BRANCH  29  30
ATOM     30  O   UNL     1      24.938  -3.520  18.928  1.00  0.00    -0.394 OA
ATOM     31  H   UNL     1      24.605  -4.240  19.525  1.00  0.00     0.210 HD
ENDBRANCH  29  30
ENDBRANCH  21  29
ENDBRANCH   1  17
TORSDOF 13
ENDMDL
MODEL 6
REMARK VINA RESULT:    -5.729      1.425      5.528
REMARK INTER + INTRA:         -10.554
REMARK INTER:                  -9.273
REMARK INTRA:                  -1.280
REMARK UNBOUND:                -1.810
REMARK SMILES OC[C@@H]1O[C@](CO)(O[C@@H]2O[C@H](CO)[C@H](O)[C@@H](O)[C@@H]2O)[C@H](O)[C@H]1O
REMARK SMILES IDX 8 1 9 2 11 3 14 4 10 5 16 6 18 7 12 8 13 9 15 11 17 13 19 15
REMARK SMILES IDX 5 17 20 18 4 19 22 20 3 21 6 22 7 23 21 25 23 27 2 29 1 30
REMARK H PARENT 13 10 15 12 17 14 19 16 7 24 21 26 23 28 1 31
REMARK Flexibility Score: inf
ROOT
ATOM      1  O   UNL     1      23.739  -4.501  16.952  1.00  0.00    -0.313 OA
ENDROOT
BRANCH   1   2
ATOM      2  C   UNL     1      23.204  -5.370  15.959  1.00  0.00     0.285 C 
ATOM      3  C   UNL     1      21.213  -4.119  15.433  1.00  0.00     0.178 C 
ATOM      4  C   UNL     1      20.316  -5.214  16.056  1.00  0.00     0.177 C 
ATOM      5  O   UNL     1      22.470  -4.630  14.983  1.00  0.00    -0.341 OA
ATOM      6  C   UNL     1      21.053  -5.966  17.169  1.00  0.00     0.179 C 
ATOM      7  C   UNL     1      22.369  -6.503  16.597  1.00  0.00     0.202 C 
BRANCH   3   8
ATOM      8  C   UNL     1      21.351  -2.847  16.302  1.00  0.00     0.191 C 
BRANCH   8   9
ATOM      9  O   UNL     1      20.250  -2.000  16.125  1.00  0.00    -0.394 OA
ATOM     10  H   UNL     1      19.607  -2.484  15.544  1.00  0.00     0.210 HD
ENDBRANCH   8   9
ENDBRANCH   3   8
BRANCH   4  11
ATOM     11  O   UNL     1      19.085  -4.692  16.497  1.00  0.00    -0.387 OA
ATOM     12  H   UNL     1      19.169  -4.463  17.459  1.00  0.00     0.211 HD
ENDBRANCH   4  11
BRANCH   6  13
ATOM     13  O   UNL     1      20.250  -7.029  17.615  1.00  0.00    -0.387 OA
ATOM     14  H   UNL     1      20.616  -7.322  18.490  1.00  0.00     0.211 HD
ENDBRANCH   6  13
BRANCH   7  15
ATOM     15  O   UNL     1      23.109  -7.131  17.610  1.00  0.00    -0.385 OA
ATOM     16  H   UNL     1      22.587  -7.048  18.450  1.00  0.00     0.211 HD
ENDBRANCH   7  15
ENDBRANCH   1   2
BRANCH   1  17
ATOM     17  C   UNL     1      25.046  -3.987  16.666  1.00  0.00     0.224 C 
ATOM     18  C   UNL     1      25.906  -3.876  17.949  1.00  0.00     0.208 C 
ATOM     19  O   UNL     1      24.863  -2.675  16.174  1.00  0.00    -0.337 OA
ATOM     20  C   UNL     1      26.637  -2.553  17.808  1.00  0.00     0.180 C 
ATOM     21  C   UNL     1      25.890  -1.843  16.672  1.00  0.00     0.179 C 
BRANCH  17  22
ATOM     22  C   UNL     1      25.779  -4.806  15.557  1.00  0.00     0.225 C 
BRANCH  22  23
ATOM     23  O   UNL     1      26.965  -5.372  16.046  1.00  0.00    -0.391 OA
ATOM     24  H   UNL     1      27.687  -5.084  15.430  1.00  0.00     0.210 HD
ENDBRANCH  22  23
ENDBRANCH  17  22
BRANCH  18  25
ATOM     25  O   UNL     1      25.125  -3.875  19.120  1.00  0.00    -0.385 OA
ATOM     26  H   UNL     1      24.345  -4.471  18.972  1.00  0.00     0.211 HD
ENDBRANCH  18  25
BRANCH  20  27
ATOM     27  O   UNL     1      27.977  -2.763  17.445  1.00  0.00    -0.387 OA
ATOM     28  H   UNL     1      28.496  -2.816  18.290  1.00  0.00     0.211 HD
ENDBRANCH  20  27
BRANCH  21  29
ATOM     29  C   UNL     1      25.293  -0.499  17.109  1.00  0.00     0.191 C 
BRANCH  29  30
ATOM     30  O   UNL     1      24.003  -0.678  17.625  1.00  0.00    -0.394 OA
ATOM     31  H   UNL     1      24.120  -0.924  18.579  1.00  0.00     0.210 HD
ENDBRANCH  29  30
ENDBRANCH  21  29
ENDBRANCH   1  17
TORSDOF 13
ENDMDL
MODEL 7
REMARK VINA RESULT:    -5.598      1.762      5.633
REMARK INTER + INTRA:         -10.354
REMARK INTER:                  -9.774
REMARK INTRA:                  -0.580
REMARK UNBOUND:                -1.810
REMARK SMILES OC[C@@H]1O[C@](CO)(O[C@@H]2O[C@H](CO)[C@H](O)[C@@H](O)[C@@H]2O)[C@H](O)[C@H]1O
REMARK SMILES IDX 8 1 9 2 11 3 14 4 10 5 16 6 18 7 12 8 13 9 15 11 17 13 19 15
REMARK SMILES IDX 5 17 20 18 4 19 22 20 3 21 6 22 7 23 21 25 23 27 2 29 1 30
REMARK H PARENT 13 10 15 12 17 14 19 16 7 24 21 26 23 28 1 31
REMARK Flexibility Score: inf
ROOT
ATOM      1  O   UNL     1      23.057  -5.226  15.732  1.00  0.00    -0.313 OA
ENDROOT
BRANCH   1   2
ATOM      2  C   UNL     1      22.407  -4.828  16.934  1.00  0.00     0.285 C 
ATOM      3  C   UNL     1      20.208  -5.682  16.445  1.00  0.00     0.178 C 
ATOM      4  C   UNL     1      19.635  -4.250  16.337  1.00  0.00     0.177 C 
ATOM      5  O   UNL     1      21.370  -5.748  17.276  1.00  0.00    -0.341 OA
ATOM      6  C   UNL     1      20.711  -3.257  15.885  1.00  0.00     0.179 C 
ATOM      7  C   UNL     1      21.902  -3.370  16.842  1.00  0.00     0.202 C 
BRANCH   3   8
ATOM      8  C   UNL     1      20.396  -6.391  15.083  1.00  0.00     0.191 C 
BRANCH   8   9
ATOM      9  O   UNL     1      20.597  -7.766  15.259  1.00  0.00    -0.394 OA
ATOM     10  H   UNL     1      20.524  -8.184  14.361  1.00  0.00     0.210 HD
ENDBRANCH   8   9
ENDBRANCH   3   8
BRANCH   4  11
ATOM     11  O   UNL     1      18.495  -4.205  15.512  1.00  0.00    -0.387 OA
ATOM     12  H   UNL     1      17.696  -4.383  16.073  1.00  0.00     0.211 HD
ENDBRANCH   4  11
BRANCH   6  13
ATOM     13  O   UNL     1      20.180  -1.956  15.926  1.00  0.00    -0.387 OA
ATOM     14  H   UNL     1      19.258  -2.008  15.562  1.00  0.00     0.211 HD
ENDBRANCH   6  13
BRANCH   7  15
ATOM     15  O   UNL     1      22.941  -2.530  16.413  1.00  0.00    -0.385 OA
ATOM     16  H   UNL     1      23.525  -3.066  15.817  1.00  0.00     0.211 HD
ENDBRANCH   7  15
ENDBRANCH   1   2
BRANCH   1  17
ATOM     17  C   UNL     1      24.470  -5.439  15.848  1.00  0.00     0.224 C 
ATOM     18  C   UNL     1      24.788  -6.690  16.704  1.00  0.00     0.208 C 
ATOM     19  O   UNL     1      24.989  -4.320  16.538  1.00  0.00    -0.337 OA
ATOM     20  C   UNL     1      25.966  -6.274  17.567  1.00  0.00     0.180 C 
ATOM     21  C   UNL     1      26.005  -4.748  17.422  1.00  0.00     0.179 C 
BRANCH  17  22
ATOM     22  C   UNL     1      25.179  -5.503  14.458  1.00  0.00     0.225 C 
BRANCH  22  23
ATOM     23  O   UNL     1      24.305  -5.970  13.466  1.00  0.00    -0.391 OA
ATOM     24  H   UNL     1      24.367  -5.327  12.713  1.00  0.00     0.210 HD
ENDBRANCH  22  23
ENDBRANCH  17  22
BRANCH  18  25
ATOM     25  O   UNL     1      23.704  -7.074  17.516  1.00  0.00    -0.385 OA
ATOM     26  H   UNL     1      23.427  -6.287  18.055  1.00  0.00     0.211 HD
ENDBRANCH  18  25
BRANCH  20  27
ATOM     27  O   UNL     1      27.159  -6.834  17.081  1.00  0.00    -0.387 OA
ATOM     28  H   UNL     1      27.498  -6.219  16.379  1.00  0.00     0.211 HD
ENDBRANCH  20  27
BRANCH  21  29
ATOM     29  C   UNL     1      25.852  -4.024  18.766  1.00  0.00     0.191 C 
BRANCH  29  30
ATOM     30  O   UNL     1      24.811  -3.088  18.704  1.00  0.00    -0.394 OA
ATOM     31  H   UNL     1      24.600  -2.848  19.643  1.00  0.00     0.210 HD
ENDBRANCH  29  30
ENDBRANCH  21  29
ENDBRANCH   1  17
TORSDOF 13
ENDMDL
MODEL 8
REMARK VINA RESULT:    -5.536      1.405      2.702
REMARK INTER + INTRA:         -10.259
REMARK INTER:                 -10.240
REMARK INTRA:                  -0.020
REMARK UNBOUND:                -1.810
REMARK SMILES OC[C@@H]1O[C@](CO)(O[C@@H]2O[C@H](CO)[C@H](O)[C@@H](O)[C@@H]2O)[C@H](O)[C@H]1O
REMARK SMILES IDX 8 1 9 2 11 3 14 4 10 5 16 6 18 7 12 8 13 9 15 11 17 13 19 15
REMARK SMILES IDX 5 17 20 18 4 19 22 20 3 21 6 22 7 23 21 25 23 27 2 29 1 30
REMARK H PARENT 13 10 15 12 17 14 19 16 7 24 21 26 23 28 1 31
REMARK Flexibility Score: inf
ROOT
ATOM      1  O   UNL     1      23.160  -5.530  16.838  1.00  0.00    -0.313 OA
ENDROOT
BRANCH   1   2
ATOM      2  C   UNL     1      24.030  -4.705  16.073  1.00  0.00     0.285 C 
ATOM      3  C   UNL     1      26.130  -5.623  16.817  1.00  0.00     0.178 C 
ATOM      4  C   UNL     1      26.480  -4.315  17.565  1.00  0.00     0.177 C 
ATOM      5  O   UNL     1      25.225  -5.409  15.732  1.00  0.00    -0.341 OA
ATOM      6  C   UNL     1      25.213  -3.583  18.020  1.00  0.00     0.179 C 
ATOM      7  C   UNL     1      24.316  -3.368  16.797  1.00  0.00     0.202 C 
BRANCH   3   8
ATOM      8  C   UNL     1      25.702  -6.784  17.744  1.00  0.00     0.191 C 
BRANCH   8   9
ATOM      9  O   UNL     1      25.097  -7.812  17.009  1.00  0.00    -0.394 OA
ATOM     10  H   UNL     1      25.364  -8.667  17.439  1.00  0.00     0.210 HD
ENDBRANCH   8   9
ENDBRANCH   3   8
BRANCH   4  11
ATOM     11  O   UNL     1      27.369  -4.546  18.632  1.00  0.00    -0.387 OA
ATOM     12  H   UNL     1      27.051  -4.032  19.420  1.00  0.00     0.211 HD
ENDBRANCH   4  11
BRANCH   6  13
ATOM     13  O   UNL     1      25.574  -2.344  18.577  1.00  0.00    -0.387 OA
ATOM     14  H   UNL     1      26.123  -2.538  19.382  1.00  0.00     0.211 HD
ENDBRANCH   6  13
BRANCH   7  15
ATOM     15  O   UNL     1      23.109  -2.769  17.189  1.00  0.00    -0.385 OA
ATOM     16  H   UNL     1      23.222  -2.470  18.128  1.00  0.00     0.211 HD
ENDBRANCH   7  15
ENDBRANCH   1   2
BRANCH   1  17
ATOM     17  C   UNL     1      21.843  -5.689  16.295  1.00  0.00     0.224 C 
ATOM     18  C   UNL     1      21.880  -5.887  14.760  1.00  0.00     0.208 C 
ATOM     19  O   UNL     1      21.158  -4.477  16.542  1.00  0.00    -0.337 OA
ATOM     20  C   UNL     1      20.723  -5.055  14.238  1.00  0.00     0.180 C 
ATOM     21  C   UNL     1      20.343  -4.169  15.430  1.00  0.00     0.179 C 
BRANCH  17  22
ATOM     22  C   UNL     1      21.042  -6.831  16.999  1.00  0.00     0.225 C 
BRANCH  22  23
ATOM     23  O   UNL     1      20.748  -7.869  16.103  1.00  0.00    -0.391 OA
ATOM     24  H   UNL     1      19.789  -8.086  16.232  1.00  0.00     0.210 HD
ENDBRANCH  22  23
ENDBRANCH  17  22
BRANCH  18  25
ATOM     25  O   UNL     1      23.090  -5.445  14.191  1.00  0.00    -0.385 OA
ATOM     26  H   UNL     1      22.927  -5.253  13.231  1.00  0.00     0.211 HD
ENDBRANCH  18  25
BRANCH  20  27
ATOM     27  O   UNL     1      19.640  -5.877  13.885  1.00  0.00    -0.387 OA
ATOM     28  H   UNL     1      19.973  -6.505  13.191  1.00  0.00     0.211 HD
ENDBRANCH  20  27
BRANCH  21  29
ATOM     29  C   UNL     1      20.455  -2.672  15.113  1.00  0.00     0.191 C 
BRANCH  29  30
ATOM     30  O   UNL     1      20.375  -1.913  16.288  1.00  0.00    -0.394 OA
ATOM     31  H   UNL     1      20.062  -2.534  16.996  1.00  0.00     0.210 HD
ENDBRANCH  29  30
ENDBRANCH  21  29
ENDBRANCH   1  17
TORSDOF 13
ENDMDL
MODEL 9
REMARK VINA RESULT:    -5.533      3.354      5.739
REMARK INTER + INTRA:         -10.255
REMARK INTER:                  -8.632
REMARK INTRA:                  -1.623
REMARK UNBOUND:                -1.810
REMARK SMILES OC[C@@H]1O[C@](CO)(O[C@@H]2O[C@H](CO)[C@H](O)[C@@H](O)[C@@H]2O)[C@H](O)[C@H]1O
REMARK SMILES IDX 8 1 9 2 11 3 14 4 10 5 16 6 18 7 12 8 13 9 15 11 17 13 19 15
REMARK SMILES IDX 5 17 20 18 4 19 22 20 3 21 6 22 7 23 21 25 23 27 2 29 1 30
REMARK H PARENT 13 10 15 12 17 14 19 16 7 24 21 26 23 28 1 31
REMARK Flexibility Score: inf
ROOT
ATOM      1  O   UNL     1      19.589  -7.507  15.946  1.00  0.00    -0.313 OA
ENDROOT
BRANCH   1   2
ATOM      2  C   UNL     1      19.956  -6.544  16.927  1.00  0.00     0.285 C 
ATOM      3  C   UNL     1      19.312  -4.556  15.727  1.00  0.00     0.178 C 
ATOM      4  C   UNL     1      20.790  -4.123  15.576  1.00  0.00     0.177 C 
ATOM      5  O   UNL     1      19.101  -5.402  16.859  1.00  0.00    -0.341 OA
ATOM      6  C   UNL     1      21.722  -5.338  15.557  1.00  0.00     0.179 C 
ATOM      7  C   UNL     1      21.453  -6.172  16.814  1.00  0.00     0.202 C 
BRANCH   3   8
ATOM      8  C   UNL     1      18.683  -5.113  14.428  1.00  0.00     0.191 C 
BRANCH   8   9
ATOM      9  O   UNL     1      17.391  -5.598  14.668  1.00  0.00    -0.394 OA
ATOM     10  H   UNL     1      17.277  -5.634  15.654  1.00  0.00     0.210 HD
ENDBRANCH   8   9
ENDBRANCH   3   8
BRANCH   4  11
ATOM     11  O   UNL     1      20.979  -3.294  14.454  1.00  0.00    -0.387 OA
ATOM     12  H   UNL     1      21.725  -3.666  13.913  1.00  0.00     0.211 HD
ENDBRANCH   4  11
BRANCH   6  13
ATOM     13  O   UNL     1      23.055  -4.894  15.550  1.00  0.00    -0.387 OA
ATOM     14  H   UNL     1      23.188  -4.362  16.378  1.00  0.00     0.211 HD
ENDBRANCH   6  13
BRANCH   7  15
ATOM     15  O   UNL     1      22.235  -7.336  16.793  1.00  0.00    -0.385 OA
ATOM     16  H   UNL     1      21.822  -7.955  16.135  1.00  0.00     0.211 HD
ENDBRANCH   7  15
ENDBRANCH   1   2
BRANCH   1  17
ATOM     17  C   UNL     1      18.626  -8.477  16.380  1.00  0.00     0.224 C 
ATOM     18  C   UNL     1      19.071  -9.917  16.025  1.00  0.00     0.208 C 
ATOM     19  O   UNL     1      17.440  -8.217  15.657  1.00  0.00    -0.337 OA
ATOM     20  C   UNL     1      17.804 -10.602  15.546  1.00  0.00     0.180 C 
ATOM     21  C   UNL     1      16.828  -9.443  15.312  1.00  0.00     0.179 C 
BRANCH  17  22
ATOM     22  C   UNL     1      18.289  -8.342  17.899  1.00  0.00     0.225 C 
BRANCH  22  23
ATOM     23  O   UNL     1      18.599  -9.520  18.593  1.00  0.00    -0.391 OA
ATOM     24  H   UNL     1      19.550  -9.719  18.394  1.00  0.00     0.210 HD
ENDBRANCH  22  23
ENDBRANCH  17  22
BRANCH  18  25
ATOM     25  O   UNL     1      20.048  -9.943  15.011  1.00  0.00    -0.385 OA
ATOM     26  H   UNL     1      20.938  -9.831  15.437  1.00  0.00     0.211 HD
ENDBRANCH  18  25
BRANCH  20  27
ATOM     27  O   UNL     1      17.301 -11.462  16.535  1.00  0.00    -0.387 OA
ATOM     28  H   UNL     1      16.370 -11.171  16.721  1.00  0.00     0.211 HD
ENDBRANCH  20  27
BRANCH  21  29
ATOM     29  C   UNL     1      16.328  -9.375  13.863  1.00  0.00     0.191 C 
BRANCH  29  30
ATOM     30  O   UNL     1      16.399  -8.062  13.380  1.00  0.00    -0.394 OA
ATOM     31  H   UNL     1      16.087  -8.098  12.438  1.00  0.00     0.210 HD
ENDBRANCH  29  30
ENDBRANCH  21  29
ENDBRANCH   1  17
TORSDOF 13
ENDMDL
