MODEL 1
REMARK VINA RESULT:    -3.525      0.000      0.000
REMARK INTER + INTRA:          -6.020
REMARK INTER:                  -5.379
REMARK INTRA:                  -0.641
REMARK UNBOUND:                -0.641
REMARK SMILES CCCCCCCCCCC(=O)[O-]
REMARK SMILES IDX 7 1 8 2 9 3 10 4 11 5 12 6 13 7 6 8 5 9 4 10 3 11 2 12 1 13
REMARK H PARENT
REMARK Flexibility Score: inf
ROOT
ATOM      1  C   UNL     1      36.418   6.885  -6.418  1.00  0.00     0.000 C 
ENDROOT
BRANCH   1   2
ATOM      2  C   UNL     1      36.032   7.968  -5.399  1.00  0.00     0.000 C 
BRANCH   2   3
ATOM      3  C   UNL     1      35.177   7.377  -4.268  1.00  0.00     0.006 C 
BRANCH   3   4
ATOM      4  C   UNL     1      34.360   8.448  -3.535  1.00  0.00     0.053 C 
BRANCH   4   5
ATOM      5  C   UNL     1      34.638   8.447  -2.062  1.00  0.00     0.041 C 
ATOM      6  O   UNL     1      33.736   8.121  -1.247  1.00  0.00    -0.550 OA
ATOM      7  O   UNL     1      35.884   8.839  -1.591  1.00  0.00    -0.550 OA
ENDBRANCH   4   5
ENDBRANCH   3   4
ENDBRANCH   2   3
ENDBRANCH   1   2
BRANCH   1   8
ATOM      8  C   UNL     1      35.259   6.513  -7.356  1.00  0.00     0.000 C 
BRANCH   8   9
ATOM      9  C   UNL     1      34.680   5.120  -7.055  1.00  0.00    -0.000 C 
BRANCH   9  10
ATOM     10  C   UNL     1      33.192   5.164  -6.661  1.00  0.00    -0.000 C 
BRANCH  10  11
ATOM     11  C   UNL     1      32.272   5.909  -7.650  1.00  0.00    -0.000 C 
BRANCH  11  12
ATOM     12  C   UNL     1      31.488   7.089  -7.047  1.00  0.00    -0.003 C 
ATOM     13  C   UNL     1      29.974   6.903  -7.133  1.00  0.00     0.004 C 
ENDBRANCH  11  12
ENDBRANCH  10  11
ENDBRANCH   9  10
ENDBRANCH   8   9
ENDBRANCH   1   8
TORSDOF 9
ENDMDL
MODEL 2
REMARK VINA RESULT:    -3.488      2.750      4.868
REMARK INTER + INTRA:          -5.964
REMARK INTER:                  -5.203
REMARK INTRA:                  -0.760
REMARK UNBOUND:                -0.641
REMARK SMILES CCCCCCCCCCC(=O)[O-]
REMARK SMILES IDX 7 1 8 2 9 3 10 4 11 5 12 6 13 7 6 8 5 9 4 10 3 11 2 12 1 13
REMARK H PARENT
REMARK Flexibility Score: inf
ROOT
ATOM      1  C   UNL     1      31.213   7.047  -7.054  1.00  0.00     0.000 C 
ENDROOT
BRANCH   1   2
ATOM      2  C   UNL     1      31.891   5.681  -7.241  1.00  0.00     0.000 C 
BRANCH   2   3
ATOM      3  C   UNL     1      33.420   5.826  -7.267  1.00  0.00     0.006 C 
BRANCH   3   4
ATOM      4  C   UNL     1      33.943   6.677  -6.103  1.00  0.00     0.053 C 
BRANCH   4   5
ATOM      5  C   UNL     1      34.998   5.956  -5.320  1.00  0.00     0.041 C 
ATOM      6  O   UNL     1      36.217   6.170  -5.551  1.00  0.00    -0.550 OA
ATOM      7  O   UNL     1      34.632   5.026  -4.356  1.00  0.00    -0.550 OA
ENDBRANCH   4   5
ENDBRANCH   3   4
ENDBRANCH   2   3
ENDBRANCH   1   2
BRANCH   1   8
ATOM      8  C   UNL     1      29.686   6.939  -6.912  1.00  0.00     0.000 C 
BRANCH   8   9
ATOM      9  C   UNL     1      28.948   8.127  -7.553  1.00  0.00    -0.000 C 
BRANCH   9  10
ATOM     10  C   UNL     1      29.233   8.265  -9.060  1.00  0.00    -0.000 C 
BRANCH  10  11
ATOM     11  C   UNL     1      28.494   7.258  -9.964  1.00  0.00    -0.000 C 
BRANCH  11  12
ATOM     12  C   UNL     1      29.347   6.642 -11.087  1.00  0.00    -0.003 C 
ATOM     13  C   UNL     1      30.842   6.649 -10.769  1.00  0.00     0.004 C 
ENDBRANCH  11  12
ENDBRANCH  10  11
ENDBRANCH   9  10
ENDBRANCH   8   9
ENDBRANCH   1   8
TORSDOF 9
ENDMDL
MODEL 3
REMARK VINA RESULT:    -3.472      2.804      4.169
REMARK INTER + INTRA:          -5.940
REMARK INTER:                  -4.991
REMARK INTRA:                  -0.949
REMARK UNBOUND:                -0.641
REMARK SMILES CCCCCCCCCCC(=O)[O-]
REMARK SMILES IDX 7 1 8 2 9 3 10 4 11 5 12 6 13 7 6 8 5 9 4 10 3 11 2 12 1 13
REMARK H PARENT
REMARK Flexibility Score: inf
ROOT
ATOM      1  C   UNL     1      33.022   7.035  -9.126  1.00  0.00     0.000 C 
ENDROOT
BRANCH   1   2
ATOM      2  C   UNL     1      33.094   7.073  -7.592  1.00  0.00     0.000 C 
BRANCH   2   3
ATOM      3  C   UNL     1      33.012   5.655  -7.004  1.00  0.00     0.006 C 
BRANCH   3   4
ATOM      4  C   UNL     1      34.398   5.065  -6.715  1.00  0.00     0.053 C 
BRANCH   4   5
ATOM      5  C   UNL     1      34.818   5.304  -5.296  1.00  0.00     0.041 C 
ATOM      6  O   UNL     1      34.260   4.679  -4.356  1.00  0.00    -0.550 OA
ATOM      7  O   UNL     1      35.802   6.241  -5.011  1.00  0.00    -0.550 OA
ENDBRANCH   4   5
ENDBRANCH   3   4
ENDBRANCH   2   3
ENDBRANCH   1   2
BRANCH   1   8
ATOM      8  C   UNL     1      32.027   5.986  -9.649  1.00  0.00     0.000 C 
BRANCH   8   9
ATOM      9  C   UNL     1      31.028   6.573 -10.661  1.00  0.00    -0.000 C 
BRANCH   9  10
ATOM     10  C   UNL     1      30.251   7.779 -10.103  1.00  0.00    -0.000 C 
BRANCH  10  11
ATOM     11  C   UNL     1      28.994   7.428  -9.280  1.00  0.00    -0.000 C 
BRANCH  11  12
ATOM     12  C   UNL     1      28.980   7.985  -7.845  1.00  0.00    -0.003 C 
ATOM     13  C   UNL     1      29.576   7.016  -6.825  1.00  0.00     0.004 C 
ENDBRANCH  11  12
ENDBRANCH  10  11
ENDBRANCH   9  10
ENDBRANCH   8   9
ENDBRANCH   1   8
TORSDOF 9
ENDMDL
MODEL 4
REMARK VINA RESULT:    -3.285      5.636      7.321
REMARK INTER + INTRA:          -5.654
REMARK INTER:                  -4.693
REMARK INTRA:                  -0.961
REMARK UNBOUND:                -0.641
REMARK SMILES CCCCCCCCCCC(=O)[O-]
REMARK SMILES IDX 7 1 8 2 9 3 10 4 11 5 12 6 13 7 6 8 5 9 4 10 3 11 2 12 1 13
REMARK H PARENT
REMARK Flexibility Score: inf
ROOT
ATOM      1  C   UNL     1      38.289   5.014  -7.680  1.00  0.00     0.000 C 
ENDROOT
BRANCH   1   2
ATOM      2  C   UNL     1      39.373   4.242  -6.911  1.00  0.00     0.000 C 
BRANCH   2   3
ATOM      3  C   UNL     1      39.393   2.763  -7.328  1.00  0.00     0.006 C 
BRANCH   3   4
ATOM      4  C   UNL     1      40.797   2.153  -7.242  1.00  0.00     0.053 C 
BRANCH   4   5
ATOM      5  C   UNL     1      41.047   1.523  -5.905  1.00  0.00     0.041 C 
ATOM      6  O   UNL     1      42.177   1.622  -5.359  1.00  0.00    -0.550 OA
ATOM      7  O   UNL     1      40.040   0.801  -5.279  1.00  0.00    -0.550 OA
ENDBRANCH   4   5
ENDBRANCH   3   4
ENDBRANCH   2   3
ENDBRANCH   1   2
BRANCH   1   8
ATOM      8  C   UNL     1      36.960   5.096  -6.912  1.00  0.00     0.000 C 
BRANCH   8   9
ATOM      9  C   UNL     1      35.769   4.579  -7.736  1.00  0.00    -0.000 C 
BRANCH   9  10
ATOM     10  C   UNL     1      36.197   3.949  -9.074  1.00  0.00    -0.000 C 
BRANCH  10  11
ATOM     11  C   UNL     1      35.904   2.441  -9.214  1.00  0.00    -0.000 C 
BRANCH  11  12
ATOM     12  C   UNL     1      35.831   1.667  -7.886  1.00  0.00    -0.003 C 
ATOM     13  C   UNL     1      36.687   0.401  -7.887  1.00  0.00     0.004 C 
ENDBRANCH  11  12
ENDBRANCH  10  11
ENDBRANCH   9  10
ENDBRANCH   8   9
ENDBRANCH   1   8
TORSDOF 9
ENDMDL
MODEL 5
REMARK VINA RESULT:    -3.266     10.889     11.783
REMARK INTER + INTRA:          -5.625
REMARK INTER:                  -5.095
REMARK INTRA:                  -0.531
REMARK UNBOUND:                -0.641
REMARK SMILES CCCCCCCCCCC(=O)[O-]
REMARK SMILES IDX 7 1 8 2 9 3 10 4 11 5 12 6 13 7 6 8 5 9 4 10 3 11 2 12 1 13
REMARK H PARENT
REMARK Flexibility Score: inf
ROOT
ATOM      1  C   UNL     1      30.894  -1.516   2.841  1.00  0.00     0.000 C 
ENDROOT
BRANCH   1   2
ATOM      2  C   UNL     1      30.866   0.016   2.737  1.00  0.00     0.000 C 
BRANCH   2   3
ATOM      3  C   UNL     1      31.985   0.523   1.813  1.00  0.00     0.006 C 
BRANCH   3   4
ATOM      4  C   UNL     1      32.476   1.921   2.208  1.00  0.00     0.053 C 
BRANCH   4   5
ATOM      5  C   UNL     1      32.329   2.900   1.082  1.00  0.00     0.041 C 
ATOM      6  O   UNL     1      31.263   3.557   0.949  1.00  0.00    -0.550 OA
ATOM      7  O   UNL     1      33.357   3.061   0.163  1.00  0.00    -0.550 OA
ENDBRANCH   4   5
ENDBRANCH   3   4
ENDBRANCH   2   3
ENDBRANCH   1   2
BRANCH   1   8
ATOM      8  C   UNL     1      29.604  -2.094   3.445  1.00  0.00     0.000 C 
BRANCH   8   9
ATOM      9  C   UNL     1      28.467  -1.060   3.509  1.00  0.00    -0.000 C 
BRANCH   9  10
ATOM     10  C   UNL     1      27.423  -1.251   2.393  1.00  0.00    -0.000 C 
BRANCH  10  11
ATOM     11  C   UNL     1      27.541  -2.569   1.601  1.00  0.00    -0.000 C 
BRANCH  11  12
ATOM     12  C   UNL     1      26.378  -3.557   1.804  1.00  0.00    -0.003 C 
ATOM     13  C   UNL     1      25.030  -2.860   1.982  1.00  0.00     0.004 C 
ENDBRANCH  11  12
ENDBRANCH  10  11
ENDBRANCH   9  10
ENDBRANCH   8   9
ENDBRANCH   1   8
TORSDOF 9
ENDMDL
MODEL 6
REMARK VINA RESULT:    -3.266      2.200      3.336
REMARK INTER + INTRA:          -5.625
REMARK INTER:                  -4.938
REMARK INTRA:                  -0.686
REMARK UNBOUND:                -0.641
REMARK SMILES CCCCCCCCCCC(=O)[O-]
REMARK SMILES IDX 7 1 8 2 9 3 10 4 11 5 12 6 13 7 6 8 5 9 4 10 3 11 2 12 1 13
REMARK H PARENT
REMARK Flexibility Score: inf
ROOT
ATOM      1  C   UNL     1      34.620   5.909  -8.849  1.00  0.00     0.000 C 
ENDROOT
BRANCH   1   2
ATOM      2  C   UNL     1      34.880   4.905  -7.715  1.00  0.00     0.000 C 
BRANCH   2   3
ATOM      3  C   UNL     1      36.229   5.183  -7.035  1.00  0.00     0.006 C 
BRANCH   3   4
ATOM      4  C   UNL     1      36.192   6.443  -6.161  1.00  0.00     0.053 C 
BRANCH   4   5
ATOM      5  C   UNL     1      35.080   6.389  -5.157  1.00  0.00     0.041 C 
ATOM      6  O   UNL     1      34.338   7.390  -4.978  1.00  0.00    -0.550 OA
ATOM      7  O   UNL     1      34.886   5.243  -4.398  1.00  0.00    -0.550 OA
ENDBRANCH   4   5
ENDBRANCH   3   4
ENDBRANCH   2   3
ENDBRANCH   1   2
BRANCH   1   8
ATOM      8  C   UNL     1      33.418   6.825  -8.569  1.00  0.00     0.000 C 
BRANCH   8   9
ATOM      9  C   UNL     1      32.339   6.137  -7.716  1.00  0.00    -0.000 C 
BRANCH   9  10
ATOM     10  C   UNL     1      31.371   7.138  -7.058  1.00  0.00    -0.000 C 
BRANCH  10  11
ATOM     11  C   UNL     1      29.877   6.764  -7.147  1.00  0.00    -0.000 C 
BRANCH  11  12
ATOM     12  C   UNL     1      28.967   7.857  -7.736  1.00  0.00    -0.003 C 
ATOM     13  C   UNL     1      28.616   7.612  -9.203  1.00  0.00     0.004 C 
ENDBRANCH  11  12
ENDBRANCH  10  11
ENDBRANCH   9  10
ENDBRANCH   8   9
ENDBRANCH   1   8
TORSDOF 9
ENDMDL
MODEL 7
REMARK VINA RESULT:    -3.217      6.503      7.835
REMARK INTER + INTRA:          -5.550
REMARK INTER:                  -4.817
REMARK INTRA:                  -0.733
REMARK UNBOUND:                -0.641
REMARK SMILES CCCCCCCCCCC(=O)[O-]
REMARK SMILES IDX 7 1 8 2 9 3 10 4 11 5 12 6 13 7 6 8 5 9 4 10 3 11 2 12 1 13
REMARK H PARENT
REMARK Flexibility Score: inf
ROOT
ATOM      1  C   UNL     1      38.175   3.613  -8.525  1.00  0.00     0.000 C 
ENDROOT
BRANCH   1   2
ATOM      2  C   UNL     1      38.936   4.604  -7.630  1.00  0.00     0.000 C 
BRANCH   2   3
ATOM      3  C   UNL     1      39.720   3.864  -6.536  1.00  0.00     0.006 C 
BRANCH   3   4
ATOM      4  C   UNL     1      40.383   2.584  -7.060  1.00  0.00     0.053 C 
BRANCH   4   5
ATOM      5  C   UNL     1      40.759   1.657  -5.943  1.00  0.00     0.041 C 
ATOM      6  O   UNL     1      39.915   0.844  -5.483  1.00  0.00    -0.550 OA
ATOM      7  O   UNL     1      42.032   1.715  -5.391  1.00  0.00    -0.550 OA
ENDBRANCH   4   5
ENDBRANCH   3   4
ENDBRANCH   2   3
ENDBRANCH   1   2
BRANCH   1   8
ATOM      8  C   UNL     1      36.676   3.544  -8.195  1.00  0.00     0.000 C 
BRANCH   8   9
ATOM      9  C   UNL     1      36.180   2.101  -8.002  1.00  0.00    -0.000 C 
BRANCH   9  10
ATOM     10  C   UNL     1      37.227   1.049  -8.412  1.00  0.00    -0.000 C 
BRANCH  10  11
ATOM     11  C   UNL     1      36.783  -0.419  -8.250  1.00  0.00    -0.000 C 
BRANCH  11  12
ATOM     12  C   UNL     1      37.056  -1.032  -6.865  1.00  0.00    -0.003 C 
ATOM     13  C   UNL     1      35.784  -1.507  -6.164  1.00  0.00     0.004 C 
ENDBRANCH  11  12
ENDBRANCH  10  11
ENDBRANCH   9  10
ENDBRANCH   8   9
ENDBRANCH   1   8
TORSDOF 9
ENDMDL
MODEL 8
REMARK VINA RESULT:    -3.181      3.818      5.710
REMARK INTER + INTRA:          -5.496
REMARK INTER:                  -4.547
REMARK INTRA:                  -0.949
REMARK UNBOUND:                -0.641
REMARK SMILES CCCCCCCCCCC(=O)[O-]
REMARK SMILES IDX 7 1 8 2 9 3 10 4 11 5 12 6 13 7 6 8 5 9 4 10 3 11 2 12 1 13
REMARK H PARENT
REMARK Flexibility Score: inf
ROOT
ATOM      1  C   UNL     1      37.300   4.843  -8.485  1.00  0.00     0.000 C 
ENDROOT
BRANCH   1   2
ATOM      2  C   UNL     1      35.763   4.843  -8.521  1.00  0.00     0.000 C 
BRANCH   2   3
ATOM      3  C   UNL     1      35.184   4.229  -7.238  1.00  0.00     0.006 C 
BRANCH   3   4
ATOM      4  C   UNL     1      34.255   5.198  -6.496  1.00  0.00     0.053 C 
BRANCH   4   5
ATOM      5  C   UNL     1      34.643   5.347  -5.057  1.00  0.00     0.041 C 
ATOM      6  O   UNL     1      34.245   4.512  -4.202  1.00  0.00    -0.550 OA
ATOM      7  O   UNL     1      35.419   6.427  -4.655  1.00  0.00    -0.550 OA
ENDBRANCH   4   5
ENDBRANCH   3   4
ENDBRANCH   2   3
ENDBRANCH   1   2
BRANCH   1   8
ATOM      8  C   UNL     1      37.860   4.801  -7.054  1.00  0.00     0.000 C 
BRANCH   8   9
ATOM      9  C   UNL     1      39.142   3.957  -6.947  1.00  0.00    -0.000 C 
BRANCH   9  10
ATOM     10  C   UNL     1      39.166   2.779  -7.938  1.00  0.00    -0.000 C 
BRANCH  10  11
ATOM     11  C   UNL     1      38.867   1.397  -7.324  1.00  0.00    -0.000 C 
BRANCH  11  12
ATOM     12  C   UNL     1      37.870   0.534  -8.118  1.00  0.00    -0.003 C 
ATOM     13  C   UNL     1      36.413   0.893  -7.832  1.00  0.00     0.004 C 
ENDBRANCH  11  12
ENDBRANCH  10  11
ENDBRANCH   9  10
ENDBRANCH   8   9
ENDBRANCH   1   8
TORSDOF 9
ENDMDL
MODEL 9
REMARK VINA RESULT:    -3.163     10.974     12.783
REMARK INTER + INTRA:          -5.468
REMARK INTER:                  -4.396
REMARK INTRA:                  -1.072
REMARK UNBOUND:                -0.641
REMARK SMILES CCCCCCCCCCC(=O)[O-]
REMARK SMILES IDX 7 1 8 2 9 3 10 4 11 5 12 6 13 7 6 8 5 9 4 10 3 11 2 12 1 13
REMARK H PARENT
REMARK Flexibility Score: inf
ROOT
ATOM      1  C   UNL     1      41.734  -0.673   2.806  1.00  0.00     0.000 C 
ENDROOT
BRANCH   1   2
ATOM      2  C   UNL     1      42.301  -1.289   1.517  1.00  0.00     0.000 C 
BRANCH   2   3
ATOM      3  C   UNL     1      41.567  -0.746   0.281  1.00  0.00     0.006 C 
BRANCH   3   4
ATOM      4  C   UNL     1      40.386   0.158   0.656  1.00  0.00     0.053 C 
BRANCH   4   5
ATOM      5  C   UNL     1      39.161  -0.171  -0.142  1.00  0.00     0.041 C 
ATOM      6  O   UNL     1      38.024  -0.134   0.397  1.00  0.00    -0.550 OA
ATOM      7  O   UNL     1      39.281  -0.548  -1.473  1.00  0.00    -0.550 OA
ENDBRANCH   4   5
ENDBRANCH   3   4
ENDBRANCH   2   3
ENDBRANCH   1   2
BRANCH   1   8
ATOM      8  C   UNL     1      42.833  -0.217   3.779  1.00  0.00     0.000 C 
BRANCH   8   9
ATOM      9  C   UNL     1      42.562   1.181   4.361  1.00  0.00    -0.000 C 
BRANCH   9  10
ATOM     10  C   UNL     1      42.073   2.185   3.301  1.00  0.00    -0.000 C 
BRANCH  10  11
ATOM     11  C   UNL     1      40.873   3.057   3.725  1.00  0.00    -0.000 C 
BRANCH  11  12
ATOM     12  C   UNL     1      39.540   2.706   3.042  1.00  0.00    -0.003 C 
ATOM     13  C   UNL     1      38.817   1.539   3.713  1.00  0.00     0.004 C 
ENDBRANCH  11  12
ENDBRANCH  10  11
ENDBRANCH   9  10
ENDBRANCH   8   9
ENDBRANCH   1   8
TORSDOF 9
ENDMDL
