MODEL 1
REMARK VINA RESULT:    -3.816      0.000      0.000
REMARK INTER + INTRA:          -4.468
REMARK INTER:                  -4.374
REMARK INTRA:                  -0.094
REMARK UNBOUND:                -0.094
REMARK SMILES COc1ccc(C(C)=O)cc1O
REMARK SMILES IDX 6 1 10 2 11 3 3 4 4 5 5 6 7 7 8 8 9 9 12 10 2 12 1 13
REMARK H PARENT 12 11
REMARK Flexibility Score: inf
ROOT
ATOM      1  C   UNL     1       0.848 -13.932   9.975  1.00  0.00     0.021 A 
ATOM      2  C   UNL     1       1.063 -15.187   9.376  1.00  0.00     0.062 A 
ATOM      3  C   UNL     1       1.544 -16.267  10.126  1.00  0.00     0.158 A 
ATOM      4  C   UNL     1       1.822 -16.110  11.495  1.00  0.00     0.160 A 
ATOM      5  C   UNL     1       1.607 -14.856  12.096  1.00  0.00     0.051 A 
ATOM      6  C   UNL     1       1.127 -13.782  11.344  1.00  0.00     0.016 A 
ENDROOT
BRANCH   1   7
ATOM      7  C   UNL     1       0.336 -12.776   9.188  1.00  0.00     0.159 C 
ATOM      8  C   UNL     1       0.592 -12.642   7.716  1.00  0.00     0.093 C 
ATOM      9  O   UNL     1      -0.334 -11.876   9.763  1.00  0.00    -0.295 OA
ENDBRANCH   1   7
BRANCH   3  10
ATOM     10  O   UNL     1       1.741 -17.492   9.489  1.00  0.00    -0.504 OA
ATOM     11  H   UNL     1       1.105 -18.272   9.609  1.00  0.00     0.293 HD
ENDBRANCH   3  10
BRANCH   4  12
ATOM     12  O   UNL     1       2.303 -17.210  12.221  1.00  0.00    -0.493 OA
ATOM     13  C   UNL     1       2.505 -17.222  13.630  1.00  0.00     0.278 C 
ENDBRANCH   4  12
TORSDOF 3
ENDMDL
MODEL 2
REMARK VINA RESULT:    -3.663      1.605      4.743
REMARK INTER + INTRA:          -4.293
REMARK INTER:                  -4.198
REMARK INTRA:                  -0.095
REMARK UNBOUND:                -0.094
REMARK SMILES COc1ccc(C(C)=O)cc1O
REMARK SMILES IDX 6 1 10 2 11 3 3 4 4 5 5 6 7 7 8 8 9 9 12 10 2 12 1 13
REMARK H PARENT 12 11
REMARK Flexibility Score: inf
ROOT
ATOM      1  C   UNL     1       2.185 -15.423  10.864  1.00  0.00     0.021 A 
ATOM      2  C   UNL     1       1.154 -16.013  10.109  1.00  0.00     0.062 A 
ATOM      3  C   UNL     1       0.515 -15.300   9.088  1.00  0.00     0.158 A 
ATOM      4  C   UNL     1       0.895 -13.977   8.803  1.00  0.00     0.160 A 
ATOM      5  C   UNL     1       1.926 -13.385   9.556  1.00  0.00     0.051 A 
ATOM      6  C   UNL     1       2.562 -14.100  10.573  1.00  0.00     0.016 A 
ENDROOT
BRANCH   1   7
ATOM      7  C   UNL     1       2.873 -16.171  11.952  1.00  0.00     0.159 C 
ATOM      8  C   UNL     1       2.128 -17.081  12.883  1.00  0.00     0.093 C 
ATOM      9  O   UNL     1       4.118 -16.045  12.107  1.00  0.00    -0.295 OA
ENDBRANCH   1   7
BRANCH   3  10
ATOM     10  O   UNL     1      -0.501 -15.926   8.366  1.00  0.00    -0.504 OA
ATOM     11  H   UNL     1      -0.404 -16.156   7.384  1.00  0.00     0.293 HD
ENDBRANCH   3  10
BRANCH   4  12
ATOM     12  O   UNL     1       0.237 -13.287   7.773  1.00  0.00    -0.493 OA
ATOM     13  C   UNL     1       0.800 -12.209   7.034  1.00  0.00     0.278 C 
ENDBRANCH   4  12
TORSDOF 3
ENDMDL
MODEL 3
REMARK VINA RESULT:    -3.546      2.046      2.384
REMARK INTER + INTRA:          -4.159
REMARK INTER:                  -4.053
REMARK INTRA:                  -0.106
REMARK UNBOUND:                -0.094
REMARK SMILES COc1ccc(C(C)=O)cc1O
REMARK SMILES IDX 6 1 10 2 11 3 3 4 4 5 5 6 7 7 8 8 9 9 12 10 2 12 1 13
REMARK H PARENT 12 11
REMARK Flexibility Score: inf
ROOT
ATOM      1  C   UNL     1       1.673 -15.264  10.018  1.00  0.00     0.021 A 
ATOM      2  C   UNL     1       2.973 -15.607   9.600  1.00  0.00     0.062 A 
ATOM      3  C   UNL     1       3.970 -15.912  10.534  1.00  0.00     0.158 A 
ATOM      4  C   UNL     1       3.684 -15.878  11.910  1.00  0.00     0.160 A 
ATOM      5  C   UNL     1       2.386 -15.537  12.330  1.00  0.00     0.051 A 
ATOM      6  C   UNL     1       1.394 -15.234  11.395  1.00  0.00     0.016 A 
ENDROOT
BRANCH   1   7
ATOM      7  C   UNL     1       0.604 -14.938   9.034  1.00  0.00     0.159 C 
ATOM      8  C   UNL     1      -0.345 -15.979   8.520  1.00  0.00     0.093 C 
ATOM      9  O   UNL     1       0.482 -13.756   8.612  1.00  0.00    -0.295 OA
ENDBRANCH   1   7
BRANCH   3  10
ATOM     10  O   UNL     1       5.242 -16.246  10.072  1.00  0.00    -0.504 OA
ATOM     11  H   UNL     1       5.945 -16.657  10.675  1.00  0.00     0.293 HD
ENDBRANCH   3  10
BRANCH   4  12
ATOM     12  O   UNL     1       4.703 -16.189  12.823  1.00  0.00    -0.493 OA
ATOM     13  C   UNL     1       4.592 -17.159  13.859  1.00  0.00     0.278 C 
ENDBRANCH   4  12
TORSDOF 3
ENDMDL
MODEL 4
REMARK VINA RESULT:    -3.539      1.870      2.237
REMARK INTER + INTRA:          -4.151
REMARK INTER:                  -4.048
REMARK INTRA:                  -0.103
REMARK UNBOUND:                -0.094
REMARK SMILES COc1ccc(C(C)=O)cc1O
REMARK SMILES IDX 6 1 10 2 11 3 3 4 4 5 5 6 7 7 8 8 9 9 12 10 2 12 1 13
REMARK H PARENT 12 11
REMARK Flexibility Score: inf
ROOT
ATOM      1  C   UNL     1       1.479 -13.463   8.532  1.00  0.00     0.021 A 
ATOM      2  C   UNL     1       2.801 -13.537   9.011  1.00  0.00     0.062 A 
ATOM      3  C   UNL     1       3.177 -14.525   9.929  1.00  0.00     0.158 A 
ATOM      4  C   UNL     1       2.235 -15.461  10.387  1.00  0.00     0.160 A 
ATOM      5  C   UNL     1       0.913 -15.390   9.910  1.00  0.00     0.051 A 
ATOM      6  C   UNL     1       0.542 -14.403   8.994  1.00  0.00     0.016 A 
ENDROOT
BRANCH   1   7
ATOM      7  C   UNL     1       1.066 -12.418   7.556  1.00  0.00     0.159 C 
ATOM      8  C   UNL     1       1.978 -11.949   6.462  1.00  0.00     0.093 C 
ATOM      9  O   UNL     1      -0.082 -11.902   7.640  1.00  0.00    -0.295 OA
ENDBRANCH   1   7
BRANCH   3  10
ATOM     10  O   UNL     1       4.498 -14.558  10.374  1.00  0.00    -0.504 OA
ATOM     11  H   UNL     1       4.736 -14.668  11.353  1.00  0.00     0.293 HD
ENDBRANCH   3  10
BRANCH   4  12
ATOM     12  O   UNL     1       2.641 -16.440  11.307  1.00  0.00    -0.493 OA
ATOM     13  C   UNL     1       1.993 -16.702  12.547  1.00  0.00     0.278 C 
ENDBRANCH   4  12
TORSDOF 3
ENDMDL
MODEL 5
REMARK VINA RESULT:    -3.475      5.618      7.560
REMARK INTER + INTRA:          -4.077
REMARK INTER:                  -3.974
REMARK INTRA:                  -0.103
REMARK UNBOUND:                -0.094
REMARK SMILES COc1ccc(C(C)=O)cc1O
REMARK SMILES IDX 6 1 10 2 11 3 3 4 4 5 5 6 7 7 8 8 9 9 12 10 2 12 1 13
REMARK H PARENT 12 11
REMARK Flexibility Score: inf
ROOT
ATOM      1  C   UNL     1       2.880 -19.682  14.610  1.00  0.00     0.021 A 
ATOM      2  C   UNL     1       2.051 -20.071  15.679  1.00  0.00     0.062 A 
ATOM      3  C   UNL     1       0.914 -19.325  16.013  1.00  0.00     0.158 A 
ATOM      4  C   UNL     1       0.584 -18.171  15.281  1.00  0.00     0.160 A 
ATOM      5  C   UNL     1       1.411 -17.781  14.212  1.00  0.00     0.051 A 
ATOM      6  C   UNL     1       2.544 -18.528  13.882  1.00  0.00     0.016 A 
ENDROOT
BRANCH   1   7
ATOM      7  C   UNL     1       4.092 -20.467  14.245  1.00  0.00     0.159 C 
ATOM      8  C   UNL     1       4.014 -21.914  13.859  1.00  0.00     0.093 C 
ATOM      9  O   UNL     1       5.224 -19.911  14.257  1.00  0.00    -0.295 OA
ENDBRANCH   1   7
BRANCH   3  10
ATOM     10  O   UNL     1       0.123 -19.750  17.079  1.00  0.00    -0.504 OA
ATOM     11  H   UNL     1      -0.797 -19.364  17.257  1.00  0.00     0.293 HD
ENDBRANCH   3  10
BRANCH   4  12
ATOM     12  O   UNL     1      -0.562 -17.444  15.638  1.00  0.00    -0.493 OA
ATOM     13  C   UNL     1      -0.576 -16.362  16.563  1.00  0.00     0.278 C 
ENDBRANCH   4  12
TORSDOF 3
ENDMDL
MODEL 6
REMARK VINA RESULT:    -3.438      2.005      2.899
REMARK INTER + INTRA:          -4.035
REMARK INTER:                  -3.922
REMARK INTRA:                  -0.112
REMARK UNBOUND:                -0.094
REMARK SMILES COc1ccc(C(C)=O)cc1O
REMARK SMILES IDX 6 1 10 2 11 3 3 4 4 5 5 6 7 7 8 8 9 9 12 10 2 12 1 13
REMARK H PARENT 12 11
REMARK Flexibility Score: inf
ROOT
ATOM      1  C   UNL     1       1.144 -13.010   8.171  1.00  0.00     0.021 A 
ATOM      2  C   UNL     1       2.022 -12.629   9.203  1.00  0.00     0.062 A 
ATOM      3  C   UNL     1       2.060 -13.337  10.410  1.00  0.00     0.158 A 
ATOM      4  C   UNL     1       1.217 -14.444  10.609  1.00  0.00     0.160 A 
ATOM      5  C   UNL     1       0.339 -14.827   9.579  1.00  0.00     0.051 A 
ATOM      6  C   UNL     1       0.304 -14.119   8.376  1.00  0.00     0.016 A 
ENDROOT
BRANCH   1   7
ATOM      7  C   UNL     1       1.093 -12.266   6.883  1.00  0.00     0.159 C 
ATOM      8  C   UNL     1       2.332 -11.957   6.096  1.00  0.00     0.093 C 
ATOM      9  O   UNL     1      -0.017 -11.878   6.428  1.00  0.00    -0.295 OA
ENDBRANCH   1   7
BRANCH   3  10
ATOM     10  O   UNL     1       2.947 -12.921  11.404  1.00  0.00    -0.504 OA
ATOM     11  H   UNL     1       3.312 -11.977  11.441  1.00  0.00     0.293 HD
ENDBRANCH   3  10
BRANCH   4  12
ATOM     12  O   UNL     1       1.278 -15.134  11.829  1.00  0.00    -0.493 OA
ATOM     13  C   UNL     1       1.857 -16.423  12.000  1.00  0.00     0.278 C 
ENDBRANCH   4  12
TORSDOF 3
ENDMDL
MODEL 7
REMARK VINA RESULT:    -3.429      1.528      5.084
REMARK INTER + INTRA:          -4.025
REMARK INTER:                  -3.914
REMARK INTRA:                  -0.111
REMARK UNBOUND:                -0.094
REMARK SMILES COc1ccc(C(C)=O)cc1O
REMARK SMILES IDX 6 1 10 2 11 3 3 4 4 5 5 6 7 7 8 8 9 9 12 10 2 12 1 13
REMARK H PARENT 12 11
REMARK Flexibility Score: inf
ROOT
ATOM      1  C   UNL     1       1.969 -15.935  11.719  1.00  0.00     0.021 A 
ATOM      2  C   UNL     1       1.608 -14.598  11.969  1.00  0.00     0.062 A 
ATOM      3  C   UNL     1       1.043 -13.807  10.961  1.00  0.00     0.158 A 
ATOM      4  C   UNL     1       0.828 -14.341   9.679  1.00  0.00     0.160 A 
ATOM      5  C   UNL     1       1.187 -15.677   9.427  1.00  0.00     0.051 A 
ATOM      6  C   UNL     1       1.751 -16.463  10.434  1.00  0.00     0.016 A 
ENDROOT
BRANCH   1   7
ATOM      7  C   UNL     1       2.571 -16.787  12.781  1.00  0.00     0.159 C 
ATOM      8  C   UNL     1       1.733 -17.660  13.667  1.00  0.00     0.093 C 
ATOM      9  O   UNL     1       3.820 -16.783  12.953  1.00  0.00    -0.295 OA
ENDBRANCH   1   7
BRANCH   3  10
ATOM     10  O   UNL     1       0.702 -12.487  11.257  1.00  0.00    -0.504 OA
ATOM     11  H   UNL     1       0.246 -11.883  10.583  1.00  0.00     0.293 HD
ENDBRANCH   3  10
BRANCH   4  12
ATOM     12  O   UNL     1       0.259 -13.524   8.689  1.00  0.00    -0.493 OA
ATOM     13  C   UNL     1       1.004 -12.746   7.758  1.00  0.00     0.278 C 
ENDBRANCH   4  12
TORSDOF 3
ENDMDL
MODEL 8
REMARK VINA RESULT:    -3.428      1.134      2.133
REMARK INTER + INTRA:          -4.023
REMARK INTER:                  -3.927
REMARK INTRA:                  -0.097
REMARK UNBOUND:                -0.094
REMARK SMILES COc1ccc(C(C)=O)cc1O
REMARK SMILES IDX 6 1 10 2 11 3 3 4 4 5 5 6 7 7 8 8 9 9 12 10 2 12 1 13
REMARK H PARENT 12 11
REMARK Flexibility Score: inf
ROOT
ATOM      1  C   UNL     1       1.028 -14.073  10.332  1.00  0.00     0.021 A 
ATOM      2  C   UNL     1       1.326 -13.822  11.684  1.00  0.00     0.062 A 
ATOM      3  C   UNL     1       1.842 -14.833  12.504  1.00  0.00     0.158 A 
ATOM      4  C   UNL     1       2.068 -16.119  11.985  1.00  0.00     0.160 A 
ATOM      5  C   UNL     1       1.771 -16.372  10.633  1.00  0.00     0.051 A 
ATOM      6  C   UNL     1       1.257 -15.361   9.818  1.00  0.00     0.016 A 
ENDROOT
BRANCH   1   7
ATOM      7  C   UNL     1       0.479 -13.007   9.449  1.00  0.00     0.159 C 
ATOM      8  C   UNL     1       0.562 -13.095   7.954  1.00  0.00     0.093 C 
ATOM      9  O   UNL     1      -0.073 -11.995   9.959  1.00  0.00    -0.295 OA
ENDBRANCH   1   7
BRANCH   3  10
ATOM     10  O   UNL     1       2.122 -14.536  13.838  1.00  0.00    -0.504 OA
ATOM     11  H   UNL     1       1.428 -14.628  14.569  1.00  0.00     0.293 HD
ENDBRANCH   3  10
BRANCH   4  12
ATOM     12  O   UNL     1       2.586 -17.112  12.831  1.00  0.00    -0.493 OA
ATOM     13  C   UNL     1       1.804 -17.912  13.711  1.00  0.00     0.278 C 
ENDBRANCH   4  12
TORSDOF 3
ENDMDL
MODEL 9
REMARK VINA RESULT:    -3.358      3.776      5.969
REMARK INTER + INTRA:          -3.944
REMARK INTER:                  -3.829
REMARK INTRA:                  -0.114
REMARK UNBOUND:                -0.094
REMARK SMILES COc1ccc(C(C)=O)cc1O
REMARK SMILES IDX 6 1 10 2 11 3 3 4 4 5 5 6 7 7 8 8 9 9 12 10 2 12 1 13
REMARK H PARENT 12 11
REMARK Flexibility Score: inf
ROOT
ATOM      1  C   UNL     1       2.511 -17.712  13.934  1.00  0.00     0.021 A 
ATOM      2  C   UNL     1       1.118 -17.696  14.135  1.00  0.00     0.062 A 
ATOM      3  C   UNL     1       0.520 -18.541  15.077  1.00  0.00     0.158 A 
ATOM      4  C   UNL     1       1.307 -19.423  15.838  1.00  0.00     0.160 A 
ATOM      5  C   UNL     1       2.699 -19.440  15.640  1.00  0.00     0.051 A 
ATOM      6  C   UNL     1       3.293 -18.595  14.699  1.00  0.00     0.016 A 
ENDROOT
BRANCH   1   7
ATOM      7  C   UNL     1       3.160 -16.818  12.936  1.00  0.00     0.159 C 
ATOM      8  C   UNL     1       2.406 -16.253  11.769  1.00  0.00     0.093 C 
ATOM      9  O   UNL     1       4.378 -16.519  13.063  1.00  0.00    -0.295 OA
ENDBRANCH   1   7
BRANCH   3  10
ATOM     10  O   UNL     1      -0.864 -18.490  15.240  1.00  0.00    -0.504 OA
ATOM     11  H   UNL     1      -1.315 -18.736  16.114  1.00  0.00     0.293 HD
ENDBRANCH   3  10
BRANCH   4  12
ATOM     12  O   UNL     1       0.679 -20.258  16.775  1.00  0.00    -0.493 OA
ATOM     13  C   UNL     1       0.552 -19.964  18.162  1.00  0.00     0.278 C 
ENDBRANCH   4  12
TORSDOF 3
ENDMDL
