MODEL 1
REMARK VINA RESULT:    -4.868      0.000      0.000
REMARK INTER + INTRA:          -6.656
REMARK INTER:                  -6.291
REMARK INTRA:                  -0.366
REMARK UNBOUND:                -0.366
REMARK SMILES CCO[C@H]1O[C@H](CO)[C@@H](O)[C@H](O)[C@H]1O
REMARK SMILES IDX 4 1 13 2 11 3 9 4 6 5 5 6 3 7 2 8 1 9 14 10 12 12 7 14 8 15
REMARK SMILES IDX 10 17
REMARK H PARENT 14 11 12 13 8 16 10 18
REMARK Flexibility Score: inf
ROOT
ATOM      1  C   UNL     1      16.533   1.843  -9.738  1.00  0.00     0.281 C 
ATOM      2  C   UNL     1      17.075   0.415  -9.560  1.00  0.00     0.202 C 
ATOM      3  C   UNL     1      18.521   0.452  -9.039  1.00  0.00     0.179 C 
ATOM      4  C   UNL     1      19.375   1.378  -9.922  1.00  0.00     0.177 C 
ATOM      5  C   UNL     1      18.676   2.752 -10.072  1.00  0.00     0.178 C 
ATOM      6  O   UNL     1      17.371   2.593 -10.606  1.00  0.00    -0.341 OA
ENDROOT
BRANCH   1   7
ATOM      7  O   UNL     1      16.388   2.475  -8.475  1.00  0.00    -0.350 OA
BRANCH   7   8
ATOM      8  C   UNL     1      15.066   2.946  -8.312  1.00  0.00     0.160 C 
ATOM      9  C   UNL     1      14.561   2.546  -6.936  1.00  0.00     0.035 C 
ENDBRANCH   7   8
ENDBRANCH   1   7
BRANCH   2  10
ATOM     10  O   UNL     1      16.253  -0.288  -8.664  1.00  0.00    -0.385 OA
ATOM     11  H   UNL     1      16.180  -1.217  -9.008  1.00  0.00     0.211 HD
ENDBRANCH   2  10
BRANCH   3  12
ATOM     12  O   UNL     1      19.051  -0.849  -9.054  1.00  0.00    -0.387 OA
ATOM     13  H   UNL     1      18.329  -1.453  -9.368  1.00  0.00     0.211 HD
ENDBRANCH   3  12
BRANCH   5  14
ATOM     14  C   UNL     1      19.459   3.678 -11.018  1.00  0.00     0.191 C 
BRANCH  14  15
ATOM     15  O   UNL     1      20.729   3.980 -10.505  1.00  0.00    -0.394 OA
ATOM     16  H   UNL     1      21.226   4.443 -11.228  1.00  0.00     0.210 HD
ENDBRANCH  14  15
ENDBRANCH   5  14
BRANCH   4  17
ATOM     17  O   UNL     1      20.640   1.551  -9.333  1.00  0.00    -0.387 OA
ATOM     18  H   UNL     1      21.211   0.803  -9.651  1.00  0.00     0.211 HD
ENDBRANCH   4  17
TORSDOF 7
ENDMDL
MODEL 2
REMARK VINA RESULT:    -4.617      7.468      9.282
REMARK INTER + INTRA:          -6.332
REMARK INTER:                  -5.894
REMARK INTRA:                  -0.438
REMARK UNBOUND:                -0.366
REMARK SMILES CCO[C@H]1O[C@H](CO)[C@@H](O)[C@H](O)[C@H]1O
REMARK SMILES IDX 4 1 13 2 11 3 9 4 6 5 5 6 3 7 2 8 1 9 14 10 12 12 7 14 8 15
REMARK SMILES IDX 10 17
REMARK H PARENT 14 11 12 13 8 16 10 18
REMARK Flexibility Score: inf
ROOT
ATOM      1  C   UNL     1      19.370   1.346 -17.671  1.00  0.00     0.281 C 
ATOM      2  C   UNL     1      18.563   0.037 -17.656  1.00  0.00     0.202 C 
ATOM      3  C   UNL     1      17.062   0.331 -17.807  1.00  0.00     0.179 C 
ATOM      4  C   UNL     1      16.626   1.387 -16.775  1.00  0.00     0.177 C 
ATOM      5  C   UNL     1      17.566   2.615 -16.854  1.00  0.00     0.178 C 
ATOM      6  O   UNL     1      18.916   2.225 -16.652  1.00  0.00    -0.341 OA
ENDROOT
BRANCH   1   7
ATOM      7  O   UNL     1      19.302   1.951 -18.954  1.00  0.00    -0.350 OA
BRANCH   7   8
ATOM      8  C   UNL     1      20.551   2.514 -19.295  1.00  0.00     0.160 C 
ATOM      9  C   UNL     1      21.376   1.480 -20.044  1.00  0.00     0.035 C 
ENDBRANCH   7   8
ENDBRANCH   1   7
BRANCH   2  10
ATOM     10  O   UNL     1      19.002  -0.794 -18.700  1.00  0.00    -0.385 OA
ATOM     11  H   UNL     1      18.191  -1.125 -19.167  1.00  0.00     0.211 HD
ENDBRANCH   2  10
BRANCH   3  12
ATOM     12  O   UNL     1      16.337  -0.857 -17.613  1.00  0.00    -0.387 OA
ATOM     13  H   UNL     1      16.678  -1.273 -16.780  1.00  0.00     0.211 HD
ENDBRANCH   3  12
BRANCH   5  14
ATOM     14  C   UNL     1      17.215   3.658 -15.779  1.00  0.00     0.191 C 
BRANCH  14  15
ATOM     15  O   UNL     1      16.039   4.351 -16.103  1.00  0.00    -0.394 OA
ATOM     16  H   UNL     1      16.316   5.166 -16.598  1.00  0.00     0.210 HD
ENDBRANCH  14  15
ENDBRANCH   5  14
BRANCH   4  17
ATOM     17  O   UNL     1      15.304   1.783 -17.041  1.00  0.00    -0.387 OA
ATOM     18  H   UNL     1      15.355   2.608 -17.591  1.00  0.00     0.211 HD
ENDBRANCH   4  17
TORSDOF 7
ENDMDL
MODEL 3
REMARK VINA RESULT:    -4.538      8.612     10.085
REMARK INTER + INTRA:          -6.230
REMARK INTER:                  -5.849
REMARK INTRA:                  -0.381
REMARK UNBOUND:                -0.366
REMARK SMILES CCO[C@H]1O[C@H](CO)[C@@H](O)[C@H](O)[C@H]1O
REMARK SMILES IDX 4 1 13 2 11 3 9 4 6 5 5 6 3 7 2 8 1 9 14 10 12 12 7 14 8 15
REMARK SMILES IDX 10 17
REMARK H PARENT 14 11 12 13 8 16 10 18
REMARK Flexibility Score: inf
ROOT
ATOM      1  C   UNL     1      20.619   1.767 -18.358  1.00  0.00     0.281 C 
ATOM      2  C   UNL     1      21.272   1.171 -19.616  1.00  0.00     0.202 C 
ATOM      3  C   UNL     1      20.616  -0.173 -19.974  1.00  0.00     0.179 C 
ATOM      4  C   UNL     1      20.596  -1.094 -18.741  1.00  0.00     0.177 C 
ATOM      5  C   UNL     1      19.979  -0.342 -17.536  1.00  0.00     0.178 C 
ATOM      6  O   UNL     1      20.698   0.854 -17.272  1.00  0.00    -0.341 OA
ENDROOT
BRANCH   1   7
ATOM      7  O   UNL     1      19.277   2.142 -18.631  1.00  0.00    -0.350 OA
BRANCH   7   8
ATOM      8  C   UNL     1      18.800   3.014 -17.627  1.00  0.00     0.160 C 
ATOM      9  C   UNL     1      17.540   2.425 -17.015  1.00  0.00     0.035 C 
ENDBRANCH   7   8
ENDBRANCH   1   7
BRANCH   2  10
ATOM     10  O   UNL     1      21.141   2.075 -20.683  1.00  0.00    -0.385 OA
ATOM     11  H   UNL     1      20.533   2.798 -20.376  1.00  0.00     0.211 HD
ENDBRANCH   2  10
BRANCH   3  12
ATOM     12  O   UNL     1      21.342  -0.778 -21.013  1.00  0.00    -0.387 OA
ATOM     13  H   UNL     1      20.699  -1.324 -21.537  1.00  0.00     0.211 HD
ENDBRANCH   3  12
BRANCH   5  14
ATOM     14  C   UNL     1      20.019  -1.201 -16.261  1.00  0.00     0.191 C 
BRANCH  14  15
ATOM     15  O   UNL     1      20.984  -2.215 -16.357  1.00  0.00    -0.394 OA
ATOM     16  H   UNL     1      20.511  -3.074 -16.201  1.00  0.00     0.210 HD
ENDBRANCH  14  15
ENDBRANCH   5  14
BRANCH   4  17
ATOM     17  O   UNL     1      19.834  -2.239 -19.026  1.00  0.00    -0.387 OA
ATOM     18  H   UNL     1      20.258  -2.996 -18.543  1.00  0.00     0.211 HD
ENDBRANCH   4  17
TORSDOF 7
ENDMDL
MODEL 4
REMARK VINA RESULT:    -4.465      2.417      4.501
REMARK INTER + INTRA:          -6.136
REMARK INTER:                  -5.725
REMARK INTRA:                  -0.411
REMARK UNBOUND:                -0.366
REMARK SMILES CCO[C@H]1O[C@H](CO)[C@@H](O)[C@H](O)[C@H]1O
REMARK SMILES IDX 4 1 13 2 11 3 9 4 6 5 5 6 3 7 2 8 1 9 14 10 12 12 7 14 8 15
REMARK SMILES IDX 10 17
REMARK H PARENT 14 11 12 13 8 16 10 18
REMARK Flexibility Score: inf
ROOT
ATOM      1  C   UNL     1      15.200   2.934 -11.194  1.00  0.00     0.281 C 
ATOM      2  C   UNL     1      16.488   3.770 -11.277  1.00  0.00     0.202 C 
ATOM      3  C   UNL     1      17.513   3.278 -10.241  1.00  0.00     0.179 C 
ATOM      4  C   UNL     1      16.860   3.207  -8.849  1.00  0.00     0.177 C 
ATOM      5  C   UNL     1      15.541   2.399  -8.929  1.00  0.00     0.178 C 
ATOM      6  O   UNL     1      14.660   2.976  -9.880  1.00  0.00    -0.341 OA
ENDROOT
BRANCH   1   7
ATOM      7  O   UNL     1      15.450   1.602 -11.616  1.00  0.00    -0.350 OA
BRANCH   7   8
ATOM      8  C   UNL     1      14.322   1.085 -12.293  1.00  0.00     0.160 C 
ATOM      9  C   UNL     1      13.767   2.152 -13.222  1.00  0.00     0.035 C 
ENDBRANCH   7   8
ENDBRANCH   1   7
BRANCH   2  10
ATOM     10  O   UNL     1      17.024   3.675 -12.572  1.00  0.00    -0.385 OA
ATOM     11  H   UNL     1      18.006   3.569 -12.471  1.00  0.00     0.211 HD
ENDBRANCH   2  10
BRANCH   3  12
ATOM     12  O   UNL     1      18.603   4.163 -10.214  1.00  0.00    -0.387 OA
ATOM     13  H   UNL     1      18.953   4.165  -9.286  1.00  0.00     0.211 HD
ENDBRANCH   3  12
BRANCH   5  14
ATOM     14  C   UNL     1      14.815   2.377  -7.573  1.00  0.00     0.191 C 
BRANCH  14  15
ATOM     15  O   UNL     1      14.876   3.627  -6.940  1.00  0.00    -0.394 OA
ATOM     16  H   UNL     1      15.423   4.215  -7.523  1.00  0.00     0.210 HD
ENDBRANCH  14  15
ENDBRANCH   5  14
BRANCH   4  17
ATOM     17  O   UNL     1      17.743   2.584  -7.950  1.00  0.00    -0.387 OA
ATOM     18  H   UNL     1      18.647   2.956  -8.128  1.00  0.00     0.211 HD
ENDBRANCH   4  17
TORSDOF 7
ENDMDL
MODEL 5
REMARK VINA RESULT:    -4.415      7.787      9.436
REMARK INTER + INTRA:          -6.071
REMARK INTER:                  -5.668
REMARK INTRA:                  -0.402
REMARK UNBOUND:                -0.366
REMARK SMILES CCO[C@H]1O[C@H](CO)[C@@H](O)[C@H](O)[C@H]1O
REMARK SMILES IDX 4 1 13 2 11 3 9 4 6 5 5 6 3 7 2 8 1 9 14 10 12 12 7 14 8 15
REMARK SMILES IDX 10 17
REMARK H PARENT 14 11 12 13 8 16 10 18
REMARK Flexibility Score: inf
ROOT
ATOM      1  C   UNL     1      19.325   1.056 -17.829  1.00  0.00     0.281 C 
ATOM      2  C   UNL     1      17.983   1.725 -18.169  1.00  0.00     0.202 C 
ATOM      3  C   UNL     1      16.817   0.924 -17.566  1.00  0.00     0.179 C 
ATOM      4  C   UNL     1      16.936  -0.558 -17.962  1.00  0.00     0.177 C 
ATOM      5  C   UNL     1      18.357  -1.078 -17.629  1.00  0.00     0.178 C 
ATOM      6  O   UNL     1      19.342  -0.291 -18.280  1.00  0.00    -0.341 OA
ENDROOT
BRANCH   1   7
ATOM      7  O   UNL     1      19.580   1.146 -16.436  1.00  0.00    -0.350 OA
BRANCH   7   8
ATOM      8  C   UNL     1      20.922   1.522 -16.207  1.00  0.00     0.160 C 
ATOM      9  C   UNL     1      20.995   3.031 -16.045  1.00  0.00     0.035 C 
ENDBRANCH   7   8
ENDBRANCH   1   7
BRANCH   2  10
ATOM     10  O   UNL     1      17.977   3.039 -17.674  1.00  0.00    -0.385 OA
ATOM     11  H   UNL     1      18.874   3.422 -17.860  1.00  0.00     0.211 HD
ENDBRANCH   2  10
BRANCH   3  12
ATOM     12  O   UNL     1      15.603   1.450 -18.036  1.00  0.00    -0.387 OA
ATOM     13  H   UNL     1      15.450   2.303 -17.553  1.00  0.00     0.211 HD
ENDBRANCH   3  12
BRANCH   5  14
ATOM     14  C   UNL     1      18.542  -2.534 -18.089  1.00  0.00     0.191 C 
BRANCH  14  15
ATOM     15  O   UNL     1      17.465  -2.962 -18.879  1.00  0.00    -0.394 OA
ATOM     16  H   UNL     1      17.450  -2.378 -19.681  1.00  0.00     0.210 HD
ENDBRANCH  14  15
ENDBRANCH   5  14
BRANCH   4  17
ATOM     17  O   UNL     1      15.979  -1.309 -17.259  1.00  0.00    -0.387 OA
ATOM     18  H   UNL     1      15.745  -0.789 -16.446  1.00  0.00     0.211 HD
ENDBRANCH   4  17
TORSDOF 7
ENDMDL
MODEL 6
REMARK VINA RESULT:    -4.388      1.740      3.627
REMARK INTER + INTRA:          -6.036
REMARK INTER:                  -5.580
REMARK INTRA:                  -0.457
REMARK UNBOUND:                -0.366
REMARK SMILES CCO[C@H]1O[C@H](CO)[C@@H](O)[C@H](O)[C@H]1O
REMARK SMILES IDX 4 1 13 2 11 3 9 4 6 5 5 6 3 7 2 8 1 9 14 10 12 12 7 14 8 15
REMARK SMILES IDX 10 17
REMARK H PARENT 14 11 12 13 8 16 10 18
REMARK Flexibility Score: inf
ROOT
ATOM      1  C   UNL     1      16.944   1.930  -9.857  1.00  0.00     0.281 C 
ATOM      2  C   UNL     1      18.302   2.514  -9.434  1.00  0.00     0.202 C 
ATOM      3  C   UNL     1      19.447   1.602  -9.903  1.00  0.00     0.179 C 
ATOM      4  C   UNL     1      19.183   0.153  -9.455  1.00  0.00     0.177 C 
ATOM      5  C   UNL     1      17.758  -0.277  -9.884  1.00  0.00     0.178 C 
ATOM      6  O   UNL     1      16.787   0.611  -9.352  1.00  0.00    -0.341 OA
ENDROOT
BRANCH   1   7
ATOM      7  O   UNL     1      16.809   1.969 -11.269  1.00  0.00    -0.350 OA
BRANCH   7   8
ATOM      8  C   UNL     1      15.485   2.308 -11.625  1.00  0.00     0.160 C 
ATOM      9  C   UNL     1      14.951   3.331 -10.636  1.00  0.00     0.035 C 
ENDBRANCH   7   8
ENDBRANCH   1   7
BRANCH   2  10
ATOM     10  O   UNL     1      18.449   3.799  -9.983  1.00  0.00    -0.385 OA
ATOM     11  H   UNL     1      17.874   3.835 -10.792  1.00  0.00     0.211 HD
ENDBRANCH   2  10
BRANCH   3  12
ATOM     12  O   UNL     1      20.657   2.060  -9.356  1.00  0.00    -0.387 OA
ATOM     13  H   UNL     1      20.968   2.810  -9.927  1.00  0.00     0.211 HD
ENDBRANCH   3  12
BRANCH   5  14
ATOM     14  C   UNL     1      17.425  -1.691  -9.380  1.00  0.00     0.191 C 
BRANCH  14  15
ATOM     15  O   UNL     1      18.280  -2.077  -8.338  1.00  0.00    -0.394 OA
ATOM     16  H   UNL     1      19.207  -1.931  -8.661  1.00  0.00     0.210 HD
ENDBRANCH  14  15
ENDBRANCH   5  14
BRANCH   4  17
ATOM     17  O   UNL     1      20.133  -0.699 -10.044  1.00  0.00    -0.387 OA
ATOM     18  H   UNL     1      21.028  -0.337  -9.812  1.00  0.00     0.211 HD
ENDBRANCH   4  17
TORSDOF 7
ENDMDL
MODEL 7
REMARK VINA RESULT:    -4.380      2.380      4.573
REMARK INTER + INTRA:          -6.026
REMARK INTER:                  -5.639
REMARK INTRA:                  -0.387
REMARK UNBOUND:                -0.366
REMARK SMILES CCO[C@H]1O[C@H](CO)[C@@H](O)[C@H](O)[C@H]1O
REMARK SMILES IDX 4 1 13 2 11 3 9 4 6 5 5 6 3 7 2 8 1 9 14 10 12 12 7 14 8 15
REMARK SMILES IDX 10 17
REMARK H PARENT 14 11 12 13 8 16 10 18
REMARK Flexibility Score: inf
ROOT
ATOM      1  C   UNL     1      15.308   2.765  -8.824  1.00  0.00     0.281 C 
ATOM      2  C   UNL     1      14.586   2.224  -7.578  1.00  0.00     0.202 C 
ATOM      3  C   UNL     1      15.035   0.783  -7.283  1.00  0.00     0.179 C 
ATOM      4  C   UNL     1      14.901  -0.079  -8.551  1.00  0.00     0.177 C 
ATOM      5  C   UNL     1      15.611   0.619  -9.737  1.00  0.00     0.178 C 
ATOM      6  O   UNL     1      15.079   1.919  -9.942  1.00  0.00    -0.341 OA
ENDROOT
BRANCH   1   7
ATOM      7  O   UNL     1      16.694   2.922  -8.560  1.00  0.00    -0.350 OA
BRANCH   7   8
ATOM      8  C   UNL     1      17.279   3.782  -9.516  1.00  0.00     0.160 C 
ATOM      9  C   UNL     1      18.397   3.042 -10.232  1.00  0.00     0.035 C 
ENDBRANCH   7   8
ENDBRANCH   1   7
BRANCH   2  10
ATOM     10  O   UNL     1      14.865   3.054  -6.480  1.00  0.00    -0.385 OA
ATOM     11  H   UNL     1      15.832   2.952  -6.279  1.00  0.00     0.211 HD
ENDBRANCH   2  10
BRANCH   3  12
ATOM     12  O   UNL     1      14.237   0.252  -6.256  1.00  0.00    -0.387 OA
ATOM     13  H   UNL     1      13.605  -0.385  -6.679  1.00  0.00     0.211 HD
ENDBRANCH   3  12
BRANCH   5  14
ATOM     14  C   UNL     1      15.427  -0.172 -11.044  1.00  0.00     0.191 C 
BRANCH  14  15
ATOM     15  O   UNL     1      14.279  -0.977 -10.997  1.00  0.00    -0.394 OA
ATOM     16  H   UNL     1      13.786  -0.722 -10.174  1.00  0.00     0.210 HD
ENDBRANCH  14  15
ENDBRANCH   5  14
BRANCH   4  17
ATOM     17  O   UNL     1      15.484  -1.338  -8.324  1.00  0.00    -0.387 OA
ATOM     18  H   UNL     1      14.866  -2.016  -8.704  1.00  0.00     0.211 HD
ENDBRANCH   4  17
TORSDOF 7
ENDMDL
MODEL 8
REMARK VINA RESULT:    -4.355      3.477      5.355
REMARK INTER + INTRA:          -5.993
REMARK INTER:                  -5.624
REMARK INTRA:                  -0.369
REMARK UNBOUND:                -0.366
REMARK SMILES CCO[C@H]1O[C@H](CO)[C@@H](O)[C@H](O)[C@H]1O
REMARK SMILES IDX 4 1 13 2 11 3 9 4 6 5 5 6 3 7 2 8 1 9 14 10 12 12 7 14 8 15
REMARK SMILES IDX 10 17
REMARK H PARENT 14 11 12 13 8 16 10 18
REMARK Flexibility Score: inf
ROOT
ATOM      1  C   UNL     1      18.889   2.039 -13.181  1.00  0.00     0.281 C 
ATOM      2  C   UNL     1      18.215   2.911 -12.109  1.00  0.00     0.202 C 
ATOM      3  C   UNL     1      19.276   3.596 -11.231  1.00  0.00     0.179 C 
ATOM      4  C   UNL     1      20.275   2.552 -10.702  1.00  0.00     0.177 C 
ATOM      5  C   UNL     1      20.817   1.702 -11.878  1.00  0.00     0.178 C 
ATOM      6  O   UNL     1      19.751   1.083 -12.580  1.00  0.00    -0.341 OA
ENDROOT
BRANCH   1   7
ATOM      7  O   UNL     1      19.580   2.854 -14.115  1.00  0.00    -0.350 OA
BRANCH   7   8
ATOM      8  C   UNL     1      19.331   2.409 -15.432  1.00  0.00     0.160 C 
ATOM      9  C   UNL     1      20.571   2.641 -16.279  1.00  0.00     0.035 C 
ENDBRANCH   7   8
ENDBRANCH   1   7
BRANCH   2  10
ATOM     10  O   UNL     1      17.405   3.874 -12.732  1.00  0.00    -0.385 OA
ATOM     11  H   UNL     1      17.057   4.467 -12.015  1.00  0.00     0.211 HD
ENDBRANCH   2  10
BRANCH   3  12
ATOM     12  O   UNL     1      18.641   4.240 -10.157  1.00  0.00    -0.387 OA
ATOM     13  H   UNL     1      19.279   4.913  -9.804  1.00  0.00     0.211 HD
ENDBRANCH   3  12
BRANCH   5  14
ATOM     14  C   UNL     1      21.756   0.590 -11.378  1.00  0.00     0.191 C 
BRANCH  14  15
ATOM     15  O   UNL     1      23.094   1.010 -11.382  1.00  0.00    -0.394 OA
ATOM     16  H   UNL     1      23.650   0.188 -11.407  1.00  0.00     0.210 HD
ENDBRANCH  14  15
ENDBRANCH   5  14
BRANCH   4  17
ATOM     17  O   UNL     1      21.339   3.207 -10.059  1.00  0.00    -0.387 OA
ATOM     18  H   UNL     1      21.168   4.182 -10.137  1.00  0.00     0.211 HD
ENDBRANCH   4  17
TORSDOF 7
ENDMDL
MODEL 9
REMARK VINA RESULT:    -4.295      1.567      4.226
REMARK INTER + INTRA:          -5.916
REMARK INTER:                  -5.650
REMARK INTRA:                  -0.266
REMARK UNBOUND:                -0.366
REMARK SMILES CCO[C@H]1O[C@H](CO)[C@@H](O)[C@H](O)[C@H]1O
REMARK SMILES IDX 4 1 13 2 11 3 9 4 6 5 5 6 3 7 2 8 1 9 14 10 12 12 7 14 8 15
REMARK SMILES IDX 10 17
REMARK H PARENT 14 11 12 13 8 16 10 18
REMARK Flexibility Score: inf
ROOT
ATOM      1  C   UNL     1      17.573   2.197  -9.075  1.00  0.00     0.281 C 
ATOM      2  C   UNL     1      18.182   0.818  -8.769  1.00  0.00     0.202 C 
ATOM      3  C   UNL     1      17.115  -0.281  -8.907  1.00  0.00     0.179 C 
ATOM      4  C   UNL     1      15.869   0.089  -8.083  1.00  0.00     0.177 C 
ATOM      5  C   UNL     1      15.410   1.524  -8.441  1.00  0.00     0.178 C 
ATOM      6  O   UNL     1      16.462   2.453  -8.227  1.00  0.00    -0.341 OA
ENDROOT
BRANCH   1   7
ATOM      7  O   UNL     1      17.218   2.284 -10.446  1.00  0.00    -0.350 OA
BRANCH   7   8
ATOM      8  C   UNL     1      17.338   3.617 -10.898  1.00  0.00     0.160 C 
ATOM      9  C   UNL     1      18.809   3.996 -10.944  1.00  0.00     0.035 C 
ENDBRANCH   7   8
ENDBRANCH   1   7
BRANCH   2  10
ATOM     10  O   UNL     1      19.248   0.572  -9.649  1.00  0.00    -0.385 OA
ATOM     11  H   UNL     1      19.678   1.448  -9.833  1.00  0.00     0.211 HD
ENDBRANCH   2  10
BRANCH   3  12
ATOM     12  O   UNL     1      17.646  -1.499  -8.453  1.00  0.00    -0.387 OA
ATOM     13  H   UNL     1      18.063  -1.324  -7.570  1.00  0.00     0.211 HD
ENDBRANCH   3  12
BRANCH   5  14
ATOM     14  C   UNL     1      14.216   1.963  -7.576  1.00  0.00     0.191 C 
BRANCH  14  15
ATOM     15  O   UNL     1      14.643   2.561  -6.381  1.00  0.00    -0.394 OA
ATOM     16  H   UNL     1      15.600   2.321  -6.269  1.00  0.00     0.210 HD
ENDBRANCH  14  15
ENDBRANCH   5  14
BRANCH   4  17
ATOM     17  O   UNL     1      14.836  -0.822  -8.362  1.00  0.00    -0.387 OA
ATOM     18  H   UNL     1      13.994  -0.416  -8.029  1.00  0.00     0.211 HD
ENDBRANCH   4  17
TORSDOF 7
ENDMDL
