MODEL 1
REMARK VINA RESULT:    -4.830      0.000      0.000
REMARK INTER + INTRA:          -7.287
REMARK INTER:                  -5.960
REMARK INTRA:                  -1.327
REMARK UNBOUND:                -1.327
REMARK SMILES CC(C)=CCC[C@@H](C)c1ccc(C)cc1
REMARK SMILES IDX 6 1 7 2 8 3 9 4 13 5 12 6 11 7 14 8 10 9 15 10 5 11 4 12
REMARK SMILES IDX 2 13 1 14 3 15
REMARK H PARENT
REMARK Flexibility Score: inf
ROOT
ATOM      1  C   UNL     1      -3.418  -7.844   9.248  1.00  0.00     0.012 C 
ENDROOT
BRANCH   1   2
ATOM      2  C   UNL     1      -4.937  -7.650   9.046  1.00  0.00     0.016 C 
ATOM      3  C   UNL     1      -5.517  -8.623   8.007  1.00  0.00     0.013 C 
BRANCH   2   4
ATOM      4  C   UNL     1      -5.669  -7.790  10.369  1.00  0.00    -0.045 A 
ATOM      5  C   UNL     1      -7.747  -8.155  14.138  1.00  0.00     0.044 C 
ATOM      6  C   UNL     1      -7.004  -8.047  12.840  1.00  0.00    -0.051 A 
ATOM      7  C   UNL     1      -7.250  -8.960  11.806  1.00  0.00     0.004 A 
ATOM      8  C   UNL     1      -6.106  -6.990  12.626  1.00  0.00     0.004 A 
ATOM      9  C   UNL     1      -6.583  -8.839  10.583  1.00  0.00     0.004 A 
ATOM     10  C   UNL     1      -5.440  -6.867  11.403  1.00  0.00     0.004 A 
ENDBRANCH   2   4
ENDBRANCH   1   2
BRANCH   1  11
ATOM     11  C   UNL     1      -3.043  -9.304   9.546  1.00  0.00     0.028 C 
BRANCH  11  12
ATOM     12  C   UNL     1      -1.929  -9.372  10.561  1.00  0.00    -0.028 C 
ATOM     13  C   UNL     1      -2.105  -9.660  11.869  1.00  0.00    -0.080 C 
ATOM     14  C   UNL     1      -3.477  -9.891  12.461  1.00  0.00     0.039 C 
ATOM     15  C   UNL     1      -0.891  -9.734  12.759  1.00  0.00     0.039 C 
ENDBRANCH  11  12
ENDBRANCH   1  11
TORSDOF 4
ENDMDL
MODEL 2
REMARK VINA RESULT:    -4.571      1.474      3.688
REMARK INTER + INTRA:          -6.967
REMARK INTER:                  -6.273
REMARK INTRA:                  -0.694
REMARK UNBOUND:                -1.327
REMARK SMILES CC(C)=CCC[C@@H](C)c1ccc(C)cc1
REMARK SMILES IDX 6 1 7 2 8 3 9 4 13 5 12 6 11 7 14 8 10 9 15 10 5 11 4 12
REMARK SMILES IDX 2 13 1 14 3 15
REMARK H PARENT
REMARK Flexibility Score: inf
ROOT
ATOM      1  C   UNL     1      -4.889  -7.678  13.738  1.00  0.00     0.012 C 
ENDROOT
BRANCH   1   2
ATOM      2  C   UNL     1      -6.152  -8.400  13.214  1.00  0.00     0.016 C 
ATOM      3  C   UNL     1      -7.442  -7.843  13.835  1.00  0.00     0.013 C 
BRANCH   2   4
ATOM      4  C   UNL     1      -6.216  -8.319  11.698  1.00  0.00    -0.045 A 
ATOM      5  C   UNL     1      -6.372  -8.064   7.389  1.00  0.00     0.044 C 
ATOM      6  C   UNL     1      -6.346  -8.141   8.887  1.00  0.00    -0.051 A 
ATOM      7  C   UNL     1      -6.798  -9.294   9.544  1.00  0.00     0.004 A 
ATOM      8  C   UNL     1      -5.807  -7.087   9.638  1.00  0.00     0.004 A 
ATOM      9  C   UNL     1      -6.741  -9.380  10.938  1.00  0.00     0.004 A 
ATOM     10  C   UNL     1      -5.748  -7.172  11.033  1.00  0.00     0.004 A 
ENDBRANCH   2   4
ENDBRANCH   1   2
BRANCH   1  11
ATOM     11  C   UNL     1      -3.802  -8.656  14.207  1.00  0.00     0.028 C 
BRANCH  11  12
ATOM     12  C   UNL     1      -2.959  -9.115  13.043  1.00  0.00    -0.028 C 
ATOM     13  C   UNL     1      -1.710  -9.619  13.156  1.00  0.00    -0.080 C 
ATOM     14  C   UNL     1      -1.004  -9.718  14.489  1.00  0.00     0.039 C 
ATOM     15  C   UNL     1      -1.003 -10.076  11.906  1.00  0.00     0.039 C 
ENDBRANCH  11  12
ENDBRANCH   1  11
TORSDOF 4
ENDMDL
MODEL 3
REMARK VINA RESULT:    -4.506      1.084      4.836
REMARK INTER + INTRA:          -6.887
REMARK INTER:                  -5.793
REMARK INTRA:                  -1.093
REMARK UNBOUND:                -1.327
REMARK SMILES CC(C)=CCC[C@@H](C)c1ccc(C)cc1
REMARK SMILES IDX 6 1 7 2 8 3 9 4 13 5 12 6 11 7 14 8 10 9 15 10 5 11 4 12
REMARK SMILES IDX 2 13 1 14 3 15
REMARK H PARENT
REMARK Flexibility Score: inf
ROOT
ATOM      1  C   UNL     1      -4.902  -9.757  10.136  1.00  0.00     0.012 C 
ENDROOT
BRANCH   1   2
ATOM      2  C   UNL     1      -3.494  -9.133  10.008  1.00  0.00     0.016 C 
ATOM      3  C   UNL     1      -3.546  -7.646   9.626  1.00  0.00     0.013 C 
BRANCH   2   4
ATOM      4  C   UNL     1      -2.714  -9.321  11.298  1.00  0.00    -0.045 A 
ATOM      5  C   UNL     1      -0.464  -9.847  14.947  1.00  0.00     0.044 C 
ATOM      6  C   UNL     1      -1.253  -9.693  13.681  1.00  0.00    -0.051 A 
ATOM      7  C   UNL     1      -2.608  -9.337  13.731  1.00  0.00     0.004 A 
ATOM      8  C   UNL     1      -0.625  -9.840  12.436  1.00  0.00     0.004 A 
ATOM      9  C   UNL     1      -3.335  -9.159  12.550  1.00  0.00     0.004 A 
ATOM     10  C   UNL     1      -1.351  -9.661  11.254  1.00  0.00     0.004 A 
ENDBRANCH   2   4
ENDBRANCH   1   2
BRANCH   1  11
ATOM     11  C   UNL     1      -6.014  -8.698  10.196  1.00  0.00     0.028 C 
BRANCH  11  12
ATOM     12  C   UNL     1      -6.721  -8.743  11.528  1.00  0.00    -0.028 C 
ATOM     13  C   UNL     1      -6.689  -7.750  12.444  1.00  0.00    -0.080 C 
ATOM     14  C   UNL     1      -5.874  -6.494  12.235  1.00  0.00     0.039 C 
ATOM     15  C   UNL     1      -7.480  -7.918  13.715  1.00  0.00     0.039 C 
ENDBRANCH  11  12
ENDBRANCH   1  11
TORSDOF 4
ENDMDL
MODEL 4
REMARK VINA RESULT:    -4.192      1.425      4.013
REMARK INTER + INTRA:          -6.499
REMARK INTER:                  -5.278
REMARK INTRA:                  -1.221
REMARK UNBOUND:                -1.327
REMARK SMILES CC(C)=CCC[C@@H](C)c1ccc(C)cc1
REMARK SMILES IDX 6 1 7 2 8 3 9 4 13 5 12 6 11 7 14 8 10 9 15 10 5 11 4 12
REMARK SMILES IDX 2 13 1 14 3 15
REMARK H PARENT
REMARK Flexibility Score: inf
ROOT
ATOM      1  C   UNL     1      -4.335  -7.859  13.281  1.00  0.00     0.012 C 
ENDROOT
BRANCH   1   2
ATOM      2  C   UNL     1      -5.507  -7.783  12.276  1.00  0.00     0.016 C 
ATOM      3  C   UNL     1      -6.079  -6.362  12.154  1.00  0.00     0.013 C 
BRANCH   2   4
ATOM      4  C   UNL     1      -5.070  -8.296  10.915  1.00  0.00    -0.045 A 
ATOM      5  C   UNL     1      -3.860  -9.772   7.041  1.00  0.00     0.044 C 
ATOM      6  C   UNL     1      -4.257  -9.276   8.399  1.00  0.00    -0.051 A 
ATOM      7  C   UNL     1      -3.699  -8.096   8.912  1.00  0.00     0.004 A 
ATOM      8  C   UNL     1      -5.240  -9.950   9.137  1.00  0.00     0.004 A 
ATOM      9  C   UNL     1      -4.096  -7.614  10.162  1.00  0.00     0.004 A 
ATOM     10  C   UNL     1      -5.639  -9.468  10.388  1.00  0.00     0.004 A 
ENDBRANCH   2   4
ENDBRANCH   1   2
BRANCH   1  11
ATOM     11  C   UNL     1      -3.905  -9.304  13.579  1.00  0.00     0.028 C 
BRANCH  11  12
ATOM     12  C   UNL     1      -2.423  -9.374  13.850  1.00  0.00    -0.028 C 
ATOM     13  C   UNL     1      -1.493  -9.711  12.929  1.00  0.00    -0.080 C 
ATOM     14  C   UNL     1      -1.869 -10.115  11.522  1.00  0.00     0.039 C 
ATOM     15  C   UNL     1      -0.042  -9.698  13.334  1.00  0.00     0.039 C 
ENDBRANCH  11  12
ENDBRANCH   1  11
TORSDOF 4
ENDMDL
MODEL 5
REMARK VINA RESULT:    -4.129      1.138      4.514
REMARK INTER + INTRA:          -6.422
REMARK INTER:                  -5.480
REMARK INTRA:                  -0.941
REMARK UNBOUND:                -1.327
REMARK SMILES CC(C)=CCC[C@@H](C)c1ccc(C)cc1
REMARK SMILES IDX 6 1 7 2 8 3 9 4 13 5 12 6 11 7 14 8 10 9 15 10 5 11 4 12
REMARK SMILES IDX 2 13 1 14 3 15
REMARK H PARENT
REMARK Flexibility Score: inf
ROOT
ATOM      1  C   UNL     1      -6.018  -6.790   9.965  1.00  0.00     0.012 C 
ENDROOT
BRANCH   1   2
ATOM      2  C   UNL     1      -5.782  -8.230   9.457  1.00  0.00     0.016 C 
ATOM      3  C   UNL     1      -5.922  -8.340   7.930  1.00  0.00     0.013 C 
BRANCH   2   4
ATOM      4  C   UNL     1      -4.419  -8.731   9.901  1.00  0.00    -0.045 A 
ATOM      5  C   UNL     1      -0.527 -10.125  11.151  1.00  0.00     0.044 C 
ATOM      6  C   UNL     1      -1.880  -9.664  10.697  1.00  0.00    -0.051 A 
ATOM      7  C   UNL     1      -3.037 -10.125  11.342  1.00  0.00     0.004 A 
ATOM      8  C   UNL     1      -1.995  -8.718   9.669  1.00  0.00     0.004 A 
ATOM      9  C   UNL     1      -4.296  -9.669  10.943  1.00  0.00     0.004 A 
ATOM     10  C   UNL     1      -3.255  -8.259   9.270  1.00  0.00     0.004 A 
ENDBRANCH   2   4
ENDBRANCH   1   2
BRANCH   1  11
ATOM     11  C   UNL     1      -5.600  -6.605  11.432  1.00  0.00     0.028 C 
BRANCH  11  12
ATOM     12  C   UNL     1      -6.638  -7.187  12.359  1.00  0.00    -0.028 C 
ATOM     13  C   UNL     1      -6.363  -7.752  13.555  1.00  0.00    -0.080 C 
ATOM     14  C   UNL     1      -4.947  -7.908  14.061  1.00  0.00     0.039 C 
ATOM     15  C   UNL     1      -7.509  -8.255  14.394  1.00  0.00     0.039 C 
ENDBRANCH  11  12
ENDBRANCH   1  11
TORSDOF 4
ENDMDL
MODEL 6
REMARK VINA RESULT:    -3.945      1.696      2.871
REMARK INTER + INTRA:          -6.195
REMARK INTER:                  -5.517
REMARK INTRA:                  -0.677
REMARK UNBOUND:                -1.327
REMARK SMILES CC(C)=CCC[C@@H](C)c1ccc(C)cc1
REMARK SMILES IDX 6 1 7 2 8 3 9 4 13 5 12 6 11 7 14 8 10 9 15 10 5 11 4 12
REMARK SMILES IDX 2 13 1 14 3 15
REMARK H PARENT
REMARK Flexibility Score: inf
ROOT
ATOM      1  C   UNL     1      -3.735  -8.490  13.589  1.00  0.00     0.012 C 
ENDROOT
BRANCH   1   2
ATOM      2  C   UNL     1      -4.607  -7.871  12.473  1.00  0.00     0.016 C 
ATOM      3  C   UNL     1      -4.053  -8.163  11.070  1.00  0.00     0.013 C 
BRANCH   2   4
ATOM      4  C   UNL     1      -6.040  -8.362  12.589  1.00  0.00    -0.045 A 
ATOM      5  C   UNL     1     -10.122  -9.729  12.940  1.00  0.00     0.044 C 
ATOM      6  C   UNL     1      -8.695  -9.280  12.831  1.00  0.00    -0.051 A 
ATOM      7  C   UNL     1      -7.949  -9.569  11.680  1.00  0.00     0.004 A 
ATOM      8  C   UNL     1      -8.117  -8.510  13.850  1.00  0.00     0.004 A 
ATOM      9  C   UNL     1      -6.630  -9.121  11.562  1.00  0.00     0.004 A 
ATOM     10  C   UNL     1      -6.798  -8.060  13.733  1.00  0.00     0.004 A 
ENDBRANCH   2   4
ENDBRANCH   1   2
BRANCH   1  11
ATOM     11  C   UNL     1      -2.893  -9.675  13.092  1.00  0.00     0.028 C 
BRANCH  11  12
ATOM     12  C   UNL     1      -1.530  -9.669  13.740  1.00  0.00    -0.028 C 
ATOM     13  C   UNL     1      -0.363  -9.732  13.064  1.00  0.00    -0.080 C 
ATOM     14  C   UNL     1      -0.315  -9.874  11.560  1.00  0.00     0.039 C 
ATOM     15  C   UNL     1       0.925  -9.675  13.844  1.00  0.00     0.039 C 
ENDBRANCH  11  12
ENDBRANCH   1  11
TORSDOF 4
ENDMDL
MODEL 7
REMARK VINA RESULT:    -3.908      9.753     12.225
REMARK INTER + INTRA:          -6.149
REMARK INTER:                  -4.706
REMARK INTRA:                  -1.444
REMARK UNBOUND:                -1.327
REMARK SMILES CC(C)=CCC[C@@H](C)c1ccc(C)cc1
REMARK SMILES IDX 6 1 7 2 8 3 9 4 13 5 12 6 11 7 14 8 10 9 15 10 5 11 4 12
REMARK SMILES IDX 2 13 1 14 3 15
REMARK H PARENT
REMARK Flexibility Score: inf
ROOT
ATOM      1  C   UNL     1      -6.130  -8.876  20.551  1.00  0.00     0.012 C 
ENDROOT
BRANCH   1   2
ATOM      2  C   UNL     1      -5.543  -9.453  21.859  1.00  0.00     0.016 C 
ATOM      3  C   UNL     1      -4.179 -10.125  21.639  1.00  0.00     0.013 C 
BRANCH   2   4
ATOM      4  C   UNL     1      -5.434  -8.366  22.914  1.00  0.00    -0.045 A 
ATOM      5  C   UNL     1      -5.114  -5.251  25.889  1.00  0.00     0.044 C 
ATOM      6  C   UNL     1      -5.202  -6.347  24.870  1.00  0.00    -0.051 A 
ATOM      7  C   UNL     1      -6.039  -7.451  25.088  1.00  0.00     0.004 A 
ATOM      8  C   UNL     1      -4.500  -6.244  23.660  1.00  0.00     0.004 A 
ATOM      9  C   UNL     1      -6.149  -8.456  24.123  1.00  0.00     0.004 A 
ATOM     10  C   UNL     1      -4.610  -7.248  22.693  1.00  0.00     0.004 A 
ENDBRANCH   2   4
ENDBRANCH   1   2
BRANCH   1  11
ATOM     11  C   UNL     1      -7.519  -8.250  20.753  1.00  0.00     0.028 C 
BRANCH  11  12
ATOM     12  C   UNL     1      -7.576  -6.872  20.140  1.00  0.00    -0.028 C 
ATOM     13  C   UNL     1      -7.757  -5.731  20.841  1.00  0.00    -0.080 C 
ATOM     14  C   UNL     1      -7.980  -5.737  22.336  1.00  0.00     0.039 C 
ATOM     15  C   UNL     1      -7.751  -4.421  20.097  1.00  0.00     0.039 C 
ENDBRANCH  11  12
ENDBRANCH   1  11
TORSDOF 4
ENDMDL
MODEL 8
REMARK VINA RESULT:    -3.790     15.506     15.987
REMARK INTER + INTRA:          -6.004
REMARK INTER:                  -5.250
REMARK INTRA:                  -0.753
REMARK UNBOUND:                -1.327
REMARK SMILES CC(C)=CCC[C@@H](C)c1ccc(C)cc1
REMARK SMILES IDX 6 1 7 2 8 3 9 4 13 5 12 6 11 7 14 8 10 9 15 10 5 11 4 12
REMARK SMILES IDX 2 13 1 14 3 15
REMARK H PARENT
REMARK Flexibility Score: inf
ROOT
ATOM      1  C   UNL     1       7.321   2.650   7.948  1.00  0.00     0.012 C 
ENDROOT
BRANCH   1   2
ATOM      2  C   UNL     1       6.406   2.346   9.155  1.00  0.00     0.016 C 
ATOM      3  C   UNL     1       7.179   2.322  10.483  1.00  0.00     0.013 C 
BRANCH   2   4
ATOM      4  C   UNL     1       5.270   3.352   9.223  1.00  0.00    -0.045 A 
ATOM      5  C   UNL     1       2.054   6.227   9.447  1.00  0.00     0.044 C 
ATOM      6  C   UNL     1       3.150   5.206   9.374  1.00  0.00    -0.051 A 
ATOM      7  C   UNL     1       3.500   4.631   8.144  1.00  0.00     0.004 A 
ATOM      8  C   UNL     1       3.879   4.870  10.524  1.00  0.00     0.004 A 
ATOM      9  C   UNL     1       4.546   3.706   8.070  1.00  0.00     0.004 A 
ATOM     10  C   UNL     1       4.926   3.945  10.450  1.00  0.00     0.004 A 
ENDBRANCH   2   4
ENDBRANCH   1   2
BRANCH   1  11
ATOM     11  C   UNL     1       8.704   1.993   8.075  1.00  0.00     0.028 C 
BRANCH  11  12
ATOM     12  C   UNL     1       8.813   0.797   7.162  1.00  0.00    -0.028 C 
ATOM     13  C   UNL     1       8.763  -0.487   7.578  1.00  0.00    -0.080 C 
ATOM     14  C   UNL     1       8.647  -0.853   9.040  1.00  0.00     0.039 C 
ATOM     15  C   UNL     1       8.844  -1.581   6.545  1.00  0.00     0.039 C 
ENDBRANCH  11  12
ENDBRANCH   1  11
TORSDOF 4
ENDMDL
