MODEL 1
REMARK VINA RESULT:    -4.301      0.000      0.000
REMARK INTER + INTRA:          -4.828
REMARK INTER:                  -4.679
REMARK INTRA:                  -0.150
REMARK UNBOUND:                -0.150
REMARK SMILES CC(=O)[C@H]1CC[C@H]2[C@@H]3CC=C4C[C@H](O)CC[C@]4(C)[C@@H]3CC[C@@]12C
REMARK SMILES IDX 4 1 5 2 6 3 7 4 22 5 21 6 20 7 19 8 8 9 9 10 10 11 11 12
REMARK SMILES IDX 17 13 16 14 15 15 13 16 12 17 18 18 23 19 2 20 1 21 3 22
REMARK SMILES IDX 14 23
REMARK H PARENT 14 24
REMARK Flexibility Score: inf
ROOT
ATOM      1  C   UNL     1     165.520 175.917 156.106  1.00  0.00     0.062 C 
ATOM      2  C   UNL     1     165.655 174.656 156.959  1.00  0.00     0.012 C 
ATOM      3  C   UNL     1     167.101 174.633 157.450  1.00  0.00     0.005 C 
ATOM      4  C   UNL     1     167.826 175.822 156.789  1.00  0.00    -0.001 C 
ATOM      5  C   UNL     1     166.945 176.227 155.572  1.00  0.00    -0.020 C 
ATOM      6  C   UNL     1     167.297 175.378 154.318  1.00  0.00     0.008 C 
ATOM      7  C   UNL     1     168.802 175.281 154.035  1.00  0.00     0.005 C 
ATOM      8  C   UNL     1     169.548 174.647 155.232  1.00  0.00     0.003 C 
ATOM      9  C   UNL     1     169.328 175.509 156.504  1.00  0.00     0.000 C 
ATOM     10  C   UNL     1     170.170 176.797 156.466  1.00  0.00     0.031 C 
ATOM     11  C   UNL     1     171.596 176.555 156.079  1.00  0.00    -0.027 C 
ATOM     12  C   UNL     1     171.998 175.520 155.313  1.00  0.00    -0.065 C 
ATOM     13  C   UNL     1     171.087 174.325 155.009  1.00  0.00    -0.008 C 
ATOM     14  C   UNL     1     171.370 173.853 153.545  1.00  0.00     0.014 C 
ATOM     15  C   UNL     1     172.863 173.659 153.231  1.00  0.00     0.033 C 
ATOM     16  C   UNL     1     173.660 174.947 153.497  1.00  0.00     0.118 C 
ATOM     17  C   UNL     1     173.468 175.426 154.942  1.00  0.00     0.063 C 
ATOM     18  C   UNL     1     171.472 173.172 155.981  1.00  0.00     0.016 C 
ATOM     19  C   UNL     1     167.034 177.737 155.232  1.00  0.00     0.012 C 
ENDROOT
BRANCH   1  20
ATOM     20  C   UNL     1     164.421 175.810 155.062  1.00  0.00     0.133 C 
ATOM     21  C   UNL     1     163.875 174.467 154.681  1.00  0.00     0.088 C 
ATOM     22  O   UNL     1     164.010 176.806 154.485  1.00  0.00    -0.300 OA
ENDBRANCH   1  20
BRANCH  16  23
ATOM     23  O   UNL     1     173.261 175.964 152.614  1.00  0.00    -0.393 OA
ATOM     24  H   UNL     1     172.274 175.896 152.524  1.00  0.00     0.210 HD
ENDBRANCH  16  23
TORSDOF 2
ENDMDL
MODEL 2
REMARK VINA RESULT:    -4.256      5.701      8.617
REMARK INTER + INTRA:          -4.779
REMARK INTER:                  -4.629
REMARK INTRA:                  -0.150
REMARK UNBOUND:                -0.150
REMARK SMILES CC(=O)[C@H]1CC[C@H]2[C@@H]3CC=C4C[C@H](O)CC[C@]4(C)[C@@H]3CC[C@@]12C
REMARK SMILES IDX 4 1 5 2 6 3 7 4 22 5 21 6 20 7 19 8 8 9 9 10 10 11 11 12
REMARK SMILES IDX 17 13 16 14 15 15 13 16 12 17 18 18 23 19 2 20 1 21 3 22
REMARK SMILES IDX 14 23
REMARK H PARENT 14 24
REMARK Flexibility Score: inf
ROOT
ATOM      1  C   UNL     1     172.111 165.523 156.054  1.00  0.00     0.062 C 
ATOM      2  C   UNL     1     173.322 165.658 156.975  1.00  0.00     0.012 C 
ATOM      3  C   UNL     1     173.310 167.101 157.475  1.00  0.00     0.005 C 
ATOM      4  C   UNL     1     172.156 167.825 156.754  1.00  0.00    -0.001 C 
ATOM      5  C   UNL     1     171.823 166.949 155.511  1.00  0.00    -0.020 C 
ATOM      6  C   UNL     1     172.738 167.312 154.308  1.00  0.00     0.008 C 
ATOM      7  C   UNL     1     172.843 168.819 154.040  1.00  0.00     0.005 C 
ATOM      8  C   UNL     1     173.406 169.561 155.274  1.00  0.00     0.003 C 
ATOM      9  C   UNL     1     172.476 169.330 156.495  1.00  0.00     0.000 C 
ATOM     10  C   UNL     1     171.189 170.166 156.390  1.00  0.00     0.031 C 
ATOM     11  C   UNL     1     171.445 171.596 156.025  1.00  0.00    -0.027 C 
ATOM     12  C   UNL     1     172.518 172.007 155.320  1.00  0.00    -0.065 C 
ATOM     13  C   UNL     1     173.733 171.103 155.076  1.00  0.00    -0.008 C 
ATOM     14  C   UNL     1     174.283 171.396 153.643  1.00  0.00     0.014 C 
ATOM     15  C   UNL     1     174.487 172.892 153.348  1.00  0.00     0.033 C 
ATOM     16  C   UNL     1     173.182 173.681 153.548  1.00  0.00     0.118 C 
ATOM     17  C   UNL     1     172.626 173.480 154.962  1.00  0.00     0.063 C 
ATOM     18  C   UNL     1     174.828 171.488 156.113  1.00  0.00     0.016 C 
ATOM     19  C   UNL     1     170.334 167.033 155.089  1.00  0.00     0.012 C 
ENDROOT
BRANCH   1  20
ATOM     20  C   UNL     1     172.280 164.430 155.011  1.00  0.00     0.133 C 
ATOM     21  C   UNL     1     173.645 163.893 154.702  1.00  0.00     0.088 C 
ATOM     22  O   UNL     1     171.320 164.017 154.378  1.00  0.00    -0.300 OA
ENDBRANCH   1  20
BRANCH  16  23
ATOM     23  O   UNL     1     172.217 173.283 152.607  1.00  0.00    -0.393 OA
ATOM     24  H   UNL     1     172.580 172.483 152.145  1.00  0.00     0.210 HD
ENDBRANCH  16  23
TORSDOF 2
ENDMDL
MODEL 3
REMARK VINA RESULT:    -4.189      5.734      8.579
REMARK INTER + INTRA:          -4.706
REMARK INTER:                  -4.558
REMARK INTRA:                  -0.148
REMARK UNBOUND:                -0.150
REMARK SMILES CC(=O)[C@H]1CC[C@H]2[C@@H]3CC=C4C[C@H](O)CC[C@]4(C)[C@@H]3CC[C@@]12C
REMARK SMILES IDX 4 1 5 2 6 3 7 4 22 5 21 6 20 7 19 8 8 9 9 10 10 11 11 12
REMARK SMILES IDX 17 13 16 14 15 15 13 16 12 17 18 18 23 19 2 20 1 21 3 22
REMARK SMILES IDX 14 23
REMARK H PARENT 14 24
REMARK Flexibility Score: inf
ROOT
ATOM      1  C   UNL     1     175.908 182.459 156.070  1.00  0.00     0.062 C 
ATOM      2  C   UNL     1     174.693 182.300 156.982  1.00  0.00     0.012 C 
ATOM      3  C   UNL     1     174.715 180.851 157.464  1.00  0.00     0.005 C 
ATOM      4  C   UNL     1     175.881 180.148 156.742  1.00  0.00    -0.001 C 
ATOM      5  C   UNL     1     176.213 181.042 155.512  1.00  0.00    -0.020 C 
ATOM      6  C   UNL     1     175.310 180.684 154.298  1.00  0.00     0.008 C 
ATOM      7  C   UNL     1     175.221 179.180 154.011  1.00  0.00     0.005 C 
ATOM      8  C   UNL     1     174.658 178.417 155.232  1.00  0.00     0.003 C 
ATOM      9  C   UNL     1     175.577 178.643 156.462  1.00  0.00     0.000 C 
ATOM     10  C   UNL     1     176.873 177.820 156.356  1.00  0.00     0.031 C 
ATOM     11  C   UNL     1     176.634 176.393 155.971  1.00  0.00    -0.027 C 
ATOM     12  C   UNL     1     175.569 175.981 155.254  1.00  0.00    -0.065 C 
ATOM     13  C   UNL     1     174.347 176.875 155.014  1.00  0.00    -0.008 C 
ATOM     14  C   UNL     1     173.810 176.594 153.574  1.00  0.00     0.014 C 
ATOM     15  C   UNL     1     173.622 175.100 153.259  1.00  0.00     0.033 C 
ATOM     16  C   UNL     1     174.933 174.321 153.457  1.00  0.00     0.118 C 
ATOM     17  C   UNL     1     175.479 174.511 154.878  1.00  0.00     0.063 C 
ATOM     18  C   UNL     1     173.249 176.467 156.038  1.00  0.00     0.016 C 
ATOM     19  C   UNL     1     177.706 180.977 155.099  1.00  0.00     0.012 C 
ENDROOT
BRANCH   1  20
ATOM     20  C   UNL     1     175.735 183.562 155.040  1.00  0.00     0.133 C 
ATOM     21  C   UNL     1     174.369 184.104 154.743  1.00  0.00     0.088 C 
ATOM     22  O   UNL     1     176.693 183.981 154.406  1.00  0.00    -0.300 OA
ENDBRANCH   1  20
BRANCH  16  23
ATOM     23  O   UNL     1     175.900 174.740 152.528  1.00  0.00    -0.393 OA
ATOM     24  H   UNL     1     176.686 175.048 153.052  1.00  0.00     0.210 HD
ENDBRANCH  16  23
TORSDOF 2
ENDMDL
MODEL 4
REMARK VINA RESULT:    -4.185      5.074      8.316
REMARK INTER + INTRA:          -4.702
REMARK INTER:                  -4.631
REMARK INTRA:                  -0.071
REMARK UNBOUND:                -0.150
REMARK SMILES CC(=O)[C@H]1CC[C@H]2[C@@H]3CC=C4C[C@H](O)CC[C@]4(C)[C@@H]3CC[C@@]12C
REMARK SMILES IDX 4 1 5 2 6 3 7 4 22 5 21 6 20 7 19 8 8 9 9 10 10 11 11 12
REMARK SMILES IDX 17 13 16 14 15 15 13 16 12 17 18 18 23 19 2 20 1 21 3 22
REMARK SMILES IDX 14 23
REMARK H PARENT 14 24
REMARK Flexibility Score: inf
ROOT
ATOM      1  C   UNL     1     173.710 167.199 156.163  1.00  0.00     0.062 C 
ATOM      2  C   UNL     1     174.518 167.608 157.393  1.00  0.00     0.012 C 
ATOM      3  C   UNL     1     174.105 169.043 157.710  1.00  0.00     0.005 C 
ATOM      4  C   UNL     1     173.141 169.497 156.596  1.00  0.00    -0.001 C 
ATOM      5  C   UNL     1     173.378 168.517 155.411  1.00  0.00    -0.020 C 
ATOM      6  C   UNL     1     174.558 168.992 154.517  1.00  0.00     0.008 C 
ATOM      7  C   UNL     1     174.490 170.477 154.137  1.00  0.00     0.005 C 
ATOM      8  C   UNL     1     174.492 171.370 155.399  1.00  0.00     0.003 C 
ATOM      9  C   UNL     1     173.271 171.022 156.291  1.00  0.00     0.000 C 
ATOM     10  C   UNL     1     171.966 171.589 155.706  1.00  0.00     0.031 C 
ATOM     11  C   UNL     1     172.082 173.023 155.289  1.00  0.00    -0.027 C 
ATOM     12  C   UNL     1     173.241 173.599 154.910  1.00  0.00    -0.065 C 
ATOM     13  C   UNL     1     174.603 172.936 155.150  1.00  0.00    -0.008 C 
ATOM     14  C   UNL     1     175.528 173.261 153.934  1.00  0.00     0.014 C 
ATOM     15  C   UNL     1     175.564 174.753 153.560  1.00  0.00     0.033 C 
ATOM     16  C   UNL     1     174.151 175.285 153.263  1.00  0.00     0.118 C 
ATOM     17  C   UNL     1     173.210 175.047 154.450  1.00  0.00     0.063 C 
ATOM     18  C   UNL     1     175.224 173.571 156.427  1.00  0.00     0.016 C 
ATOM     19  C   UNL     1     172.113 168.293 154.544  1.00  0.00     0.012 C 
ENDROOT
BRANCH   1  20
ATOM     20  C   UNL     1     174.387 166.112 155.345  1.00  0.00     0.133 C 
ATOM     21  C   UNL     1     173.587 165.292 154.377  1.00  0.00     0.088 C 
ATOM     22  O   UNL     1     175.572 165.857 155.505  1.00  0.00    -0.300 OA
ENDBRANCH   1  20
BRANCH  16  23
ATOM     23  O   UNL     1     173.622 174.665 152.118  1.00  0.00    -0.393 OA
ATOM     24  H   UNL     1     172.633 174.694 152.208  1.00  0.00     0.210 HD
ENDBRANCH  16  23
TORSDOF 2
ENDMDL
MODEL 5
REMARK VINA RESULT:    -4.177      1.731      2.249
REMARK INTER + INTRA:          -4.693
REMARK INTER:                  -4.617
REMARK INTRA:                  -0.076
REMARK UNBOUND:                -0.150
REMARK SMILES CC(=O)[C@H]1CC[C@H]2[C@@H]3CC=C4C[C@H](O)CC[C@]4(C)[C@@H]3CC[C@@]12C
REMARK SMILES IDX 4 1 5 2 6 3 7 4 22 5 21 6 20 7 19 8 8 9 9 10 10 11 11 12
REMARK SMILES IDX 17 13 16 14 15 15 13 16 12 17 18 18 23 19 2 20 1 21 3 22
REMARK SMILES IDX 14 23
REMARK H PARENT 14 24
REMARK Flexibility Score: inf
ROOT
ATOM      1  C   UNL     1     167.205 174.460 156.159  1.00  0.00     0.062 C 
ATOM      2  C   UNL     1     167.607 173.644 157.386  1.00  0.00     0.012 C 
ATOM      3  C   UNL     1     169.044 174.049 157.709  1.00  0.00     0.005 C 
ATOM      4  C   UNL     1     169.505 175.016 156.601  1.00  0.00    -0.001 C 
ATOM      5  C   UNL     1     168.527 174.790 155.412  1.00  0.00    -0.020 C 
ATOM      6  C   UNL     1     169.000 173.612 154.513  1.00  0.00     0.008 C 
ATOM      7  C   UNL     1     170.486 173.675 154.138  1.00  0.00     0.005 C 
ATOM      8  C   UNL     1     171.376 173.662 155.402  1.00  0.00     0.003 C 
ATOM      9  C   UNL     1     171.030 174.881 156.300  1.00  0.00     0.000 C 
ATOM     10  C   UNL     1     171.605 176.187 155.724  1.00  0.00     0.031 C 
ATOM     11  C   UNL     1     173.039 176.066 155.310  1.00  0.00    -0.027 C 
ATOM     12  C   UNL     1     173.611 174.906 154.927  1.00  0.00    -0.065 C 
ATOM     13  C   UNL     1     172.941 173.546 155.158  1.00  0.00    -0.008 C 
ATOM     14  C   UNL     1     173.266 172.626 153.938  1.00  0.00     0.014 C 
ATOM     15  C   UNL     1     174.759 172.586 153.568  1.00  0.00     0.033 C 
ATOM     16  C   UNL     1     175.298 173.997 153.280  1.00  0.00     0.118 C 
ATOM     17  C   UNL     1     175.060 174.933 154.471  1.00  0.00     0.063 C 
ATOM     18  C   UNL     1     173.571 172.915 156.433  1.00  0.00     0.016 C 
ATOM     19  C   UNL     1     168.311 176.060 154.551  1.00  0.00     0.012 C 
ENDROOT
BRANCH   1  20
ATOM     20  C   UNL     1     166.118 173.792 155.334  1.00  0.00     0.133 C 
ATOM     21  C   UNL     1     165.292 174.603 154.382  1.00  0.00     0.088 C 
ATOM     22  O   UNL     1     165.868 172.603 155.476  1.00  0.00    -0.300 OA
ENDBRANCH   1  20
BRANCH  16  23
ATOM     23  O   UNL     1     174.684 174.535 152.136  1.00  0.00    -0.393 OA
ATOM     24  H   UNL     1     174.669 173.814 151.453  1.00  0.00     0.210 HD
ENDBRANCH  16  23
TORSDOF 2
ENDMDL
MODEL 6
REMARK VINA RESULT:    -4.177      6.937     12.104
REMARK INTER + INTRA:          -4.693
REMARK INTER:                  -4.544
REMARK INTRA:                  -0.149
REMARK UNBOUND:                -0.150
REMARK SMILES CC(=O)[C@H]1CC[C@H]2[C@@H]3CC=C4C[C@H](O)CC[C@]4(C)[C@@H]3CC[C@@]12C
REMARK SMILES IDX 4 1 5 2 6 3 7 4 22 5 21 6 20 7 19 8 8 9 9 10 10 11 11 12
REMARK SMILES IDX 17 13 16 14 15 15 13 16 12 17 18 18 23 19 2 20 1 21 3 22
REMARK SMILES IDX 14 23
REMARK H PARENT 14 24
REMARK Flexibility Score: inf
ROOT
ATOM      1  C   UNL     1     182.450 172.273 156.093  1.00  0.00     0.062 C 
ATOM      2  C   UNL     1     182.273 173.489 157.001  1.00  0.00     0.012 C 
ATOM      3  C   UNL     1     180.821 173.454 157.473  1.00  0.00     0.005 C 
ATOM      4  C   UNL     1     180.134 172.280 156.748  1.00  0.00    -0.001 C 
ATOM      5  C   UNL     1     181.040 171.953 155.526  1.00  0.00    -0.020 C 
ATOM      6  C   UNL     1     180.683 172.851 154.307  1.00  0.00     0.008 C 
ATOM      7  C   UNL     1     179.180 172.924 154.009  1.00  0.00     0.005 C 
ATOM      8  C   UNL     1     178.403 173.484 155.223  1.00  0.00     0.003 C 
ATOM      9  C   UNL     1     178.629 172.569 156.457  1.00  0.00     0.000 C 
ATOM     10  C   UNL     1     177.819 171.265 156.347  1.00  0.00     0.031 C 
ATOM     11  C   UNL     1     176.392 171.490 155.952  1.00  0.00    -0.027 C 
ATOM     12  C   UNL     1     175.975 172.549 155.230  1.00  0.00    -0.065 C 
ATOM     13  C   UNL     1     176.860 173.779 154.993  1.00  0.00    -0.008 C 
ATOM     14  C   UNL     1     176.585 174.311 153.549  1.00  0.00     0.014 C 
ATOM     15  C   UNL     1     175.091 174.484 153.224  1.00  0.00     0.033 C 
ATOM     16  C   UNL     1     174.323 173.166 153.419  1.00  0.00     0.118 C 
ATOM     17  C   UNL     1     174.508 172.625 154.843  1.00  0.00     0.063 C 
ATOM     18  C   UNL     1     176.434 174.876 156.012  1.00  0.00     0.016 C 
ATOM     19  C   UNL     1     180.993 170.459 155.115  1.00  0.00     0.012 C 
ENDROOT
BRANCH   1  20
ATOM     20  C   UNL     1     183.560 172.454 155.071  1.00  0.00     0.133 C 
ATOM     21  C   UNL     1     184.116 173.820 154.801  1.00  0.00     0.088 C 
ATOM     22  O   UNL     1     183.970 171.504 154.420  1.00  0.00    -0.300 OA
ENDBRANCH   1  20
BRANCH  16  23
ATOM     23  O   UNL     1     174.758 172.201 152.496  1.00  0.00    -0.393 OA
ATOM     24  H   UNL     1     175.725 172.365 152.343  1.00  0.00     0.210 HD
ENDBRANCH  16  23
TORSDOF 2
ENDMDL
MODEL 7
REMARK VINA RESULT:    -4.165      4.816      7.255
REMARK INTER + INTRA:          -4.679
REMARK INTER:                  -4.590
REMARK INTRA:                  -0.090
REMARK UNBOUND:                -0.150
REMARK SMILES CC(=O)[C@H]1CC[C@H]2[C@@H]3CC=C4C[C@H](O)CC[C@]4(C)[C@@H]3CC[C@@]12C
REMARK SMILES IDX 4 1 5 2 6 3 7 4 22 5 21 6 20 7 19 8 8 9 9 10 10 11 11 12
REMARK SMILES IDX 17 13 16 14 15 15 13 16 12 17 18 18 23 19 2 20 1 21 3 22
REMARK SMILES IDX 14 23
REMARK H PARENT 14 24
REMARK Flexibility Score: inf
ROOT
ATOM      1  C   UNL     1     174.454 181.006 156.212  1.00  0.00     0.062 C 
ATOM      2  C   UNL     1     172.956 180.885 156.489  1.00  0.00     0.012 C 
ATOM      3  C   UNL     1     172.727 179.445 156.944  1.00  0.00     0.005 C 
ATOM      4  C   UNL     1     174.076 178.709 156.824  1.00  0.00    -0.001 C 
ATOM      5  C   UNL     1     174.941 179.573 155.862  1.00  0.00    -0.020 C 
ATOM      6  C   UNL     1     174.664 179.208 154.376  1.00  0.00     0.008 C 
ATOM      7  C   UNL     1     174.677 177.700 154.094  1.00  0.00     0.005 C 
ATOM      8  C   UNL     1     173.611 176.971 154.944  1.00  0.00     0.003 C 
ATOM      9  C   UNL     1     173.892 177.204 156.452  1.00  0.00     0.000 C 
ATOM     10  C   UNL     1     175.081 176.358 156.942  1.00  0.00     0.031 C 
ATOM     11  C   UNL     1     175.004 174.928 156.505  1.00  0.00    -0.027 C 
ATOM     12  C   UNL     1     174.360 174.520 155.393  1.00  0.00    -0.065 C 
ATOM     13  C   UNL     1     173.394 175.430 154.625  1.00  0.00    -0.008 C 
ATOM     14  C   UNL     1     173.547 175.130 153.099  1.00  0.00     0.014 C 
ATOM     15  C   UNL     1     173.483 173.634 152.748  1.00  0.00     0.033 C 
ATOM     16  C   UNL     1     174.551 172.837 153.517  1.00  0.00     0.118 C 
ATOM     17  C   UNL     1     174.411 173.045 155.030  1.00  0.00     0.063 C 
ATOM     18  C   UNL     1     171.946 175.060 155.057  1.00  0.00     0.016 C 
ATOM     19  C   UNL     1     176.460 179.476 156.157  1.00  0.00     0.012 C 
ENDROOT
BRANCH   1  20
ATOM     20  C   UNL     1     174.783 182.092 155.202  1.00  0.00     0.133 C 
ATOM     21  C   UNL     1     176.075 182.844 155.303  1.00  0.00     0.088 C 
ATOM     22  O   UNL     1     173.979 182.401 154.334  1.00  0.00    -0.300 OA
ENDBRANCH   1  20
BRANCH  16  23
ATOM     23  O   UNL     1     175.840 173.222 153.112  1.00  0.00    -0.393 OA
ATOM     24  H   UNL     1     176.109 173.981 153.693  1.00  0.00     0.210 HD
ENDBRANCH  16  23
TORSDOF 2
ENDMDL
MODEL 8
REMARK VINA RESULT:    -4.140      5.587     10.637
REMARK INTER + INTRA:          -4.653
REMARK INTER:                  -4.578
REMARK INTRA:                  -0.075
REMARK UNBOUND:                -0.150
REMARK SMILES CC(=O)[C@H]1CC[C@H]2[C@@H]3CC=C4C[C@H](O)CC[C@]4(C)[C@@H]3CC[C@@]12C
REMARK SMILES IDX 4 1 5 2 6 3 7 4 22 5 21 6 20 7 19 8 8 9 9 10 10 11 11 12
REMARK SMILES IDX 17 13 16 14 15 15 13 16 12 17 18 18 23 19 2 20 1 21 3 22
REMARK SMILES IDX 14 23
REMARK H PARENT 14 24
REMARK Flexibility Score: inf
ROOT
ATOM      1  C   UNL     1     180.886 174.166 156.306  1.00  0.00     0.062 C 
ATOM      2  C   UNL     1     180.700 175.682 156.337  1.00  0.00     0.012 C 
ATOM      3  C   UNL     1     179.238 175.919 156.710  1.00  0.00     0.005 C 
ATOM      4  C   UNL     1     178.557 174.538 156.785  1.00  0.00    -0.001 C 
ATOM      5  C   UNL     1     179.485 173.569 155.998  1.00  0.00    -0.020 C 
ATOM      6  C   UNL     1     179.161 173.592 154.478  1.00  0.00     0.008 C 
ATOM      7  C   UNL     1     177.666 173.471 154.159  1.00  0.00     0.005 C 
ATOM      8  C   UNL     1     176.868 174.626 154.808  1.00  0.00     0.003 C 
ATOM      9  C   UNL     1     177.060 174.597 156.347  1.00  0.00     0.000 C 
ATOM     10  C   UNL     1     176.242 173.466 156.996  1.00  0.00     0.031 C 
ATOM     11  C   UNL     1     174.826 173.413 156.513  1.00  0.00    -0.027 C 
ATOM     12  C   UNL     1     174.433 173.855 155.302  1.00  0.00    -0.065 C 
ATOM     13  C   UNL     1     175.332 174.725 154.416  1.00  0.00    -0.008 C 
ATOM     14  C   UNL     1     175.091 174.320 152.925  1.00  0.00     0.014 C 
ATOM     15  C   UNL     1     173.606 174.264 152.527  1.00  0.00     0.033 C 
ATOM     16  C   UNL     1     172.824 173.299 153.434  1.00  0.00     0.118 C 
ATOM     17  C   UNL     1     172.974 173.684 154.910  1.00  0.00     0.063 C 
ATOM     18  C   UNL     1     174.893 176.206 154.601  1.00  0.00     0.016 C 
ATOM     19  C   UNL     1     179.435 172.113 156.528  1.00  0.00     0.012 C 
ENDROOT
BRANCH   1  20
ATOM     20  C   UNL     1     182.018 173.728 155.391  1.00  0.00     0.133 C 
ATOM     21  C   UNL     1     182.878 172.560 155.769  1.00  0.00     0.088 C 
ATOM     22  O   UNL     1     182.273 174.352 154.372  1.00  0.00    -0.300 OA
ENDBRANCH   1  20
BRANCH  16  23
ATOM     23  O   UNL     1     173.270 171.980 153.250  1.00  0.00    -0.393 OA
ATOM     24  H   UNL     1     174.262 172.014 153.217  1.00  0.00     0.210 HD
ENDBRANCH  16  23
TORSDOF 2
ENDMDL
MODEL 9
REMARK VINA RESULT:    -4.098      3.968      7.091
REMARK INTER + INTRA:          -4.607
REMARK INTER:                  -4.456
REMARK INTRA:                  -0.151
REMARK UNBOUND:                -0.150
REMARK SMILES CC(=O)[C@H]1CC[C@H]2[C@@H]3CC=C4C[C@H](O)CC[C@]4(C)[C@@H]3CC[C@@]12C
REMARK SMILES IDX 4 1 5 2 6 3 7 4 22 5 21 6 20 7 19 8 8 9 9 10 10 11 11 12
REMARK SMILES IDX 17 13 16 14 15 15 13 16 12 17 18 18 23 19 2 20 1 21 3 22
REMARK SMILES IDX 14 23
REMARK H PARENT 14 24
REMARK Flexibility Score: inf
ROOT
ATOM      1  C   UNL     1     166.394 175.639 155.809  1.00  0.00     0.062 C 
ATOM      2  C   UNL     1     165.059 176.079 156.407  1.00  0.00     0.012 C 
ATOM      3  C   UNL     1     164.297 176.767 155.277  1.00  0.00     0.005 C 
ATOM      4  C   UNL     1     165.239 176.820 154.058  1.00  0.00    -0.001 C 
ATOM      5  C   UNL     1     166.672 176.607 154.626  1.00  0.00    -0.020 C 
ATOM      6  C   UNL     1     167.292 177.950 155.104  1.00  0.00     0.008 C 
ATOM      7  C   UNL     1     167.152 179.094 154.091  1.00  0.00     0.005 C 
ATOM      8  C   UNL     1     165.663 179.372 153.776  1.00  0.00     0.003 C 
ATOM      9  C   UNL     1     165.004 178.095 153.189  1.00  0.00     0.000 C 
ATOM     10  C   UNL     1     165.427 177.862 151.728  1.00  0.00     0.031 C 
ATOM     11  C   UNL     1     165.329 179.095 150.884  1.00  0.00    -0.027 C 
ATOM     12  C   UNL     1     165.433 180.347 151.375  1.00  0.00    -0.065 C 
ATOM     13  C   UNL     1     165.362 180.647 152.877  1.00  0.00    -0.008 C 
ATOM     14  C   UNL     1     166.349 181.817 153.190  1.00  0.00     0.014 C 
ATOM     15  C   UNL     1     166.195 183.029 152.255  1.00  0.00     0.033 C 
ATOM     16  C   UNL     1     166.365 182.619 150.782  1.00  0.00     0.118 C 
ATOM     17  C   UNL     1     165.378 181.510 150.399  1.00  0.00     0.063 C 
ATOM     18  C   UNL     1     163.916 181.120 153.201  1.00  0.00     0.016 C 
ATOM     19  C   UNL     1     167.627 175.910 153.623  1.00  0.00     0.012 C 
ENDROOT
BRANCH   1  20
ATOM     20  C   UNL     1     167.496 175.516 156.848  1.00  0.00     0.133 C 
ATOM     21  C   UNL     1     167.330 176.148 158.197  1.00  0.00     0.088 C 
ATOM     22  O   UNL     1     168.546 174.949 156.580  1.00  0.00    -0.300 OA
ENDBRANCH   1  20
BRANCH  16  23
ATOM     23  O   UNL     1     167.677 182.177 150.542  1.00  0.00    -0.393 OA
ATOM     24  H   UNL     1     167.792 181.332 151.052  1.00  0.00     0.210 HD
ENDBRANCH  16  23
TORSDOF 2
ENDMDL
