MODEL 1
REMARK VINA RESULT:    -2.075      0.000      0.000
REMARK INTER + INTRA:          -2.962
REMARK INTER:                  -2.803
REMARK INTRA:                  -0.159
REMARK UNBOUND:                -0.159
REMARK SMILES CCCCCCCC(=O)[O-]
REMARK SMILES IDX 5 1 6 2 7 3 8 4 9 5 10 6 4 7 3 8 2 9 1 10
REMARK H PARENT
REMARK Flexibility Score: inf
ROOT
ATOM      1  C   UNL     1     116.299  13.547  24.721  1.00  0.00     0.000 C 
ENDROOT
BRANCH   1   2
ATOM      2  C   UNL     1     116.110  13.778  26.234  1.00  0.00     0.006 C 
BRANCH   2   3
ATOM      3  C   UNL     1     116.740  15.096  26.704  1.00  0.00     0.053 C 
BRANCH   3   4
ATOM      4  C   UNL     1     117.508  14.889  27.970  1.00  0.00     0.041 C 
ATOM      5  O   UNL     1     117.264  13.894  28.703  1.00  0.00    -0.550 OA
ATOM      6  O   UNL     1     118.528  15.766  28.318  1.00  0.00    -0.550 OA
ENDBRANCH   3   4
ENDBRANCH   2   3
ENDBRANCH   1   2
BRANCH   1   7
ATOM      7  C   UNL     1     116.209  12.068  24.307  1.00  0.00     0.000 C 
BRANCH   7   8
ATOM      8  C   UNL     1     116.046  11.880  22.793  1.00  0.00    -0.000 C 
BRANCH   8   9
ATOM      9  C   UNL     1     117.050  12.744  22.021  1.00  0.00    -0.003 C 
ATOM     10  C   UNL     1     117.300  12.184  20.624  1.00  0.00     0.004 C 
ENDBRANCH   8   9
ENDBRANCH   7   8
ENDBRANCH   1   7
TORSDOF 6
ENDMDL
MODEL 2
REMARK VINA RESULT:    -2.035      1.451      1.894
REMARK INTER + INTRA:          -2.908
REMARK INTER:                  -2.587
REMARK INTRA:                  -0.321
REMARK UNBOUND:                -0.159
REMARK SMILES CCCCCCCC(=O)[O-]
REMARK SMILES IDX 5 1 6 2 7 3 8 4 9 5 10 6 4 7 3 8 2 9 1 10
REMARK H PARENT
REMARK Flexibility Score: inf
ROOT
ATOM      1  C   UNL     1     116.181  13.014  24.763  1.00  0.00     0.000 C 
ENDROOT
BRANCH   1   2
ATOM      2  C   UNL     1     115.882  13.496  26.198  1.00  0.00     0.006 C 
BRANCH   2   3
ATOM      3  C   UNL     1     116.646  14.780  26.550  1.00  0.00     0.053 C 
BRANCH   3   4
ATOM      4  C   UNL     1     117.305  14.648  27.886  1.00  0.00     0.041 C 
ATOM      5  O   UNL     1     116.975  13.715  28.666  1.00  0.00    -0.550 OA
ATOM      6  O   UNL     1     118.320  15.524  28.251  1.00  0.00    -0.550 OA
ENDBRANCH   3   4
ENDBRANCH   2   3
ENDBRANCH   1   2
BRANCH   1   7
ATOM      7  C   UNL     1     116.445  14.160  23.770  1.00  0.00     0.000 C 
BRANCH   7   8
ATOM      8  C   UNL     1     117.162  13.694  22.497  1.00  0.00    -0.000 C 
BRANCH   8   9
ATOM      9  C   UNL     1     118.143  14.761  21.997  1.00  0.00    -0.003 C 
ATOM     10  C   UNL     1     118.155  15.975  22.922  1.00  0.00     0.004 C 
ENDBRANCH   8   9
ENDBRANCH   7   8
ENDBRANCH   1   7
TORSDOF 6
ENDMDL
MODEL 3
REMARK VINA RESULT:    -1.998      2.532      3.386
REMARK INTER + INTRA:          -2.858
REMARK INTER:                  -2.214
REMARK INTRA:                  -0.643
REMARK UNBOUND:                -0.159
REMARK SMILES CCCCCCCC(=O)[O-]
REMARK SMILES IDX 5 1 6 2 7 3 8 4 9 5 10 6 4 7 3 8 2 9 1 10
REMARK H PARENT
REMARK Flexibility Score: inf
ROOT
ATOM      1  C   UNL     1     117.033  15.266  26.163  1.00  0.00     0.000 C 
ENDROOT
BRANCH   1   2
ATOM      2  C   UNL     1     116.654  15.355  27.656  1.00  0.00     0.006 C 
BRANCH   2   3
ATOM      3  C   UNL     1     117.005  14.072  28.422  1.00  0.00     0.053 C 
BRANCH   3   4
ATOM      4  C   UNL     1     115.763  13.324  28.789  1.00  0.00     0.041 C 
ATOM      5  O   UNL     1     114.704  13.949  29.064  1.00  0.00    -0.550 OA
ATOM      6  O   UNL     1     115.759  11.935  28.781  1.00  0.00    -0.550 OA
ENDBRANCH   3   4
ENDBRANCH   2   3
ENDBRANCH   1   2
BRANCH   1   7
ATOM      7  C   UNL     1     115.938  14.638  25.284  1.00  0.00     0.000 C 
BRANCH   7   8
ATOM      8  C   UNL     1     116.273  13.208  24.841  1.00  0.00    -0.000 C 
BRANCH   8   9
ATOM      9  C   UNL     1     115.112  12.253  25.143  1.00  0.00    -0.003 C 
ATOM     10  C   UNL     1     113.882  13.017  25.626  1.00  0.00     0.004 C 
ENDBRANCH   8   9
ENDBRANCH   7   8
ENDBRANCH   1   7
TORSDOF 6
ENDMDL
MODEL 4
REMARK VINA RESULT:    -1.985      1.567      2.555
REMARK INTER + INTRA:          -2.841
REMARK INTER:                  -2.408
REMARK INTRA:                  -0.433
REMARK UNBOUND:                -0.159
REMARK SMILES CCCCCCCC(=O)[O-]
REMARK SMILES IDX 5 1 6 2 7 3 8 4 9 5 10 6 4 7 3 8 2 9 1 10
REMARK H PARENT
REMARK Flexibility Score: inf
ROOT
ATOM      1  C   UNL     1     115.833  12.370  22.991  1.00  0.00     0.000 C 
ENDROOT
BRANCH   1   2
ATOM      2  C   UNL     1     116.254  12.242  24.471  1.00  0.00     0.006 C 
BRANCH   2   3
ATOM      3  C   UNL     1     116.295  13.601  25.182  1.00  0.00     0.053 C 
BRANCH   3   4
ATOM      4  C   UNL     1     115.833  13.467  26.598  1.00  0.00     0.041 C 
ATOM      5  O   UNL     1     114.846  12.735  26.876  1.00  0.00    -0.550 OA
ATOM      6  O   UNL     1     116.522  14.109  27.619  1.00  0.00    -0.550 OA
ENDBRANCH   3   4
ENDBRANCH   2   3
ENDBRANCH   1   2
BRANCH   1   7
ATOM      7  C   UNL     1     116.911  11.894  22.001  1.00  0.00     0.000 C 
BRANCH   7   8
ATOM      8  C   UNL     1     117.316  12.977  20.993  1.00  0.00    -0.000 C 
BRANCH   8   9
ATOM      9  C   UNL     1     117.063  14.378  21.561  1.00  0.00    -0.003 C 
ATOM     10  C   UNL     1     118.365  15.033  22.015  1.00  0.00     0.004 C 
ENDBRANCH   8   9
ENDBRANCH   7   8
ENDBRANCH   1   7
TORSDOF 6
ENDMDL
MODEL 5
REMARK VINA RESULT:    -1.979      3.082      5.407
REMARK INTER + INTRA:          -2.832
REMARK INTER:                  -2.469
REMARK INTRA:                  -0.363
REMARK UNBOUND:                -0.159
REMARK SMILES CCCCCCCC(=O)[O-]
REMARK SMILES IDX 5 1 6 2 7 3 8 4 9 5 10 6 4 7 3 8 2 9 1 10
REMARK H PARENT
REMARK Flexibility Score: inf
ROOT
ATOM      1  C   UNL     1     117.692  15.973  24.699  1.00  0.00     0.000 C 
ENDROOT
BRANCH   1   2
ATOM      2  C   UNL     1     116.808  14.821  24.178  1.00  0.00     0.006 C 
BRANCH   2   3
ATOM      3  C   UNL     1     116.172  14.016  25.319  1.00  0.00     0.053 C 
BRANCH   3   4
ATOM      4  C   UNL     1     115.890  12.615  24.878  1.00  0.00     0.041 C 
ATOM      5  O   UNL     1     116.707  12.007  24.136  1.00  0.00    -0.550 OA
ATOM      6  O   UNL     1     114.749  11.960  25.326  1.00  0.00    -0.550 OA
ENDBRANCH   3   4
ENDBRANCH   2   3
ENDBRANCH   1   2
BRANCH   1   7
ATOM      7  C   UNL     1     117.494  16.275  26.194  1.00  0.00     0.000 C 
BRANCH   7   8
ATOM      8  C   UNL     1     118.816  16.507  26.938  1.00  0.00    -0.000 C 
BRANCH   8   9
ATOM      9  C   UNL     1     118.699  16.093  28.409  1.00  0.00    -0.003 C 
ATOM     10  C   UNL     1     117.637  15.012  28.595  1.00  0.00     0.004 C 
ENDBRANCH   8   9
ENDBRANCH   7   8
ENDBRANCH   1   7
TORSDOF 6
ENDMDL
MODEL 6
REMARK VINA RESULT:    -1.977      3.610      5.903
REMARK INTER + INTRA:          -2.830
REMARK INTER:                  -2.540
REMARK INTRA:                  -0.291
REMARK UNBOUND:                -0.159
REMARK SMILES CCCCCCCC(=O)[O-]
REMARK SMILES IDX 5 1 6 2 7 3 8 4 9 5 10 6 4 7 3 8 2 9 1 10
REMARK H PARENT
REMARK Flexibility Score: inf
ROOT
ATOM      1  C   UNL     1     116.255  13.614  25.234  1.00  0.00     0.000 C 
ENDROOT
BRANCH   1   2
ATOM      2  C   UNL     1     115.936  12.231  24.628  1.00  0.00     0.006 C 
BRANCH   2   3
ATOM      3  C   UNL     1     116.847  11.893  23.441  1.00  0.00     0.053 C 
BRANCH   3   4
ATOM      4  C   UNL     1     116.127  12.108  22.148  1.00  0.00     0.041 C 
ATOM      5  O   UNL     1     116.705  11.875  21.054  1.00  0.00    -0.550 OA
ATOM      6  O   UNL     1     114.799  12.517  22.151  1.00  0.00    -0.550 OA
ENDBRANCH   3   4
ENDBRANCH   2   3
ENDBRANCH   1   2
BRANCH   1   7
ATOM      7  C   UNL     1     115.542  13.881  26.571  1.00  0.00     0.000 C 
BRANCH   7   8
ATOM      8  C   UNL     1     116.499  14.345  27.677  1.00  0.00    -0.000 C 
BRANCH   8   9
ATOM      9  C   UNL     1     116.589  13.303  28.798  1.00  0.00    -0.003 C 
ATOM     10  C   UNL     1     115.489  12.254  28.665  1.00  0.00     0.004 C 
ENDBRANCH   8   9
ENDBRANCH   7   8
ENDBRANCH   1   7
TORSDOF 6
ENDMDL
MODEL 7
REMARK VINA RESULT:    -1.975      3.106      5.444
REMARK INTER + INTRA:          -2.827
REMARK INTER:                  -2.403
REMARK INTRA:                  -0.424
REMARK UNBOUND:                -0.159
REMARK SMILES CCCCCCCC(=O)[O-]
REMARK SMILES IDX 5 1 6 2 7 3 8 4 9 5 10 6 4 7 3 8 2 9 1 10
REMARK H PARENT
REMARK Flexibility Score: inf
ROOT
ATOM      1  C   UNL     1     115.291  14.727  27.385  1.00  0.00     0.000 C 
ENDROOT
BRANCH   1   2
ATOM      2  C   UNL     1     116.138  13.629  26.710  1.00  0.00     0.006 C 
BRANCH   2   3
ATOM      3  C   UNL     1     116.203  13.799  25.187  1.00  0.00     0.053 C 
BRANCH   3   4
ATOM      4  C   UNL     1     115.974  12.490  24.502  1.00  0.00     0.041 C 
ATOM      5  O   UNL     1     114.836  11.951  24.530  1.00  0.00    -0.550 OA
ATOM      6  O   UNL     1     117.003  11.887  23.789  1.00  0.00    -0.550 OA
ENDBRANCH   3   4
ENDBRANCH   2   3
ENDBRANCH   1   2
BRANCH   1   7
ATOM      7  C   UNL     1     116.018  15.448  28.533  1.00  0.00     0.000 C 
BRANCH   7   8
ATOM      8  C   UNL     1     117.456  14.953  28.735  1.00  0.00    -0.000 C 
BRANCH   8   9
ATOM      9  C   UNL     1     118.452  16.116  28.660  1.00  0.00    -0.003 C 
ATOM     10  C   UNL     1     118.832  16.424  27.214  1.00  0.00     0.004 C 
ENDBRANCH   8   9
ENDBRANCH   7   8
ENDBRANCH   1   7
TORSDOF 6
ENDMDL
MODEL 8
REMARK VINA RESULT:    -1.972      1.215      1.693
REMARK INTER + INTRA:          -2.823
REMARK INTER:                  -2.572
REMARK INTRA:                  -0.252
REMARK UNBOUND:                -0.159
REMARK SMILES CCCCCCCC(=O)[O-]
REMARK SMILES IDX 5 1 6 2 7 3 8 4 9 5 10 6 4 7 3 8 2 9 1 10
REMARK H PARENT
REMARK Flexibility Score: inf
ROOT
ATOM      1  C   UNL     1     116.330  14.090  25.940  1.00  0.00     0.000 C 
ENDROOT
BRANCH   1   2
ATOM      2  C   UNL     1     115.940  13.756  27.395  1.00  0.00     0.006 C 
BRANCH   2   3
ATOM      3  C   UNL     1     117.075  14.055  28.384  1.00  0.00     0.053 C 
BRANCH   3   4
ATOM      4  C   UNL     1     117.455  15.500  28.324  1.00  0.00     0.041 C 
ATOM      5  O   UNL     1     118.631  15.834  28.021  1.00  0.00    -0.550 OA
ATOM      6  O   UNL     1     116.499  16.482  28.553  1.00  0.00    -0.550 OA
ENDBRANCH   3   4
ENDBRANCH   2   3
ENDBRANCH   1   2
BRANCH   1   7
ATOM      7  C   UNL     1     115.561  13.267  24.892  1.00  0.00     0.000 C 
BRANCH   7   8
ATOM      8  C   UNL     1     116.405  12.143  24.278  1.00  0.00    -0.000 C 
BRANCH   8   9
ATOM      9  C   UNL     1     116.431  12.248  22.749  1.00  0.00    -0.003 C 
ATOM     10  C   UNL     1     117.225  13.469  22.293  1.00  0.00     0.004 C 
ENDBRANCH   8   9
ENDBRANCH   7   8
ENDBRANCH   1   7
TORSDOF 6
ENDMDL
MODEL 9
REMARK VINA RESULT:    -1.893     17.418     18.764
REMARK INTER + INTRA:          -2.717
REMARK INTER:                  -2.278
REMARK INTRA:                  -0.438
REMARK UNBOUND:                -0.159
REMARK SMILES CCCCCCCC(=O)[O-]
REMARK SMILES IDX 5 1 6 2 7 3 8 4 9 5 10 6 4 7 3 8 2 9 1 10
REMARK H PARENT
REMARK Flexibility Score: inf
ROOT
ATOM      1  C   UNL     1     101.417  12.014  14.905  1.00  0.00     0.000 C 
ENDROOT
BRANCH   1   2
ATOM      2  C   UNL     1     100.886  13.089  13.934  1.00  0.00     0.006 C 
BRANCH   2   3
ATOM      3  C   UNL     1     101.974  14.091  13.526  1.00  0.00     0.053 C 
BRANCH   3   4
ATOM      4  C   UNL     1     102.150  14.097  12.041  1.00  0.00     0.041 C 
ATOM      5  O   UNL     1     103.117  13.485  11.515  1.00  0.00    -0.550 OA
ATOM      6  O   UNL     1     101.220  14.738  11.232  1.00  0.00    -0.550 OA
ENDBRANCH   3   4
ENDBRANCH   2   3
ENDBRANCH   1   2
BRANCH   1   7
ATOM      7  C   UNL     1     102.949  11.876  14.895  1.00  0.00     0.000 C 
BRANCH   7   8
ATOM      8  C   UNL     1     103.561  11.894  16.302  1.00  0.00    -0.000 C 
BRANCH   8   9
ATOM      9  C   UNL     1     103.538  13.308  16.892  1.00  0.00    -0.003 C 
ATOM     10  C   UNL     1     104.852  14.037  16.629  1.00  0.00     0.004 C 
ENDBRANCH   8   9
ENDBRANCH   7   8
ENDBRANCH   1   7
TORSDOF 6
ENDMDL
