MODEL 1
REMARK VINA RESULT:    -2.364      0.000      0.000
REMARK INTER + INTRA:          -2.364
REMARK INTER:                  -2.364
REMARK INTRA:                   0.000
REMARK UNBOUND:                 0.000
REMARK SMILES CC(=O)[O-]
REMARK SMILES IDX 1 1 2 2 3 3 4 4
REMARK H PARENT
REMARK Flexibility Score: inf
ROOT
ATOM      1  C   UNL     1     -15.525  -6.293  37.890  1.00  0.00     0.063 C 
ATOM      2  C   UNL     1     -16.820  -6.268  38.628  1.00  0.00     0.038 C 
ATOM      3  O   UNL     1     -17.222  -5.202  39.162  1.00  0.00    -0.550 OA
ATOM      4  O   UNL     1     -17.614  -7.407  38.680  1.00  0.00    -0.550 OA
ENDROOT
TORSDOF 0
ENDMDL
MODEL 2
REMARK VINA RESULT:    -2.296      0.242      1.632
REMARK INTER + INTRA:          -2.296
REMARK INTER:                  -2.296
REMARK INTRA:                   0.000
REMARK UNBOUND:                 0.000
REMARK SMILES CC(=O)[O-]
REMARK SMILES IDX 1 1 2 2 3 3 4 4
REMARK H PARENT
REMARK Flexibility Score: inf
ROOT
ATOM      1  C   UNL     1     -15.346  -6.329  37.798  1.00  0.00     0.063 C 
ATOM      2  C   UNL     1     -16.651  -6.269  38.516  1.00  0.00     0.038 C 
ATOM      3  O   UNL     1     -17.425  -7.262  38.504  1.00  0.00    -0.550 OA
ATOM      4  O   UNL     1     -16.993  -5.138  39.247  1.00  0.00    -0.550 OA
ENDROOT
TORSDOF 0
ENDMDL
MODEL 3
REMARK VINA RESULT:    -2.142      3.075      3.310
REMARK INTER + INTRA:          -2.142
REMARK INTER:                  -2.142
REMARK INTRA:                   0.000
REMARK UNBOUND:                 0.000
REMARK SMILES CC(=O)[O-]
REMARK SMILES IDX 1 1 2 2 3 3 4 4
REMARK H PARENT
REMARK Flexibility Score: inf
ROOT
ATOM      1  C   UNL     1     -15.766  -6.188  38.139  1.00  0.00     0.063 C 
ATOM      2  C   UNL     1     -14.433  -6.472  37.534  1.00  0.00     0.038 C 
ATOM      3  O   UNL     1     -14.257  -6.330  36.296  1.00  0.00    -0.550 OA
ATOM      4  O   UNL     1     -13.366  -6.842  38.343  1.00  0.00    -0.550 OA
ENDROOT
TORSDOF 0
ENDMDL
MODEL 4
REMARK VINA RESULT:    -2.134      3.167      3.395
REMARK INTER + INTRA:          -2.134
REMARK INTER:                  -2.134
REMARK INTRA:                   0.000
REMARK UNBOUND:                 0.000
REMARK SMILES CC(=O)[O-]
REMARK SMILES IDX 1 1 2 2 3 3 4 4
REMARK H PARENT
REMARK Flexibility Score: inf
ROOT
ATOM      1  C   UNL     1     -15.578  -6.114  38.139  1.00  0.00     0.063 C 
ATOM      2  C   UNL     1     -14.246  -6.515  37.602  1.00  0.00     0.038 C 
ATOM      3  O   UNL     1     -13.338  -6.897  38.385  1.00  0.00    -0.550 OA
ATOM      4  O   UNL     1     -14.021  -6.519  36.231  1.00  0.00    -0.550 OA
ENDROOT
TORSDOF 0
ENDMDL
MODEL 5
REMARK VINA RESULT:    -2.088      7.922      8.173
REMARK INTER + INTRA:          -2.088
REMARK INTER:                  -2.088
REMARK INTRA:                   0.000
REMARK UNBOUND:                 0.000
REMARK SMILES CC(=O)[O-]
REMARK SMILES IDX 1 1 2 2 3 3 4 4
REMARK H PARENT
REMARK Flexibility Score: inf
ROOT
ATOM      1  C   UNL     1     -16.115 -10.784  44.859  1.00  0.00     0.063 C 
ATOM      2  C   UNL     1     -17.050 -10.037  45.749  1.00  0.00     0.038 C 
ATOM      3  O   UNL     1     -17.818  -9.164  45.268  1.00  0.00    -0.550 OA
ATOM      4  O   UNL     1     -17.113 -10.340  47.103  1.00  0.00    -0.550 OA
ENDROOT
TORSDOF 0
ENDMDL
MODEL 6
REMARK VINA RESULT:    -2.075      7.908      8.202
REMARK INTER + INTRA:          -2.075
REMARK INTER:                  -2.075
REMARK INTRA:                   0.000
REMARK UNBOUND:                 0.000
REMARK SMILES CC(=O)[O-]
REMARK SMILES IDX 1 1 2 2 3 3 4 4
REMARK H PARENT
REMARK Flexibility Score: inf
ROOT
ATOM      1  C   UNL     1     -16.055 -10.768  44.921  1.00  0.00     0.063 C 
ATOM      2  C   UNL     1     -17.051 -10.067  45.780  1.00  0.00     0.038 C 
ATOM      3  O   UNL     1     -17.119 -10.325  47.010  1.00  0.00    -0.550 OA
ATOM      4  O   UNL     1     -17.871  -9.086  45.237  1.00  0.00    -0.550 OA
ENDROOT
TORSDOF 0
ENDMDL
MODEL 7
REMARK VINA RESULT:    -2.034     12.288     12.537
REMARK INTER + INTRA:          -2.034
REMARK INTER:                  -2.034
REMARK INTRA:                   0.000
REMARK UNBOUND:                 0.000
REMARK SMILES CC(=O)[O-]
REMARK SMILES IDX 1 1 2 2 3 3 4 4
REMARK H PARENT
REMARK Flexibility Score: inf
ROOT
ATOM      1  C   UNL     1      -8.462  -1.017  31.113  1.00  0.00     0.063 C 
ATOM      2  C   UNL     1      -7.725  -0.461  32.284  1.00  0.00     0.038 C 
ATOM      3  O   UNL     1      -7.634   0.784  32.441  1.00  0.00    -0.550 OA
ATOM      4  O   UNL     1      -7.184  -1.317  33.235  1.00  0.00    -0.550 OA
ENDROOT
TORSDOF 0
ENDMDL
MODEL 8
REMARK VINA RESULT:    -2.031      3.411      3.772
REMARK INTER + INTRA:          -2.031
REMARK INTER:                  -2.031
REMARK INTRA:                   0.000
REMARK UNBOUND:                 0.000
REMARK SMILES CC(=O)[O-]
REMARK SMILES IDX 1 1 2 2 3 3 4 4
REMARK H PARENT
REMARK Flexibility Score: inf
ROOT
ATOM      1  C   UNL     1     -12.443  -7.758  37.257  1.00  0.00     0.063 C 
ATOM      2  C   UNL     1     -13.621  -6.844  37.292  1.00  0.00     0.038 C 
ATOM      3  O   UNL     1     -14.162  -6.468  36.220  1.00  0.00    -0.550 OA
ATOM      4  O   UNL     1     -14.159  -6.449  38.511  1.00  0.00    -0.550 OA
ENDROOT
TORSDOF 0
ENDMDL
MODEL 9
REMARK VINA RESULT:    -1.891      8.820      9.012
REMARK INTER + INTRA:          -1.891
REMARK INTER:                  -1.891
REMARK INTRA:                   0.000
REMARK UNBOUND:                 0.000
REMARK SMILES CC(=O)[O-]
REMARK SMILES IDX 1 1 2 2 3 3 4 4
REMARK H PARENT
REMARK Flexibility Score: inf
ROOT
ATOM      1  C   UNL     1     -15.878 -10.964  44.872  1.00  0.00     0.063 C 
ATOM      2  C   UNL     1     -15.395 -10.682  46.254  1.00  0.00     0.038 C 
ATOM      3  O   UNL     1     -15.275  -9.494  46.651  1.00  0.00    -0.550 OA
ATOM      4  O   UNL     1     -15.129 -11.731  47.125  1.00  0.00    -0.550 OA
ENDROOT
TORSDOF 0
ENDMDL
