MODEL 1
REMARK VINA RESULT:    -3.441      0.000      0.000
REMARK INTER + INTRA:          -3.542
REMARK INTER:                  -3.542
REMARK INTRA:                   0.000
REMARK UNBOUND:                 0.000
REMARK SMILES Cc1ccccc1O
REMARK SMILES IDX 1 1 2 2 3 3 4 4 5 5 6 6 7 7 8 8
REMARK H PARENT 8 9
REMARK Flexibility Score: inf
ROOT
ATOM      1  C   UNL     1     -20.982   3.530  -2.962  1.00  0.00     0.048 C 
ATOM      2  C   UNL     1     -19.942   4.617  -2.968  1.00  0.00    -0.009 A 
ATOM      3  C   UNL     1     -20.342   5.963  -2.879  1.00  0.00     0.007 A 
ATOM      4  C   UNL     1     -19.391   6.986  -2.884  1.00  0.00     0.001 A 
ATOM      5  C   UNL     1     -18.033   6.679  -2.977  1.00  0.00     0.004 A 
ATOM      6  C   UNL     1     -17.622   5.347  -3.067  1.00  0.00     0.046 A 
ATOM      7  C   UNL     1     -18.563   4.311  -3.063  1.00  0.00     0.118 A 
ENDROOT
BRANCH   7   8
ATOM      8  O   UNL     1     -18.102   2.997  -3.154  1.00  0.00    -0.508 OA
ATOM      9  H   UNL     1     -17.786   2.466  -2.351  1.00  0.00     0.293 HD
ENDBRANCH   7   8
TORSDOF 1
ENDMDL
MODEL 2
REMARK VINA RESULT:    -3.363      0.779      2.621
REMARK INTER + INTRA:          -3.462
REMARK INTER:                  -3.462
REMARK INTRA:                   0.000
REMARK UNBOUND:                 0.000
REMARK SMILES Cc1ccccc1O
REMARK SMILES IDX 1 1 2 2 3 3 4 4 5 5 6 6 7 7 8 8
REMARK H PARENT 8 9
REMARK Flexibility Score: inf
ROOT
ATOM      1  C   UNL     1     -17.490   5.861  -2.986  1.00  0.00     0.048 C 
ATOM      2  C   UNL     1     -18.868   5.258  -2.990  1.00  0.00    -0.009 A 
ATOM      3  C   UNL     1     -19.993   6.094  -2.875  1.00  0.00     0.007 A 
ATOM      4  C   UNL     1     -21.281   5.551  -2.876  1.00  0.00     0.001 A 
ATOM      5  C   UNL     1     -21.459   4.173  -2.991  1.00  0.00     0.004 A 
ATOM      6  C   UNL     1     -20.351   3.331  -3.105  1.00  0.00     0.046 A 
ATOM      7  C   UNL     1     -19.055   3.860  -3.106  1.00  0.00     0.118 A 
ENDROOT
BRANCH   7   8
ATOM      8  O   UNL     1     -17.980   2.977  -3.223  1.00  0.00    -0.508 OA
ATOM      9  H   UNL     1     -17.869   2.343  -4.005  1.00  0.00     0.293 HD
ENDBRANCH   7   8
TORSDOF 1
ENDMDL
MODEL 3
REMARK VINA RESULT:    -2.856      1.326      2.265
REMARK INTER + INTRA:          -2.940
REMARK INTER:                  -2.940
REMARK INTRA:                   0.000
REMARK UNBOUND:                 0.000
REMARK SMILES Cc1ccccc1O
REMARK SMILES IDX 1 1 2 2 3 3 4 4 5 5 6 6 7 7 8 8
REMARK H PARENT 8 9
REMARK Flexibility Score: inf
ROOT
ATOM      1  C   UNL     1     -18.482   2.930  -2.932  1.00  0.00     0.048 C 
ATOM      2  C   UNL     1     -18.729   4.414  -2.914  1.00  0.00    -0.009 A 
ATOM      3  C   UNL     1     -17.638   5.301  -2.920  1.00  0.00     0.007 A 
ATOM      4  C   UNL     1     -17.848   6.682  -2.903  1.00  0.00     0.001 A 
ATOM      5  C   UNL     1     -19.146   7.192  -2.881  1.00  0.00     0.004 A 
ATOM      6  C   UNL     1     -20.239   6.323  -2.875  1.00  0.00     0.046 A 
ATOM      7  C   UNL     1     -20.044   4.936  -2.892  1.00  0.00     0.118 A 
ENDROOT
BRANCH   7   8
ATOM      8  O   UNL     1     -21.169   4.110  -2.885  1.00  0.00    -0.508 OA
ATOM      9  H   UNL     1     -21.332   3.395  -3.584  1.00  0.00     0.293 HD
ENDBRANCH   7   8
TORSDOF 1
ENDMDL
MODEL 4
REMARK VINA RESULT:    -2.724      1.946      3.536
REMARK INTER + INTRA:          -2.804
REMARK INTER:                  -2.804
REMARK INTRA:                   0.000
REMARK UNBOUND:                 0.000
REMARK SMILES Cc1ccccc1O
REMARK SMILES IDX 1 1 2 2 3 3 4 4 5 5 6 6 7 7 8 8
REMARK H PARENT 8 9
REMARK Flexibility Score: inf
ROOT
ATOM      1  C   UNL     1     -19.312   7.157  -2.880  1.00  0.00     0.048 C 
ATOM      2  C   UNL     1     -19.605   5.682  -2.880  1.00  0.00    -0.009 A 
ATOM      3  C   UNL     1     -18.541   4.761  -2.883  1.00  0.00     0.007 A 
ATOM      4  C   UNL     1     -18.795   3.387  -2.884  1.00  0.00     0.001 A 
ATOM      5  C   UNL     1     -20.108   2.918  -2.882  1.00  0.00     0.004 A 
ATOM      6  C   UNL     1     -21.174   3.821  -2.879  1.00  0.00     0.046 A 
ATOM      7  C   UNL     1     -20.936   5.200  -2.878  1.00  0.00     0.118 A 
ENDROOT
BRANCH   7   8
ATOM      8  O   UNL     1     -22.034   6.062  -2.876  1.00  0.00    -0.508 OA
ATOM      9  H   UNL     1     -21.952   7.061  -3.017  1.00  0.00     0.293 HD
ENDBRANCH   7   8
TORSDOF 1
ENDMDL
MODEL 5
REMARK VINA RESULT:    -1.662     21.114     21.958
REMARK INTER + INTRA:          -1.711
REMARK INTER:                  -1.711
REMARK INTRA:                   0.000
REMARK UNBOUND:                 0.000
REMARK SMILES Cc1ccccc1O
REMARK SMILES IDX 1 1 2 2 3 3 4 4 5 5 6 6 7 7 8 8
REMARK H PARENT 8 9
REMARK Flexibility Score: inf
ROOT
ATOM      1  C   UNL     1      -9.737   5.352 -22.436  1.00  0.00     0.048 C 
ATOM      2  C   UNL     1      -8.546   4.494 -22.105  1.00  0.00    -0.009 A 
ATOM      3  C   UNL     1      -7.909   3.765 -23.125  1.00  0.00     0.007 A 
ATOM      4  C   UNL     1      -6.802   2.963 -22.836  1.00  0.00     0.001 A 
ATOM      5  C   UNL     1      -6.320   2.881 -21.530  1.00  0.00     0.004 A 
ATOM      6  C   UNL     1      -6.943   3.599 -20.507  1.00  0.00     0.046 A 
ATOM      7  C   UNL     1      -8.053   4.407 -20.781  1.00  0.00     0.118 A 
ENDROOT
BRANCH   7   8
ATOM      8  O   UNL     1      -8.640   5.105 -19.725  1.00  0.00    -0.508 OA
ATOM      9  H   UNL     1      -8.666   6.117 -19.679  1.00  0.00     0.293 HD
ENDBRANCH   7   8
TORSDOF 1
ENDMDL
MODEL 6
REMARK VINA RESULT:    -1.432     21.099     21.981
REMARK INTER + INTRA:          -1.474
REMARK INTER:                  -1.474
REMARK INTRA:                   0.000
REMARK UNBOUND:                 0.000
REMARK SMILES Cc1ccccc1O
REMARK SMILES IDX 1 1 2 2 3 3 4 4 5 5 6 6 7 7 8 8
REMARK H PARENT 8 9
REMARK Flexibility Score: inf
ROOT
ATOM      1  C   UNL     1      -8.596   5.121 -19.610  1.00  0.00     0.048 C 
ATOM      2  C   UNL     1      -8.028   4.365 -20.780  1.00  0.00    -0.009 A 
ATOM      3  C   UNL     1      -6.870   3.586 -20.608  1.00  0.00     0.007 A 
ATOM      4  C   UNL     1      -6.328   2.877 -21.683  1.00  0.00     0.001 A 
ATOM      5  C   UNL     1      -6.935   2.937 -22.938  1.00  0.00     0.004 A 
ATOM      6  C   UNL     1      -8.085   3.707 -23.123  1.00  0.00     0.046 A 
ATOM      7  C   UNL     1      -8.640   4.423 -22.055  1.00  0.00     0.118 A 
ENDROOT
BRANCH   7   8
ATOM      8  O   UNL     1      -9.790   5.178 -22.290  1.00  0.00    -0.508 OA
ATOM      9  H   UNL     1     -10.027   5.554 -23.200  1.00  0.00     0.293 HD
ENDBRANCH   7   8
TORSDOF 1
ENDMDL
MODEL 7
REMARK VINA RESULT:    -0.522     21.648     22.502
REMARK INTER + INTRA:          -0.537
REMARK INTER:                  -0.537
REMARK INTRA:                   0.000
REMARK UNBOUND:                 0.000
REMARK SMILES Cc1ccccc1O
REMARK SMILES IDX 1 1 2 2 3 3 4 4 5 5 6 6 7 7 8 8
REMARK H PARENT 8 9
REMARK Flexibility Score: inf
ROOT
ATOM      1  C   UNL     1      -5.439   4.838 -23.120  1.00  0.00     0.048 C 
ATOM      2  C   UNL     1      -6.845   4.679 -22.610  1.00  0.00    -0.009 A 
ATOM      3  C   UNL     1      -7.868   5.496 -23.125  1.00  0.00     0.007 A 
ATOM      4  C   UNL     1      -9.179   5.362 -22.663  1.00  0.00     0.001 A 
ATOM      5  C   UNL     1      -9.484   4.415 -21.685  1.00  0.00     0.004 A 
ATOM      6  C   UNL     1      -8.478   3.598 -21.165  1.00  0.00     0.046 A 
ATOM      7  C   UNL     1      -7.159   3.720 -21.618  1.00  0.00     0.118 A 
ENDROOT
BRANCH   7   8
ATOM      8  O   UNL     1      -6.190   2.879 -21.068  1.00  0.00    -0.508 OA
ATOM      9  H   UNL     1      -5.202   2.967 -21.274  1.00  0.00     0.293 HD
ENDBRANCH   7   8
TORSDOF 1
ENDMDL
