MODEL 1
REMARK VINA RESULT:    -3.659      0.000      0.000
REMARK INTER + INTRA:          -8.886
REMARK INTER:                  -6.654
REMARK INTRA:                  -2.232
REMARK UNBOUND:                -2.232
REMARK SMILES CCCCCC=CCC=CCCCCCCCC(=O)[O-]
REMARK SMILES IDX 11 1 12 2 13 3 14 4 15 5 16 6 17 7 18 8 19 9 20 10 10 11
REMARK SMILES IDX 9 12 8 13 7 14 6 15 5 16 4 17 3 18 2 19 1 20
REMARK H PARENT
REMARK Flexibility Score: inf
ROOT
ATOM      1  C   UNL     1      61.110  31.560  60.265  1.00  0.00     0.027 C 
ENDROOT
BRANCH   1   2
ATOM      2  C   UNL     1      61.179  31.070  61.719  1.00  0.00     0.004 C 
BRANCH   2   3
ATOM      3  C   UNL     1      62.222  29.960  61.923  1.00  0.00     0.000 C 
BRANCH   3   4
ATOM      4  C   UNL     1      63.657  30.444  61.653  1.00  0.00     0.000 C 
BRANCH   4   5
ATOM      5  C   UNL     1      64.409  29.557  60.645  1.00  0.00     0.000 C 
BRANCH   5   6
ATOM      6  C   UNL     1      64.976  28.242  61.215  1.00  0.00     0.006 C 
BRANCH   6   7
ATOM      7  C   UNL     1      66.242  27.738  60.496  1.00  0.00     0.053 C 
BRANCH   7   8
ATOM      8  C   UNL     1      67.468  28.512  60.874  1.00  0.00     0.041 C 
ATOM      9  O   UNL     1      68.169  29.067  59.989  1.00  0.00    -0.550 OA
ATOM     10  O   UNL     1      67.816  28.654  62.212  1.00  0.00    -0.550 OA
ENDBRANCH   7   8
ENDBRANCH   6   7
ENDBRANCH   5   6
ENDBRANCH   4   5
ENDBRANCH   3   4
ENDBRANCH   2   3
ENDBRANCH   1   2
BRANCH   1  11
ATOM     11  C   UNL     1      61.013  33.059  60.202  1.00  0.00    -0.031 C 
ATOM     12  C   UNL     1      61.137  33.724  59.044  1.00  0.00    -0.027 C 
BRANCH  12  13
ATOM     13  C   UNL     1      61.065  35.225  59.009  1.00  0.00     0.054 C 
BRANCH  13  14
ATOM     14  C   UNL     1      60.848  35.798  60.387  1.00  0.00    -0.027 C 
ATOM     15  C   UNL     1      61.818  36.336  61.150  1.00  0.00    -0.031 C 
BRANCH  15  16
ATOM     16  C   UNL     1      63.272  36.418  60.757  1.00  0.00     0.027 C 
BRANCH  16  17
ATOM     17  C   UNL     1      64.127  35.473  61.613  1.00  0.00     0.004 C 
BRANCH  17  18
ATOM     18  C   UNL     1      64.314  34.087  60.969  1.00  0.00     0.000 C 
BRANCH  18  19
ATOM     19  C   UNL     1      64.641  34.112  59.464  1.00  0.00    -0.003 C 
ATOM     20  C   UNL     1      64.693  32.719  58.839  1.00  0.00     0.004 C 
ENDBRANCH  18  19
ENDBRANCH  17  18
ENDBRANCH  16  17
ENDBRANCH  15  16
ENDBRANCH  13  14
ENDBRANCH  12  13
ENDBRANCH   1  11
TORSDOF 14
ENDMDL
MODEL 2
REMARK VINA RESULT:    -3.474     12.162     14.124
REMARK INTER + INTRA:          -8.549
REMARK INTER:                  -6.724
REMARK INTRA:                  -1.825
REMARK UNBOUND:                -2.232
REMARK SMILES CCCCCC=CCC=CCCCCCCCC(=O)[O-]
REMARK SMILES IDX 11 1 12 2 13 3 14 4 15 5 16 6 17 7 18 8 19 9 20 10 10 11
REMARK SMILES IDX 9 12 8 13 7 14 6 15 5 16 4 17 3 18 2 19 1 20
REMARK H PARENT
REMARK Flexibility Score: inf
ROOT
ATOM      1  C   UNL     1      55.530  26.001  50.710  1.00  0.00     0.027 C 
ENDROOT
BRANCH   1   2
ATOM      2  C   UNL     1      54.876  26.025  49.320  1.00  0.00     0.004 C 
BRANCH   2   3
ATOM      3  C   UNL     1      53.360  26.269  49.382  1.00  0.00     0.000 C 
BRANCH   3   4
ATOM      4  C   UNL     1      52.978  27.345  50.413  1.00  0.00     0.000 C 
BRANCH   4   5
ATOM      5  C   UNL     1      52.962  28.766  49.820  1.00  0.00     0.000 C 
BRANCH   5   6
ATOM      6  C   UNL     1      53.403  29.888  50.780  1.00  0.00     0.006 C 
BRANCH   6   7
ATOM      7  C   UNL     1      53.771  29.398  52.193  1.00  0.00     0.053 C 
BRANCH   7   8
ATOM      8  C   UNL     1      54.346  30.484  53.050  1.00  0.00     0.041 C 
ATOM      9  O   UNL     1      54.967  30.200  54.108  1.00  0.00    -0.550 OA
ATOM     10  O   UNL     1      54.233  31.813  52.660  1.00  0.00    -0.550 OA
ENDBRANCH   7   8
ENDBRANCH   6   7
ENDBRANCH   5   6
ENDBRANCH   4   5
ENDBRANCH   3   4
ENDBRANCH   2   3
ENDBRANCH   1   2
BRANCH   1  11
ATOM     11  C   UNL     1      56.730  26.905  50.761  1.00  0.00    -0.031 C 
ATOM     12  C   UNL     1      56.657  28.192  50.392  1.00  0.00    -0.027 C 
BRANCH  12  13
ATOM     13  C   UNL     1      57.877  29.070  50.423  1.00  0.00     0.054 C 
BRANCH  13  14
ATOM     14  C   UNL     1      58.714  28.895  49.181  1.00  0.00    -0.027 C 
ATOM     15  C   UNL     1      59.833  28.149  49.116  1.00  0.00    -0.031 C 
BRANCH  15  16
ATOM     16  C   UNL     1      60.436  27.403  50.279  1.00  0.00     0.027 C 
BRANCH  16  17
ATOM     17  C   UNL     1      61.435  26.343  49.795  1.00  0.00     0.004 C 
BRANCH  17  18
ATOM     18  C   UNL     1      62.901  26.783  49.958  1.00  0.00     0.000 C 
BRANCH  18  19
ATOM     19  C   UNL     1      63.488  27.539  48.751  1.00  0.00    -0.003 C 
ATOM     20  C   UNL     1      63.596  29.045  48.982  1.00  0.00     0.004 C 
ENDBRANCH  18  19
ENDBRANCH  17  18
ENDBRANCH  16  17
ENDBRANCH  15  16
ENDBRANCH  13  14
ENDBRANCH  12  13
ENDBRANCH   1  11
TORSDOF 14
ENDMDL
MODEL 3
REMARK VINA RESULT:    -3.431      1.890      2.088
REMARK INTER + INTRA:          -8.471
REMARK INTER:                  -6.089
REMARK INTRA:                  -2.382
REMARK UNBOUND:                -2.232
REMARK SMILES CCCCCC=CCC=CCCCCCCCC(=O)[O-]
REMARK SMILES IDX 11 1 12 2 13 3 14 4 15 5 16 6 17 7 18 8 19 9 20 10 10 11
REMARK SMILES IDX 9 12 8 13 7 14 6 15 5 16 4 17 3 18 2 19 1 20
REMARK H PARENT
REMARK Flexibility Score: inf
ROOT
ATOM      1  C   UNL     1      61.117  31.732  60.072  1.00  0.00     0.027 C 
ENDROOT
BRANCH   1   2
ATOM      2  C   UNL     1      61.159  31.323  61.552  1.00  0.00     0.004 C 
BRANCH   2   3
ATOM      3  C   UNL     1      62.295  30.336  61.863  1.00  0.00     0.000 C 
BRANCH   3   4
ATOM      4  C   UNL     1      63.688  30.963  61.677  1.00  0.00     0.000 C 
BRANCH   4   5
ATOM      5  C   UNL     1      64.544  30.223  60.635  1.00  0.00     0.000 C 
BRANCH   5   6
ATOM      6  C   UNL     1      63.987  28.864  60.165  1.00  0.00     0.006 C 
BRANCH   6   7
ATOM      7  C   UNL     1      64.759  27.647  60.708  1.00  0.00     0.053 C 
BRANCH   7   8
ATOM      8  C   UNL     1      63.856  26.611  61.308  1.00  0.00     0.041 C 
ATOM      9  O   UNL     1      64.204  25.401  61.333  1.00  0.00    -0.550 OA
ATOM     10  O   UNL     1      62.645  26.988  61.876  1.00  0.00    -0.550 OA
ENDBRANCH   7   8
ENDBRANCH   6   7
ENDBRANCH   5   6
ENDBRANCH   4   5
ENDBRANCH   3   4
ENDBRANCH   2   3
ENDBRANCH   1   2
BRANCH   1  11
ATOM     11  C   UNL     1      61.294  33.217  59.915  1.00  0.00    -0.031 C 
ATOM     12  C   UNL     1      60.856  33.865  58.826  1.00  0.00    -0.027 C 
BRANCH  12  13
ATOM     13  C   UNL     1      61.070  35.346  58.677  1.00  0.00     0.054 C 
BRANCH  13  14
ATOM     14  C   UNL     1      60.577  36.099  59.887  1.00  0.00    -0.027 C 
ATOM     15  C   UNL     1      61.376  36.721  60.775  1.00  0.00    -0.031 C 
BRANCH  15  16
ATOM     16  C   UNL     1      62.882  36.734  60.711  1.00  0.00     0.027 C 
BRANCH  16  17
ATOM     17  C   UNL     1      63.483  35.709  61.684  1.00  0.00     0.004 C 
BRANCH  17  18
ATOM     18  C   UNL     1      64.537  34.804  61.023  1.00  0.00     0.000 C 
BRANCH  18  19
ATOM     19  C   UNL     1      64.608  34.904  59.488  1.00  0.00    -0.003 C 
ATOM     20  C   UNL     1      64.666  33.542  58.800  1.00  0.00     0.004 C 
ENDBRANCH  18  19
ENDBRANCH  17  18
ENDBRANCH  16  17
ENDBRANCH  15  16
ENDBRANCH  13  14
ENDBRANCH  12  13
ENDBRANCH   1  11
TORSDOF 14
ENDMDL
MODEL 4
REMARK VINA RESULT:    -3.422     11.396     13.216
REMARK INTER + INTRA:          -8.454
REMARK INTER:                  -6.152
REMARK INTRA:                  -2.302
REMARK UNBOUND:                -2.232
REMARK SMILES CCCCCC=CCC=CCCCCCCCC(=O)[O-]
REMARK SMILES IDX 11 1 12 2 13 3 14 4 15 5 16 6 17 7 18 8 19 9 20 10 10 11
REMARK SMILES IDX 9 12 8 13 7 14 6 15 5 16 4 17 3 18 2 19 1 20
REMARK H PARENT
REMARK Flexibility Score: inf
ROOT
ATOM      1  C   UNL     1      56.796  29.839  52.287  1.00  0.00     0.027 C 
ENDROOT
BRANCH   1   2
ATOM      2  C   UNL     1      58.047  29.312  51.567  1.00  0.00     0.004 C 
BRANCH   2   3
ATOM      3  C   UNL     1      57.798  29.028  50.078  1.00  0.00     0.000 C 
BRANCH   3   4
ATOM      4  C   UNL     1      59.104  28.939  49.269  1.00  0.00     0.000 C 
BRANCH   4   5
ATOM      5  C   UNL     1      59.622  27.498  49.122  1.00  0.00     0.000 C 
BRANCH   5   6
ATOM      6  C   UNL     1      61.025  27.237  49.706  1.00  0.00     0.006 C 
BRANCH   6   7
ATOM      7  C   UNL     1      61.826  28.517  50.012  1.00  0.00     0.053 C 
BRANCH   7   8
ATOM      8  C   UNL     1      63.102  28.601  49.231  1.00  0.00     0.041 C 
ATOM      9  O   UNL     1      63.792  29.654  49.249  1.00  0.00    -0.550 OA
ATOM     10  O   UNL     1      63.553  27.500  48.513  1.00  0.00    -0.550 OA
ENDBRANCH   7   8
ENDBRANCH   6   7
ENDBRANCH   5   6
ENDBRANCH   4   5
ENDBRANCH   3   4
ENDBRANCH   2   3
ENDBRANCH   1   2
BRANCH   1  11
ATOM     11  C   UNL     1      55.540  29.382  51.598  1.00  0.00    -0.031 C 
ATOM     12  C   UNL     1      54.500  28.888  52.286  1.00  0.00    -0.027 C 
BRANCH  12  13
ATOM     13  C   UNL     1      53.266  28.410  51.572  1.00  0.00     0.054 C 
BRANCH  13  14
ATOM     14  C   UNL     1      53.506  28.266  50.091  1.00  0.00    -0.027 C 
ATOM     15  C   UNL     1      54.024  27.170  49.505  1.00  0.00    -0.031 C 
BRANCH  15  16
ATOM     16  C   UNL     1      54.471  25.934  50.244  1.00  0.00     0.027 C 
BRANCH  16  17
ATOM     17  C   UNL     1      55.993  25.936  50.450  1.00  0.00     0.004 C 
BRANCH  17  18
ATOM     18  C   UNL     1      56.396  25.852  51.933  1.00  0.00     0.000 C 
BRANCH  18  19
ATOM     19  C   UNL     1      57.853  25.423  52.185  1.00  0.00    -0.003 C 
ATOM     20  C   UNL     1      58.519  24.809  50.955  1.00  0.00     0.004 C 
ENDBRANCH  18  19
ENDBRANCH  17  18
ENDBRANCH  16  17
ENDBRANCH  15  16
ENDBRANCH  13  14
ENDBRANCH  12  13
ENDBRANCH   1  11
TORSDOF 14
ENDMDL
MODEL 5
REMARK VINA RESULT:    -3.387     11.424     13.766
REMARK INTER + INTRA:          -8.391
REMARK INTER:                  -6.221
REMARK INTRA:                  -2.170
REMARK UNBOUND:                -2.232
REMARK SMILES CCCCCC=CCC=CCCCCCCCC(=O)[O-]
REMARK SMILES IDX 11 1 12 2 13 3 14 4 15 5 16 6 17 7 18 8 19 9 20 10 10 11
REMARK SMILES IDX 9 12 8 13 7 14 6 15 5 16 4 17 3 18 2 19 1 20
REMARK H PARENT
REMARK Flexibility Score: inf
ROOT
ATOM      1  C   UNL     1      54.270  26.691  49.629  1.00  0.00     0.027 C 
ENDROOT
BRANCH   1   2
ATOM      2  C   UNL     1      53.509  28.001  49.887  1.00  0.00     0.004 C 
BRANCH   2   3
ATOM      3  C   UNL     1      54.419  29.123  50.411  1.00  0.00     0.000 C 
BRANCH   3   4
ATOM      4  C   UNL     1      53.638  30.206  51.174  1.00  0.00     0.000 C 
BRANCH   4   5
ATOM      5  C   UNL     1      54.119  30.383  52.626  1.00  0.00     0.000 C 
BRANCH   5   6
ATOM      6  C   UNL     1      53.950  31.799  53.211  1.00  0.00     0.006 C 
BRANCH   6   7
ATOM      7  C   UNL     1      55.274  32.560  53.409  1.00  0.00     0.053 C 
BRANCH   7   8
ATOM      8  C   UNL     1      55.100  34.047  53.353  1.00  0.00     0.041 C 
ATOM      9  O   UNL     1      55.159  34.654  52.251  1.00  0.00    -0.550 OA
ATOM     10  O   UNL     1      54.831  34.762  54.514  1.00  0.00    -0.550 OA
ENDBRANCH   7   8
ENDBRANCH   6   7
ENDBRANCH   5   6
ENDBRANCH   4   5
ENDBRANCH   3   4
ENDBRANCH   2   3
ENDBRANCH   1   2
BRANCH   1  11
ATOM     11  C   UNL     1      55.609  26.698  50.313  1.00  0.00    -0.031 C 
ATOM     12  C   UNL     1      56.629  25.949  49.870  1.00  0.00    -0.027 C 
BRANCH  12  13
ATOM     13  C   UNL     1      57.950  25.950  50.587  1.00  0.00     0.054 C 
BRANCH  13  14
ATOM     14  C   UNL     1      59.079  26.328  49.663  1.00  0.00    -0.027 C 
ATOM     15  C   UNL     1      59.349  27.585  49.263  1.00  0.00    -0.031 C 
BRANCH  15  16
ATOM     16  C   UNL     1      58.545  28.800  49.654  1.00  0.00     0.027 C 
BRANCH  16  17
ATOM     17  C   UNL     1      58.975  29.324  51.032  1.00  0.00     0.004 C 
BRANCH  17  18
ATOM     18  C   UNL     1      57.782  29.726  51.917  1.00  0.00     0.000 C 
BRANCH  18  19
ATOM     19  C   UNL     1      57.402  28.698  52.998  1.00  0.00    -0.003 C 
ATOM     20  C   UNL     1      58.608  27.957  53.573  1.00  0.00     0.004 C 
ENDBRANCH  18  19
ENDBRANCH  17  18
ENDBRANCH  16  17
ENDBRANCH  15  16
ENDBRANCH  13  14
ENDBRANCH  12  13
ENDBRANCH   1  11
TORSDOF 14
ENDMDL
MODEL 6
REMARK VINA RESULT:    -3.373     11.030     12.668
REMARK INTER + INTRA:          -8.365
REMARK INTER:                  -5.787
REMARK INTRA:                  -2.577
REMARK UNBOUND:                -2.232
REMARK SMILES CCCCCC=CCC=CCCCCCCCC(=O)[O-]
REMARK SMILES IDX 11 1 12 2 13 3 14 4 15 5 16 6 17 7 18 8 19 9 20 10 10 11
REMARK SMILES IDX 9 12 8 13 7 14 6 15 5 16 4 17 3 18 2 19 1 20
REMARK H PARENT
REMARK Flexibility Score: inf
ROOT
ATOM      1  C   UNL     1      58.760  25.851  49.873  1.00  0.00     0.027 C 
ENDROOT
BRANCH   1   2
ATOM      2  C   UNL     1      59.720  26.877  49.252  1.00  0.00     0.004 C 
BRANCH   2   3
ATOM      3  C   UNL     1      59.214  28.322  49.389  1.00  0.00     0.000 C 
BRANCH   3   4
ATOM      4  C   UNL     1      60.270  29.261  49.996  1.00  0.00     0.000 C 
BRANCH   4   5
ATOM      5  C   UNL     1      61.528  28.518  50.479  1.00  0.00     0.000 C 
BRANCH   5   6
ATOM      6  C   UNL     1      62.803  28.767  49.650  1.00  0.00     0.006 C 
BRANCH   6   7
ATOM      7  C   UNL     1      63.245  27.561  48.799  1.00  0.00     0.053 C 
BRANCH   7   8
ATOM      8  C   UNL     1      64.463  27.850  47.975  1.00  0.00     0.041 C 
ATOM      9  O   UNL     1      65.476  27.107  48.054  1.00  0.00    -0.550 OA
ATOM     10  O   UNL     1      64.466  28.920  47.088  1.00  0.00    -0.550 OA
ENDBRANCH   7   8
ENDBRANCH   6   7
ENDBRANCH   5   6
ENDBRANCH   4   5
ENDBRANCH   3   4
ENDBRANCH   2   3
ENDBRANCH   1   2
BRANCH   1  11
ATOM     11  C   UNL     1      57.373  26.418  50.008  1.00  0.00    -0.031 C 
ATOM     12  C   UNL     1      56.460  25.857  50.814  1.00  0.00    -0.027 C 
BRANCH  12  13
ATOM     13  C   UNL     1      55.071  26.424  50.910  1.00  0.00     0.054 C 
BRANCH  13  14
ATOM     14  C   UNL     1      54.975  27.766  50.229  1.00  0.00    -0.027 C 
ATOM     15  C   UNL     1      55.046  28.950  50.866  1.00  0.00    -0.031 C 
BRANCH  15  16
ATOM     16  C   UNL     1      55.202  29.114  52.357  1.00  0.00     0.027 C 
BRANCH  16  17
ATOM     17  C   UNL     1      56.348  30.081  52.688  1.00  0.00     0.004 C 
BRANCH  17  18
ATOM     18  C   UNL     1      57.729  29.403  52.659  1.00  0.00     0.000 C 
BRANCH  18  19
ATOM     19  C   UNL     1      57.811  28.066  53.418  1.00  0.00    -0.003 C 
ATOM     20  C   UNL     1      59.140  27.340  53.214  1.00  0.00     0.004 C 
ENDBRANCH  18  19
ENDBRANCH  17  18
ENDBRANCH  16  17
ENDBRANCH  15  16
ENDBRANCH  13  14
ENDBRANCH  12  13
ENDBRANCH   1  11
TORSDOF 14
ENDMDL
MODEL 7
REMARK VINA RESULT:    -3.359     11.476     13.544
REMARK INTER + INTRA:          -8.340
REMARK INTER:                  -5.596
REMARK INTRA:                  -2.744
REMARK UNBOUND:                -2.232
REMARK SMILES CCCCCC=CCC=CCCCCCCCC(=O)[O-]
REMARK SMILES IDX 11 1 12 2 13 3 14 4 15 5 16 6 17 7 18 8 19 9 20 10 10 11
REMARK SMILES IDX 9 12 8 13 7 14 6 15 5 16 4 17 3 18 2 19 1 20
REMARK H PARENT
REMARK Flexibility Score: inf
ROOT
ATOM      1  C   UNL     1      55.838  26.141  50.793  1.00  0.00     0.027 C 
ENDROOT
BRANCH   1   2
ATOM      2  C   UNL     1      54.973  26.485  49.571  1.00  0.00     0.004 C 
BRANCH   2   3
ATOM      3  C   UNL     1      53.484  26.637  49.921  1.00  0.00     0.000 C 
BRANCH   3   4
ATOM      4  C   UNL     1      52.974  28.074  49.720  1.00  0.00     0.000 C 
BRANCH   4   5
ATOM      5  C   UNL     1      53.902  29.132  50.342  1.00  0.00     0.000 C 
BRANCH   5   6
ATOM      6  C   UNL     1      53.801  29.283  51.873  1.00  0.00     0.006 C 
BRANCH   6   7
ATOM      7  C   UNL     1      55.152  29.524  52.572  1.00  0.00     0.053 C 
BRANCH   7   8
ATOM      8  C   UNL     1      55.288  30.919  53.102  1.00  0.00     0.041 C 
ATOM      9  O   UNL     1      56.372  31.303  53.615  1.00  0.00    -0.550 OA
ATOM     10  O   UNL     1      54.229  31.812  52.994  1.00  0.00    -0.550 OA
ENDBRANCH   7   8
ENDBRANCH   6   7
ENDBRANCH   5   6
ENDBRANCH   4   5
ENDBRANCH   3   4
ENDBRANCH   2   3
ENDBRANCH   1   2
BRANCH   1  11
ATOM     11  C   UNL     1      57.180  26.817  50.715  1.00  0.00    -0.031 C 
ATOM     12  C   UNL     1      57.338  27.997  50.098  1.00  0.00    -0.027 C 
BRANCH  12  13
ATOM     13  C   UNL     1      58.694  28.639  50.006  1.00  0.00     0.054 C 
BRANCH  13  14
ATOM     14  C   UNL     1      59.617  27.853  49.111  1.00  0.00    -0.027 C 
ATOM     15  C   UNL     1      60.706  27.185  49.537  1.00  0.00    -0.031 C 
BRANCH  15  16
ATOM     16  C   UNL     1      61.184  27.149  50.967  1.00  0.00     0.027 C 
BRANCH  16  17
ATOM     17  C   UNL     1      60.613  25.930  51.707  1.00  0.00     0.004 C 
BRANCH  17  18
ATOM     18  C   UNL     1      60.006  26.291  53.074  1.00  0.00     0.000 C 
BRANCH  18  19
ATOM     19  C   UNL     1      59.979  27.797  53.394  1.00  0.00    -0.003 C 
ATOM     20  C   UNL     1      58.582  28.313  53.736  1.00  0.00     0.004 C 
ENDBRANCH  18  19
ENDBRANCH  17  18
ENDBRANCH  16  17
ENDBRANCH  15  16
ENDBRANCH  13  14
ENDBRANCH  12  13
ENDBRANCH   1  11
TORSDOF 14
ENDMDL
MODEL 8
REMARK VINA RESULT:    -3.357     10.892     12.550
REMARK INTER + INTRA:          -8.336
REMARK INTER:                  -5.812
REMARK INTRA:                  -2.524
REMARK UNBOUND:                -2.232
REMARK SMILES CCCCCC=CCC=CCCCCCCCC(=O)[O-]
REMARK SMILES IDX 11 1 12 2 13 3 14 4 15 5 16 6 17 7 18 8 19 9 20 10 10 11
REMARK SMILES IDX 9 12 8 13 7 14 6 15 5 16 4 17 3 18 2 19 1 20
REMARK H PARENT
REMARK Flexibility Score: inf
ROOT
ATOM      1  C   UNL     1      53.278  27.010  49.233  1.00  0.00     0.027 C 
ENDROOT
BRANCH   1   2
ATOM      2  C   UNL     1      54.327  25.888  49.281  1.00  0.00     0.004 C 
BRANCH   2   3
ATOM      3  C   UNL     1      55.236  25.978  50.516  1.00  0.00     0.000 C 
BRANCH   3   4
ATOM      4  C   UNL     1      56.645  26.493  50.174  1.00  0.00     0.000 C 
BRANCH   4   5
ATOM      5  C   UNL     1      57.116  27.618  51.113  1.00  0.00     0.000 C 
BRANCH   5   6
ATOM      6  C   UNL     1      57.502  28.939  50.419  1.00  0.00     0.006 C 
BRANCH   6   7
ATOM      7  C   UNL     1      58.614  28.794  49.363  1.00  0.00     0.053 C 
BRANCH   7   8
ATOM      8  C   UNL     1      59.979  28.689  49.972  1.00  0.00     0.041 C 
ATOM      9  O   UNL     1      60.266  29.342  51.009  1.00  0.00    -0.550 OA
ATOM     10  O   UNL     1      60.926  27.836  49.417  1.00  0.00    -0.550 OA
ENDBRANCH   7   8
ENDBRANCH   6   7
ENDBRANCH   5   6
ENDBRANCH   4   5
ENDBRANCH   3   4
ENDBRANCH   2   3
ENDBRANCH   1   2
BRANCH   1  11
ATOM     11  C   UNL     1      53.411  27.927  50.417  1.00  0.00    -0.031 C 
ATOM     12  C   UNL     1      53.747  29.217  50.273  1.00  0.00    -0.027 C 
BRANCH  12  13
ATOM     13  C   UNL     1      53.902  30.108  51.474  1.00  0.00     0.054 C 
BRANCH  13  14
ATOM     14  C   UNL     1      53.873  29.315  52.756  1.00  0.00    -0.027 C 
ATOM     15  C   UNL     1      54.764  29.451  53.757  1.00  0.00    -0.031 C 
BRANCH  15  16
ATOM     16  C   UNL     1      55.941  30.393  53.734  1.00  0.00     0.027 C 
BRANCH  16  17
ATOM     17  C   UNL     1      57.220  29.685  54.204  1.00  0.00     0.004 C 
BRANCH  17  18
ATOM     18  C   UNL     1      58.496  30.493  53.905  1.00  0.00     0.000 C 
BRANCH  18  19
ATOM     19  C   UNL     1      58.318  31.626  52.877  1.00  0.00    -0.003 C 
ATOM     20  C   UNL     1      58.837  32.975  53.374  1.00  0.00     0.004 C 
ENDBRANCH  18  19
ENDBRANCH  17  18
ENDBRANCH  16  17
ENDBRANCH  15  16
ENDBRANCH  13  14
ENDBRANCH  12  13
ENDBRANCH   1  11
TORSDOF 14
ENDMDL
MODEL 9
REMARK VINA RESULT:    -3.325      2.863      3.574
REMARK INTER + INTRA:          -8.279
REMARK INTER:                  -6.159
REMARK INTRA:                  -2.120
REMARK UNBOUND:                -2.232
REMARK SMILES CCCCCC=CCC=CCCCCCCCC(=O)[O-]
REMARK SMILES IDX 11 1 12 2 13 3 14 4 15 5 16 6 17 7 18 8 19 9 20 10 10 11
REMARK SMILES IDX 9 12 8 13 7 14 6 15 5 16 4 17 3 18 2 19 1 20
REMARK H PARENT
REMARK Flexibility Score: inf
ROOT
ATOM      1  C   UNL     1      61.410  31.892  60.431  1.00  0.00     0.027 C 
ENDROOT
BRANCH   1   2
ATOM      2  C   UNL     1      61.303  30.907  61.605  1.00  0.00     0.004 C 
BRANCH   2   3
ATOM      3  C   UNL     1      62.650  30.260  61.962  1.00  0.00     0.000 C 
BRANCH   3   4
ATOM      4  C   UNL     1      63.298  29.548  60.762  1.00  0.00     0.000 C 
BRANCH   4   5
ATOM      5  C   UNL     1      62.728  28.139  60.521  1.00  0.00     0.000 C 
BRANCH   5   6
ATOM      6  C   UNL     1      63.065  27.095  61.604  1.00  0.00     0.006 C 
BRANCH   6   7
ATOM      7  C   UNL     1      61.856  26.655  62.451  1.00  0.00     0.053 C 
BRANCH   7   8
ATOM      8  C   UNL     1      62.071  25.332  63.121  1.00  0.00     0.041 C 
ATOM      9  O   UNL     1      63.047  24.605  62.798  1.00  0.00    -0.550 OA
ATOM     10  O   UNL     1      61.215  24.917  64.134  1.00  0.00    -0.550 OA
ENDBRANCH   7   8
ENDBRANCH   6   7
ENDBRANCH   5   6
ENDBRANCH   4   5
ENDBRANCH   3   4
ENDBRANCH   2   3
ENDBRANCH   1   2
BRANCH   1  11
ATOM     11  C   UNL     1      62.096  33.163  60.849  1.00  0.00    -0.031 C 
ATOM     12  C   UNL     1      61.657  34.364  60.447  1.00  0.00    -0.027 C 
BRANCH  12  13
ATOM     13  C   UNL     1      62.377  35.620  60.854  1.00  0.00     0.054 C 
BRANCH  13  14
ATOM     14  C   UNL     1      63.680  35.308  61.545  1.00  0.00    -0.027 C 
ATOM     15  C   UNL     1      64.894  35.649  61.072  1.00  0.00    -0.031 C 
BRANCH  15  16
ATOM     16  C   UNL     1      65.136  36.364  59.767  1.00  0.00     0.027 C 
BRANCH  16  17
ATOM     17  C   UNL     1      65.546  35.376  58.666  1.00  0.00     0.004 C 
BRANCH  17  18
ATOM     18  C   UNL     1      64.376  34.985  57.746  1.00  0.00     0.000 C 
BRANCH  18  19
ATOM     19  C   UNL     1      64.050  33.480  57.717  1.00  0.00    -0.003 C 
ATOM     20  C   UNL     1      64.970  32.649  58.609  1.00  0.00     0.004 C 
ENDBRANCH  18  19
ENDBRANCH  17  18
ENDBRANCH  16  17
ENDBRANCH  15  16
ENDBRANCH  13  14
ENDBRANCH  12  13
ENDBRANCH   1  11
TORSDOF 14
ENDMDL
