MODEL 1
REMARK VINA RESULT:    -6.379      0.000      0.000
REMARK INTER + INTRA:          -8.162
REMARK INTER:                  -7.497
REMARK INTRA:                  -0.665
REMARK UNBOUND:                -0.665
REMARK SMILES C=C(C)[C@H]1CC[C@]2(CO)CC[C@]3(C)[C@H](CC[C@H]4[C@@]5(C)CC[C@H](O)C(C)(C)[C@H]5CC[C@@]43C)[C@@H]12
REMARK SMILES IDX 4 1 5 2 6 3 7 4 32 5 14 6 15 7 16 8 17 9 18 10 20 11 21 12
REMARK SMILES IDX 22 13 24 14 27 15 28 16 29 17 30 18 12 19 11 20 10 21 13 22
REMARK SMILES IDX 31 23 25 24 26 25 19 26 2 27 3 28 1 29 8 30 9 31 23 33
REMARK H PARENT 9 32 23 34
REMARK Flexibility Score: inf
ROOT
ATOM      1  C   UNL     1      24.980   0.829  33.328  1.00  0.00     0.018 C 
ATOM      2  C   UNL     1      25.122  -0.694  33.123  1.00  0.00     0.009 C 
ATOM      3  C   UNL     1      24.061  -1.353  34.032  1.00  0.00     0.010 C 
ATOM      4  C   UNL     1      23.974  -0.426  35.254  1.00  0.00    -0.003 C 
ATOM      5  C   UNL     1      24.029   0.968  34.551  1.00  0.00     0.008 C 
ATOM      6  C   UNL     1      23.998   2.119  35.598  1.00  0.00    -0.000 C 
ATOM      7  C   UNL     1      24.439   3.546  35.208  1.00  0.00     0.005 C 
ATOM      8  C   UNL     1      24.725   4.403  36.488  1.00  0.00     0.005 C 
ATOM      9  C   UNL     1      24.038   3.836  37.781  1.00  0.00     0.002 C 
ATOM     10  C   UNL     1      24.297   4.585  39.169  1.00  0.00    -0.026 C 
ATOM     11  C   UNL     1      23.505   5.913  39.329  1.00  0.00     0.010 C 
ATOM     12  C   UNL     1      23.628   6.548  40.710  1.00  0.00     0.033 C 
ATOM     13  C   UNL     1      23.108   5.589  41.796  1.00  0.00     0.120 C 
ATOM     14  C   UNL     1      23.867   4.228  41.816  1.00  0.00    -0.006 C 
ATOM     15  C   UNL     1      23.912   3.582  40.347  1.00  0.00     0.003 C 
ATOM     16  C   UNL     1      22.690   2.648  39.966  1.00  0.00     0.005 C 
ATOM     17  C   UNL     1      21.809   3.103  38.784  1.00  0.00     0.008 C 
ATOM     18  C   UNL     1      22.564   3.403  37.446  1.00  0.00    -0.024 C 
ATOM     19  C   UNL     1      22.603   2.133  36.392  1.00  0.00    -0.024 C 
ATOM     20  C   UNL     1      22.487   0.705  37.058  1.00  0.00     0.008 C 
ATOM     21  C   UNL     1      22.649  -0.501  36.067  1.00  0.00     0.010 C 
ATOM     22  C   UNL     1      21.361   2.244  35.430  1.00  0.00     0.012 C 
ATOM     23  C   UNL     1      21.809   4.635  36.789  1.00  0.00     0.012 C 
ATOM     24  C   UNL     1      23.151   3.292  42.837  1.00  0.00     0.014 C 
ATOM     25  C   UNL     1      25.313   4.428  42.392  1.00  0.00     0.014 C 
ATOM     26  C   UNL     1      25.818   4.922  39.211  1.00  0.00     0.012 C 
ENDROOT
BRANCH   1  27
ATOM     27  C   UNL     1      26.292   1.612  33.278  1.00  0.00    -0.077 C 
ATOM     28  C   UNL     1      27.343   1.357  34.336  1.00  0.00     0.039 C 
ATOM     29  C   UNL     1      26.551   2.560  32.362  1.00  0.00     0.008 C 
ENDBRANCH   1  27
BRANCH   4  30
ATOM     30  C   UNL     1      25.162  -0.805  36.214  1.00  0.00     0.163 C 
BRANCH  30  31
ATOM     31  O   UNL     1      24.937  -2.070  36.792  1.00  0.00    -0.396 OA
ATOM     32  H   UNL     1      24.167  -1.996  37.418  1.00  0.00     0.210 HD
ENDBRANCH  30  31
ENDBRANCH   4  30
BRANCH  13  33
ATOM     33  O   UNL     1      23.193   6.215  43.051  1.00  0.00    -0.393 OA
ATOM     34  H   UNL     1      23.521   5.537  43.695  1.00  0.00     0.210 HD
ENDBRANCH  13  33
TORSDOF 4
ENDMDL
MODEL 2
REMARK VINA RESULT:    -6.205      1.731      2.912
REMARK INTER + INTRA:          -7.958
REMARK INTER:                  -7.694
REMARK INTRA:                  -0.265
REMARK UNBOUND:                -0.665
REMARK SMILES C=C(C)[C@H]1CC[C@]2(CO)CC[C@]3(C)[C@H](CC[C@H]4[C@@]5(C)CC[C@H](O)C(C)(C)[C@H]5CC[C@@]43C)[C@@H]12
REMARK SMILES IDX 4 1 5 2 6 3 7 4 32 5 14 6 15 7 16 8 17 9 18 10 20 11 21 12
REMARK SMILES IDX 22 13 24 14 27 15 28 16 29 17 30 18 12 19 11 20 10 21 13 22
REMARK SMILES IDX 31 23 25 24 26 25 19 26 2 27 3 28 1 29 8 30 9 31 23 33
REMARK H PARENT 9 32 23 34
REMARK Flexibility Score: inf
ROOT
ATOM      1  C   UNL     1      26.449  -1.014  35.135  1.00  0.00     0.018 C 
ATOM      2  C   UNL     1      25.504  -1.944  34.345  1.00  0.00     0.009 C 
ATOM      3  C   UNL     1      24.271  -1.091  33.971  1.00  0.00     0.010 C 
ATOM      4  C   UNL     1      24.104  -0.121  35.150  1.00  0.00    -0.003 C 
ATOM      5  C   UNL     1      25.597   0.256  35.416  1.00  0.00     0.008 C 
ATOM      6  C   UNL     1      25.717   1.227  36.625  1.00  0.00    -0.000 C 
ATOM      7  C   UNL     1      27.073   1.430  37.336  1.00  0.00     0.005 C 
ATOM      8  C   UNL     1      26.865   2.092  38.741  1.00  0.00     0.005 C 
ATOM      9  C   UNL     1      25.489   2.835  38.879  1.00  0.00     0.002 C 
ATOM     10  C   UNL     1      25.125   3.505  40.284  1.00  0.00    -0.026 C 
ATOM     11  C   UNL     1      25.875   4.839  40.561  1.00  0.00     0.010 C 
ATOM     12  C   UNL     1      25.416   5.558  41.825  1.00  0.00     0.033 C 
ATOM     13  C   UNL     1      23.918   5.902  41.740  1.00  0.00     0.120 C 
ATOM     14  C   UNL     1      23.019   4.645  41.541  1.00  0.00    -0.006 C 
ATOM     15  C   UNL     1      23.552   3.754  40.316  1.00  0.00     0.003 C 
ATOM     16  C   UNL     1      22.972   4.126  38.889  1.00  0.00     0.005 C 
ATOM     17  C   UNL     1      23.985   4.612  37.832  1.00  0.00     0.008 C 
ATOM     18  C   UNL     1      25.208   3.668  37.575  1.00  0.00    -0.024 C 
ATOM     19  C   UNL     1      25.007   2.631  36.307  1.00  0.00    -0.024 C 
ATOM     20  C   UNL     1      23.507   2.270  35.966  1.00  0.00     0.008 C 
ATOM     21  C   UNL     1      23.325   1.190  34.842  1.00  0.00     0.010 C 
ATOM     22  C   UNL     1      25.575   3.314  35.007  1.00  0.00     0.012 C 
ATOM     23  C   UNL     1      26.446   4.625  37.308  1.00  0.00     0.012 C 
ATOM     24  C   UNL     1      21.555   5.131  41.309  1.00  0.00     0.014 C 
ATOM     25  C   UNL     1      22.964   3.809  42.868  1.00  0.00     0.014 C 
ATOM     26  C   UNL     1      25.541   2.480  41.382  1.00  0.00     0.012 C 
ENDROOT
BRANCH   1  27
ATOM     27  C   UNL     1      27.223  -1.690  36.266  1.00  0.00    -0.077 C 
ATOM     28  C   UNL     1      28.584  -2.282  35.976  1.00  0.00     0.039 C 
ATOM     29  C   UNL     1      26.736  -1.833  37.511  1.00  0.00     0.008 C 
ENDBRANCH   1  27
BRANCH   4  30
ATOM     30  C   UNL     1      23.336  -0.894  36.287  1.00  0.00     0.163 C 
BRANCH  30  31
ATOM     31  O   UNL     1      22.179  -1.505  35.764  1.00  0.00    -0.396 OA
ATOM     32  H   UNL     1      21.744  -0.865  35.137  1.00  0.00     0.210 HD
ENDBRANCH  30  31
ENDBRANCH   4  30
BRANCH  13  33
ATOM     33  O   UNL     1      23.533   6.601  42.896  1.00  0.00    -0.393 OA
ATOM     34  H   UNL     1      22.740   6.137  43.268  1.00  0.00     0.210 HD
ENDBRANCH  13  33
TORSDOF 4
ENDMDL
MODEL 3
REMARK VINA RESULT:    -5.564      4.266      7.192
REMARK INTER + INTRA:          -7.205
REMARK INTER:                  -6.557
REMARK INTRA:                  -0.647
REMARK UNBOUND:                -0.665
REMARK SMILES C=C(C)[C@H]1CC[C@]2(CO)CC[C@]3(C)[C@H](CC[C@H]4[C@@]5(C)CC[C@H](O)C(C)(C)[C@H]5CC[C@@]43C)[C@@H]12
REMARK SMILES IDX 4 1 5 2 6 3 7 4 32 5 14 6 15 7 16 8 17 9 18 10 20 11 21 12
REMARK SMILES IDX 22 13 24 14 27 15 28 16 29 17 30 18 12 19 11 20 10 21 13 22
REMARK SMILES IDX 31 23 25 24 26 25 19 26 2 27 3 28 1 29 8 30 9 31 23 33
REMARK H PARENT 9 32 23 34
REMARK Flexibility Score: inf
ROOT
ATOM      1  C   UNL     1      20.344   4.808  29.795  1.00  0.00     0.018 C 
ATOM      2  C   UNL     1      19.098   4.408  28.976  1.00  0.00     0.009 C 
ATOM      3  C   UNL     1      18.282   3.449  29.870  1.00  0.00     0.010 C 
ATOM      4  C   UNL     1      19.341   2.684  30.678  1.00  0.00    -0.003 C 
ATOM      5  C   UNL     1      20.327   3.847  31.018  1.00  0.00     0.008 C 
ATOM      6  C   UNL     1      21.550   3.320  31.823  1.00  0.00    -0.000 C 
ATOM      7  C   UNL     1      22.839   4.163  31.932  1.00  0.00     0.005 C 
ATOM      8  C   UNL     1      24.040   3.274  32.406  1.00  0.00     0.005 C 
ATOM      9  C   UNL     1      23.589   1.953  33.124  1.00  0.00     0.002 C 
ATOM     10  C   UNL     1      24.716   0.927  33.606  1.00  0.00    -0.026 C 
ATOM     11  C   UNL     1      25.468   1.372  34.892  1.00  0.00     0.010 C 
ATOM     12  C   UNL     1      26.432   0.326  35.441  1.00  0.00     0.033 C 
ATOM     13  C   UNL     1      25.683  -0.971  35.792  1.00  0.00     0.120 C 
ATOM     14  C   UNL     1      24.937  -1.589  34.572  1.00  0.00    -0.006 C 
ATOM     15  C   UNL     1      24.022  -0.486  33.848  1.00  0.00     0.003 C 
ATOM     16  C   UNL     1      22.545  -0.344  34.403  1.00  0.00     0.005 C 
ATOM     17  C   UNL     1      22.162   1.016  35.022  1.00  0.00     0.008 C 
ATOM     18  C   UNL     1      22.414   2.271  34.120  1.00  0.00    -0.024 C 
ATOM     19  C   UNL     1      21.094   2.759  33.257  1.00  0.00    -0.024 C 
ATOM     20  C   UNL     1      20.040   1.624  32.943  1.00  0.00     0.008 C 
ATOM     21  C   UNL     1      18.851   2.063  32.019  1.00  0.00     0.010 C 
ATOM     22  C   UNL     1      20.310   3.830  34.103  1.00  0.00     0.012 C 
ATOM     23  C   UNL     1      22.881   3.426  35.104  1.00  0.00     0.012 C 
ATOM     24  C   UNL     1      24.093  -2.796  35.083  1.00  0.00     0.014 C 
ATOM     25  C   UNL     1      25.972  -2.213  33.570  1.00  0.00     0.014 C 
ATOM     26  C   UNL     1      25.754   0.838  32.447  1.00  0.00     0.012 C 
ENDROOT
BRANCH   1  27
ATOM     27  C   UNL     1      21.622   4.994  28.978  1.00  0.00    -0.077 C 
ATOM     28  C   UNL     1      22.309   6.342  28.984  1.00  0.00     0.039 C 
ATOM     29  C   UNL     1      22.152   4.031  28.206  1.00  0.00     0.008 C 
ENDBRANCH   1  27
BRANCH   4  30
ATOM     30  C   UNL     1      19.877   1.520  29.764  1.00  0.00     0.163 C 
BRANCH  30  31
ATOM     31  O   UNL     1      19.117   0.351  29.969  1.00  0.00    -0.396 OA
ATOM     32  H   UNL     1      19.644  -0.427  29.638  1.00  0.00     0.210 HD
ENDBRANCH  30  31
ENDBRANCH   4  30
BRANCH  13  33
ATOM     33  O   UNL     1      26.587  -1.899  36.335  1.00  0.00    -0.393 OA
ATOM     34  H   UNL     1      26.601  -1.755  37.316  1.00  0.00     0.210 HD
ENDBRANCH  13  33
TORSDOF 4
ENDMDL
MODEL 4
REMARK VINA RESULT:    -5.469      2.558      4.244
REMARK INTER + INTRA:          -7.093
REMARK INTER:                  -6.409
REMARK INTRA:                  -0.683
REMARK UNBOUND:                -0.665
REMARK SMILES C=C(C)[C@H]1CC[C@]2(CO)CC[C@]3(C)[C@H](CC[C@H]4[C@@]5(C)CC[C@H](O)C(C)(C)[C@H]5CC[C@@]43C)[C@@H]12
REMARK SMILES IDX 4 1 5 2 6 3 7 4 32 5 14 6 15 7 16 8 17 9 18 10 20 11 21 12
REMARK SMILES IDX 22 13 24 14 27 15 28 16 29 17 30 18 12 19 11 20 10 21 13 22
REMARK SMILES IDX 31 23 25 24 26 25 19 26 2 27 3 28 1 29 8 30 9 31 23 33
REMARK H PARENT 9 32 23 34
REMARK Flexibility Score: inf
ROOT
ATOM      1  C   UNL     1      21.385   2.207  31.549  1.00  0.00     0.018 C 
ATOM      2  C   UNL     1      22.226   2.417  30.271  1.00  0.00     0.009 C 
ATOM      3  C   UNL     1      23.626   1.840  30.575  1.00  0.00     0.010 C 
ATOM      4  C   UNL     1      23.838   2.116  32.071  1.00  0.00    -0.003 C 
ATOM      5  C   UNL     1      22.419   1.766  32.624  1.00  0.00     0.008 C 
ATOM      6  C   UNL     1      22.347   2.006  34.160  1.00  0.00    -0.000 C 
ATOM      7  C   UNL     1      20.981   2.124  34.871  1.00  0.00     0.005 C 
ATOM      8  C   UNL     1      21.153   2.773  36.287  1.00  0.00     0.005 C 
ATOM      9  C   UNL     1      22.618   2.674  36.842  1.00  0.00     0.002 C 
ATOM     10  C   UNL     1      22.942   3.350  38.254  1.00  0.00    -0.026 C 
ATOM     11  C   UNL     1      22.422   2.541  39.476  1.00  0.00     0.010 C 
ATOM     12  C   UNL     1      22.865   3.100  40.824  1.00  0.00     0.033 C 
ATOM     13  C   UNL     1      24.401   3.119  40.926  1.00  0.00     0.120 C 
ATOM     14  C   UNL     1      25.072   3.966  39.804  1.00  0.00    -0.006 C 
ATOM     15  C   UNL     1      24.522   3.530  38.360  1.00  0.00     0.003 C 
ATOM     16  C   UNL     1      25.311   2.357  37.646  1.00  0.00     0.005 C 
ATOM     17  C   UNL     1      24.525   1.060  37.365  1.00  0.00     0.008 C 
ATOM     18  C   UNL     1      23.186   1.233  36.572  1.00  0.00    -0.024 C 
ATOM     19  C   UNL     1      23.331   1.009  34.943  1.00  0.00    -0.024 C 
ATOM     20  C   UNL     1      24.769   1.294  34.352  1.00  0.00     0.008 C 
ATOM     21  C   UNL     1      24.872   1.200  32.789  1.00  0.00     0.010 C 
ATOM     22  C   UNL     1      23.042  -0.504  34.618  1.00  0.00     0.012 C 
ATOM     23  C   UNL     1      22.180   0.168  37.182  1.00  0.00     0.012 C 
ATOM     24  C   UNL     1      26.615   3.778  39.916  1.00  0.00     0.014 C 
ATOM     25  C   UNL     1      24.828   5.494  40.066  1.00  0.00     0.014 C 
ATOM     26  C   UNL     1      22.230   4.735  38.254  1.00  0.00     0.012 C 
ENDROOT
BRANCH   1  27
ATOM     27  C   UNL     1      20.383   3.320  31.852  1.00  0.00    -0.077 C 
ATOM     28  C   UNL     1      18.909   2.985  31.921  1.00  0.00     0.039 C 
ATOM     29  C   UNL     1      20.736   4.606  32.018  1.00  0.00     0.008 C 
ENDBRANCH   1  27
BRANCH   4  30
ATOM     30  C   UNL     1      24.324   3.607  32.208  1.00  0.00     0.163 C 
BRANCH  30  31
ATOM     31  O   UNL     1      25.719   3.683  32.025  1.00  0.00    -0.396 OA
ATOM     32  H   UNL     1      25.961   3.130  31.234  1.00  0.00     0.210 HD
ENDBRANCH  30  31
ENDBRANCH   4  30
BRANCH  13  33
ATOM     33  O   UNL     1      24.778   3.597  42.192  1.00  0.00    -0.393 OA
ATOM     34  H   UNL     1      24.085   3.299  42.836  1.00  0.00     0.210 HD
ENDBRANCH  13  33
TORSDOF 4
ENDMDL
MODEL 5
REMARK VINA RESULT:    -5.437      1.852      7.541
REMARK INTER + INTRA:          -7.056
REMARK INTER:                  -6.354
REMARK INTRA:                  -0.702
REMARK UNBOUND:                -0.665
REMARK SMILES C=C(C)[C@H]1CC[C@]2(CO)CC[C@]3(C)[C@H](CC[C@H]4[C@@]5(C)CC[C@H](O)C(C)(C)[C@H]5CC[C@@]43C)[C@@H]12
REMARK SMILES IDX 4 1 5 2 6 3 7 4 32 5 14 6 15 7 16 8 17 9 18 10 20 11 21 12
REMARK SMILES IDX 22 13 24 14 27 15 28 16 29 17 30 18 12 19 11 20 10 21 13 22
REMARK SMILES IDX 31 23 25 24 26 25 19 26 2 27 3 28 1 29 8 30 9 31 23 33
REMARK H PARENT 9 32 23 34
REMARK Flexibility Score: inf
ROOT
ATOM      1  C   UNL     1      22.423   6.127  40.636  1.00  0.00     0.018 C 
ATOM      2  C   UNL     1      22.245   5.825  42.139  1.00  0.00     0.009 C 
ATOM      3  C   UNL     1      23.431   4.920  42.541  1.00  0.00     0.010 C 
ATOM      4  C   UNL     1      23.710   4.075  41.290  1.00  0.00    -0.003 C 
ATOM      5  C   UNL     1      23.552   5.161  40.178  1.00  0.00     0.008 C 
ATOM      6  C   UNL     1      23.751   4.541  38.765  1.00  0.00    -0.000 C 
ATOM      7  C   UNL     1      23.260   5.287  37.505  1.00  0.00     0.005 C 
ATOM      8  C   UNL     1      23.180   4.311  36.282  1.00  0.00     0.005 C 
ATOM      9  C   UNL     1      24.057   3.020  36.460  1.00  0.00     0.002 C 
ATOM     10  C   UNL     1      24.019   1.912  35.309  1.00  0.00    -0.026 C 
ATOM     11  C   UNL     1      24.832   2.292  34.039  1.00  0.00     0.010 C 
ATOM     12  C   UNL     1      24.927   1.175  33.005  1.00  0.00     0.033 C 
ATOM     13  C   UNL     1      25.605  -0.068  33.610  1.00  0.00     0.120 C 
ATOM     14  C   UNL     1      24.853  -0.621  34.857  1.00  0.00    -0.006 C 
ATOM     15  C   UNL     1      24.578   0.551  35.920  1.00  0.00     0.003 C 
ATOM     16  C   UNL     1      25.722   0.796  36.988  1.00  0.00     0.005 C 
ATOM     17  C   UNL     1      26.411   2.175  36.965  1.00  0.00     0.008 C 
ATOM     18  C   UNL     1      25.459   3.415  37.052  1.00  0.00    -0.024 C 
ATOM     19  C   UNL     1      25.252   4.003  38.580  1.00  0.00    -0.024 C 
ATOM     20  C   UNL     1      25.463   2.950  39.739  1.00  0.00     0.008 C 
ATOM     21  C   UNL     1      25.145   3.481  41.181  1.00  0.00     0.010 C 
ATOM     22  C   UNL     1      26.330   5.122  38.836  1.00  0.00     0.012 C 
ATOM     23  C   UNL     1      26.108   4.526  36.122  1.00  0.00     0.012 C 
ATOM     24  C   UNL     1      25.714  -1.767  35.470  1.00  0.00     0.014 C 
ATOM     25  C   UNL     1      23.514  -1.310  34.414  1.00  0.00     0.014 C 
ATOM     26  C   UNL     1      22.525   1.756  34.896  1.00  0.00     0.012 C 
ENDROOT
BRANCH   1  27
ATOM     27  C   UNL     1      21.123   6.227  39.839  1.00  0.00    -0.077 C 
ATOM     28  C   UNL     1      20.787   7.525  39.137  1.00  0.00     0.039 C 
ATOM     29  C   UNL     1      20.225   5.230  39.764  1.00  0.00     0.008 C 
ENDBRANCH   1  27
BRANCH   4  30
ATOM     30  C   UNL     1      22.683   2.882  41.292  1.00  0.00     0.163 C 
BRANCH  30  31
ATOM     31  O   UNL     1      23.090   1.890  42.207  1.00  0.00    -0.396 OA
ATOM     32  H   UNL     1      24.016   1.610  41.972  1.00  0.00     0.210 HD
ENDBRANCH  30  31
ENDBRANCH   4  30
BRANCH  13  33
ATOM     33  O   UNL     1      25.718  -1.063  32.625  1.00  0.00    -0.393 OA
ATOM     34  H   UNL     1      25.081  -1.784  32.863  1.00  0.00     0.210 HD
ENDBRANCH  13  33
TORSDOF 4
ENDMDL
MODEL 6
REMARK VINA RESULT:    -5.315      4.050      7.439
REMARK INTER + INTRA:          -6.912
REMARK INTER:                  -6.214
REMARK INTRA:                  -0.698
REMARK UNBOUND:                -0.665
REMARK SMILES C=C(C)[C@H]1CC[C@]2(CO)CC[C@]3(C)[C@H](CC[C@H]4[C@@]5(C)CC[C@H](O)C(C)(C)[C@H]5CC[C@@]43C)[C@@H]12
REMARK SMILES IDX 4 1 5 2 6 3 7 4 32 5 14 6 15 7 16 8 17 9 18 10 20 11 21 12
REMARK SMILES IDX 22 13 24 14 27 15 28 16 29 17 30 18 12 19 11 20 10 21 13 22
REMARK SMILES IDX 31 23 25 24 26 25 19 26 2 27 3 28 1 29 8 30 9 31 23 33
REMARK H PARENT 9 32 23 34
REMARK Flexibility Score: inf
ROOT
ATOM      1  C   UNL     1      23.280   0.663  36.037  1.00  0.00     0.018 C 
ATOM      2  C   UNL     1      23.016  -0.856  36.112  1.00  0.00     0.009 C 
ATOM      3  C   UNL     1      24.369  -1.512  36.469  1.00  0.00     0.010 C 
ATOM      4  C   UNL     1      25.418  -0.625  35.784  1.00  0.00    -0.003 C 
ATOM      5  C   UNL     1      24.829   0.791  36.086  1.00  0.00     0.008 C 
ATOM      6  C   UNL     1      25.707   1.905  35.447  1.00  0.00    -0.000 C 
ATOM      7  C   UNL     1      25.146   3.330  35.253  1.00  0.00     0.005 C 
ATOM      8  C   UNL     1      26.024   4.134  34.234  1.00  0.00     0.005 C 
ATOM      9  C   UNL     1      27.469   3.545  34.060  1.00  0.00     0.002 C 
ATOM     10  C   UNL     1      28.449   4.237  33.005  1.00  0.00    -0.026 C 
ATOM     11  C   UNL     1      29.055   5.584  33.493  1.00  0.00     0.010 C 
ATOM     12  C   UNL     1      30.108   6.166  32.557  1.00  0.00     0.033 C 
ATOM     13  C   UNL     1      31.284   5.188  32.387  1.00  0.00     0.120 C 
ATOM     14  C   UNL     1      30.843   3.804  31.822  1.00  0.00    -0.006 C 
ATOM     15  C   UNL     1      29.620   3.208  32.674  1.00  0.00     0.003 C 
ATOM     16  C   UNL     1      30.018   2.326  33.929  1.00  0.00     0.005 C 
ATOM     17  C   UNL     1      29.581   2.848  35.313  1.00  0.00     0.008 C 
ATOM     18  C   UNL     1      28.056   3.170  35.470  1.00  0.00    -0.024 C 
ATOM     19  C   UNL     1      27.168   1.936  36.112  1.00  0.00    -0.024 C 
ATOM     20  C   UNL     1      27.761   0.490  35.881  1.00  0.00     0.008 C 
ATOM     21  C   UNL     1      26.853  -0.686  36.385  1.00  0.00     0.010 C 
ATOM     22  C   UNL     1      27.116   2.118  37.676  1.00  0.00     0.012 C 
ATOM     23  C   UNL     1      27.978   4.447  36.409  1.00  0.00     0.012 C 
ATOM     24  C   UNL     1      32.081   2.857  31.847  1.00  0.00     0.014 C 
ATOM     25  C   UNL     1      30.465   3.939  30.305  1.00  0.00     0.014 C 
ATOM     26  C   UNL     1      27.596   4.525  31.733  1.00  0.00     0.012 C 
ENDROOT
BRANCH   1  27
ATOM     27  C   UNL     1      22.478   1.406  34.969  1.00  0.00    -0.077 C 
ATOM     28  C   UNL     1      21.494   2.473  35.395  1.00  0.00     0.039 C 
ATOM     29  C   UNL     1      22.563   1.128  33.657  1.00  0.00     0.008 C 
ENDBRANCH   1  27
BRANCH   4  30
ATOM     30  C   UNL     1      25.498  -1.073  34.277  1.00  0.00     0.163 C 
BRANCH  30  31
ATOM     31  O   UNL     1      26.248  -2.259  34.160  1.00  0.00    -0.396 OA
ATOM     32  H   UNL     1      25.615  -3.023  34.073  1.00  0.00     0.210 HD
ENDBRANCH  30  31
ENDBRANCH   4  30
BRANCH  13  33
ATOM     33  O   UNL     1      32.257   5.768  31.556  1.00  0.00    -0.393 OA
ATOM     34  H   UNL     1      32.762   6.419  32.107  1.00  0.00     0.210 HD
ENDBRANCH  13  33
TORSDOF 4
ENDMDL
MODEL 7
REMARK VINA RESULT:    -5.251      1.245      1.631
REMARK INTER + INTRA:          -6.836
REMARK INTER:                  -6.163
REMARK INTRA:                  -0.674
REMARK UNBOUND:                -0.665
REMARK SMILES C=C(C)[C@H]1CC[C@]2(CO)CC[C@]3(C)[C@H](CC[C@H]4[C@@]5(C)CC[C@H](O)C(C)(C)[C@H]5CC[C@@]43C)[C@@H]12
REMARK SMILES IDX 4 1 5 2 6 3 7 4 32 5 14 6 15 7 16 8 17 9 18 10 20 11 21 12
REMARK SMILES IDX 22 13 24 14 27 15 28 16 29 17 30 18 12 19 11 20 10 21 13 22
REMARK SMILES IDX 31 23 25 24 26 25 19 26 2 27 3 28 1 29 8 30 9 31 23 33
REMARK H PARENT 9 32 23 34
REMARK Flexibility Score: inf
ROOT
ATOM      1  C   UNL     1      24.840   2.653  32.533  1.00  0.00     0.018 C 
ATOM      2  C   UNL     1      25.506   1.367  31.997  1.00  0.00     0.009 C 
ATOM      3  C   UNL     1      24.912   0.200  32.817  1.00  0.00     0.010 C 
ATOM      4  C   UNL     1      24.669   0.796  34.211  1.00  0.00    -0.003 C 
ATOM      5  C   UNL     1      24.098   2.197  33.821  1.00  0.00     0.008 C 
ATOM      6  C   UNL     1      23.796   3.046  35.089  1.00  0.00    -0.000 C 
ATOM      7  C   UNL     1      23.613   4.575  34.984  1.00  0.00     0.005 C 
ATOM      8  C   UNL     1      23.745   5.245  36.394  1.00  0.00     0.005 C 
ATOM      9  C   UNL     1      23.518   4.242  37.581  1.00  0.00     0.002 C 
ATOM     10  C   UNL     1      23.682   4.785  39.076  1.00  0.00    -0.026 C 
ATOM     11  C   UNL     1      22.486   5.646  39.571  1.00  0.00     0.010 C 
ATOM     12  C   UNL     1      22.567   6.033  41.043  1.00  0.00     0.033 C 
ATOM     13  C   UNL     1      22.607   4.777  41.933  1.00  0.00     0.120 C 
ATOM     14  C   UNL     1      23.811   3.843  41.608  1.00  0.00    -0.006 C 
ATOM     15  C   UNL     1      23.875   3.527  40.035  1.00  0.00     0.003 C 
ATOM     16  C   UNL     1      23.046   2.267  39.550  1.00  0.00     0.005 C 
ATOM     17  C   UNL     1      21.894   2.532  38.558  1.00  0.00     0.008 C 
ATOM     18  C   UNL     1      22.277   3.328  37.265  1.00  0.00    -0.024 C 
ATOM     19  C   UNL     1      22.629   2.375  35.964  1.00  0.00    -0.024 C 
ATOM     20  C   UNL     1      23.152   0.926  36.315  1.00  0.00     0.008 C 
ATOM     21  C   UNL     1      23.602   0.068  35.080  1.00  0.00     0.010 C 
ATOM     22  C   UNL     1      21.308   2.150  35.137  1.00  0.00     0.012 C 
ATOM     23  C   UNL     1      21.031   4.256  36.942  1.00  0.00     0.012 C 
ATOM     24  C   UNL     1      23.653   2.543  42.453  1.00  0.00     0.014 C 
ATOM     25  C   UNL     1      25.147   4.495  42.110  1.00  0.00     0.014 C 
ATOM     26  C   UNL     1      24.956   5.681  39.082  1.00  0.00     0.012 C 
ENDROOT
BRANCH   1  27
ATOM     27  C   UNL     1      25.745   3.885  32.559  1.00  0.00    -0.077 C 
ATOM     28  C   UNL     1      25.288   5.148  31.863  1.00  0.00     0.039 C 
ATOM     29  C   UNL     1      26.960   3.896  33.132  1.00  0.00     0.008 C 
ENDBRANCH   1  27
BRANCH   4  30
ATOM     30  C   UNL     1      26.040   0.758  34.983  1.00  0.00     0.163 C 
BRANCH  30  31
ATOM     31  O   UNL     1      26.644  -0.507  34.841  1.00  0.00    -0.396 OA
ATOM     32  H   UNL     1      26.902  -0.626  33.887  1.00  0.00     0.210 HD
ENDBRANCH  30  31
ENDBRANCH   4  30
BRANCH  13  33
ATOM     33  O   UNL     1      22.637   5.163  43.283  1.00  0.00    -0.393 OA
ATOM     34  H   UNL     1      23.077   4.432  43.787  1.00  0.00     0.210 HD
ENDBRANCH  13  33
TORSDOF 4
ENDMDL
MODEL 8
REMARK VINA RESULT:    -5.220      3.108      7.417
REMARK INTER + INTRA:          -6.800
REMARK INTER:                  -6.099
REMARK INTRA:                  -0.702
REMARK UNBOUND:                -0.665
REMARK SMILES C=C(C)[C@H]1CC[C@]2(CO)CC[C@]3(C)[C@H](CC[C@H]4[C@@]5(C)CC[C@H](O)C(C)(C)[C@H]5CC[C@@]43C)[C@@H]12
REMARK SMILES IDX 4 1 5 2 6 3 7 4 32 5 14 6 15 7 16 8 17 9 18 10 20 11 21 12
REMARK SMILES IDX 22 13 24 14 27 15 28 16 29 17 30 18 12 19 11 20 10 21 13 22
REMARK SMILES IDX 31 23 25 24 26 25 19 26 2 27 3 28 1 29 8 30 9 31 23 33
REMARK H PARENT 9 32 23 34
REMARK Flexibility Score: inf
ROOT
ATOM      1  C   UNL     1      25.243   3.273  39.221  1.00  0.00     0.018 C 
ATOM      2  C   UNL     1      24.522   3.626  40.540  1.00  0.00     0.009 C 
ATOM      3  C   UNL     1      23.164   2.891  40.500  1.00  0.00     0.010 C 
ATOM      4  C   UNL     1      22.772   2.890  39.016  1.00  0.00    -0.003 C 
ATOM      5  C   UNL     1      24.154   2.571  38.361  1.00  0.00     0.008 C 
ATOM      6  C   UNL     1      24.042   2.551  36.809  1.00  0.00    -0.000 C 
ATOM      7  C   UNL     1      25.307   2.661  35.930  1.00  0.00     0.005 C 
ATOM      8  C   UNL     1      24.925   3.043  34.460  1.00  0.00     0.005 C 
ATOM      9  C   UNL     1      23.428   2.729  34.106  1.00  0.00     0.002 C 
ATOM     10  C   UNL     1      22.891   3.125  32.653  1.00  0.00    -0.026 C 
ATOM     11  C   UNL     1      23.362   2.167  31.523  1.00  0.00     0.010 C 
ATOM     12  C   UNL     1      22.728   2.449  30.165  1.00  0.00     0.033 C 
ATOM     13  C   UNL     1      21.196   2.321  30.245  1.00  0.00     0.120 C 
ATOM     14  C   UNL     1      20.561   3.287  31.290  1.00  0.00    -0.006 C 
ATOM     15  C   UNL     1      21.299   3.152  32.709  1.00  0.00     0.003 C 
ATOM     16  C   UNL     1      20.712   2.055  33.690  1.00  0.00     0.005 C 
ATOM     17  C   UNL     1      21.652   0.895  34.078  1.00  0.00     0.008 C 
ATOM     18  C   UNL     1      23.041   1.312  34.669  1.00  0.00    -0.024 C 
ATOM     19  C   UNL     1      23.089   1.357  36.318  1.00  0.00    -0.024 C 
ATOM     20  C   UNL     1      21.699   1.617  37.023  1.00  0.00     0.008 C 
ATOM     21  C   UNL     1      21.768   1.782  38.582  1.00  0.00     0.010 C 
ATOM     22  C   UNL     1      23.564  -0.049  36.844  1.00  0.00     0.012 C 
ATOM     23  C   UNL     1      24.083   0.247  34.121  1.00  0.00     0.012 C 
ATOM     24  C   UNL     1      19.042   2.954  31.393  1.00  0.00     0.014 C 
ATOM     25  C   UNL     1      20.618   4.764  30.759  1.00  0.00     0.014 C 
ATOM     26  C   UNL     1      23.454   4.545  32.348  1.00  0.00     0.012 C 
ENDROOT
BRANCH   1  27
ATOM     27  C   UNL     1      26.089   4.399  38.627  1.00  0.00    -0.077 C 
ATOM     28  C   UNL     1      27.574   4.183  38.440  1.00  0.00     0.039 C 
ATOM     29  C   UNL     1      25.590   5.603  38.300  1.00  0.00     0.008 C 
ENDBRANCH   1  27
BRANCH   4  30
ATOM     30  C   UNL     1      22.124   4.290  38.701  1.00  0.00     0.163 C 
BRANCH  30  31
ATOM     31  O   UNL     1      20.855   4.386  39.306  1.00  0.00    -0.396 OA
ATOM     32  H   UNL     1      20.837   3.778  40.095  1.00  0.00     0.210 HD
ENDBRANCH  30  31
ENDBRANCH   4  30
BRANCH  13  33
ATOM     33  O   UNL     1      20.643   2.544  28.973  1.00  0.00    -0.393 OA
ATOM     34  H   UNL     1      21.363   2.390  28.309  1.00  0.00     0.210 HD
ENDBRANCH  13  33
TORSDOF 4
ENDMDL
MODEL 9
REMARK VINA RESULT:    -5.167      4.372      8.145
REMARK INTER + INTRA:          -6.738
REMARK INTER:                  -6.078
REMARK INTRA:                  -0.660
REMARK UNBOUND:                -0.665
REMARK SMILES C=C(C)[C@H]1CC[C@]2(CO)CC[C@]3(C)[C@H](CC[C@H]4[C@@]5(C)CC[C@H](O)C(C)(C)[C@H]5CC[C@@]43C)[C@@H]12
REMARK SMILES IDX 4 1 5 2 6 3 7 4 32 5 14 6 15 7 16 8 17 9 18 10 20 11 21 12
REMARK SMILES IDX 22 13 24 14 27 15 28 16 29 17 30 18 12 19 11 20 10 21 13 22
REMARK SMILES IDX 31 23 25 24 26 25 19 26 2 27 3 28 1 29 8 30 9 31 23 33
REMARK H PARENT 9 32 23 34
REMARK Flexibility Score: inf
ROOT
ATOM      1  C   UNL     1      24.844   1.650  36.294  1.00  0.00     0.018 C 
ATOM      2  C   UNL     1      25.774   0.424  36.417  1.00  0.00     0.009 C 
ATOM      3  C   UNL     1      26.197   0.057  34.977  1.00  0.00     0.010 C 
ATOM      4  C   UNL     1      24.975   0.411  34.117  1.00  0.00    -0.003 C 
ATOM      5  C   UNL     1      24.554   1.766  34.771  1.00  0.00     0.008 C 
ATOM      6  C   UNL     1      23.276   2.337  34.092  1.00  0.00    -0.000 C 
ATOM      7  C   UNL     1      22.437   3.428  34.793  1.00  0.00     0.005 C 
ATOM      8  C   UNL     1      21.015   3.531  34.143  1.00  0.00     0.005 C 
ATOM      9  C   UNL     1      20.948   2.927  32.695  1.00  0.00     0.002 C 
ATOM     10  C   UNL     1      19.539   2.915  31.941  1.00  0.00    -0.026 C 
ATOM     11  C   UNL     1      19.108   4.302  31.385  1.00  0.00     0.010 C 
ATOM     12  C   UNL     1      17.845   4.264  30.533  1.00  0.00     0.033 C 
ATOM     13  C   UNL     1      18.038   3.339  29.317  1.00  0.00     0.120 C 
ATOM     14  C   UNL     1      18.399   1.878  29.719  1.00  0.00    -0.006 C 
ATOM     15  C   UNL     1      19.629   1.861  30.750  1.00  0.00     0.003 C 
ATOM     16  C   UNL     1      21.073   1.808  30.101  1.00  0.00     0.005 C 
ATOM     17  C   UNL     1      22.002   3.009  30.372  1.00  0.00     0.008 C 
ATOM     18  C   UNL     1      22.213   3.381  31.878  1.00  0.00    -0.024 C 
ATOM     19  C   UNL     1      23.561   2.712  32.557  1.00  0.00    -0.024 C 
ATOM     20  C   UNL     1      24.056   1.370  31.886  1.00  0.00     0.008 C 
ATOM     21  C   UNL     1      25.261   0.674  32.610  1.00  0.00     0.010 C 
ATOM     22  C   UNL     1      24.757   3.723  32.395  1.00  0.00     0.012 C 
ATOM     23  C   UNL     1      22.306   4.965  31.925  1.00  0.00     0.012 C 
ATOM     24  C   UNL     1      18.724   1.086  28.416  1.00  0.00     0.014 C 
ATOM     25  C   UNL     1      17.140   1.162  30.326  1.00  0.00     0.014 C 
ATOM     26  C   UNL     1      18.480   2.467  32.993  1.00  0.00     0.012 C 
ENDROOT
BRANCH   1  27
ATOM     27  C   UNL     1      23.697   1.693  37.303  1.00  0.00    -0.077 C 
ATOM     28  C   UNL     1      22.625   0.627  37.245  1.00  0.00     0.039 C 
ATOM     29  C   UNL     1      23.558   2.663  38.223  1.00  0.00     0.008 C 
ENDBRANCH   1  27
BRANCH   4  30
ATOM     30  C   UNL     1      23.964  -0.792  34.222  1.00  0.00     0.163 C 
BRANCH  30  31
ATOM     31  O   UNL     1      24.620  -2.006  33.937  1.00  0.00    -0.396 OA
ATOM     32  H   UNL     1      24.008  -2.755  34.171  1.00  0.00     0.210 HD
ENDBRANCH  30  31
ENDBRANCH   4  30
BRANCH  13  33
ATOM     33  O   UNL     1      16.875   3.357  28.528  1.00  0.00    -0.393 OA
ATOM     34  H   UNL     1      16.218   3.940  28.989  1.00  0.00     0.210 HD
ENDBRANCH  13  33
TORSDOF 4
ENDMDL
