MODEL 1
REMARK VINA RESULT:    -7.158      0.000      0.000
REMARK INTER + INTRA:          -9.792
REMARK INTER:                  -9.041
REMARK INTRA:                  -0.752
REMARK UNBOUND:                -0.752
REMARK SMILES O=C(C=Cc1ccc(O)cc1)c1ccc(O)cc1O
REMARK SMILES IDX 4 1 3 2 5 3 6 4 7 5 8 6 11 7 10 8 9 9 2 11 1 12 12 13 18 14
REMARK SMILES IDX 13 15 17 16 14 17 15 18 19 19 16 21
REMARK H PARENT 9 10 19 20 16 22
REMARK Flexibility Score: inf
ROOT
ATOM      1  C   UNL     1      39.834   4.319  -0.290  1.00  0.00     0.012 C 
ATOM      2  C   UNL     1      38.631   4.182   0.287  1.00  0.00     0.053 C 
ENDROOT
BRANCH   1   3
ATOM      3  C   UNL     1      41.000   4.945   0.379  1.00  0.00    -0.025 A 
ATOM      4  C   UNL     1      40.904   5.260   1.746  1.00  0.00     0.012 A 
ATOM      5  C   UNL     1      41.981   5.841   2.421  1.00  0.00     0.047 A 
ATOM      6  C   UNL     1      43.175   6.104   1.744  1.00  0.00     0.115 A 
ATOM      7  C   UNL     1      42.214   5.200  -0.293  1.00  0.00     0.012 A 
ATOM      8  C   UNL     1      43.289   5.780   0.386  1.00  0.00     0.047 A 
BRANCH   6   9
ATOM      9  O   UNL     1      44.240   6.685   2.428  1.00  0.00    -0.508 OA
ATOM     10  H   UNL     1      44.974   7.185   1.940  1.00  0.00     0.293 HD
ENDBRANCH   6   9
ENDBRANCH   1   3
BRANCH   2  11
ATOM     11  C   UNL     1      37.493   3.539  -0.405  1.00  0.00     0.189 C 
ATOM     12  O   UNL     1      36.998   2.471   0.047  1.00  0.00    -0.289 OA
BRANCH  11  13
ATOM     13  C   UNL     1      36.948   4.124  -1.650  1.00  0.00     0.064 A 
ATOM     14  C   UNL     1      37.001   3.435  -2.887  1.00  0.00     0.130 A 
ATOM     15  C   UNL     1      36.398   5.418  -1.613  1.00  0.00     0.020 A 
ATOM     16  C   UNL     1      36.539   4.061  -4.050  1.00  0.00     0.093 A 
ATOM     17  C   UNL     1      35.926   6.025  -2.780  1.00  0.00     0.047 A 
ATOM     18  C   UNL     1      36.001   5.353  -4.000  1.00  0.00     0.119 A 
BRANCH  14  19
ATOM     19  O   UNL     1      37.476   2.126  -2.992  1.00  0.00    -0.507 OA
ATOM     20  H   UNL     1      38.304   1.876  -3.518  1.00  0.00     0.293 HD
ENDBRANCH  14  19
BRANCH  18  21
ATOM     21  O   UNL     1      35.534   5.974  -5.157  1.00  0.00    -0.508 OA
ATOM     22  H   UNL     1      35.941   5.778  -6.064  1.00  0.00     0.293 HD
ENDBRANCH  18  21
ENDBRANCH  11  13
ENDBRANCH   2  11
TORSDOF 6
ENDMDL
MODEL 2
REMARK VINA RESULT:    -7.026      1.395      2.022
REMARK INTER + INTRA:          -9.626
REMARK INTER:                  -8.888
REMARK INTRA:                  -0.738
REMARK UNBOUND:                -0.752
REMARK SMILES O=C(C=Cc1ccc(O)cc1)c1ccc(O)cc1O
REMARK SMILES IDX 4 1 3 2 5 3 6 4 7 5 8 6 11 7 10 8 9 9 2 11 1 12 12 13 18 14
REMARK SMILES IDX 13 15 17 16 14 17 15 18 19 19 16 21
REMARK H PARENT 9 10 19 20 16 22
REMARK Flexibility Score: inf
ROOT
ATOM      1  C   UNL     1      40.854   4.812   0.388  1.00  0.00     0.012 C 
ATOM      2  C   UNL     1      39.918   3.906   0.709  1.00  0.00     0.053 C 
ENDROOT
BRANCH   1   3
ATOM      3  C   UNL     1      41.810   5.388   1.365  1.00  0.00    -0.025 A 
ATOM      4  C   UNL     1      42.884   6.156   0.882  1.00  0.00     0.012 A 
ATOM      5  C   UNL     1      43.804   6.728   1.766  1.00  0.00     0.047 A 
ATOM      6  C   UNL     1      43.658   6.551   3.144  1.00  0.00     0.115 A 
ATOM      7  C   UNL     1      41.661   5.227   2.758  1.00  0.00     0.012 A 
ATOM      8  C   UNL     1      42.583   5.801   3.638  1.00  0.00     0.047 A 
BRANCH   6   9
ATOM      9  O   UNL     1      44.583   7.125   4.013  1.00  0.00    -0.508 OA
ATOM     10  H   UNL     1      44.898   8.081   3.896  1.00  0.00     0.293 HD
ENDBRANCH   6   9
ENDBRANCH   1   3
BRANCH   2  11
ATOM     11  C   UNL     1      38.990   3.342  -0.295  1.00  0.00     0.189 C 
ATOM     12  O   UNL     1      39.086   2.132  -0.638  1.00  0.00    -0.289 OA
BRANCH  11  13
ATOM     13  C   UNL     1      37.963   4.198  -0.928  1.00  0.00     0.064 A 
ATOM     14  C   UNL     1      37.873   4.344  -2.335  1.00  0.00     0.130 A 
ATOM     15  C   UNL     1      37.075   4.921  -0.110  1.00  0.00     0.020 A 
ATOM     16  C   UNL     1      36.932   5.223  -2.882  1.00  0.00     0.093 A 
ATOM     17  C   UNL     1      36.131   5.783  -0.671  1.00  0.00     0.047 A 
ATOM     18  C   UNL     1      36.060   5.941  -2.055  1.00  0.00     0.119 A 
BRANCH  14  19
ATOM     19  O   UNL     1      38.677   3.614  -3.213  1.00  0.00    -0.507 OA
ATOM     20  H   UNL     1      38.546   3.615  -4.216  1.00  0.00     0.293 HD
ENDBRANCH  14  19
BRANCH  18  21
ATOM     21  O   UNL     1      35.119   6.812  -2.601  1.00  0.00    -0.508 OA
ATOM     22  H   UNL     1      34.255   6.471  -3.007  1.00  0.00     0.293 HD
ENDBRANCH  18  21
ENDBRANCH  11  13
ENDBRANCH   2  11
TORSDOF 6
ENDMDL
MODEL 3
REMARK VINA RESULT:    -6.975      3.638      5.384
REMARK INTER + INTRA:          -9.561
REMARK INTER:                  -9.020
REMARK INTRA:                  -0.541
REMARK UNBOUND:                -0.752
REMARK SMILES O=C(C=Cc1ccc(O)cc1)c1ccc(O)cc1O
REMARK SMILES IDX 4 1 3 2 5 3 6 4 7 5 8 6 11 7 10 8 9 9 2 11 1 12 12 13 18 14
REMARK SMILES IDX 13 15 17 16 14 17 15 18 19 19 16 21
REMARK H PARENT 9 10 19 20 16 22
REMARK Flexibility Score: inf
ROOT
ATOM      1  C   UNL     1      43.116   4.959   3.421  1.00  0.00     0.012 C 
ATOM      2  C   UNL     1      42.062   4.960   2.590  1.00  0.00     0.053 C 
ENDROOT
BRANCH   1   3
ATOM      3  C   UNL     1      43.442   3.839   4.336  1.00  0.00    -0.025 A 
ATOM      4  C   UNL     1      44.383   2.881   3.918  1.00  0.00     0.012 A 
ATOM      5  C   UNL     1      44.729   1.813   4.751  1.00  0.00     0.047 A 
ATOM      6  C   UNL     1      44.151   1.693   6.017  1.00  0.00     0.115 A 
ATOM      7  C   UNL     1      42.875   3.719   5.621  1.00  0.00     0.012 A 
ATOM      8  C   UNL     1      43.226   2.650   6.451  1.00  0.00     0.047 A 
BRANCH   6   9
ATOM      9  O   UNL     1      44.505   0.623   6.837  1.00  0.00    -0.508 OA
ATOM     10  H   UNL     1      44.120   0.519   7.768  1.00  0.00     0.293 HD
ENDBRANCH   6   9
ENDBRANCH   1   3
BRANCH   2  11
ATOM     11  C   UNL     1      41.776   6.090   1.681  1.00  0.00     0.189 C 
ATOM     12  O   UNL     1      42.495   7.125   1.710  1.00  0.00    -0.289 OA
BRANCH  11  13
ATOM     13  C   UNL     1      40.626   6.028   0.752  1.00  0.00     0.064 A 
ATOM     14  C   UNL     1      40.798   6.012  -0.654  1.00  0.00     0.130 A 
ATOM     15  C   UNL     1      39.321   6.025   1.279  1.00  0.00     0.020 A 
ATOM     16  C   UNL     1      39.677   6.028  -1.491  1.00  0.00     0.093 A 
ATOM     17  C   UNL     1      38.210   6.026   0.432  1.00  0.00     0.047 A 
ATOM     18  C   UNL     1      38.384   6.033  -0.953  1.00  0.00     0.119 A 
BRANCH  14  19
ATOM     19  O   UNL     1      42.060   5.952  -1.250  1.00  0.00    -0.507 OA
ATOM     20  H   UNL     1      42.413   6.665  -1.874  1.00  0.00     0.293 HD
ENDBRANCH  14  19
BRANCH  18  21
ATOM     21  O   UNL     1      37.267   6.042  -1.786  1.00  0.00    -0.508 OA
ATOM     22  H   UNL     1      36.670   6.857  -1.862  1.00  0.00     0.293 HD
ENDBRANCH  18  21
ENDBRANCH  11  13
ENDBRANCH   2  11
TORSDOF 6
ENDMDL
MODEL 4
REMARK VINA RESULT:    -6.970      3.713      7.443
REMARK INTER + INTRA:          -9.555
REMARK INTER:                  -9.032
REMARK INTRA:                  -0.523
REMARK UNBOUND:                -0.752
REMARK SMILES O=C(C=Cc1ccc(O)cc1)c1ccc(O)cc1O
REMARK SMILES IDX 4 1 3 2 5 3 6 4 7 5 8 6 11 7 10 8 9 9 2 11 1 12 12 13 18 14
REMARK SMILES IDX 13 15 17 16 14 17 15 18 19 19 16 21
REMARK H PARENT 9 10 19 20 16 22
REMARK Flexibility Score: inf
ROOT
ATOM      1  C   UNL     1      37.056   0.936  -2.913  1.00  0.00     0.012 C 
ATOM      2  C   UNL     1      38.308   1.349  -2.668  1.00  0.00     0.053 C 
ENDROOT
BRANCH   1   3
ATOM      3  C   UNL     1      36.730  -0.313  -3.644  1.00  0.00    -0.025 A 
ATOM      4  C   UNL     1      35.576  -0.342  -4.447  1.00  0.00     0.012 A 
ATOM      5  C   UNL     1      35.235  -1.493  -5.162  1.00  0.00     0.047 A 
ATOM      6  C   UNL     1      36.047  -2.628  -5.096  1.00  0.00     0.115 A 
ATOM      7  C   UNL     1      37.552  -1.458  -3.595  1.00  0.00     0.012 A 
ATOM      8  C   UNL     1      37.207  -2.607  -4.313  1.00  0.00     0.047 A 
BRANCH   6   9
ATOM      9  O   UNL     1      35.694  -3.769  -5.813  1.00  0.00    -0.508 OA
ATOM     10  H   UNL     1      36.181  -4.648  -5.684  1.00  0.00     0.293 HD
ENDBRANCH   6   9
ENDBRANCH   1   3
BRANCH   2  11
ATOM     11  C   UNL     1      38.596   2.593  -1.923  1.00  0.00     0.189 C 
ATOM     12  O   UNL     1      39.571   2.643  -1.125  1.00  0.00    -0.289 OA
BRANCH  11  13
ATOM     13  C   UNL     1      37.724   3.778  -2.081  1.00  0.00     0.064 A 
ATOM     14  C   UNL     1      37.292   4.544  -0.970  1.00  0.00     0.130 A 
ATOM     15  C   UNL     1      37.278   4.132  -3.368  1.00  0.00     0.020 A 
ATOM     16  C   UNL     1      36.408   5.612  -1.165  1.00  0.00     0.093 A 
ATOM     17  C   UNL     1      36.408   5.209  -3.550  1.00  0.00     0.047 A 
ATOM     18  C   UNL     1      35.967   5.947  -2.451  1.00  0.00     0.119 A 
BRANCH  14  19
ATOM     19  O   UNL     1      37.740   4.293   0.329  1.00  0.00    -0.507 OA
ATOM     20  H   UNL     1      37.797   5.006   1.044  1.00  0.00     0.293 HD
ENDBRANCH  14  19
BRANCH  18  21
ATOM     21  O   UNL     1      35.092   7.014  -2.646  1.00  0.00    -0.508 OA
ATOM     22  H   UNL     1      35.429   7.934  -2.907  1.00  0.00     0.293 HD
ENDBRANCH  18  21
ENDBRANCH  11  13
ENDBRANCH   2  11
TORSDOF 6
ENDMDL
MODEL 5
REMARK VINA RESULT:    -6.898      1.911      3.000
REMARK INTER + INTRA:          -9.465
REMARK INTER:                  -8.816
REMARK INTRA:                  -0.649
REMARK UNBOUND:                -0.752
REMARK SMILES O=C(C=Cc1ccc(O)cc1)c1ccc(O)cc1O
REMARK SMILES IDX 4 1 3 2 5 3 6 4 7 5 8 6 11 7 10 8 9 9 2 11 1 12 12 13 18 14
REMARK SMILES IDX 13 15 17 16 14 17 15 18 19 19 16 21
REMARK H PARENT 9 10 19 20 16 22
REMARK Flexibility Score: inf
ROOT
ATOM      1  C   UNL     1      38.357   5.697  -0.743  1.00  0.00     0.012 C 
ATOM      2  C   UNL     1      37.972   5.416  -1.997  1.00  0.00     0.053 C 
ENDROOT
BRANCH   1   3
ATOM      3  C   UNL     1      39.763   5.968  -0.356  1.00  0.00    -0.025 A 
ATOM      4  C   UNL     1      40.063   6.153   1.005  1.00  0.00     0.012 A 
ATOM      5  C   UNL     1      41.376   6.400   1.418  1.00  0.00     0.047 A 
ATOM      6  C   UNL     1      42.409   6.455   0.479  1.00  0.00     0.115 A 
ATOM      7  C   UNL     1      40.814   6.010  -1.295  1.00  0.00     0.012 A 
ATOM      8  C   UNL     1      42.126   6.256  -0.878  1.00  0.00     0.047 A 
BRANCH   6   9
ATOM      9  O   UNL     1      43.712   6.704   0.904  1.00  0.00    -0.508 OA
ATOM     10  H   UNL     1      43.996   6.545   1.863  1.00  0.00     0.293 HD
ENDBRANCH   6   9
ENDBRANCH   1   3
BRANCH   2  11
ATOM     11  C   UNL     1      36.558   5.165  -2.349  1.00  0.00     0.189 C 
ATOM     12  O   UNL     1      35.686   6.052  -2.141  1.00  0.00    -0.289 OA
BRANCH  11  13
ATOM     13  C   UNL     1      36.149   3.861  -2.917  1.00  0.00     0.064 A 
ATOM     14  C   UNL     1      35.039   3.739  -3.790  1.00  0.00     0.130 A 
ATOM     15  C   UNL     1      36.858   2.703  -2.550  1.00  0.00     0.020 A 
ATOM     16  C   UNL     1      34.648   2.474  -4.242  1.00  0.00     0.093 A 
ATOM     17  C   UNL     1      36.465   1.448  -3.021  1.00  0.00     0.047 A 
ATOM     18  C   UNL     1      35.358   1.329  -3.862  1.00  0.00     0.119 A 
BRANCH  14  19
ATOM     19  O   UNL     1      34.325   4.849  -4.248  1.00  0.00    -0.507 OA
ATOM     20  H   UNL     1      33.564   4.784  -4.911  1.00  0.00     0.293 HD
ENDBRANCH  14  19
BRANCH  18  21
ATOM     21  O   UNL     1      34.973   0.070  -4.318  1.00  0.00    -0.508 OA
ATOM     22  H   UNL     1      35.232  -0.775  -3.822  1.00  0.00     0.293 HD
ENDBRANCH  18  21
ENDBRANCH  11  13
ENDBRANCH   2  11
TORSDOF 6
ENDMDL
MODEL 6
REMARK VINA RESULT:    -6.890      2.644      3.601
REMARK INTER + INTRA:          -9.454
REMARK INTER:                  -8.714
REMARK INTRA:                  -0.740
REMARK UNBOUND:                -0.752
REMARK SMILES O=C(C=Cc1ccc(O)cc1)c1ccc(O)cc1O
REMARK SMILES IDX 4 1 3 2 5 3 6 4 7 5 8 6 11 7 10 8 9 9 2 11 1 12 12 13 18 14
REMARK SMILES IDX 13 15 17 16 14 17 15 18 19 19 16 21
REMARK H PARENT 9 10 19 20 16 22
REMARK Flexibility Score: inf
ROOT
ATOM      1  C   UNL     1      41.318   5.342   0.782  1.00  0.00     0.012 C 
ATOM      2  C   UNL     1      40.039   5.694   0.580  1.00  0.00     0.053 C 
ENDROOT
BRANCH   1   3
ATOM      3  C   UNL     1      42.102   5.744   1.975  1.00  0.00    -0.025 A 
ATOM      4  C   UNL     1      41.772   5.180   3.220  1.00  0.00     0.012 A 
ATOM      5  C   UNL     1      42.490   5.520   4.369  1.00  0.00     0.047 A 
ATOM      6  C   UNL     1      43.556   6.420   4.291  1.00  0.00     0.115 A 
ATOM      7  C   UNL     1      43.189   6.640   1.903  1.00  0.00     0.012 A 
ATOM      8  C   UNL     1      43.906   6.977   3.055  1.00  0.00     0.047 A 
BRANCH   6   9
ATOM      9  O   UNL     1      44.263   6.752   5.445  1.00  0.00    -0.508 OA
ATOM     10  H   UNL     1      45.130   7.274   5.404  1.00  0.00     0.293 HD
ENDBRANCH   6   9
ENDBRANCH   1   3
BRANCH   2  11
ATOM     11  C   UNL     1      39.283   5.262  -0.616  1.00  0.00     0.189 C 
ATOM     12  O   UNL     1      38.813   6.119  -1.412  1.00  0.00    -0.289 OA
BRANCH  11  13
ATOM     13  C   UNL     1      39.044   3.824  -0.870  1.00  0.00     0.064 A 
ATOM     14  C   UNL     1      39.334   3.227  -2.122  1.00  0.00     0.130 A 
ATOM     15  C   UNL     1      38.477   3.035   0.147  1.00  0.00     0.020 A 
ATOM     16  C   UNL     1      39.022   1.880  -2.336  1.00  0.00     0.093 A 
ATOM     17  C   UNL     1      38.184   1.688  -0.076  1.00  0.00     0.047 A 
ATOM     18  C   UNL     1      38.449   1.109  -1.318  1.00  0.00     0.119 A 
BRANCH  14  19
ATOM     19  O   UNL     1      39.954   3.929  -3.158  1.00  0.00    -0.507 OA
ATOM     20  H   UNL     1      40.871   4.348  -3.073  1.00  0.00     0.293 HD
ENDBRANCH  14  19
BRANCH  18  21
ATOM     21  O   UNL     1      38.145  -0.235  -1.529  1.00  0.00    -0.508 OA
ATOM     22  H   UNL     1      38.869  -0.941  -1.574  1.00  0.00     0.293 HD
ENDBRANCH  18  21
ENDBRANCH  11  13
ENDBRANCH   2  11
TORSDOF 6
ENDMDL
MODEL 7
REMARK VINA RESULT:    -6.843      2.401      3.193
REMARK INTER + INTRA:          -9.395
REMARK INTER:                  -8.797
REMARK INTRA:                  -0.598
REMARK UNBOUND:                -0.752
REMARK SMILES O=C(C=Cc1ccc(O)cc1)c1ccc(O)cc1O
REMARK SMILES IDX 4 1 3 2 5 3 6 4 7 5 8 6 11 7 10 8 9 9 2 11 1 12 12 13 18 14
REMARK SMILES IDX 13 15 17 16 14 17 15 18 19 19 16 21
REMARK H PARENT 9 10 19 20 16 22
REMARK Flexibility Score: inf
ROOT
ATOM      1  C   UNL     1      41.703   6.076   1.238  1.00  0.00     0.012 C 
ATOM      2  C   UNL     1      40.977   5.261   0.459  1.00  0.00     0.053 C 
ENDROOT
BRANCH   1   3
ATOM      3  C   UNL     1      42.235   5.685   2.567  1.00  0.00    -0.025 A 
ATOM      4  C   UNL     1      42.137   4.340   2.962  1.00  0.00     0.012 A 
ATOM      5  C   UNL     1      42.634   3.923   4.200  1.00  0.00     0.047 A 
ATOM      6  C   UNL     1      43.246   4.842   5.056  1.00  0.00     0.115 A 
ATOM      7  C   UNL     1      42.867   6.603   3.430  1.00  0.00     0.012 A 
ATOM      8  C   UNL     1      43.364   6.182   4.668  1.00  0.00     0.047 A 
BRANCH   6   9
ATOM      9  O   UNL     1      43.735   4.413   6.289  1.00  0.00    -0.508 OA
ATOM     10  H   UNL     1      43.883   5.060   7.054  1.00  0.00     0.293 HD
ENDBRANCH   6   9
ENDBRANCH   1   3
BRANCH   2  11
ATOM     11  C   UNL     1      40.475   5.680  -0.868  1.00  0.00     0.189 C 
ATOM     12  O   UNL     1      41.212   6.348  -1.643  1.00  0.00    -0.289 OA
BRANCH  11  13
ATOM     13  C   UNL     1      39.095   5.347  -1.284  1.00  0.00     0.064 A 
ATOM     14  C   UNL     1      38.829   4.492  -2.383  1.00  0.00     0.130 A 
ATOM     15  C   UNL     1      38.014   5.926  -0.594  1.00  0.00     0.020 A 
ATOM     16  C   UNL     1      37.507   4.267  -2.783  1.00  0.00     0.093 A 
ATOM     17  C   UNL     1      36.699   5.680  -0.995  1.00  0.00     0.047 A 
ATOM     18  C   UNL     1      36.442   4.857  -2.092  1.00  0.00     0.119 A 
BRANCH  14  19
ATOM     19  O   UNL     1      39.846   3.833  -3.077  1.00  0.00    -0.507 OA
ATOM     20  H   UNL     1      39.748   3.511  -4.031  1.00  0.00     0.293 HD
ENDBRANCH  14  19
BRANCH  18  21
ATOM     21  O   UNL     1      35.125   4.627  -2.486  1.00  0.00    -0.508 OA
ATOM     22  H   UNL     1      34.821   4.789  -3.438  1.00  0.00     0.293 HD
ENDBRANCH  18  21
ENDBRANCH  11  13
ENDBRANCH   2  11
TORSDOF 6
ENDMDL
MODEL 8
REMARK VINA RESULT:    -6.784      1.587      2.164
REMARK INTER + INTRA:          -9.320
REMARK INTER:                  -8.684
REMARK INTRA:                  -0.637
REMARK UNBOUND:                -0.752
REMARK SMILES O=C(C=Cc1ccc(O)cc1)c1ccc(O)cc1O
REMARK SMILES IDX 4 1 3 2 5 3 6 4 7 5 8 6 11 7 10 8 9 9 2 11 1 12 12 13 18 14
REMARK SMILES IDX 13 15 17 16 14 17 15 18 19 19 16 21
REMARK H PARENT 9 10 19 20 16 22
REMARK Flexibility Score: inf
ROOT
ATOM      1  C   UNL     1      39.128   5.335   0.632  1.00  0.00     0.012 C 
ATOM      2  C   UNL     1      38.394   6.071  -0.216  1.00  0.00     0.053 C 
ENDROOT
BRANCH   1   3
ATOM      3  C   UNL     1      40.498   5.701   1.066  1.00  0.00    -0.025 A 
ATOM      4  C   UNL     1      40.943   5.270   2.328  1.00  0.00     0.012 A 
ATOM      5  C   UNL     1      42.230   5.582   2.774  1.00  0.00     0.047 A 
ATOM      6  C   UNL     1      43.097   6.317   1.961  1.00  0.00     0.115 A 
ATOM      7  C   UNL     1      41.384   6.429   0.246  1.00  0.00     0.012 A 
ATOM      8  C   UNL     1      42.672   6.738   0.695  1.00  0.00     0.047 A 
BRANCH   6   9
ATOM      9  O   UNL     1      44.377   6.622   2.419  1.00  0.00    -0.508 OA
ATOM     10  H   UNL     1      44.972   7.280   1.930  1.00  0.00     0.293 HD
ENDBRANCH   6   9
ENDBRANCH   1   3
BRANCH   2  11
ATOM     11  C   UNL     1      37.024   5.683  -0.615  1.00  0.00     0.189 C 
ATOM     12  O   UNL     1      36.096   5.669   0.238  1.00  0.00    -0.289 OA
BRANCH  11  13
ATOM     13  C   UNL     1      36.739   5.277  -2.008  1.00  0.00     0.064 A 
ATOM     14  C   UNL     1      35.794   5.965  -2.810  1.00  0.00     0.130 A 
ATOM     15  C   UNL     1      37.394   4.151  -2.541  1.00  0.00     0.020 A 
ATOM     16  C   UNL     1      35.505   5.497  -4.097  1.00  0.00     0.093 A 
ATOM     17  C   UNL     1      37.107   3.705  -3.832  1.00  0.00     0.047 A 
ATOM     18  C   UNL     1      36.159   4.371  -4.611  1.00  0.00     0.119 A 
BRANCH  14  19
ATOM     19  O   UNL     1      35.150   7.125  -2.374  1.00  0.00    -0.507 OA
ATOM     20  H   UNL     1      35.332   8.040  -2.765  1.00  0.00     0.293 HD
ENDBRANCH  14  19
BRANCH  18  21
ATOM     21  O   UNL     1      35.877   3.909  -5.895  1.00  0.00    -0.508 OA
ATOM     22  H   UNL     1      35.939   4.518  -6.702  1.00  0.00     0.293 HD
ENDBRANCH  18  21
ENDBRANCH  11  13
ENDBRANCH   2  11
TORSDOF 6
ENDMDL
MODEL 9
REMARK VINA RESULT:    -6.744      3.353      8.829
REMARK INTER + INTRA:          -9.270
REMARK INTER:                  -8.609
REMARK INTRA:                  -0.660
REMARK UNBOUND:                -0.752
REMARK SMILES O=C(C=Cc1ccc(O)cc1)c1ccc(O)cc1O
REMARK SMILES IDX 4 1 3 2 5 3 6 4 7 5 8 6 11 7 10 8 9 9 2 11 1 12 12 13 18 14
REMARK SMILES IDX 13 15 17 16 14 17 15 18 19 19 16 21
REMARK H PARENT 9 10 19 20 16 22
REMARK Flexibility Score: inf
ROOT
ATOM      1  C   UNL     1      42.196   5.884   1.343  1.00  0.00     0.012 C 
ATOM      2  C   UNL     1      42.257   5.971   2.680  1.00  0.00     0.053 C 
ENDROOT
BRANCH   1   3
ATOM      3  C   UNL     1      40.939   6.017   0.566  1.00  0.00    -0.025 A 
ATOM      4  C   UNL     1      40.995   5.884  -0.832  1.00  0.00     0.012 A 
ATOM      5  C   UNL     1      39.835   5.991  -1.604  1.00  0.00     0.047 A 
ATOM      6  C   UNL     1      38.601   6.221  -0.991  1.00  0.00     0.115 A 
ATOM      7  C   UNL     1      39.688   6.234   1.179  1.00  0.00     0.012 A 
ATOM      8  C   UNL     1      38.530   6.340   0.403  1.00  0.00     0.047 A 
BRANCH   6   9
ATOM      9  O   UNL     1      37.453   6.328  -1.773  1.00  0.00    -0.508 OA
ATOM     10  H   UNL     1      37.334   5.781  -2.617  1.00  0.00     0.293 HD
ENDBRANCH   6   9
ENDBRANCH   1   3
BRANCH   2  11
ATOM     11  C   UNL     1      43.531   5.847   3.421  1.00  0.00     0.189 C 
ATOM     12  O   UNL     1      44.390   6.769   3.363  1.00  0.00    -0.289 OA
BRANCH  11  13
ATOM     13  C   UNL     1      43.822   4.630   4.209  1.00  0.00     0.064 A 
ATOM     14  C   UNL     1      44.455   4.690   5.475  1.00  0.00     0.130 A 
ATOM     15  C   UNL     1      43.495   3.372   3.670  1.00  0.00     0.020 A 
ATOM     16  C   UNL     1      44.776   3.506   6.148  1.00  0.00     0.093 A 
ATOM     17  C   UNL     1      43.807   2.198   4.360  1.00  0.00     0.047 A 
ATOM     18  C   UNL     1      44.452   2.261   5.596  1.00  0.00     0.119 A 
BRANCH  14  19
ATOM     19  O   UNL     1      44.754   5.902   6.102  1.00  0.00    -0.507 OA
ATOM     20  H   UNL     1      45.690   6.167   6.381  1.00  0.00     0.293 HD
ENDBRANCH  14  19
BRANCH  18  21
ATOM     21  O   UNL     1      44.765   1.082   6.269  1.00  0.00    -0.508 OA
ATOM     22  H   UNL     1      44.498   0.176   5.903  1.00  0.00     0.293 HD
ENDBRANCH  18  21
ENDBRANCH  11  13
ENDBRANCH   2  11
TORSDOF 6
ENDMDL
