MODEL 1
REMARK VINA RESULT:    -3.002      0.000      0.000
REMARK INTER + INTRA:          -4.075
REMARK INTER:                  -3.879
REMARK INTRA:                  -0.196
REMARK UNBOUND:                -0.196
REMARK SMILES CCCCCCC(=O)[O-]
REMARK SMILES IDX 5 1 6 2 7 3 8 4 9 5 4 6 3 7 2 8 1 9
REMARK H PARENT
REMARK Flexibility Score: inf
ROOT
ATOM      1  C   UNL     1      -3.358  -3.847   6.976  1.00  0.00     0.006 C 
ENDROOT
BRANCH   1   2
ATOM      2  C   UNL     1      -3.526  -4.861   5.842  1.00  0.00     0.053 C 
BRANCH   2   3
ATOM      3  C   UNL     1      -3.893  -6.203   6.389  1.00  0.00     0.041 C 
ATOM      4  O   UNL     1      -4.561  -6.293   7.452  1.00  0.00    -0.550 OA
ATOM      5  O   UNL     1      -3.455  -7.358   5.751  1.00  0.00    -0.550 OA
ENDBRANCH   2   3
ENDBRANCH   1   2
BRANCH   1   6
ATOM      6  C   UNL     1      -1.895  -3.406   7.110  1.00  0.00     0.000 C 
BRANCH   6   7
ATOM      7  C   UNL     1      -1.682  -2.013   6.506  1.00  0.00    -0.000 C 
BRANCH   7   8
ATOM      8  C   UNL     1      -0.431  -1.983   5.620  1.00  0.00    -0.003 C 
ATOM      9  C   UNL     1      -0.793  -1.706   4.164  1.00  0.00     0.004 C 
ENDBRANCH   7   8
ENDBRANCH   6   7
ENDBRANCH   1   6
TORSDOF 5
ENDMDL
MODEL 2
REMARK VINA RESULT:    -2.998      3.132      4.919
REMARK INTER + INTRA:          -4.070
REMARK INTER:                  -3.873
REMARK INTRA:                  -0.197
REMARK UNBOUND:                -0.196
REMARK SMILES CCCCCCC(=O)[O-]
REMARK SMILES IDX 5 1 6 2 7 3 8 4 9 5 4 6 3 7 2 8 1 9
REMARK H PARENT
REMARK Flexibility Score: inf
ROOT
ATOM      1  C   UNL     1      -2.005  -3.504   7.139  1.00  0.00     0.006 C 
ENDROOT
BRANCH   1   2
ATOM      2  C   UNL     1      -1.985  -1.991   6.907  1.00  0.00     0.053 C 
BRANCH   2   3
ATOM      3  C   UNL     1      -1.286  -1.667   5.625  1.00  0.00     0.041 C 
ATOM      4  O   UNL     1      -0.084  -2.000   5.456  1.00  0.00    -0.550 OA
ATOM      5  O   UNL     1      -1.949  -0.954   4.634  1.00  0.00    -0.550 OA
ENDBRANCH   2   3
ENDBRANCH   1   2
BRANCH   1   6
ATOM      6  C   UNL     1      -3.074  -4.181   6.273  1.00  0.00     0.000 C 
BRANCH   6   7
ATOM      7  C   UNL     1      -4.249  -4.669   7.129  1.00  0.00    -0.000 C 
BRANCH   7   8
ATOM      8  C   UNL     1      -4.364  -6.196   7.086  1.00  0.00    -0.003 C 
ATOM      9  C   UNL     1      -3.759  -6.760   5.803  1.00  0.00     0.004 C 
ENDBRANCH   7   8
ENDBRANCH   6   7
ENDBRANCH   1   6
TORSDOF 5
ENDMDL
MODEL 3
REMARK VINA RESULT:    -2.988      3.239      4.927
REMARK INTER + INTRA:          -4.058
REMARK INTER:                  -3.897
REMARK INTRA:                  -0.160
REMARK UNBOUND:                -0.196
REMARK SMILES CCCCCCC(=O)[O-]
REMARK SMILES IDX 5 1 6 2 7 3 8 4 9 5 4 6 3 7 2 8 1 9
REMARK H PARENT
REMARK Flexibility Score: inf
ROOT
ATOM      1  C   UNL     1      -1.715  -2.007   6.575  1.00  0.00     0.006 C 
ENDROOT
BRANCH   1   2
ATOM      2  C   UNL     1      -0.487  -2.001   5.661  1.00  0.00     0.053 C 
BRANCH   2   3
ATOM      3  C   UNL     1      -0.874  -1.632   4.265  1.00  0.00     0.041 C 
ATOM      4  O   UNL     1      -1.992  -1.103   4.036  1.00  0.00    -0.550 OA
ATOM      5  O   UNL     1      -0.018  -1.919   3.208  1.00  0.00    -0.550 OA
ENDBRANCH   2   3
ENDBRANCH   1   2
BRANCH   1   6
ATOM      6  C   UNL     1      -2.011  -3.420   7.091  1.00  0.00     0.000 C 
BRANCH   6   7
ATOM      7  C   UNL     1      -3.050  -4.123   6.210  1.00  0.00    -0.000 C 
BRANCH   7   8
ATOM      8  C   UNL     1      -3.841  -5.161   7.014  1.00  0.00    -0.003 C 
ATOM      9  C   UNL     1      -3.864  -6.511   6.302  1.00  0.00     0.004 C 
ENDBRANCH   7   8
ENDBRANCH   6   7
ENDBRANCH   1   6
TORSDOF 5
ENDMDL
MODEL 4
REMARK VINA RESULT:    -2.918      3.059      4.818
REMARK INTER + INTRA:          -3.966
REMARK INTER:                  -3.790
REMARK INTRA:                  -0.177
REMARK UNBOUND:                -0.196
REMARK SMILES CCCCCCC(=O)[O-]
REMARK SMILES IDX 5 1 6 2 7 3 8 4 9 5 4 6 3 7 2 8 1 9
REMARK H PARENT
REMARK Flexibility Score: inf
ROOT
ATOM      1  C   UNL     1      -2.860  -3.955   6.202  1.00  0.00     0.006 C 
ENDROOT
BRANCH   1   2
ATOM      2  C   UNL     1      -1.826  -3.200   7.042  1.00  0.00     0.053 C 
BRANCH   2   3
ATOM      3  C   UNL     1      -1.340  -1.990   6.310  1.00  0.00     0.041 C 
ATOM      4  O   UNL     1      -1.969  -0.903   6.392  1.00  0.00    -0.550 OA
ATOM      5  O   UNL     1      -0.215  -2.075   5.497  1.00  0.00    -0.550 OA
ENDBRANCH   2   3
ENDBRANCH   1   2
BRANCH   1   6
ATOM      6  C   UNL     1      -3.889  -4.658   7.096  1.00  0.00     0.000 C 
BRANCH   6   7
ATOM      7  C   UNL     1      -4.036  -6.134   6.709  1.00  0.00    -0.000 C 
BRANCH   7   8
ATOM      8  C   UNL     1      -3.854  -6.329   5.200  1.00  0.00    -0.003 C 
ATOM      9  C   UNL     1      -3.250  -7.696   4.889  1.00  0.00     0.004 C 
ENDBRANCH   7   8
ENDBRANCH   6   7
ENDBRANCH   1   6
TORSDOF 5
ENDMDL
MODEL 5
REMARK VINA RESULT:    -2.889      3.866      4.766
REMARK INTER + INTRA:          -3.930
REMARK INTER:                  -3.699
REMARK INTRA:                  -0.231
REMARK UNBOUND:                -0.196
REMARK SMILES CCCCCCC(=O)[O-]
REMARK SMILES IDX 5 1 6 2 7 3 8 4 9 5 4 6 3 7 2 8 1 9
REMARK H PARENT
REMARK Flexibility Score: inf
ROOT
ATOM      1  C   UNL     1      -4.083  -1.493  10.795  1.00  0.00     0.006 C 
ENDROOT
BRANCH   1   2
ATOM      2  C   UNL     1      -4.517  -2.714  11.609  1.00  0.00     0.053 C 
BRANCH   2   3
ATOM      3  C   UNL     1      -5.762  -3.312  11.035  1.00  0.00     0.041 C 
ATOM      4  O   UNL     1      -6.879  -3.084  11.567  1.00  0.00    -0.550 OA
ATOM      5  O   UNL     1      -5.682  -4.163   9.938  1.00  0.00    -0.550 OA
ENDBRANCH   2   3
ENDBRANCH   1   2
BRANCH   1   6
ATOM      6  C   UNL     1      -2.642  -1.649  10.293  1.00  0.00     0.000 C 
BRANCH   6   7
ATOM      7  C   UNL     1      -2.559  -1.427   8.779  1.00  0.00    -0.000 C 
BRANCH   7   8
ATOM      8  C   UNL     1      -3.062  -2.657   8.014  1.00  0.00    -0.003 C 
ATOM      9  C   UNL     1      -1.945  -3.290   7.189  1.00  0.00     0.004 C 
ENDBRANCH   7   8
ENDBRANCH   6   7
ENDBRANCH   1   6
TORSDOF 5
ENDMDL
MODEL 6
REMARK VINA RESULT:    -2.884      2.093      2.403
REMARK INTER + INTRA:          -3.923
REMARK INTER:                  -3.713
REMARK INTRA:                  -0.209
REMARK UNBOUND:                -0.196
REMARK SMILES CCCCCCC(=O)[O-]
REMARK SMILES IDX 5 1 6 2 7 3 8 4 9 5 4 6 3 7 2 8 1 9
REMARK H PARENT
REMARK Flexibility Score: inf
ROOT
ATOM      1  C   UNL     1      -3.108  -4.160   6.268  1.00  0.00     0.006 C 
ENDROOT
BRANCH   1   2
ATOM      2  C   UNL     1      -4.084  -4.825   7.242  1.00  0.00     0.053 C 
BRANCH   2   3
ATOM      3  C   UNL     1      -5.042  -3.818   7.794  1.00  0.00     0.041 C 
ATOM      4  O   UNL     1      -5.453  -2.872   7.072  1.00  0.00    -0.550 OA
ATOM      5  O   UNL     1      -5.443  -3.896   9.123  1.00  0.00    -0.550 OA
ENDBRANCH   2   3
ENDBRANCH   1   2
BRANCH   1   6
ATOM      6  C   UNL     1      -1.994  -3.423   7.021  1.00  0.00     0.000 C 
BRANCH   6   7
ATOM      7  C   UNL     1      -1.731  -2.045   6.404  1.00  0.00    -0.000 C 
BRANCH   7   8
ATOM      8  C   UNL     1      -0.394  -2.024   5.655  1.00  0.00    -0.003 C 
ATOM      9  C   UNL     1      -0.592  -1.679   4.181  1.00  0.00     0.004 C 
ENDBRANCH   7   8
ENDBRANCH   6   7
ENDBRANCH   1   6
TORSDOF 5
ENDMDL
MODEL 7
REMARK VINA RESULT:    -2.848      3.032      4.991
REMARK INTER + INTRA:          -3.877
REMARK INTER:                  -3.660
REMARK INTRA:                  -0.217
REMARK UNBOUND:                -0.196
REMARK SMILES CCCCCCC(=O)[O-]
REMARK SMILES IDX 5 1 6 2 7 3 8 4 9 5 4 6 3 7 2 8 1 9
REMARK H PARENT
REMARK Flexibility Score: inf
ROOT
ATOM      1  C   UNL     1      -2.019  -3.519   7.120  1.00  0.00     0.006 C 
ENDROOT
BRANCH   1   2
ATOM      2  C   UNL     1      -1.828  -2.076   6.646  1.00  0.00     0.053 C 
BRANCH   2   3
ATOM      3  C   UNL     1      -2.282  -1.115   7.698  1.00  0.00     0.041 C 
ATOM      4  O   UNL     1      -3.334  -1.340   8.352  1.00  0.00    -0.550 OA
ATOM      5  O   UNL     1      -1.569   0.056   7.924  1.00  0.00    -0.550 OA
ENDBRANCH   2   3
ENDBRANCH   1   2
BRANCH   1   6
ATOM      6  C   UNL     1      -3.082  -4.239   6.282  1.00  0.00     0.000 C 
BRANCH   6   7
ATOM      7  C   UNL     1      -4.244  -4.718   7.159  1.00  0.00    -0.000 C 
BRANCH   7   8
ATOM      8  C   UNL     1      -4.391  -6.242   7.093  1.00  0.00    -0.003 C 
ATOM      9  C   UNL     1      -3.772  -6.802   5.815  1.00  0.00     0.004 C 
ENDBRANCH   7   8
ENDBRANCH   6   7
ENDBRANCH   1   6
TORSDOF 5
ENDMDL
MODEL 8
REMARK VINA RESULT:    -2.837      5.629      7.129
REMARK INTER + INTRA:          -3.862
REMARK INTER:                  -3.693
REMARK INTRA:                  -0.169
REMARK UNBOUND:                -0.196
REMARK SMILES CCCCCCC(=O)[O-]
REMARK SMILES IDX 5 1 6 2 7 3 8 4 9 5 4 6 3 7 2 8 1 9
REMARK H PARENT
REMARK Flexibility Score: inf
ROOT
ATOM      1  C   UNL     1      -3.611  -1.467  11.682  1.00  0.00     0.006 C 
ENDROOT
BRANCH   1   2
ATOM      2  C   UNL     1      -2.694  -1.565  10.459  1.00  0.00     0.053 C 
BRANCH   2   3
ATOM      3  C   UNL     1      -1.937  -0.289  10.268  1.00  0.00     0.041 C 
ATOM      4  O   UNL     1      -1.608   0.407  11.263  1.00  0.00    -0.550 OA
ATOM      5  O   UNL     1      -1.637   0.156   8.986  1.00  0.00    -0.550 OA
ENDBRANCH   2   3
ENDBRANCH   1   2
BRANCH   1   6
ATOM      6  C   UNL     1      -4.702  -2.544  11.640  1.00  0.00     0.000 C 
BRANCH   6   7
ATOM      7  C   UNL     1      -5.104  -2.865  10.196  1.00  0.00    -0.000 C 
BRANCH   7   8
ATOM      8  C   UNL     1      -6.037  -4.080  10.142  1.00  0.00    -0.003 C 
ATOM      9  C   UNL     1      -7.311  -3.834  10.947  1.00  0.00     0.004 C 
ENDBRANCH   7   8
ENDBRANCH   6   7
ENDBRANCH   1   6
TORSDOF 5
ENDMDL
MODEL 9
REMARK VINA RESULT:    -2.792      3.368      4.411
REMARK INTER + INTRA:          -3.804
REMARK INTER:                  -3.628
REMARK INTRA:                  -0.176
REMARK UNBOUND:                -0.196
REMARK SMILES CCCCCCC(=O)[O-]
REMARK SMILES IDX 5 1 6 2 7 3 8 4 9 5 4 6 3 7 2 8 1 9
REMARK H PARENT
REMARK Flexibility Score: inf
ROOT
ATOM      1  C   UNL     1      -4.950  -3.640   8.525  1.00  0.00     0.006 C 
ENDROOT
BRANCH   1   2
ATOM      2  C   UNL     1      -5.797  -4.221   9.661  1.00  0.00     0.053 C 
BRANCH   2   3
ATOM      3  C   UNL     1      -5.744  -3.332  10.862  1.00  0.00     0.041 C 
ATOM      4  O   UNL     1      -6.788  -3.096  11.523  1.00  0.00    -0.550 OA
ATOM      5  O   UNL     1      -4.547  -2.724  11.224  1.00  0.00    -0.550 OA
ENDBRANCH   2   3
ENDBRANCH   1   2
BRANCH   1   6
ATOM      6  C   UNL     1      -4.639  -4.707   7.469  1.00  0.00     0.000 C 
BRANCH   6   7
ATOM      7  C   UNL     1      -3.284  -4.444   6.802  1.00  0.00    -0.000 C 
BRANCH   7   8
ATOM      8  C   UNL     1      -2.608  -3.205   7.399  1.00  0.00    -0.003 C 
ATOM      9  C   UNL     1      -1.582  -2.616   6.435  1.00  0.00     0.004 C 
ENDBRANCH   7   8
ENDBRANCH   6   7
ENDBRANCH   1   6
TORSDOF 5
ENDMDL
