MODEL 1
REMARK VINA RESULT:    -4.555      0.000      0.000
REMARK INTER + INTRA:         -13.606
REMARK INTER:                 -10.412
REMARK INTRA:                  -3.193
REMARK UNBOUND:                -3.193
REMARK SMILES CCCCCCCCCCCCCCCCCCCCCCCC(=O)[O-]
REMARK SMILES IDX 13 1 14 2 15 3 16 4 17 5 18 6 19 7 20 8 21 9 22 10 23 11
REMARK SMILES IDX 24 12 25 13 26 14 12 15 11 16 10 17 9 18 8 19 7 20 6 21 5 22
REMARK SMILES IDX 4 23 3 24 2 25 1 26
REMARK H PARENT
REMARK Flexibility Score: inf
ROOT
ATOM      1  C   UNL     1     -10.746   0.358 -35.901  1.00  0.00     0.000 C 
ENDROOT
BRANCH   1   2
ATOM      2  C   UNL     1     -10.166   1.714 -35.461  1.00  0.00     0.000 C 
BRANCH   2   3
ATOM      3  C   UNL     1     -10.571   2.871 -36.388  1.00  0.00     0.000 C 
BRANCH   3   4
ATOM      4  C   UNL     1      -9.531   3.076 -37.500  1.00  0.00     0.000 C 
BRANCH   4   5
ATOM      5  C   UNL     1      -9.925   2.392 -38.818  1.00  0.00     0.000 C 
BRANCH   5   6
ATOM      6  C   UNL     1     -10.271   3.396 -39.929  1.00  0.00     0.000 C 
BRANCH   6   7
ATOM      7  C   UNL     1     -11.784   3.491 -40.194  1.00  0.00     0.000 C 
BRANCH   7   8
ATOM      8  C   UNL     1     -12.182   3.175 -41.651  1.00  0.00     0.000 C 
BRANCH   8   9
ATOM      9  C   UNL     1     -12.818   4.387 -42.357  1.00  0.00     0.000 C 
BRANCH   9  10
ATOM     10  C   UNL     1     -13.718   5.207 -41.418  1.00  0.00     0.006 C 
BRANCH  10  11
ATOM     11  C   UNL     1     -15.188   5.201 -41.860  1.00  0.00     0.053 C 
BRANCH  11  12
ATOM     12  C   UNL     1     -16.089   4.874 -40.710  1.00  0.00     0.041 C 
ATOM     13  O   UNL     1     -16.709   5.790 -40.108  1.00  0.00    -0.550 OA
ATOM     14  O   UNL     1     -16.250   3.554 -40.304  1.00  0.00    -0.550 OA
ENDBRANCH  11  12
ENDBRANCH  10  11
ENDBRANCH   9  10
ENDBRANCH   8   9
ENDBRANCH   7   8
ENDBRANCH   6   7
ENDBRANCH   5   6
ENDBRANCH   4   5
ENDBRANCH   3   4
ENDBRANCH   2   3
ENDBRANCH   1   2
BRANCH   1  15
ATOM     15  C   UNL     1      -9.721  -0.789 -36.016  1.00  0.00     0.000 C 
BRANCH  15  16
ATOM     16  C   UNL     1      -9.106  -0.976 -37.415  1.00  0.00     0.000 C 
BRANCH  16  17
ATOM     17  C   UNL     1      -9.188  -2.426 -37.915  1.00  0.00     0.000 C 
BRANCH  17  18
ATOM     18  C   UNL     1      -8.539  -2.559 -39.300  1.00  0.00    -0.000 C 
BRANCH  18  19
ATOM     19  C   UNL     1      -7.992  -1.225 -39.834  1.00  0.00    -0.000 C 
BRANCH  19  20
ATOM     20  C   UNL     1      -8.295  -1.015 -41.326  1.00  0.00    -0.000 C 
BRANCH  20  21
ATOM     21  C   UNL     1      -9.759  -1.359 -41.643  1.00  0.00    -0.000 C 
BRANCH  21  22
ATOM     22  C   UNL     1     -10.709  -0.164 -41.446  1.00  0.00    -0.000 C 
BRANCH  22  23
ATOM     23  C   UNL     1     -11.740  -0.333 -40.314  1.00  0.00    -0.000 C 
BRANCH  23  24
ATOM     24  C   UNL     1     -12.064  -1.803 -40.015  1.00  0.00    -0.000 C 
BRANCH  24  25
ATOM     25  C   UNL     1     -13.469  -1.943 -39.418  1.00  0.00    -0.003 C 
ATOM     26  C   UNL     1     -14.525  -1.355 -40.349  1.00  0.00     0.004 C 
ENDBRANCH  24  25
ENDBRANCH  23  24
ENDBRANCH  22  23
ENDBRANCH  21  22
ENDBRANCH  20  21
ENDBRANCH  19  20
ENDBRANCH  18  19
ENDBRANCH  17  18
ENDBRANCH  16  17
ENDBRANCH  15  16
ENDBRANCH   1  15
TORSDOF 22
ENDMDL
MODEL 2
REMARK VINA RESULT:    -4.541      2.182      4.769
REMARK INTER + INTRA:         -13.574
REMARK INTER:                  -9.540
REMARK INTRA:                  -4.034
REMARK UNBOUND:                -3.193
REMARK SMILES CCCCCCCCCCCCCCCCCCCCCCCC(=O)[O-]
REMARK SMILES IDX 13 1 14 2 15 3 16 4 17 5 18 6 19 7 20 8 21 9 22 10 23 11
REMARK SMILES IDX 24 12 25 13 26 14 12 15 11 16 10 17 9 18 8 19 7 20 6 21 5 22
REMARK SMILES IDX 4 23 3 24 2 25 1 26
REMARK H PARENT
REMARK Flexibility Score: inf
ROOT
ATOM      1  C   UNL     1     -11.754   3.376 -42.494  1.00  0.00     0.000 C 
ENDROOT
BRANCH   1   2
ATOM      2  C   UNL     1     -10.269   3.772 -42.576  1.00  0.00     0.000 C 
BRANCH   2   3
ATOM      3  C   UNL     1     -10.036   5.277 -42.368  1.00  0.00     0.000 C 
BRANCH   3   4
ATOM      4  C   UNL     1     -11.182   6.101 -42.976  1.00  0.00     0.000 C 
BRANCH   4   5
ATOM      5  C   UNL     1     -11.809   7.080 -41.971  1.00  0.00     0.000 C 
BRANCH   5   6
ATOM      6  C   UNL     1     -13.339   7.160 -42.094  1.00  0.00     0.000 C 
BRANCH   6   7
ATOM      7  C   UNL     1     -13.890   6.291 -43.238  1.00  0.00     0.000 C 
BRANCH   7   8
ATOM      8  C   UNL     1     -14.988   5.300 -42.795  1.00  0.00     0.000 C 
BRANCH   8   9
ATOM      9  C   UNL     1     -16.328   6.003 -42.515  1.00  0.00     0.000 C 
BRANCH   9  10
ATOM     10  C   UNL     1     -16.890   5.664 -41.124  1.00  0.00     0.006 C 
BRANCH  10  11
ATOM     11  C   UNL     1     -16.455   4.273 -40.640  1.00  0.00     0.053 C 
BRANCH  11  12
ATOM     12  C   UNL     1     -17.582   3.294 -40.751  1.00  0.00     0.041 C 
ATOM     13  O   UNL     1     -18.561   3.535 -41.506  1.00  0.00    -0.550 OA
ATOM     14  O   UNL     1     -17.549   2.108 -40.024  1.00  0.00    -0.550 OA
ENDBRANCH  11  12
ENDBRANCH  10  11
ENDBRANCH   9  10
ENDBRANCH   8   9
ENDBRANCH   7   8
ENDBRANCH   6   7
ENDBRANCH   5   6
ENDBRANCH   4   5
ENDBRANCH   3   4
ENDBRANCH   2   3
ENDBRANCH   1   2
BRANCH   1  15
ATOM     15  C   UNL     1     -12.239   2.927 -41.100  1.00  0.00     0.000 C 
BRANCH  15  16
ATOM     16  C   UNL     1     -12.760   4.058 -40.195  1.00  0.00     0.000 C 
BRANCH  16  17
ATOM     17  C   UNL     1     -11.719   4.533 -39.171  1.00  0.00     0.000 C 
BRANCH  17  18
ATOM     18  C   UNL     1     -10.895   3.348 -38.646  1.00  0.00    -0.000 C 
BRANCH  18  19
ATOM     19  C   UNL     1      -9.400   3.466 -38.984  1.00  0.00    -0.000 C 
BRANCH  19  20
ATOM     20  C   UNL     1      -8.695   2.101 -39.038  1.00  0.00    -0.000 C 
BRANCH  20  21
ATOM     21  C   UNL     1      -9.671   0.995 -39.466  1.00  0.00    -0.000 C 
BRANCH  21  22
ATOM     22  C   UNL     1      -9.441   0.523 -40.914  1.00  0.00    -0.000 C 
BRANCH  22  23
ATOM     23  C   UNL     1     -10.561  -0.358 -41.496  1.00  0.00    -0.000 C 
BRANCH  23  24
ATOM     24  C   UNL     1     -11.109  -1.375 -40.485  1.00  0.00    -0.000 C 
BRANCH  24  25
ATOM     25  C   UNL     1     -12.609  -1.161 -40.251  1.00  0.00    -0.003 C 
ATOM     26  C   UNL     1     -13.197  -2.273 -39.386  1.00  0.00     0.004 C 
ENDBRANCH  24  25
ENDBRANCH  23  24
ENDBRANCH  22  23
ENDBRANCH  21  22
ENDBRANCH  20  21
ENDBRANCH  19  20
ENDBRANCH  18  19
ENDBRANCH  17  18
ENDBRANCH  16  17
ENDBRANCH  15  16
ENDBRANCH   1  15
TORSDOF 22
ENDMDL
MODEL 3
REMARK VINA RESULT:    -4.441      1.415      2.711
REMARK INTER + INTRA:         -13.346
REMARK INTER:                  -9.527
REMARK INTRA:                  -3.819
REMARK UNBOUND:                -3.193
REMARK SMILES CCCCCCCCCCCCCCCCCCCCCCCC(=O)[O-]
REMARK SMILES IDX 13 1 14 2 15 3 16 4 17 5 18 6 19 7 20 8 21 9 22 10 23 11
REMARK SMILES IDX 24 12 25 13 26 14 12 15 11 16 10 17 9 18 8 19 7 20 6 21 5 22
REMARK SMILES IDX 4 23 3 24 2 25 1 26
REMARK H PARENT
REMARK Flexibility Score: inf
ROOT
ATOM      1  C   UNL     1     -10.616   2.979 -37.132  1.00  0.00     0.000 C 
ENDROOT
BRANCH   1   2
ATOM      2  C   UNL     1      -9.301   3.536 -37.707  1.00  0.00     0.000 C 
BRANCH   2   3
ATOM      3  C   UNL     1      -8.872   2.841 -39.009  1.00  0.00     0.000 C 
BRANCH   3   4
ATOM      4  C   UNL     1      -9.948   1.851 -39.486  1.00  0.00     0.000 C 
BRANCH   4   5
ATOM      5  C   UNL     1     -10.374   2.091 -40.943  1.00  0.00     0.000 C 
BRANCH   5   6
ATOM      6  C   UNL     1     -11.896   2.008 -41.138  1.00  0.00     0.000 C 
BRANCH   6   7
ATOM      7  C   UNL     1     -12.525   3.367 -41.494  1.00  0.00     0.000 C 
BRANCH   7   8
ATOM      8  C   UNL     1     -12.904   4.218 -40.263  1.00  0.00     0.000 C 
BRANCH   8   9
ATOM      9  C   UNL     1     -13.906   5.334 -40.613  1.00  0.00     0.000 C 
BRANCH   9  10
ATOM     10  C   UNL     1     -15.133   4.803 -41.373  1.00  0.00     0.006 C 
BRANCH  10  11
ATOM     11  C   UNL     1     -16.397   4.780 -40.503  1.00  0.00     0.053 C 
BRANCH  11  12
ATOM     12  C   UNL     1     -17.197   3.540 -40.756  1.00  0.00     0.041 C 
ATOM     13  O   UNL     1     -16.992   2.502 -40.074  1.00  0.00    -0.550 OA
ATOM     14  O   UNL     1     -18.174   3.531 -41.746  1.00  0.00    -0.550 OA
ENDBRANCH  11  12
ENDBRANCH  10  11
ENDBRANCH   9  10
ENDBRANCH   8   9
ENDBRANCH   7   8
ENDBRANCH   6   7
ENDBRANCH   5   6
ENDBRANCH   4   5
ENDBRANCH   3   4
ENDBRANCH   2   3
ENDBRANCH   1   2
BRANCH   1  15
ATOM     15  C   UNL     1     -10.483   2.236 -35.787  1.00  0.00     0.000 C 
BRANCH  15  16
ATOM     16  C   UNL     1     -10.658   0.709 -35.864  1.00  0.00     0.000 C 
BRANCH  16  17
ATOM     17  C   UNL     1      -9.413  -0.060 -35.397  1.00  0.00     0.000 C 
BRANCH  17  18
ATOM     18  C   UNL     1      -8.246   0.153 -36.371  1.00  0.00    -0.000 C 
BRANCH  18  19
ATOM     19  C   UNL     1      -8.281  -0.815 -37.565  1.00  0.00    -0.000 C 
BRANCH  19  20
ATOM     20  C   UNL     1      -7.196  -0.509 -38.608  1.00  0.00    -0.000 C 
BRANCH  20  21
ATOM     21  C   UNL     1      -7.288  -1.478 -39.797  1.00  0.00    -0.000 C 
BRANCH  21  22
ATOM     22  C   UNL     1      -7.805  -0.802 -41.080  1.00  0.00    -0.000 C 
BRANCH  22  23
ATOM     23  C   UNL     1      -9.039  -1.469 -41.715  1.00  0.00    -0.000 C 
BRANCH  23  24
ATOM     24  C   UNL     1      -9.895  -2.235 -40.696  1.00  0.00    -0.000 C 
BRANCH  24  25
ATOM     25  C   UNL     1     -11.226  -1.516 -40.448  1.00  0.00    -0.003 C 
ATOM     26  C   UNL     1     -11.549  -1.454 -38.958  1.00  0.00     0.004 C 
ENDBRANCH  24  25
ENDBRANCH  23  24
ENDBRANCH  22  23
ENDBRANCH  21  22
ENDBRANCH  20  21
ENDBRANCH  19  20
ENDBRANCH  18  19
ENDBRANCH  17  18
ENDBRANCH  16  17
ENDBRANCH  15  16
ENDBRANCH   1  15
TORSDOF 22
ENDMDL
MODEL 4
REMARK VINA RESULT:    -4.401      3.123      8.671
REMARK INTER + INTRA:         -13.255
REMARK INTER:                 -10.072
REMARK INTRA:                  -3.184
REMARK UNBOUND:                -3.193
REMARK SMILES CCCCCCCCCCCCCCCCCCCCCCCC(=O)[O-]
REMARK SMILES IDX 13 1 14 2 15 3 16 4 17 5 18 6 19 7 20 8 21 9 22 10 23 11
REMARK SMILES IDX 24 12 25 13 26 14 12 15 11 16 10 17 9 18 8 19 7 20 6 21 5 22
REMARK SMILES IDX 4 23 3 24 2 25 1 26
REMARK H PARENT
REMARK Flexibility Score: inf
ROOT
ATOM      1  C   UNL     1     -17.383   4.730 -41.919  1.00  0.00     0.000 C 
ENDROOT
BRANCH   1   2
ATOM      2  C   UNL     1     -16.600   4.198 -40.705  1.00  0.00     0.000 C 
BRANCH   2   3
ATOM      3  C   UNL     1     -15.216   4.847 -40.552  1.00  0.00     0.000 C 
BRANCH   3   4
ATOM      4  C   UNL     1     -14.097   3.810 -40.740  1.00  0.00     0.000 C 
BRANCH   4   5
ATOM      5  C   UNL     1     -12.717   4.340 -40.323  1.00  0.00     0.000 C 
BRANCH   5   6
ATOM      6  C   UNL     1     -11.562   3.468 -40.841  1.00  0.00     0.000 C 
BRANCH   6   7
ATOM      7  C   UNL     1     -10.806   2.749 -39.710  1.00  0.00     0.000 C 
BRANCH   7   8
ATOM      8  C   UNL     1     -10.291   1.347 -40.098  1.00  0.00     0.000 C 
BRANCH   8   9
ATOM      9  C   UNL     1     -11.095   0.732 -41.259  1.00  0.00     0.000 C 
BRANCH   9  10
ATOM     10  C   UNL     1     -12.408   0.088 -40.785  1.00  0.00     0.006 C 
BRANCH  10  11
ATOM     11  C   UNL     1     -12.173  -1.180 -39.951  1.00  0.00     0.053 C 
BRANCH  11  12
ATOM     12  C   UNL     1     -13.447  -1.945 -39.773  1.00  0.00     0.041 C 
ATOM     13  O   UNL     1     -14.543  -1.451 -40.147  1.00  0.00    -0.550 OA
ATOM     14  O   UNL     1     -13.425  -3.211 -39.198  1.00  0.00    -0.550 OA
ENDBRANCH  11  12
ENDBRANCH  10  11
ENDBRANCH   9  10
ENDBRANCH   8   9
ENDBRANCH   7   8
ENDBRANCH   6   7
ENDBRANCH   5   6
ENDBRANCH   4   5
ENDBRANCH   3   4
ENDBRANCH   2   3
ENDBRANCH   1   2
BRANCH   1  15
ATOM     15  C   UNL     1     -18.477   5.767 -41.592  1.00  0.00     0.000 C 
BRANCH  15  16
ATOM     16  C   UNL     1     -18.109   7.226 -41.913  1.00  0.00     0.000 C 
BRANCH  16  17
ATOM     17  C   UNL     1     -17.362   7.922 -40.765  1.00  0.00     0.000 C 
BRANCH  17  18
ATOM     18  C   UNL     1     -16.263   8.843 -41.312  1.00  0.00    -0.000 C 
BRANCH  18  19
ATOM     19  C   UNL     1     -15.563   8.266 -42.553  1.00  0.00    -0.000 C 
BRANCH  19  20
ATOM     20  C   UNL     1     -14.170   7.699 -42.238  1.00  0.00    -0.000 C 
BRANCH  20  21
ATOM     21  C   UNL     1     -13.263   7.748 -43.477  1.00  0.00    -0.000 C 
BRANCH  21  22
ATOM     22  C   UNL     1     -12.732   6.361 -43.884  1.00  0.00    -0.000 C 
BRANCH  22  23
ATOM     23  C   UNL     1     -13.790   5.243 -43.917  1.00  0.00    -0.000 C 
BRANCH  23  24
ATOM     24  C   UNL     1     -14.480   5.112 -45.282  1.00  0.00    -0.000 C 
BRANCH  24  25
ATOM     25  C   UNL     1     -15.985   4.874 -45.115  1.00  0.00    -0.003 C 
ATOM     26  C   UNL     1     -16.765   6.182 -45.207  1.00  0.00     0.004 C 
ENDBRANCH  24  25
ENDBRANCH  23  24
ENDBRANCH  22  23
ENDBRANCH  21  22
ENDBRANCH  20  21
ENDBRANCH  19  20
ENDBRANCH  18  19
ENDBRANCH  17  18
ENDBRANCH  16  17
ENDBRANCH  15  16
ENDBRANCH   1  15
TORSDOF 22
ENDMDL
MODEL 5
REMARK VINA RESULT:    -4.343      1.371      2.580
REMARK INTER + INTRA:         -13.122
REMARK INTER:                  -9.988
REMARK INTRA:                  -3.134
REMARK UNBOUND:                -3.193
REMARK SMILES CCCCCCCCCCCCCCCCCCCCCCCC(=O)[O-]
REMARK SMILES IDX 13 1 14 2 15 3 16 4 17 5 18 6 19 7 20 8 21 9 22 10 23 11
REMARK SMILES IDX 24 12 25 13 26 14 12 15 11 16 10 17 9 18 8 19 7 20 6 21 5 22
REMARK SMILES IDX 4 23 3 24 2 25 1 26
REMARK H PARENT
REMARK Flexibility Score: inf
ROOT
ATOM      1  C   UNL     1     -10.255   2.606 -38.235  1.00  0.00     0.000 C 
ENDROOT
BRANCH   1   2
ATOM      2  C   UNL     1      -9.755   3.528 -39.362  1.00  0.00     0.000 C 
BRANCH   2   3
ATOM      3  C   UNL     1      -9.434   2.770 -40.660  1.00  0.00     0.000 C 
BRANCH   3   4
ATOM      4  C   UNL     1      -9.805   3.608 -41.894  1.00  0.00     0.000 C 
BRANCH   4   5
ATOM      5  C   UNL     1     -11.229   3.327 -42.398  1.00  0.00     0.000 C 
BRANCH   5   6
ATOM      6  C   UNL     1     -12.243   4.387 -41.941  1.00  0.00     0.000 C 
BRANCH   6   7
ATOM      7  C   UNL     1     -13.141   3.895 -40.792  1.00  0.00     0.000 C 
BRANCH   7   8
ATOM      8  C   UNL     1     -14.580   4.452 -40.844  1.00  0.00     0.000 C 
BRANCH   8   9
ATOM      9  C   UNL     1     -14.882   5.161 -42.177  1.00  0.00     0.000 C 
BRANCH   9  10
ATOM     10  C   UNL     1     -16.268   5.825 -42.187  1.00  0.00     0.006 C 
BRANCH  10  11
ATOM     11  C   UNL     1     -16.533   6.649 -40.919  1.00  0.00     0.053 C 
BRANCH  11  12
ATOM     12  C   UNL     1     -17.997   6.695 -40.608  1.00  0.00     0.041 C 
ATOM     13  O   UNL     1     -18.825   6.120 -41.363  1.00  0.00    -0.550 OA
ATOM     14  O   UNL     1     -18.449   7.369 -39.479  1.00  0.00    -0.550 OA
ENDBRANCH  11  12
ENDBRANCH  10  11
ENDBRANCH   9  10
ENDBRANCH   8   9
ENDBRANCH   7   8
ENDBRANCH   6   7
ENDBRANCH   5   6
ENDBRANCH   4   5
ENDBRANCH   3   4
ENDBRANCH   2   3
ENDBRANCH   1   2
BRANCH   1  15
ATOM     15  C   UNL     1      -9.485   1.279 -38.081  1.00  0.00     0.000 C 
BRANCH  15  16
ATOM     16  C   UNL     1     -10.128   0.258 -37.126  1.00  0.00     0.000 C 
BRANCH  16  17
ATOM     17  C   UNL     1      -9.554  -1.157 -37.287  1.00  0.00     0.000 C 
BRANCH  17  18
ATOM     18  C   UNL     1      -8.375  -1.155 -38.272  1.00  0.00    -0.000 C 
BRANCH  18  19
ATOM     19  C   UNL     1      -8.542  -2.182 -39.403  1.00  0.00    -0.000 C 
BRANCH  19  20
ATOM     20  C   UNL     1      -8.592  -1.529 -40.794  1.00  0.00    -0.000 C 
BRANCH  20  21
ATOM     21  C   UNL     1      -9.993  -1.653 -41.410  1.00  0.00    -0.000 C 
BRANCH  21  22
ATOM     22  C   UNL     1     -10.752  -0.314 -41.443  1.00  0.00    -0.000 C 
BRANCH  22  23
ATOM     23  C   UNL     1     -12.057  -0.286 -40.625  1.00  0.00    -0.000 C 
BRANCH  23  24
ATOM     24  C   UNL     1     -12.191  -1.482 -39.672  1.00  0.00    -0.000 C 
BRANCH  24  25
ATOM     25  C   UNL     1     -13.591  -2.100 -39.764  1.00  0.00    -0.003 C 
ATOM     26  C   UNL     1     -14.595  -1.109 -40.345  1.00  0.00     0.004 C 
ENDBRANCH  24  25
ENDBRANCH  23  24
ENDBRANCH  22  23
ENDBRANCH  21  22
ENDBRANCH  20  21
ENDBRANCH  19  20
ENDBRANCH  18  19
ENDBRANCH  17  18
ENDBRANCH  16  17
ENDBRANCH  15  16
ENDBRANCH   1  15
TORSDOF 22
ENDMDL
MODEL 6
REMARK VINA RESULT:    -4.332      1.598      4.212
REMARK INTER + INTRA:         -13.097
REMARK INTER:                  -9.736
REMARK INTRA:                  -3.361
REMARK UNBOUND:                -3.193
REMARK SMILES CCCCCCCCCCCCCCCCCCCCCCCC(=O)[O-]
REMARK SMILES IDX 13 1 14 2 15 3 16 4 17 5 18 6 19 7 20 8 21 9 22 10 23 11
REMARK SMILES IDX 24 12 25 13 26 14 12 15 11 16 10 17 9 18 8 19 7 20 6 21 5 22
REMARK SMILES IDX 4 23 3 24 2 25 1 26
REMARK H PARENT
REMARK Flexibility Score: inf
ROOT
ATOM      1  C   UNL     1     -10.919   0.587 -41.492  1.00  0.00     0.000 C 
ENDROOT
BRANCH   1   2
ATOM      2  C   UNL     1     -10.978   2.109 -41.719  1.00  0.00     0.000 C 
BRANCH   2   3
ATOM      3  C   UNL     1     -12.223   2.761 -41.096  1.00  0.00     0.000 C 
BRANCH   3   4
ATOM      4  C   UNL     1     -11.849   4.035 -40.323  1.00  0.00     0.000 C 
BRANCH   4   5
ATOM      5  C   UNL     1     -12.965   5.090 -40.337  1.00  0.00     0.000 C 
BRANCH   5   6
ATOM      6  C   UNL     1     -13.506   5.365 -41.749  1.00  0.00     0.000 C 
BRANCH   6   7
ATOM      7  C   UNL     1     -15.040   5.272 -41.828  1.00  0.00     0.000 C 
BRANCH   7   8
ATOM      8  C   UNL     1     -15.669   4.418 -40.707  1.00  0.00     0.000 C 
BRANCH   8   9
ATOM      9  C   UNL     1     -17.207   4.406 -40.777  1.00  0.00     0.000 C 
BRANCH   9  10
ATOM     10  C   UNL     1     -17.744   5.190 -41.986  1.00  0.00     0.006 C 
BRANCH  10  11
ATOM     11  C   UNL     1     -18.705   6.316 -41.576  1.00  0.00     0.053 C 
BRANCH  11  12
ATOM     12  C   UNL     1     -17.972   7.406 -40.858  1.00  0.00     0.041 C 
ATOM     13  O   UNL     1     -17.232   8.201 -41.496  1.00  0.00    -0.550 OA
ATOM     14  O   UNL     1     -18.110   7.549 -39.482  1.00  0.00    -0.550 OA
ENDBRANCH  11  12
ENDBRANCH  10  11
ENDBRANCH   9  10
ENDBRANCH   8   9
ENDBRANCH   7   8
ENDBRANCH   6   7
ENDBRANCH   5   6
ENDBRANCH   4   5
ENDBRANCH   3   4
ENDBRANCH   2   3
ENDBRANCH   1   2
BRANCH   1  15
ATOM     15  C   UNL     1     -12.111  -0.009 -40.716  1.00  0.00     0.000 C 
BRANCH  15  16
ATOM     16  C   UNL     1     -11.865  -1.403 -40.111  1.00  0.00     0.000 C 
BRANCH  16  17
ATOM     17  C   UNL     1     -10.435  -1.912 -40.348  1.00  0.00     0.000 C 
BRANCH  17  18
ATOM     18  C   UNL     1      -9.910  -2.649 -39.107  1.00  0.00    -0.000 C 
BRANCH  18  19
ATOM     19  C   UNL     1      -8.660  -1.987 -38.505  1.00  0.00    -0.000 C 
BRANCH  19  20
ATOM     20  C   UNL     1      -7.852  -1.193 -39.543  1.00  0.00    -0.000 C 
BRANCH  20  21
ATOM     21  C   UNL     1      -6.946  -0.158 -38.859  1.00  0.00    -0.000 C 
BRANCH  21  22
ATOM     22  C   UNL     1      -7.728   0.826 -37.969  1.00  0.00    -0.000 C 
BRANCH  22  23
ATOM     23  C   UNL     1      -8.878   1.567 -38.676  1.00  0.00    -0.000 C 
BRANCH  23  24
ATOM     24  C   UNL     1     -10.200   1.500 -37.897  1.00  0.00    -0.000 C 
BRANCH  24  25
ATOM     25  C   UNL     1      -9.971   0.980 -36.473  1.00  0.00    -0.003 C 
ATOM     26  C   UNL     1     -10.978  -0.109 -36.115  1.00  0.00     0.004 C 
ENDBRANCH  24  25
ENDBRANCH  23  24
ENDBRANCH  22  23
ENDBRANCH  21  22
ENDBRANCH  20  21
ENDBRANCH  19  20
ENDBRANCH  18  19
ENDBRANCH  17  18
ENDBRANCH  16  17
ENDBRANCH  15  16
ENDBRANCH   1  15
TORSDOF 22
ENDMDL
MODEL 7
REMARK VINA RESULT:    -4.311      1.342      3.968
REMARK INTER + INTRA:         -13.050
REMARK INTER:                  -8.957
REMARK INTRA:                  -4.093
REMARK UNBOUND:                -3.193
REMARK SMILES CCCCCCCCCCCCCCCCCCCCCCCC(=O)[O-]
REMARK SMILES IDX 13 1 14 2 15 3 16 4 17 5 18 6 19 7 20 8 21 9 22 10 23 11
REMARK SMILES IDX 24 12 25 13 26 14 12 15 11 16 10 17 9 18 8 19 7 20 6 21 5 22
REMARK SMILES IDX 4 23 3 24 2 25 1 26
REMARK H PARENT
REMARK Flexibility Score: inf
ROOT
ATOM      1  C   UNL     1      -8.067   0.683 -40.793  1.00  0.00     0.000 C 
ENDROOT
BRANCH   1   2
ATOM      2  C   UNL     1      -7.778   1.147 -39.354  1.00  0.00     0.000 C 
BRANCH   2   3
ATOM      3  C   UNL     1      -8.921   1.979 -38.750  1.00  0.00     0.000 C 
BRANCH   3   4
ATOM      4  C   UNL     1      -9.544   2.906 -39.805  1.00  0.00     0.000 C 
BRANCH   4   5
ATOM      5  C   UNL     1     -11.080   2.929 -39.746  1.00  0.00     0.000 C 
BRANCH   5   6
ATOM      6  C   UNL     1     -11.732   2.449 -41.052  1.00  0.00     0.000 C 
BRANCH   6   7
ATOM      7  C   UNL     1     -11.176   3.168 -42.294  1.00  0.00     0.000 C 
BRANCH   7   8
ATOM      8  C   UNL     1     -11.641   4.634 -42.425  1.00  0.00     0.000 C 
BRANCH   8   9
ATOM      9  C   UNL     1     -13.168   4.748 -42.589  1.00  0.00     0.000 C 
BRANCH   9  10
ATOM     10  C   UNL     1     -13.845   5.369 -41.356  1.00  0.00     0.006 C 
BRANCH  10  11
ATOM     11  C   UNL     1     -14.880   4.430 -40.721  1.00  0.00     0.053 C 
BRANCH  11  12
ATOM     12  C   UNL     1     -16.272   4.920 -40.975  1.00  0.00     0.041 C 
ATOM     13  O   UNL     1     -16.923   4.498 -41.966  1.00  0.00    -0.550 OA
ATOM     14  O   UNL     1     -16.853   5.843 -40.112  1.00  0.00    -0.550 OA
ENDBRANCH  11  12
ENDBRANCH  10  11
ENDBRANCH   9  10
ENDBRANCH   8   9
ENDBRANCH   7   8
ENDBRANCH   6   7
ENDBRANCH   5   6
ENDBRANCH   4   5
ENDBRANCH   3   4
ENDBRANCH   2   3
ENDBRANCH   1   2
BRANCH   1  15
ATOM     15  C   UNL     1      -7.683  -0.779 -41.102  1.00  0.00     0.000 C 
BRANCH  15  16
ATOM     16  C   UNL     1      -8.763  -1.595 -41.836  1.00  0.00     0.000 C 
BRANCH  16  17
ATOM     17  C   UNL     1     -10.177  -1.031 -41.636  1.00  0.00     0.000 C 
BRANCH  17  18
ATOM     18  C   UNL     1     -10.869  -1.711 -40.445  1.00  0.00    -0.000 C 
BRANCH  18  19
ATOM     19  C   UNL     1     -11.397  -0.707 -39.408  1.00  0.00    -0.000 C 
BRANCH  19  20
ATOM     20  C   UNL     1     -10.911  -1.015 -37.983  1.00  0.00    -0.000 C 
BRANCH  20  21
ATOM     21  C   UNL     1      -9.564  -1.755 -38.010  1.00  0.00    -0.000 C 
BRANCH  21  22
ATOM     22  C   UNL     1      -8.689  -1.444 -36.782  1.00  0.00    -0.000 C 
BRANCH  22  23
ATOM     23  C   UNL     1      -9.390  -0.644 -35.669  1.00  0.00    -0.000 C 
BRANCH  23  24
ATOM     24  C   UNL     1      -8.493   0.441 -35.057  1.00  0.00    -0.000 C 
BRANCH  24  25
ATOM     25  C   UNL     1      -9.254   1.765 -34.913  1.00  0.00    -0.003 C 
ATOM     26  C   UNL     1     -10.692   1.630 -35.406  1.00  0.00     0.004 C 
ENDBRANCH  24  25
ENDBRANCH  23  24
ENDBRANCH  22  23
ENDBRANCH  21  22
ENDBRANCH  20  21
ENDBRANCH  19  20
ENDBRANCH  18  19
ENDBRANCH  17  18
ENDBRANCH  16  17
ENDBRANCH  15  16
ENDBRANCH   1  15
TORSDOF 22
ENDMDL
MODEL 8
REMARK VINA RESULT:    -4.299      1.821      2.033
REMARK INTER + INTRA:         -13.022
REMARK INTER:                  -9.195
REMARK INTRA:                  -3.827
REMARK UNBOUND:                -3.193
REMARK SMILES CCCCCCCCCCCCCCCCCCCCCCCC(=O)[O-]
REMARK SMILES IDX 13 1 14 2 15 3 16 4 17 5 18 6 19 7 20 8 21 9 22 10 23 11
REMARK SMILES IDX 24 12 25 13 26 14 12 15 11 16 10 17 9 18 8 19 7 20 6 21 5 22
REMARK SMILES IDX 4 23 3 24 2 25 1 26
REMARK H PARENT
REMARK Flexibility Score: inf
ROOT
ATOM      1  C   UNL     1     -10.916   0.306 -36.069  1.00  0.00     0.000 C 
ENDROOT
BRANCH   1   2
ATOM      2  C   UNL     1     -10.450   1.660 -35.504  1.00  0.00     0.000 C 
BRANCH   2   3
ATOM      3  C   UNL     1     -10.221   2.720 -36.593  1.00  0.00     0.000 C 
BRANCH   3   4
ATOM      4  C   UNL     1     -10.402   2.117 -37.995  1.00  0.00     0.000 C 
BRANCH   4   5
ATOM      5  C   UNL     1      -9.141   2.241 -38.865  1.00  0.00     0.000 C 
BRANCH   5   6
ATOM      6  C   UNL     1      -9.393   3.010 -40.171  1.00  0.00     0.000 C 
BRANCH   6   7
ATOM      7  C   UNL     1     -10.686   3.844 -40.130  1.00  0.00     0.000 C 
BRANCH   7   8
ATOM      8  C   UNL     1     -11.723   3.436 -41.198  1.00  0.00     0.000 C 
BRANCH   8   9
ATOM      9  C   UNL     1     -13.162   3.788 -40.778  1.00  0.00     0.000 C 
BRANCH   9  10
ATOM     10  C   UNL     1     -13.329   5.282 -40.455  1.00  0.00     0.006 C 
BRANCH  10  11
ATOM     11  C   UNL     1     -13.205   6.169 -41.702  1.00  0.00     0.053 C 
BRANCH  11  12
ATOM     12  C   UNL     1     -12.167   7.229 -41.501  1.00  0.00     0.041 C 
ATOM     13  O   UNL     1     -12.472   8.321 -40.952  1.00  0.00    -0.550 OA
ATOM     14  O   UNL     1     -10.858   7.010 -41.917  1.00  0.00    -0.550 OA
ENDBRANCH  11  12
ENDBRANCH  10  11
ENDBRANCH   9  10
ENDBRANCH   8   9
ENDBRANCH   7   8
ENDBRANCH   6   7
ENDBRANCH   5   6
ENDBRANCH   4   5
ENDBRANCH   3   4
ENDBRANCH   2   3
ENDBRANCH   1   2
BRANCH   1  15
ATOM     15  C   UNL     1      -9.911  -0.853 -35.910  1.00  0.00     0.000 C 
BRANCH  15  16
ATOM     16  C   UNL     1      -8.899  -1.001 -37.061  1.00  0.00     0.000 C 
BRANCH  16  17
ATOM     17  C   UNL     1      -8.676  -2.463 -37.476  1.00  0.00     0.000 C 
BRANCH  17  18
ATOM     18  C   UNL     1      -8.480  -2.571 -38.995  1.00  0.00    -0.000 C 
BRANCH  18  19
ATOM     19  C   UNL     1      -8.024  -1.250 -39.634  1.00  0.00    -0.000 C 
BRANCH  19  20
ATOM     20  C   UNL     1      -8.270  -1.209 -41.150  1.00  0.00    -0.000 C 
BRANCH  20  21
ATOM     21  C   UNL     1      -9.751  -1.454 -41.474  1.00  0.00    -0.000 C 
BRANCH  21  22
ATOM     22  C   UNL     1     -10.574  -0.154 -41.529  1.00  0.00    -0.000 C 
BRANCH  22  23
ATOM     23  C   UNL     1     -11.896  -0.187 -40.740  1.00  0.00    -0.000 C 
BRANCH  23  24
ATOM     24  C   UNL     1     -11.817  -1.058 -39.478  1.00  0.00    -0.000 C 
BRANCH  24  25
ATOM     25  C   UNL     1     -12.935  -2.108 -39.467  1.00  0.00    -0.003 C 
ATOM     26  C   UNL     1     -14.233  -1.537 -40.029  1.00  0.00     0.004 C 
ENDBRANCH  24  25
ENDBRANCH  23  24
ENDBRANCH  22  23
ENDBRANCH  21  22
ENDBRANCH  20  21
ENDBRANCH  19  20
ENDBRANCH  18  19
ENDBRANCH  17  18
ENDBRANCH  16  17
ENDBRANCH  15  16
ENDBRANCH   1  15
TORSDOF 22
ENDMDL
MODEL 9
REMARK VINA RESULT:    -4.274      2.092      6.090
REMARK INTER + INTRA:         -12.965
REMARK INTER:                 -10.297
REMARK INTRA:                  -2.668
REMARK UNBOUND:                -3.193
REMARK SMILES CCCCCCCCCCCCCCCCCCCCCCCC(=O)[O-]
REMARK SMILES IDX 13 1 14 2 15 3 16 4 17 5 18 6 19 7 20 8 21 9 22 10 23 11
REMARK SMILES IDX 24 12 25 13 26 14 12 15 11 16 10 17 9 18 8 19 7 20 6 21 5 22
REMARK SMILES IDX 4 23 3 24 2 25 1 26
REMARK H PARENT
REMARK Flexibility Score: inf
ROOT
ATOM      1  C   UNL     1     -10.236   0.271 -37.125  1.00  0.00     0.000 C 
ENDROOT
BRANCH   1   2
ATOM      2  C   UNL     1      -9.544  -1.018 -36.646  1.00  0.00     0.000 C 
BRANCH   2   3
ATOM      3  C   UNL     1      -8.011  -0.930 -36.693  1.00  0.00     0.000 C 
BRANCH   3   4
ATOM      4  C   UNL     1      -7.414  -2.119 -37.463  1.00  0.00     0.000 C 
BRANCH   4   5
ATOM      5  C   UNL     1      -8.011  -2.278 -38.870  1.00  0.00     0.000 C 
BRANCH   5   6
ATOM      6  C   UNL     1      -7.422  -1.282 -39.881  1.00  0.00     0.000 C 
BRANCH   6   7
ATOM      7  C   UNL     1      -8.352  -1.035 -41.082  1.00  0.00     0.000 C 
BRANCH   7   8
ATOM      8  C   UNL     1      -9.362   0.111 -40.861  1.00  0.00     0.000 C 
BRANCH   8   9
ATOM      9  C   UNL     1     -10.702  -0.148 -41.574  1.00  0.00     0.000 C 
BRANCH   9  10
ATOM     10  C   UNL     1     -11.890  -0.179 -40.599  1.00  0.00     0.006 C 
BRANCH  10  11
ATOM     11  C   UNL     1     -11.910  -1.450 -39.739  1.00  0.00     0.053 C 
BRANCH  11  12
ATOM     12  C   UNL     1     -13.282  -2.049 -39.706  1.00  0.00     0.041 C 
ATOM     13  O   UNL     1     -13.451  -3.229 -39.299  1.00  0.00    -0.550 OA
ATOM     14  O   UNL     1     -14.379  -1.301 -40.120  1.00  0.00    -0.550 OA
ENDBRANCH  11  12
ENDBRANCH  10  11
ENDBRANCH   9  10
ENDBRANCH   8   9
ENDBRANCH   7   8
ENDBRANCH   6   7
ENDBRANCH   5   6
ENDBRANCH   4   5
ENDBRANCH   3   4
ENDBRANCH   2   3
ENDBRANCH   1   2
BRANCH   1  15
ATOM     15  C   UNL     1     -10.277   1.417 -36.094  1.00  0.00     0.000 C 
BRANCH  15  16
ATOM     16  C   UNL     1     -10.230   2.834 -36.692  1.00  0.00     0.000 C 
BRANCH  16  17
ATOM     17  C   UNL     1     -10.153   2.834 -38.226  1.00  0.00     0.000 C 
BRANCH  17  18
ATOM     18  C   UNL     1     -11.166   3.822 -38.820  1.00  0.00    -0.000 C 
BRANCH  18  19
ATOM     19  C   UNL     1     -11.366   3.633 -40.333  1.00  0.00    -0.000 C 
BRANCH  19  20
ATOM     20  C   UNL     1     -12.838   3.404 -40.712  1.00  0.00    -0.000 C 
BRANCH  20  21
ATOM     21  C   UNL     1     -13.382   4.582 -41.536  1.00  0.00    -0.000 C 
BRANCH  21  22
ATOM     22  C   UNL     1     -14.847   4.917 -41.202  1.00  0.00    -0.000 C 
BRANCH  22  23
ATOM     23  C   UNL     1     -15.614   5.656 -42.314  1.00  0.00    -0.000 C 
BRANCH  23  24
ATOM     24  C   UNL     1     -16.978   5.023 -42.623  1.00  0.00    -0.000 C 
BRANCH  24  25
ATOM     25  C   UNL     1     -17.762   4.753 -41.333  1.00  0.00    -0.003 C 
ATOM     26  C   UNL     1     -18.109   3.274 -41.198  1.00  0.00     0.004 C 
ENDBRANCH  24  25
ENDBRANCH  23  24
ENDBRANCH  22  23
ENDBRANCH  21  22
ENDBRANCH  20  21
ENDBRANCH  19  20
ENDBRANCH  18  19
ENDBRANCH  17  18
ENDBRANCH  16  17
ENDBRANCH  15  16
ENDBRANCH   1  15
TORSDOF 22
ENDMDL
