MODEL 1
REMARK VINA RESULT:    -2.278      0.000      0.000
REMARK INTER + INTRA:          -2.289
REMARK INTER:                  -2.810
REMARK INTRA:                   0.521
REMARK UNBOUND:                 0.521
REMARK SMILES C=C1[C@@H]2CC[C@H]3[C@H]2C(C)(C)CCC[C@@]13C
REMARK SMILES IDX 14 1 6 2 7 3 3 4 2 5 1 6 4 7 5 8 15 9 8 10 9 11 10 12 11 13
REMARK SMILES IDX 13 15 12 16
REMARK H PARENT
REMARK Flexibility Score: 80.00
ROOT
ATOM      1  C   UNL     1     166.141 157.338 139.508  1.00  0.00    -0.008 C 
ATOM      2  C   UNL     1     165.061 157.470 138.443  1.00  0.00     0.003 C 
ATOM      3  C   UNL     1     164.209 158.570 139.101  1.00  0.00     0.006 C 
ATOM      4  C   UNL     1     163.803 157.707 140.282  1.00  0.00     0.019 C 
ATOM      5  C   UNL     1     165.230 157.331 140.746  1.00  0.00    -0.068 C 
ATOM      6  C   UNL     1     165.606 157.119 142.011  1.00  0.00     0.009 C 
ATOM      7  C   UNL     1     163.197 156.473 139.627  1.00  0.00     0.008 C 
ATOM      8  C   UNL     1     164.063 156.289 138.379  1.00  0.00     0.005 C 
ATOM      9  C   UNL     1     166.940 156.021 139.405  1.00  0.00     0.016 C 
ENDROOT
BRANCH   3  10
ATOM     10  C   UNL     1     164.042 159.772 138.143  1.00  0.00    -0.032 C 
ATOM     11  C   UNL     1     163.268 160.939 138.817  1.00  0.00     0.011 C 
ATOM     12  C   UNL     1     163.254 159.368 136.877  1.00  0.00     0.011 C 
BRANCH  10  13
ATOM     13  C   UNL     1     165.526 160.230 137.767  1.00  0.00     0.007 CG0
ATOM     14  G   UNL     1     166.639 160.043 138.886  1.00  0.00     0.000 G0
ENDBRANCH  10  13
ENDBRANCH   3  10
BRANCH   1  15
ATOM     15  C   UNL     1     167.128 158.580 139.322  1.00  0.00     0.011 C 
BRANCH  15  16
ATOM     16  C   UNL     1     166.639 160.037 138.886  1.00  0.00     0.001 CG0
ATOM     17  G   UNL     1     165.526 160.229 137.766  1.00  0.00     0.000 G0
ENDBRANCH  15  16
ENDBRANCH   1  15
TORSDOF 0
ENDMDL
MODEL 2
REMARK VINA RESULT:    -2.043     13.922     15.933
REMARK INTER + INTRA:          -1.999
REMARK INTER:                  -2.534
REMARK INTRA:                   0.535
REMARK UNBOUND:                 0.521
REMARK SMILES C=C1[C@@H]2CC[C@H]3[C@H]2C(C)(C)CCC[C@@]13C
REMARK SMILES IDX 14 1 6 2 7 3 3 4 2 5 1 6 4 7 5 8 15 9 8 10 9 11 10 12 11 13
REMARK SMILES IDX 13 15 12 16
REMARK H PARENT
REMARK Flexibility Score: 80.00
ROOT
ATOM      1  C   UNL     1     168.291 173.706 138.302  1.00  0.00    -0.008 C 
ATOM      2  C   UNL     1     167.023 173.108 138.895  1.00  0.00     0.003 C 
ATOM      3  C   UNL     1     167.133 173.676 140.321  1.00  0.00     0.006 C 
ATOM      4  C   UNL     1     168.393 172.897 140.656  1.00  0.00     0.019 C 
ATOM      5  C   UNL     1     169.247 173.391 139.465  1.00  0.00    -0.068 C 
ATOM      6  C   UNL     1     170.570 173.581 139.481  1.00  0.00     0.009 C 
ATOM      7  C   UNL     1     168.003 171.453 140.370  1.00  0.00     0.008 C 
ATOM      8  C   UNL     1     167.083 171.583 139.154  1.00  0.00     0.005 C 
ATOM      9  C   UNL     1     168.749 173.002 137.007  1.00  0.00     0.016 C 
ENDROOT
BRANCH   3  10
ATOM     10  C   UNL     1     165.859 174.470 140.688  1.00  0.00    -0.032 C 
ATOM     11  C   UNL     1     166.015 175.209 142.047  1.00  0.00     0.011 C 
ATOM     12  C   UNL     1     164.637 173.532 140.813  1.00  0.00     0.011 C 
BRANCH  10  13
ATOM     13  C   UNL     1     165.650 175.519 139.502  1.00  0.00     0.007 CG0
ATOM     14  G   UNL     1     166.964 176.135 138.851  1.00  0.00     0.000 G0
ENDBRANCH  10  13
ENDBRANCH   3  10
BRANCH   1  15
ATOM     15  C   UNL     1     167.978 175.242 137.997  1.00  0.00     0.011 C 
BRANCH  15  16
ATOM     16  C   UNL     1     166.967 176.125 138.863  1.00  0.00     0.001 CG0
ATOM     17  G   UNL     1     165.656 175.487 139.497  1.00  0.00     0.000 G0
ENDBRANCH  15  16
ENDBRANCH   1  15
TORSDOF 0
ENDMDL
MODEL 3
REMARK VINA RESULT:    -2.034      1.764      4.020
REMARK INTER + INTRA:          -1.989
REMARK INTER:                  -2.506
REMARK INTRA:                   0.518
REMARK UNBOUND:                 0.521
REMARK SMILES C=C1[C@@H]2CC[C@H]3[C@H]2C(C)(C)CCC[C@@]13C
REMARK SMILES IDX 14 1 6 2 7 3 3 4 2 5 1 6 4 7 5 8 15 9 8 10 9 11 10 12 11 13
REMARK SMILES IDX 13 15 12 16
REMARK H PARENT
REMARK Flexibility Score: 80.00
ROOT
ATOM      1  C   UNL     1     163.269 158.710 139.670  1.00  0.00    -0.008 C 
ATOM      2  C   UNL     1     163.768 157.399 140.263  1.00  0.00     0.003 C 
ATOM      3  C   UNL     1     165.250 157.502 139.857  1.00  0.00     0.006 C 
ATOM      4  C   UNL     1     164.964 157.433 138.367  1.00  0.00     0.019 C 
ATOM      5  C   UNL     1     163.972 158.617 138.306  1.00  0.00    -0.068 C 
ATOM      6  C   UNL     1     163.819 159.451 137.273  1.00  0.00     0.009 C 
ATOM      7  C   UNL     1     164.155 156.151 138.222  1.00  0.00     0.008 C 
ATOM      8  C   UNL     1     163.317 156.129 139.502  1.00  0.00     0.005 C 
ATOM      9  C   UNL     1     161.736 158.755 139.498  1.00  0.00     0.016 C 
ENDROOT
BRANCH   3  10
ATOM     10  C   UNL     1     166.161 157.374 141.099  1.00  0.00    -0.032 C 
ATOM     11  C   UNL     1     167.662 157.537 140.728  1.00  0.00     0.011 C 
ATOM     12  C   UNL     1     166.000 155.989 141.766  1.00  0.00     0.011 C 
BRANCH  10  13
ATOM     13  C   UNL     1     165.701 158.538 142.092  1.00  0.00     0.007 CG0
ATOM     14  G   UNL     1     165.148 159.871 141.425  1.00  0.00     0.000 G0
ENDBRANCH  10  13
ENDBRANCH   3  10
BRANCH   1  15
ATOM     15  C   UNL     1     163.732 159.871 140.663  1.00  0.00     0.011 C 
BRANCH  15  16
ATOM     16  C   UNL     1     165.135 159.871 141.428  1.00  0.00     0.001 CG0
ATOM     17  G   UNL     1     165.703 158.547 142.101  1.00  0.00     0.000 G0
ENDBRANCH  15  16
ENDBRANCH   1  15
TORSDOF 0
ENDMDL
MODEL 4
REMARK VINA RESULT:    -2.019     14.133     15.977
REMARK INTER + INTRA:          -1.970
REMARK INTER:                  -2.489
REMARK INTRA:                   0.519
REMARK UNBOUND:                 0.521
REMARK SMILES C=C1[C@@H]2CC[C@H]3[C@H]2C(C)(C)CCC[C@@]13C
REMARK SMILES IDX 14 1 6 2 7 3 3 4 2 5 1 6 4 7 5 8 15 9 8 10 9 11 10 12 11 13
REMARK SMILES IDX 13 15 12 16
REMARK H PARENT
REMARK Flexibility Score: 80.00
ROOT
ATOM      1  C   UNL     1     168.728 173.181 139.665  1.00  0.00    -0.008 C 
ATOM      2  C   UNL     1     168.241 174.500 140.247  1.00  0.00     0.003 C 
ATOM      3  C   UNL     1     166.757 174.405 139.849  1.00  0.00     0.006 C 
ATOM      4  C   UNL     1     167.037 174.459 138.357  1.00  0.00     0.019 C 
ATOM      5  C   UNL     1     168.020 173.266 138.302  1.00  0.00    -0.068 C 
ATOM      6  C   UNL     1     168.163 172.422 137.276  1.00  0.00     0.009 C 
ATOM      7  C   UNL     1     167.855 175.733 138.197  1.00  0.00     0.008 C 
ATOM      8  C   UNL     1     168.698 175.760 139.473  1.00  0.00     0.005 C 
ATOM      9  C   UNL     1     170.260 173.122 139.487  1.00  0.00     0.016 C 
ENDROOT
BRANCH   3  10
ATOM     10  C   UNL     1     165.851 174.551 141.092  1.00  0.00    -0.032 C 
ATOM     11  C   UNL     1     164.350 174.366 140.734  1.00  0.00     0.011 C 
ATOM     12  C   UNL     1     166.003 175.951 141.729  1.00  0.00     0.011 C 
BRANCH  10  13
ATOM     13  C   UNL     1     166.328 173.412 142.107  1.00  0.00     0.007 CG0
ATOM     14  G   UNL     1     166.885 172.069 141.465  1.00  0.00     0.000 G0
ENDBRANCH  10  13
ENDBRANCH   3  10
BRANCH   1  15
ATOM     15  C   UNL     1     168.260 172.031 140.670  1.00  0.00     0.011 C 
BRANCH  15  16
ATOM     16  C   UNL     1     166.877 172.068 141.469  1.00  0.00     0.001 CG0
ATOM     17  G   UNL     1     166.334 173.418 142.109  1.00  0.00     0.000 G0
ENDBRANCH  15  16
ENDBRANCH   1  15
TORSDOF 0
ENDMDL
MODEL 5
REMARK VINA RESULT:    -1.978     12.801     15.119
REMARK INTER + INTRA:          -1.919
REMARK INTER:                  -2.429
REMARK INTRA:                   0.509
REMARK UNBOUND:                 0.521
REMARK SMILES C=C1[C@@H]2CC[C@H]3[C@H]2C(C)(C)CCC[C@@]13C
REMARK SMILES IDX 14 1 6 2 7 3 3 4 2 5 1 6 4 7 5 8 15 9 8 10 9 11 10 12 11 13
REMARK SMILES IDX 13 15 12 16
REMARK H PARENT
REMARK Flexibility Score: 80.00
ROOT
ATOM      1  C   UNL     1     166.595 173.242 139.481  1.00  0.00    -0.008 C 
ATOM      2  C   UNL     1     167.591 173.479 138.354  1.00  0.00     0.003 C 
ATOM      3  C   UNL     1     168.876 173.028 139.071  1.00  0.00     0.006 C 
ATOM      4  C   UNL     1     168.832 174.147 140.097  1.00  0.00     0.019 C 
ATOM      5  C   UNL     1     167.407 173.866 140.628  1.00  0.00    -0.068 C 
ATOM      6  C   UNL     1     166.992 174.062 141.883  1.00  0.00     0.009 C 
ATOM      7  C   UNL     1     168.761 175.406 139.243  1.00  0.00     0.008 C 
ATOM      8  C   UNL     1     167.896 174.968 138.060  1.00  0.00     0.005 C 
ATOM      9  C   UNL     1     165.260 173.991 139.281  1.00  0.00     0.016 C 
ENDROOT
BRANCH   3  10
ATOM     10  C   UNL     1     169.588 171.920 138.261  1.00  0.00    -0.032 C 
ATOM     11  C   UNL     1     170.854 171.396 138.995  1.00  0.00     0.011 C 
ATOM     12  C   UNL     1     170.041 172.446 136.880  1.00  0.00     0.011 C 
BRANCH  10  13
ATOM     13  C   UNL     1     168.513 170.750 138.097  1.00  0.00     0.007 CG0
ATOM     14  G   UNL     1     167.460 170.574 139.276  1.00  0.00     0.000 G0
ENDBRANCH  10  13
ENDBRANCH   3  10
BRANCH   1  15
ATOM     15  C   UNL     1     166.325 171.669 139.535  1.00  0.00     0.011 C 
BRANCH  15  16
ATOM     16  C   UNL     1     167.455 170.571 139.272  1.00  0.00     0.001 CG0
ATOM     17  G   UNL     1     168.518 170.751 138.103  1.00  0.00     0.000 G0
ENDBRANCH  15  16
ENDBRANCH   1  15
TORSDOF 0
ENDMDL
MODEL 6
REMARK VINA RESULT:    -1.876     14.243     16.214
REMARK INTER + INTRA:          -1.793
REMARK INTER:                  -2.306
REMARK INTRA:                   0.513
REMARK UNBOUND:                 0.521
REMARK SMILES C=C1[C@@H]2CC[C@H]3[C@H]2C(C)(C)CCC[C@@]13C
REMARK SMILES IDX 14 1 6 2 7 3 3 4 2 5 1 6 4 7 5 8 15 9 8 10 9 11 10 12 11 13
REMARK SMILES IDX 13 15 12 16
REMARK H PARENT
REMARK Flexibility Score: 80.00
ROOT
ATOM      1  C   UNL     1     166.040 174.769 140.654  1.00  0.00    -0.008 C 
ATOM      2  C   UNL     1     167.430 174.153 140.719  1.00  0.00     0.003 C 
ATOM      3  C   UNL     1     167.432 173.423 139.364  1.00  0.00     0.006 C 
ATOM      4  C   UNL     1     166.318 172.466 139.750  1.00  0.00     0.019 C 
ATOM      5  C   UNL     1     165.275 173.535 140.149  1.00  0.00    -0.068 C 
ATOM      6  C   UNL     1     163.951 173.423 140.003  1.00  0.00     0.009 C 
ATOM      7  C   UNL     1     166.831 171.826 141.034  1.00  0.00     0.008 C 
ATOM      8  C   UNL     1     167.574 172.977 141.715  1.00  0.00     0.005 C 
ATOM      9  C   UNL     1     165.509 175.221 142.032  1.00  0.00     0.016 C 
ENDROOT
BRANCH   3  10
ATOM     10  C   UNL     1     168.644 173.864 138.512  1.00  0.00    -0.032 C 
ATOM     11  C   UNL     1     168.626 173.205 137.104  1.00  0.00     0.011 C 
ATOM     12  C   UNL     1     169.974 173.464 139.190  1.00  0.00     0.011 C 
BRANCH  10  13
ATOM     13  C   UNL     1     168.526 175.452 138.387  1.00  0.00     0.007 CG0
ATOM     14  G   UNL     1     167.059 176.064 138.392  1.00  0.00     0.000 G0
ENDBRANCH  10  13
ENDBRANCH   3  10
BRANCH   1  15
ATOM     15  C   UNL     1     166.138 176.029 139.678  1.00  0.00     0.011 C 
BRANCH  15  16
ATOM     16  C   UNL     1     167.070 176.070 138.381  1.00  0.00     0.001 CG0
ATOM     17  G   UNL     1     168.532 175.444 138.401  1.00  0.00     0.000 G0
ENDBRANCH  15  16
ENDBRANCH   1  15
TORSDOF 0
ENDMDL
MODEL 7
REMARK VINA RESULT:    -1.860      1.787      4.083
REMARK INTER + INTRA:          -1.773
REMARK INTER:                  -2.283
REMARK INTRA:                   0.510
REMARK UNBOUND:                 0.521
REMARK SMILES C=C1[C@@H]2CC[C@H]3[C@H]2C(C)(C)CCC[C@@]13C
REMARK SMILES IDX 14 1 6 2 7 3 3 4 2 5 1 6 4 7 5 8 15 9 8 10 9 11 10 12 11 13
REMARK SMILES IDX 13 15 12 16
REMARK H PARENT
REMARK Flexibility Score: 80.00
ROOT
ATOM      1  C   UNL     1     163.192 158.798 138.230  1.00  0.00    -0.008 C 
ATOM      2  C   UNL     1     164.396 159.472 138.873  1.00  0.00     0.003 C 
ATOM      3  C   UNL     1     164.416 158.704 140.207  1.00  0.00     0.006 C 
ATOM      4  C   UNL     1     163.081 159.256 140.675  1.00  0.00     0.019 C 
ATOM      5  C   UNL     1     162.250 158.821 139.446  1.00  0.00    -0.068 C 
ATOM      6  C   UNL     1     160.964 158.458 139.464  1.00  0.00     0.009 C 
ATOM      7  C   UNL     1     163.272 160.764 140.588  1.00  0.00     0.008 C 
ATOM      8  C   UNL     1     164.151 160.925 139.346  1.00  0.00     0.005 C 
ATOM      9  C   UNL     1     162.596 159.606 137.057  1.00  0.00     0.016 C 
ENDROOT
BRANCH   3  10
ATOM     10  C   UNL     1     165.795 158.042 140.430  1.00  0.00    -0.032 C 
ATOM     11  C   UNL     1     165.829 157.218 141.747  1.00  0.00     0.011 C 
ATOM     12  C   UNL     1     166.912 159.106 140.525  1.00  0.00     0.011 C 
BRANCH  10  13
ATOM     13  C   UNL     1     166.024 157.089 139.169  1.00  0.00     0.007 CG0
ATOM     14  G   UNL     1     164.725 156.464 138.498  1.00  0.00     0.000 G0
ENDBRANCH  10  13
ENDBRANCH   3  10
BRANCH   1  15
ATOM     15  C   UNL     1     163.686 157.374 137.704  1.00  0.00     0.011 C 
BRANCH  15  16
ATOM     16  C   UNL     1     164.735 156.459 138.489  1.00  0.00     0.001 CG0
ATOM     17  G   UNL     1     166.026 157.089 139.169  1.00  0.00     0.000 G0
ENDBRANCH  15  16
ENDBRANCH   1  15
TORSDOF 0
ENDMDL
MODEL 8
REMARK VINA RESULT:    -1.763      1.986      3.340
REMARK INTER + INTRA:          -1.654
REMARK INTER:                  -2.176
REMARK INTRA:                   0.521
REMARK UNBOUND:                 0.521
REMARK SMILES C=C1[C@@H]2CC[C@H]3[C@H]2C(C)(C)CCC[C@@]13C
REMARK SMILES IDX 14 1 6 2 7 3 3 4 2 5 1 6 4 7 5 8 15 9 8 10 9 11 10 12 11 13
REMARK SMILES IDX 13 15 12 16
REMARK H PARENT
REMARK Flexibility Score: 80.00
ROOT
ATOM      1  C   UNL     1     166.034 157.899 140.939  1.00  0.00    -0.008 C 
ATOM      2  C   UNL     1     164.562 158.289 140.924  1.00  0.00     0.003 C 
ATOM      3  C   UNL     1     164.471 158.825 139.483  1.00  0.00     0.006 C 
ATOM      4  C   UNL     1     165.412 159.990 139.737  1.00  0.00     0.019 C 
ATOM      5  C   UNL     1     166.604 159.162 140.272  1.00  0.00    -0.068 C 
ATOM      6  C   UNL     1     167.896 159.463 140.110  1.00  0.00     0.009 C 
ATOM      7  C   UNL     1     164.780 160.703 140.925  1.00  0.00     0.008 C 
ATOM      8  C   UNL     1     164.215 159.548 141.755  1.00  0.00     0.005 C 
ATOM      9  C   UNL     1     166.602 157.723 142.363  1.00  0.00     0.016 C 
ENDROOT
BRANCH   3  10
ATOM     10  C   UNL     1     163.361 158.088 138.700  1.00  0.00    -0.032 C 
ATOM     11  C   UNL     1     163.311 158.539 137.214  1.00  0.00     0.011 C 
ATOM     12  C   UNL     1     161.970 158.368 139.313  1.00  0.00     0.011 C 
BRANCH  10  13
ATOM     13  C   UNL     1     163.722 156.535 138.801  1.00  0.00     0.007 CG0
ATOM     14  G   UNL     1     165.267 156.161 138.855  1.00  0.00     0.000 G0
ENDBRANCH  10  13
ENDBRANCH   3  10
BRANCH   1  15
ATOM     15  C   UNL     1     166.155 156.522 140.140  1.00  0.00     0.011 C 
BRANCH  15  16
ATOM     16  C   UNL     1     165.268 156.165 138.859  1.00  0.00     0.001 CG0
ATOM     17  G   UNL     1     163.724 156.537 138.800  1.00  0.00     0.000 G0
ENDBRANCH  15  16
ENDBRANCH   1  15
TORSDOF 0
ENDMDL
MODEL 9
REMARK VINA RESULT:    -1.743     12.617     14.827
REMARK INTER + INTRA:          -1.629
REMARK INTER:                  -2.147
REMARK INTRA:                   0.518
REMARK UNBOUND:                 0.521
REMARK SMILES C=C1[C@@H]2CC[C@H]3[C@H]2C(C)(C)CCC[C@@]13C
REMARK SMILES IDX 14 1 6 2 7 3 3 4 2 5 1 6 4 7 5 8 15 9 8 10 9 11 10 12 11 13
REMARK SMILES IDX 13 15 12 16
REMARK H PARENT
REMARK Flexibility Score: 80.00
ROOT
ATOM      1  C   UNL     1     168.224 173.931 139.329  1.00  0.00    -0.008 C 
ATOM      2  C   UNL     1     169.249 173.113 138.556  1.00  0.00     0.003 C 
ATOM      3  C   UNL     1     168.799 171.703 138.980  1.00  0.00     0.006 C 
ATOM      4  C   UNL     1     169.153 171.906 140.443  1.00  0.00     0.019 C 
ATOM      5  C   UNL     1     168.309 173.182 140.669  1.00  0.00    -0.068 C 
ATOM      6  C   UNL     1     167.703 173.522 141.811  1.00  0.00     0.009 C 
ATOM      7  C   UNL     1     170.616 172.328 140.398  1.00  0.00     0.008 C 
ATOM      8  C   UNL     1     170.689 173.172 139.123  1.00  0.00     0.005 C 
ATOM      9  C   UNL     1     168.629 175.411 139.498  1.00  0.00     0.016 C 
ENDROOT
BRANCH   3  10
ATOM     10  C   UNL     1     168.495 170.835 137.738  1.00  0.00    -0.032 C 
ATOM     11  C   UNL     1     167.978 169.425 138.135  1.00  0.00     0.011 C 
ATOM     12  C   UNL     1     169.763 170.634 136.877  1.00  0.00     0.011 C 
BRANCH  10  13
ATOM     13  C   UNL     1     167.376 171.631 136.921  1.00  0.00     0.007 CG0
ATOM     14  G   UNL     1     166.364 172.516 137.769  1.00  0.00     0.000 G0
ENDBRANCH  10  13
ENDBRANCH   3  10
BRANCH   1  15
ATOM     15  C   UNL     1     166.853 173.839 138.516  1.00  0.00     0.011 C 
BRANCH  15  16
ATOM     16  C   UNL     1     166.358 172.517 137.768  1.00  0.00     0.001 CG0
ATOM     17  G   UNL     1     167.366 171.630 136.916  1.00  0.00     0.000 G0
ENDBRANCH  15  16
ENDBRANCH   1  15
TORSDOF 0
ENDMDL
