MODEL 1
REMARK VINA RESULT:    -4.210      0.000      0.000
REMARK INTER + INTRA:          -5.411
REMARK INTER:                  -5.933
REMARK INTRA:                   0.522
REMARK UNBOUND:                 0.522
REMARK SMILES CC1=CCC(=C(C)C)C(=O)CC(C)=CCC1
REMARK SMILES IDX 12 1 14 2 13 3 15 4 16 5 2 6 1 7 3 8 11 10 9 11 10 12 5 13
REMARK SMILES IDX 6 14 7 15 8 16 4 17
REMARK H PARENT
REMARK Flexibility Score: 60.00
ROOT
ATOM      1  C   UNL     1     -15.501 -21.834  21.948  1.00  0.00    -0.070 C 
ATOM      2  C   UNL     1     -14.820 -21.760  20.774  1.00  0.00    -0.027 C 
ATOM      3  C   UNL     1     -16.911 -21.291  21.950  1.00  0.00     0.039 C 
ENDROOT
BRANCH   2   4
ATOM      4  C   UNL     1     -13.373 -22.117  20.530  1.00  0.00     0.032 C 
BRANCH   4   5
ATOM      5  C   UNL     1     -12.361 -21.065  21.014  1.00  0.00     0.034 C 
BRANCH   5   6
ATOM      6  C   UNL     1     -11.255 -21.583  21.918  1.00  0.00    -0.077 C 
ATOM      7  C   UNL     1     -10.157 -22.420  21.313  1.00  0.00     0.039 C 
ATOM      8  C   UNL     1     -11.151 -21.260  23.229  1.00  0.00    -0.023 CG0
ATOM      9  G   UNL     1     -12.210 -20.564  24.044  1.00  0.00     0.000 G0
ENDBRANCH   5   6
ENDBRANCH   4   5
ENDBRANCH   2   4
BRANCH   1  10
ATOM     10  C   UNL     1     -15.012 -22.523  23.218  1.00  0.00     0.111 C 
BRANCH  10  11
ATOM     11  C   UNL     1     -14.556 -21.609  24.322  1.00  0.00     0.163 C 
ATOM     12  O   UNL     1     -15.405 -20.937  24.966  1.00  0.00    -0.294 OA
BRANCH  11  13
ATOM     13  C   UNL     1     -13.130 -21.582  24.734  1.00  0.00    -0.002 C 
ATOM     14  C   UNL     1     -12.672 -22.478  25.651  1.00  0.00    -0.069 C 
ATOM     15  C   UNL     1     -11.221 -22.514  26.069  1.00  0.00     0.039 C 
ATOM     16  C   UNL     1     -13.606 -23.496  26.267  1.00  0.00     0.039 C 
BRANCH  13  17
ATOM     17  C   UNL     1     -12.225 -20.565  24.053  1.00  0.00     0.066 CG0
ATOM     18  G   UNL     1     -11.159 -21.275  23.258  1.00  0.00     0.000 G0
ENDBRANCH  13  17
ENDBRANCH  11  13
ENDBRANCH  10  11
ENDBRANCH   1  10
TORSDOF 0
ENDMDL
MODEL 2
REMARK VINA RESULT:    -4.165      1.639      3.934
REMARK INTER + INTRA:          -5.347
REMARK INTER:                  -5.902
REMARK INTRA:                   0.555
REMARK UNBOUND:                 0.522
REMARK SMILES CC1=CCC(=C(C)C)C(=O)CC(C)=CCC1
REMARK SMILES IDX 12 1 14 2 13 3 15 4 16 5 2 6 1 7 3 8 11 10 9 11 10 12 5 13
REMARK SMILES IDX 6 14 7 15 8 16 4 17
REMARK H PARENT
REMARK Flexibility Score: 60.00
ROOT
ATOM      1  C   UNL     1     -15.187 -21.788  23.798  1.00  0.00    -0.070 C 
ATOM      2  C   UNL     1     -14.825 -21.825  25.107  1.00  0.00    -0.027 C 
ATOM      3  C   UNL     1     -16.180 -20.722  23.398  1.00  0.00     0.039 C 
ENDROOT
BRANCH   2   4
ATOM      4  C   UNL     1     -13.951 -22.851  25.789  1.00  0.00     0.032 C 
BRANCH   4   5
ATOM      5  C   UNL     1     -12.455 -22.499  25.824  1.00  0.00     0.034 C 
BRANCH   5   6
ATOM      6  C   UNL     1     -11.547 -23.404  25.007  1.00  0.00    -0.077 C 
ATOM      7  C   UNL     1     -11.062 -24.692  25.623  1.00  0.00     0.039 C 
ATOM      8  C   UNL     1     -11.219 -23.161  23.716  1.00  0.00    -0.023 CG0
ATOM      9  G   UNL     1     -11.479 -21.875  22.975  1.00  0.00     0.000 G0
ENDBRANCH   5   6
ENDBRANCH   4   5
ENDBRANCH   2   4
BRANCH   1  10
ATOM     10  C   UNL     1     -14.588 -22.643  22.686  1.00  0.00     0.111 C 
BRANCH  10  11
ATOM     11  C   UNL     1     -13.725 -21.913  21.694  1.00  0.00     0.163 C 
ATOM     12  O   UNL     1     -14.237 -21.039  20.944  1.00  0.00    -0.294 OA
BRANCH  11  13
ATOM     13  C   UNL     1     -12.256 -22.130  21.672  1.00  0.00    -0.002 C 
ATOM     14  C   UNL     1     -11.643 -22.504  20.515  1.00  0.00    -0.069 C 
ATOM     15  C   UNL     1     -10.147 -22.696  20.436  1.00  0.00     0.039 C 
ATOM     16  C   UNL     1     -12.447 -22.718  19.252  1.00  0.00     0.039 C 
BRANCH  13  17
ATOM     17  C   UNL     1     -11.490 -21.861  22.961  1.00  0.00     0.066 CG0
ATOM     18  G   UNL     1     -11.247 -23.155  23.694  1.00  0.00     0.000 G0
ENDBRANCH  13  17
ENDBRANCH  11  13
ENDBRANCH  10  11
ENDBRANCH   1  10
TORSDOF 0
ENDMDL
MODEL 3
REMARK VINA RESULT:    -4.118      2.095      4.325
REMARK INTER + INTRA:          -5.282
REMARK INTER:                  -5.443
REMARK INTRA:                   0.161
REMARK UNBOUND:                 0.522
REMARK SMILES CC1=CCC(=C(C)C)C(=O)CC(C)=CCC1
REMARK SMILES IDX 12 1 14 2 13 3 15 4 16 5 2 6 1 7 3 8 11 10 9 11 10 12 5 13
REMARK SMILES IDX 6 14 7 15 8 16 4 17
REMARK H PARENT
REMARK Flexibility Score: 60.00
ROOT
ATOM      1  C   UNL     1     -10.611 -20.430  20.313  1.00  0.00    -0.070 C 
ATOM      2  C   UNL     1      -9.575 -19.979  21.068  1.00  0.00    -0.027 C 
ATOM      3  C   UNL     1     -10.259 -21.068  18.990  1.00  0.00     0.039 C 
ENDROOT
BRANCH   2   4
ATOM      4  C   UNL     1      -9.653 -19.204  22.362  1.00  0.00     0.032 C 
BRANCH   4   5
ATOM      5  C   UNL     1      -9.845 -20.069  23.619  1.00  0.00     0.034 C 
BRANCH   5   6
ATOM      6  C   UNL     1     -11.015 -19.685  24.509  1.00  0.00    -0.077 C 
ATOM      7  C   UNL     1     -10.929 -18.408  25.308  1.00  0.00     0.039 C 
ATOM      8  C   UNL     1     -12.174 -20.382  24.560  1.00  0.00    -0.023 CG0
ATOM      9  G   UNL     1     -12.402 -21.744  23.957  1.00  0.00     0.000 G0
ENDBRANCH   5   6
ENDBRANCH   4   5
ENDBRANCH   2   4
BRANCH   1  10
ATOM     10  C   UNL     1     -12.075 -20.458  20.739  1.00  0.00     0.111 C 
BRANCH  10  11
ATOM     11  C   UNL     1     -12.536 -21.724  21.408  1.00  0.00     0.163 C 
ATOM     12  O   UNL     1     -12.228 -22.840  20.912  1.00  0.00    -0.294 OA
BRANCH  11  13
ATOM     13  C   UNL     1     -13.250 -21.669  22.708  1.00  0.00    -0.002 C 
ATOM     14  C   UNL     1     -14.610 -21.593  22.733  1.00  0.00    -0.069 C 
ATOM     15  C   UNL     1     -15.380 -21.577  24.032  1.00  0.00     0.039 C 
ATOM     16  C   UNL     1     -15.402 -21.546  21.446  1.00  0.00     0.039 C 
BRANCH  13  17
ATOM     17  C   UNL     1     -12.407 -21.761  23.973  1.00  0.00     0.066 CG0
ATOM     18  G   UNL     1     -12.185 -20.384  24.545  1.00  0.00     0.000 G0
ENDBRANCH  13  17
ENDBRANCH  11  13
ENDBRANCH  10  11
ENDBRANCH   1  10
TORSDOF 0
ENDMDL
MODEL 4
REMARK VINA RESULT:    -4.118      1.868      3.827
REMARK INTER + INTRA:          -5.281
REMARK INTER:                  -5.825
REMARK INTRA:                   0.543
REMARK UNBOUND:                 0.522
REMARK SMILES CC1=CCC(=C(C)C)C(=O)CC(C)=CCC1
REMARK SMILES IDX 12 1 14 2 13 3 15 4 16 5 2 6 1 7 3 8 11 10 9 11 10 12 5 13
REMARK SMILES IDX 6 14 7 15 8 16 4 17
REMARK H PARENT
REMARK Flexibility Score: 60.00
ROOT
ATOM      1  C   UNL     1     -12.854 -21.973  20.373  1.00  0.00    -0.070 C 
ATOM      2  C   UNL     1     -14.203 -22.112  20.296  1.00  0.00    -0.027 C 
ATOM      3  C   UNL     1     -12.025 -22.909  19.525  1.00  0.00     0.039 C 
ENDROOT
BRANCH   2   4
ATOM      4  C   UNL     1     -15.247 -21.394  21.118  1.00  0.00     0.032 C 
BRANCH   4   5
ATOM      5  C   UNL     1     -15.633 -22.102  22.427  1.00  0.00     0.034 C 
BRANCH   5   6
ATOM      6  C   UNL     1     -14.934 -21.598  23.678  1.00  0.00    -0.077 C 
ATOM      7  C   UNL     1     -15.552 -20.455  24.443  1.00  0.00     0.039 C 
ATOM      8  C   UNL     1     -13.828 -22.180  24.200  1.00  0.00    -0.023 CG0
ATOM      9  G   UNL     1     -12.987 -23.227  23.517  1.00  0.00     0.000 G0
ENDBRANCH   5   6
ENDBRANCH   4   5
ENDBRANCH   2   4
BRANCH   1  10
ATOM     10  C   UNL     1     -12.115 -20.881  21.141  1.00  0.00     0.111 C 
BRANCH  10  11
ATOM     11  C   UNL     1     -11.727 -21.225  22.553  1.00  0.00     0.163 C 
ATOM     12  O   UNL     1     -11.527 -20.303  23.388  1.00  0.00    -0.294 OA
BRANCH  11  13
ATOM     13  C   UNL     1     -11.693 -22.641  23.000  1.00  0.00    -0.002 C 
ATOM     14  C   UNL     1     -10.521 -23.332  22.973  1.00  0.00    -0.069 C 
ATOM     15  C   UNL     1     -10.430 -24.761  23.457  1.00  0.00     0.039 C 
ATOM     16  C   UNL     1      -9.251 -22.677  22.477  1.00  0.00     0.039 C 
BRANCH  13  17
ATOM     17  C   UNL     1     -12.990 -23.238  23.529  1.00  0.00     0.066 CG0
ATOM     18  G   UNL     1     -13.813 -22.169  24.200  1.00  0.00     0.000 G0
ENDBRANCH  13  17
ENDBRANCH  11  13
ENDBRANCH  10  11
ENDBRANCH   1  10
TORSDOF 0
ENDMDL
MODEL 5
REMARK VINA RESULT:    -3.984      2.478      4.383
REMARK INTER + INTRA:          -5.093
REMARK INTER:                  -5.290
REMARK INTRA:                   0.197
REMARK UNBOUND:                 0.522
REMARK SMILES CC1=CCC(=C(C)C)C(=O)CC(C)=CCC1
REMARK SMILES IDX 12 1 14 2 13 3 15 4 16 5 2 6 1 7 3 8 11 10 9 11 10 12 5 13
REMARK SMILES IDX 6 14 7 15 8 16 4 17
REMARK H PARENT
REMARK Flexibility Score: 60.00
ROOT
ATOM      1  C   UNL     1     -10.223 -22.643  19.610  1.00  0.00    -0.070 C 
ATOM      2  C   UNL     1     -11.500 -22.424  19.204  1.00  0.00    -0.027 C 
ATOM      3  C   UNL     1      -9.150 -22.569  18.549  1.00  0.00     0.039 C 
ENDROOT
BRANCH   2   4
ATOM      4  C   UNL     1     -12.759 -22.554  20.027  1.00  0.00     0.032 C 
BRANCH   4   5
ATOM      5  C   UNL     1     -13.112 -21.312  20.863  1.00  0.00     0.034 C 
BRANCH   5   6
ATOM      6  C   UNL     1     -13.362 -21.562  22.341  1.00  0.00    -0.077 C 
ATOM      7  C   UNL     1     -14.629 -22.272  22.751  1.00  0.00     0.039 C 
ATOM      8  C   UNL     1     -12.466 -21.263  23.310  1.00  0.00    -0.023 CG0
ATOM      9  G   UNL     1     -11.223 -20.432  23.125  1.00  0.00     0.000 G0
ENDBRANCH   5   6
ENDBRANCH   4   5
ENDBRANCH   2   4
BRANCH   1  10
ATOM     10  C   UNL     1      -9.769 -22.834  21.054  1.00  0.00     0.111 C 
BRANCH  10  11
ATOM     11  C   UNL     1      -9.392 -21.578  21.791  1.00  0.00     0.163 C 
ATOM     12  O   UNL     1      -8.642 -20.730  21.238  1.00  0.00    -0.294 OA
BRANCH  11  13
ATOM     13  C   UNL     1      -9.989 -21.277  23.117  1.00  0.00    -0.002 C 
ATOM     14  C   UNL     1      -9.388 -21.732  24.251  1.00  0.00    -0.069 C 
ATOM     15  C   UNL     1      -9.937 -21.415  25.622  1.00  0.00     0.039 C 
ATOM     16  C   UNL     1      -8.124 -22.559  24.173  1.00  0.00     0.039 C 
BRANCH  13  17
ATOM     17  C   UNL     1     -11.239 -20.407  23.139  1.00  0.00     0.066 CG0
ATOM     18  G   UNL     1     -12.463 -21.269  23.302  1.00  0.00     0.000 G0
ENDBRANCH  13  17
ENDBRANCH  11  13
ENDBRANCH  10  11
ENDBRANCH   1  10
TORSDOF 0
ENDMDL
MODEL 6
REMARK VINA RESULT:    -3.955      1.602      2.564
REMARK INTER + INTRA:          -5.052
REMARK INTER:                  -5.628
REMARK INTRA:                   0.575
REMARK UNBOUND:                 0.522
REMARK SMILES CC1=CCC(=C(C)C)C(=O)CC(C)=CCC1
REMARK SMILES IDX 12 1 14 2 13 3 15 4 16 5 2 6 1 7 3 8 11 10 9 11 10 12 5 13
REMARK SMILES IDX 6 14 7 15 8 16 4 17
REMARK H PARENT
REMARK Flexibility Score: 60.00
ROOT
ATOM      1  C   UNL     1     -15.154 -21.395  24.202  1.00  0.00    -0.070 C 
ATOM      2  C   UNL     1     -15.718 -21.304  22.969  1.00  0.00    -0.027 C 
ATOM      3  C   UNL     1     -15.537 -20.330  25.203  1.00  0.00     0.039 C 
ENDROOT
BRANCH   2   4
ATOM      4  C   UNL     1     -15.420 -22.158  21.760  1.00  0.00     0.032 C 
BRANCH   4   5
ATOM      5  C   UNL     1     -14.615 -21.452  20.657  1.00  0.00     0.034 C 
BRANCH   5   6
ATOM      6  C   UNL     1     -13.191 -21.946  20.461  1.00  0.00    -0.077 C 
ATOM      7  C   UNL     1     -12.894 -22.860  19.299  1.00  0.00     0.039 C 
ATOM      8  C   UNL     1     -12.149 -21.540  21.224  1.00  0.00    -0.023 CG0
ATOM      9  G   UNL     1     -12.258 -20.755  22.506  1.00  0.00     0.000 G0
ENDBRANCH   5   6
ENDBRANCH   4   5
ENDBRANCH   2   4
BRANCH   1  10
ATOM     10  C   UNL     1     -14.273 -22.538  24.695  1.00  0.00     0.111 C 
BRANCH  10  11
ATOM     11  C   UNL     1     -13.016 -22.780  23.907  1.00  0.00     0.163 C 
ATOM     12  O   UNL     1     -12.842 -23.887  23.332  1.00  0.00    -0.294 OA
BRANCH  11  13
ATOM     13  C   UNL     1     -12.033 -21.685  23.706  1.00  0.00    -0.002 C 
ATOM     14  C   UNL     1     -10.960 -21.575  24.538  1.00  0.00    -0.069 C 
ATOM     15  C   UNL     1      -9.913 -20.503  24.346  1.00  0.00     0.039 C 
ATOM     16  C   UNL     1     -10.768 -22.549  25.679  1.00  0.00     0.039 C 
BRANCH  13  17
ATOM     17  C   UNL     1     -12.252 -20.758  22.518  1.00  0.00     0.066 CG0
ATOM     18  G   UNL     1     -12.152 -21.537  21.232  1.00  0.00     0.000 G0
ENDBRANCH  13  17
ENDBRANCH  11  13
ENDBRANCH  10  11
ENDBRANCH   1  10
TORSDOF 0
ENDMDL
MODEL 7
REMARK VINA RESULT:    -3.852      1.835      3.761
REMARK INTER + INTRA:          -4.907
REMARK INTER:                  -5.714
REMARK INTRA:                   0.807
REMARK UNBOUND:                 0.522
REMARK SMILES CC1=CCC(=C(C)C)C(=O)CC(C)=CCC1
REMARK SMILES IDX 12 1 14 2 13 3 15 4 16 5 2 6 1 7 3 8 11 10 9 11 10 12 5 13
REMARK SMILES IDX 6 14 7 15 8 16 4 17
REMARK H PARENT
REMARK Flexibility Score: 60.00
ROOT
ATOM      1  C   UNL     1     -12.699 -23.721  24.312  1.00  0.00    -0.070 C 
ATOM      2  C   UNL     1     -11.524 -23.678  23.633  1.00  0.00    -0.027 C 
ATOM      3  C   UNL     1     -13.236 -25.092  24.654  1.00  0.00     0.039 C 
ENDROOT
BRANCH   2   4
ATOM      4  C   UNL     1     -10.834 -22.458  23.070  1.00  0.00     0.032 C 
BRANCH   4   5
ATOM      5  C   UNL     1     -10.878 -22.345  21.537  1.00  0.00     0.034 C 
BRANCH   5   6
ATOM      6  C   UNL     1     -11.605 -21.130  20.987  1.00  0.00    -0.077 C 
ATOM      7  C   UNL     1     -10.791 -19.974  20.462  1.00  0.00     0.039 C 
ATOM      8  C   UNL     1     -12.951 -21.061  20.858  1.00  0.00    -0.023 CG0
ATOM      9  G   UNL     1     -13.936 -22.037  21.448  1.00  0.00     0.000 G0
ENDBRANCH   5   6
ENDBRANCH   4   5
ENDBRANCH   2   4
BRANCH   1  10
ATOM     10  C   UNL     1     -13.453 -22.515  24.862  1.00  0.00     0.111 C 
BRANCH  10  11
ATOM     11  C   UNL     1     -13.617 -21.359  23.914  1.00  0.00     0.163 C 
ATOM     12  O   UNL     1     -12.905 -20.329  24.055  1.00  0.00    -0.294 OA
BRANCH  11  13
ATOM     13  C   UNL     1     -14.527 -21.469  22.746  1.00  0.00    -0.002 C 
ATOM     14  C   UNL     1     -15.813 -21.033  22.845  1.00  0.00    -0.069 C 
ATOM     15  C   UNL     1     -16.762 -21.086  21.670  1.00  0.00     0.039 C 
ATOM     16  C   UNL     1     -16.331 -20.451  24.141  1.00  0.00     0.039 C 
BRANCH  13  17
ATOM     17  C   UNL     1     -13.943 -22.024  21.454  1.00  0.00     0.066 CG0
ATOM     18  G   UNL     1     -12.944 -21.051  20.882  1.00  0.00     0.000 G0
ENDBRANCH  13  17
ENDBRANCH  11  13
ENDBRANCH  10  11
ENDBRANCH   1  10
TORSDOF 0
ENDMDL
MODEL 8
REMARK VINA RESULT:    -3.821      2.065      4.486
REMARK INTER + INTRA:          -4.862
REMARK INTER:                  -5.383
REMARK INTRA:                   0.521
REMARK UNBOUND:                 0.522
REMARK SMILES CC1=CCC(=C(C)C)C(=O)CC(C)=CCC1
REMARK SMILES IDX 12 1 14 2 13 3 15 4 16 5 2 6 1 7 3 8 11 10 9 11 10 12 5 13
REMARK SMILES IDX 6 14 7 15 8 16 4 17
REMARK H PARENT
REMARK Flexibility Score: 60.00
ROOT
ATOM      1  C   UNL     1     -13.962 -21.998  21.450  1.00  0.00    -0.070 C 
ATOM      2  C   UNL     1     -13.833 -22.466  22.718  1.00  0.00    -0.027 C 
ATOM      3  C   UNL     1     -15.184 -21.159  21.156  1.00  0.00     0.039 C 
ENDROOT
BRANCH   2   4
ATOM      4  C   UNL     1     -12.782 -23.414  23.244  1.00  0.00     0.032 C 
BRANCH   4   5
ATOM      5  C   UNL     1     -11.880 -22.829  24.343  1.00  0.00     0.034 C 
BRANCH   5   6
ATOM      6  C   UNL     1     -11.206 -21.508  24.007  1.00  0.00    -0.077 C 
ATOM      7  C   UNL     1     -11.503 -20.304  24.866  1.00  0.00     0.039 C 
ATOM      8  C   UNL     1     -10.280 -21.371  23.029  1.00  0.00    -0.023 CG0
ATOM      9  G   UNL     1      -9.956 -22.403  21.981  1.00  0.00     0.000 G0
ENDBRANCH   5   6
ENDBRANCH   4   5
ENDBRANCH   2   4
BRANCH   1  10
ATOM     10  C   UNL     1     -12.926 -22.141  20.340  1.00  0.00     0.111 C 
BRANCH  10  11
ATOM     11  C   UNL     1     -11.708 -21.268  20.467  1.00  0.00     0.163 C 
ATOM     12  O   UNL     1     -11.842 -20.019  20.568  1.00  0.00    -0.294 OA
BRANCH  11  13
ATOM     13  C   UNL     1     -10.358 -21.875  20.591  1.00  0.00    -0.002 C 
ATOM     14  C   UNL     1      -9.520 -21.890  19.518  1.00  0.00    -0.069 C 
ATOM     15  C   UNL     1      -8.124 -22.459  19.609  1.00  0.00     0.039 C 
ATOM     16  C   UNL     1      -9.956 -21.308  18.192  1.00  0.00     0.039 C 
BRANCH  13  17
ATOM     17  C   UNL     1      -9.955 -22.409  21.959  1.00  0.00     0.066 CG0
ATOM     18  G   UNL     1     -10.272 -21.390  23.023  1.00  0.00     0.000 G0
ENDBRANCH  13  17
ENDBRANCH  11  13
ENDBRANCH  10  11
ENDBRANCH   1  10
TORSDOF 0
ENDMDL
MODEL 9
REMARK VINA RESULT:    -3.736      2.236      3.959
REMARK INTER + INTRA:          -4.743
REMARK INTER:                  -5.456
REMARK INTRA:                   0.713
REMARK UNBOUND:                 0.522
REMARK SMILES CC1=CCC(=C(C)C)C(=O)CC(C)=CCC1
REMARK SMILES IDX 12 1 14 2 13 3 15 4 16 5 2 6 1 7 3 8 11 10 9 11 10 12 5 13
REMARK SMILES IDX 6 14 7 15 8 16 4 17
REMARK H PARENT
REMARK Flexibility Score: 60.00
ROOT
ATOM      1  C   UNL     1     -13.287 -21.745  20.661  1.00  0.00    -0.070 C 
ATOM      2  C   UNL     1     -14.324 -22.040  21.487  1.00  0.00    -0.027 C 
ATOM      3  C   UNL     1     -13.142 -22.596  19.421  1.00  0.00     0.039 C 
ENDROOT
BRANCH   2   4
ATOM      4  C   UNL     1     -14.625 -21.430  22.835  1.00  0.00     0.032 C 
BRANCH   4   5
ATOM      5  C   UNL     1     -14.373 -22.362  24.032  1.00  0.00     0.034 C 
BRANCH   5   6
ATOM      6  C   UNL     1     -12.976 -22.953  24.123  1.00  0.00    -0.077 C 
ATOM      7  C   UNL     1     -12.827 -24.452  24.202  1.00  0.00     0.039 C 
ATOM      8  C   UNL     1     -11.846 -22.211  24.048  1.00  0.00    -0.023 CG0
ATOM      9  G   UNL     1     -11.782 -20.707  24.113  1.00  0.00     0.000 G0
ENDBRANCH   5   6
ENDBRANCH   4   5
ENDBRANCH   2   4
BRANCH   1  10
ATOM     10  C   UNL     1     -12.339 -20.560  20.813  1.00  0.00     0.111 C 
BRANCH  10  11
ATOM     11  C   UNL     1     -11.106 -20.812  21.637  1.00  0.00     0.163 C 
ATOM     12  O   UNL     1     -10.165 -21.500  21.159  1.00  0.00    -0.294 OA
BRANCH  11  13
ATOM     13  C   UNL     1     -10.941 -20.161  22.961  1.00  0.00    -0.002 C 
ATOM     14  C   UNL     1     -10.113 -19.089  23.092  1.00  0.00    -0.069 C 
ATOM     15  C   UNL     1      -9.946 -18.370  24.411  1.00  0.00     0.039 C 
ATOM     16  C   UNL     1      -9.343 -18.561  21.902  1.00  0.00     0.039 C 
BRANCH  13  17
ATOM     17  C   UNL     1     -11.771 -20.707  24.116  1.00  0.00     0.066 CG0
ATOM     18  G   UNL     1     -11.846 -22.209  24.031  1.00  0.00     0.000 G0
ENDBRANCH  13  17
ENDBRANCH  11  13
ENDBRANCH  10  11
ENDBRANCH   1  10
TORSDOF 0
ENDMDL
