MODEL 1
REMARK VINA RESULT:    -4.446      0.000      0.000
REMARK INTER + INTRA:          -4.880
REMARK INTER:                  -4.835
REMARK INTRA:                  -0.045
REMARK UNBOUND:                -0.045
REMARK SMILES COc1ccccc1O
REMARK SMILES IDX 3 1 4 2 5 3 6 4 7 5 8 6 2 7 1 8 9 9
REMARK H PARENT 9 10
REMARK Flexibility Score: inf
ROOT
ATOM      1  C   UNL     1      15.103  44.464   6.375  1.00  0.00     0.160 A 
ATOM      2  C   UNL     1      14.544  45.667   5.895  1.00  0.00     0.050 A 
ATOM      3  C   UNL     1      14.324  45.848   4.526  1.00  0.00     0.004 A 
ATOM      4  C   UNL     1      14.659  44.836   3.625  1.00  0.00     0.004 A 
ATOM      5  C   UNL     1      15.213  43.642   4.088  1.00  0.00     0.050 A 
ATOM      6  C   UNL     1      15.436  43.450   5.457  1.00  0.00     0.157 A 
ENDROOT
BRANCH   1   7
ATOM      7  O   UNL     1      15.338  44.247   7.742  1.00  0.00    -0.493 OA
ATOM      8  C   UNL     1      16.381  44.863   8.489  1.00  0.00     0.278 C 
ENDBRANCH   1   7
BRANCH   6   9
ATOM      9  O   UNL     1      15.991  42.244   5.885  1.00  0.00    -0.504 OA
ATOM     10  H   UNL     1      16.522  42.170   6.745  1.00  0.00     0.293 HD
ENDBRANCH   6   9
TORSDOF 2
ENDMDL
MODEL 2
REMARK VINA RESULT:    -4.438      2.630      3.831
REMARK INTER + INTRA:          -4.872
REMARK INTER:                  -4.830
REMARK INTRA:                  -0.041
REMARK UNBOUND:                -0.045
REMARK SMILES COc1ccccc1O
REMARK SMILES IDX 3 1 4 2 5 3 6 4 7 5 8 6 2 7 1 8 9 9
REMARK H PARENT 9 10
REMARK Flexibility Score: inf
ROOT
ATOM      1  C   UNL     1      15.939  42.599   7.926  1.00  0.00     0.160 A 
ATOM      2  C   UNL     1      16.416  42.689   6.602  1.00  0.00     0.050 A 
ATOM      3  C   UNL     1      16.993  43.874   6.137  1.00  0.00     0.004 A 
ATOM      4  C   UNL     1      17.099  44.979   6.984  1.00  0.00     0.004 A 
ATOM      5  C   UNL     1      16.630  44.901   8.296  1.00  0.00     0.050 A 
ATOM      6  C   UNL     1      16.052  43.718   8.772  1.00  0.00     0.157 A 
ENDROOT
BRANCH   1   7
ATOM      7  O   UNL     1      15.355  41.425   8.427  1.00  0.00    -0.493 OA
ATOM      8  C   UNL     1      16.080  40.350   9.016  1.00  0.00     0.278 C 
ENDBRANCH   1   7
BRANCH   6   9
ATOM      9  O   UNL     1      15.594  43.676  10.088  1.00  0.00    -0.504 OA
ATOM     10  H   UNL     1      15.474  44.514  10.645  1.00  0.00     0.293 HD
ENDBRANCH   6   9
TORSDOF 2
ENDMDL
MODEL 3
REMARK VINA RESULT:    -4.410      1.903      3.290
REMARK INTER + INTRA:          -4.842
REMARK INTER:                  -4.815
REMARK INTRA:                  -0.027
REMARK UNBOUND:                -0.045
REMARK SMILES COc1ccccc1O
REMARK SMILES IDX 3 1 4 2 5 3 6 4 7 5 8 6 2 7 1 8 9 9
REMARK H PARENT 9 10
REMARK Flexibility Score: inf
ROOT
ATOM      1  C   UNL     1      15.229  45.207   6.328  1.00  0.00     0.160 A 
ATOM      2  C   UNL     1      15.547  44.588   5.101  1.00  0.00     0.050 A 
ATOM      3  C   UNL     1      16.698  43.804   4.982  1.00  0.00     0.004 A 
ATOM      4  C   UNL     1      17.542  43.630   6.080  1.00  0.00     0.004 A 
ATOM      5  C   UNL     1      17.238  44.238   7.299  1.00  0.00     0.050 A 
ATOM      6  C   UNL     1      16.086  45.024   7.429  1.00  0.00     0.157 A 
ENDROOT
BRANCH   1   7
ATOM      7  O   UNL     1      14.082  46.001   6.484  1.00  0.00    -0.493 OA
ATOM      8  C   UNL     1      13.462  46.739   5.436  1.00  0.00     0.278 C 
ENDBRANCH   1   7
BRANCH   6   9
ATOM      9  O   UNL     1      15.813  45.616   8.662  1.00  0.00    -0.504 OA
ATOM     10  H   UNL     1      15.993  46.597   8.841  1.00  0.00     0.293 HD
ENDBRANCH   6   9
TORSDOF 2
ENDMDL
MODEL 4
REMARK VINA RESULT:    -4.404      1.558      2.459
REMARK INTER + INTRA:          -4.835
REMARK INTER:                  -4.789
REMARK INTRA:                  -0.046
REMARK UNBOUND:                -0.045
REMARK SMILES COc1ccccc1O
REMARK SMILES IDX 3 1 4 2 5 3 6 4 7 5 8 6 2 7 1 8 9 9
REMARK H PARENT 9 10
REMARK Flexibility Score: inf
ROOT
ATOM      1  C   UNL     1      16.517  44.542   6.000  1.00  0.00     0.160 A 
ATOM      2  C   UNL     1      17.011  43.465   5.235  1.00  0.00     0.050 A 
ATOM      3  C   UNL     1      16.361  43.077   4.059  1.00  0.00     0.004 A 
ATOM      4  C   UNL     1      15.217  43.755   3.636  1.00  0.00     0.004 A 
ATOM      5  C   UNL     1      14.719  44.822   4.387  1.00  0.00     0.050 A 
ATOM      6  C   UNL     1      15.363  45.219   5.565  1.00  0.00     0.157 A 
ENDROOT
BRANCH   1   7
ATOM      7  O   UNL     1      17.143  44.959   7.185  1.00  0.00    -0.493 OA
ATOM      8  C   UNL     1      16.936  44.362   8.461  1.00  0.00     0.278 C 
ENDBRANCH   1   7
BRANCH   6   9
ATOM      9  O   UNL     1      14.839  46.289   6.289  1.00  0.00    -0.504 OA
ATOM     10  H   UNL     1      14.328  47.043   5.844  1.00  0.00     0.293 HD
ENDBRANCH   6   9
TORSDOF 2
ENDMDL
MODEL 5
REMARK VINA RESULT:    -4.380      1.826      2.934
REMARK INTER + INTRA:          -4.809
REMARK INTER:                  -4.774
REMARK INTRA:                  -0.035
REMARK UNBOUND:                -0.045
REMARK SMILES COc1ccccc1O
REMARK SMILES IDX 3 1 4 2 5 3 6 4 7 5 8 6 2 7 1 8 9 9
REMARK H PARENT 9 10
REMARK Flexibility Score: inf
ROOT
ATOM      1  C   UNL     1      14.531  45.602   5.057  1.00  0.00     0.160 A 
ATOM      2  C   UNL     1      14.145  44.918   3.886  1.00  0.00     0.050 A 
ATOM      3  C   UNL     1      14.882  43.820   3.432  1.00  0.00     0.004 A 
ATOM      4  C   UNL     1      16.008  43.394   4.139  1.00  0.00     0.004 A 
ATOM      5  C   UNL     1      16.400  44.064   5.300  1.00  0.00     0.050 A 
ATOM      6  C   UNL     1      15.668  45.164   5.763  1.00  0.00     0.157 A 
ENDROOT
BRANCH   1   7
ATOM      7  O   UNL     1      13.815  46.708   5.542  1.00  0.00    -0.493 OA
ATOM      8  C   UNL     1      12.414  46.714   5.794  1.00  0.00     0.278 C 
ENDBRANCH   1   7
BRANCH   6   9
ATOM      9  O   UNL     1      16.087  45.809   6.925  1.00  0.00    -0.504 OA
ATOM     10  H   UNL     1      16.058  46.817   7.024  1.00  0.00     0.293 HD
ENDBRANCH   6   9
TORSDOF 2
ENDMDL
MODEL 6
REMARK VINA RESULT:    -4.327      1.594      3.974
REMARK INTER + INTRA:          -4.751
REMARK INTER:                  -4.705
REMARK INTRA:                  -0.046
REMARK UNBOUND:                -0.045
REMARK SMILES COc1ccccc1O
REMARK SMILES IDX 3 1 4 2 5 3 6 4 7 5 8 6 2 7 1 8 9 9
REMARK H PARENT 9 10
REMARK Flexibility Score: inf
ROOT
ATOM      1  C   UNL     1      15.362  43.813   6.120  1.00  0.00     0.160 A 
ATOM      2  C   UNL     1      15.914  42.618   6.628  1.00  0.00     0.050 A 
ATOM      3  C   UNL     1      16.744  42.645   7.752  1.00  0.00     0.004 A 
ATOM      4  C   UNL     1      17.033  43.858   8.380  1.00  0.00     0.004 A 
ATOM      5  C   UNL     1      16.492  45.047   7.885  1.00  0.00     0.050 A 
ATOM      6  C   UNL     1      15.659  45.031   6.761  1.00  0.00     0.157 A 
ENDROOT
BRANCH   1   7
ATOM      7  O   UNL     1      14.524  43.824   4.993  1.00  0.00    -0.493 OA
ATOM      8  C   UNL     1      14.983  43.754   3.647  1.00  0.00     0.278 C 
ENDBRANCH   1   7
BRANCH   6   9
ATOM      9  O   UNL     1      15.136  46.237   6.294  1.00  0.00    -0.504 OA
ATOM     10  H   UNL     1      15.287  46.558   5.345  1.00  0.00     0.293 HD
ENDBRANCH   6   9
TORSDOF 2
ENDMDL
MODEL 7
REMARK VINA RESULT:    -4.269      1.444      2.398
REMARK INTER + INTRA:          -4.688
REMARK INTER:                  -4.642
REMARK INTRA:                  -0.046
REMARK UNBOUND:                -0.045
REMARK SMILES COc1ccccc1O
REMARK SMILES IDX 3 1 4 2 5 3 6 4 7 5 8 6 2 7 1 8 9 9
REMARK H PARENT 9 10
REMARK Flexibility Score: inf
ROOT
ATOM      1  C   UNL     1      16.342  44.268   5.742  1.00  0.00     0.160 A 
ATOM      2  C   UNL     1      16.460  43.508   4.560  1.00  0.00     0.050 A 
ATOM      3  C   UNL     1      15.459  43.554   3.587  1.00  0.00     0.004 A 
ATOM      4  C   UNL     1      14.331  44.355   3.780  1.00  0.00     0.004 A 
ATOM      5  C   UNL     1      14.203  45.112   4.946  1.00  0.00     0.050 A 
ATOM      6  C   UNL     1      15.202  45.074   5.927  1.00  0.00     0.157 A 
ENDROOT
BRANCH   1   7
ATOM      7  O   UNL     1      17.327  44.247   6.742  1.00  0.00    -0.493 OA
ATOM      8  C   UNL     1      17.517  43.180   7.665  1.00  0.00     0.278 C 
ENDBRANCH   1   7
BRANCH   6   9
ATOM      9  O   UNL     1      15.041  45.842   7.080  1.00  0.00    -0.504 OA
ATOM     10  H   UNL     1      15.402  45.547   7.979  1.00  0.00     0.293 HD
ENDBRANCH   6   9
TORSDOF 2
ENDMDL
MODEL 8
REMARK VINA RESULT:    -4.235      1.721      3.122
REMARK INTER + INTRA:          -4.651
REMARK INTER:                  -4.624
REMARK INTRA:                  -0.027
REMARK UNBOUND:                -0.045
REMARK SMILES COc1ccccc1O
REMARK SMILES IDX 3 1 4 2 5 3 6 4 7 5 8 6 2 7 1 8 9 9
REMARK H PARENT 9 10
REMARK Flexibility Score: inf
ROOT
ATOM      1  C   UNL     1      14.976  44.486   6.427  1.00  0.00     0.160 A 
ATOM      2  C   UNL     1      16.006  45.264   6.995  1.00  0.00     0.050 A 
ATOM      3  C   UNL     1      17.136  44.650   7.542  1.00  0.00     0.004 A 
ATOM      4  C   UNL     1      17.251  43.259   7.531  1.00  0.00     0.004 A 
ATOM      5  C   UNL     1      16.237  42.479   6.971  1.00  0.00     0.050 A 
ATOM      6  C   UNL     1      15.102  43.084   6.419  1.00  0.00     0.157 A 
ENDROOT
BRANCH   1   7
ATOM      7  O   UNL     1      13.827  45.067   5.867  1.00  0.00    -0.493 OA
ATOM      8  C   UNL     1      13.792  46.350   5.249  1.00  0.00     0.278 C 
ENDBRANCH   1   7
BRANCH   6   9
ATOM      9  O   UNL     1      14.110  42.274   5.869  1.00  0.00    -0.504 OA
ATOM     10  H   UNL     1      14.200  41.266   5.822  1.00  0.00     0.293 HD
ENDBRANCH   6   9
TORSDOF 2
ENDMDL
MODEL 9
REMARK VINA RESULT:    -4.234      1.530      2.540
REMARK INTER + INTRA:          -4.650
REMARK INTER:                  -4.609
REMARK INTRA:                  -0.041
REMARK UNBOUND:                -0.045
REMARK SMILES COc1ccccc1O
REMARK SMILES IDX 3 1 4 2 5 3 6 4 7 5 8 6 2 7 1 8 9 9
REMARK H PARENT 9 10
REMARK Flexibility Score: inf
ROOT
ATOM      1  C   UNL     1      14.860  44.089   5.364  1.00  0.00     0.160 A 
ATOM      2  C   UNL     1      13.915  43.648   4.415  1.00  0.00     0.050 A 
ATOM      3  C   UNL     1      12.984  44.540   3.875  1.00  0.00     0.004 A 
ATOM      4  C   UNL     1      12.984  45.877   4.275  1.00  0.00     0.004 A 
ATOM      5  C   UNL     1      13.915  46.326   5.214  1.00  0.00     0.050 A 
ATOM      6  C   UNL     1      14.852  45.441   5.760  1.00  0.00     0.157 A 
ENDROOT
BRANCH   1   7
ATOM      7  O   UNL     1      15.809  43.222   5.927  1.00  0.00    -0.493 OA
ATOM      8  C   UNL     1      15.584  42.419   7.081  1.00  0.00     0.278 C 
ENDBRANCH   1   7
BRANCH   6   9
ATOM      9  O   UNL     1      15.767  45.923   6.695  1.00  0.00    -0.504 OA
ATOM     10  H   UNL     1      16.007  46.905   6.758  1.00  0.00     0.293 HD
ENDBRANCH   6   9
TORSDOF 2
ENDMDL
