MODEL 1
REMARK VINA RESULT:    -6.680      0.000      0.000
REMARK INTER + INTRA:          -7.326
REMARK INTER:                  -7.266
REMARK INTRA:                  -0.060
REMARK UNBOUND:                -0.060
REMARK SMILES COc1cc2ccc(=O)oc2cc1O
REMARK SMILES IDX 3 1 13 2 12 3 11 4 5 5 4 6 6 7 7 8 8 9 9 10 10 11 2 12 1 13
REMARK SMILES IDX 14 14
REMARK H PARENT 14 15
REMARK Flexibility Score: inf
ROOT
ATOM      1  C   UNL     1      41.678 -48.387 163.140  1.00  0.00     0.161 A 
ATOM      2  C   UNL     1      41.736 -47.263 162.301  1.00  0.00     0.161 A 
ATOM      3  C   UNL     1      40.617 -46.886 161.545  1.00  0.00     0.098 A 
ATOM      4  C   UNL     1      39.434 -47.625 161.620  1.00  0.00     0.142 A 
ATOM      5  C   UNL     1      39.367 -48.756 162.461  1.00  0.00     0.022 A 
ATOM      6  C   UNL     1      40.484 -49.134 163.217  1.00  0.00     0.062 A 
ATOM      7  C   UNL     1      38.168 -49.475 162.515  1.00  0.00     0.019 A 
ATOM      8  C   UNL     1      37.084 -49.059 161.744  1.00  0.00     0.094 A 
ATOM      9  C   UNL     1      37.224 -47.928 160.933  1.00  0.00     0.336 A 
ATOM     10  O   UNL     1      36.256 -47.535 160.229  1.00  0.00    -0.246 OA
ATOM     11  O   UNL     1      38.375 -47.261 160.900  1.00  0.00    -0.423 OA
ENDROOT
BRANCH   1  12
ATOM     12  O   UNL     1      42.822 -48.729 163.878  1.00  0.00    -0.493 OA
ATOM     13  C   UNL     1      43.048 -48.358 165.234  1.00  0.00     0.278 C 
ENDBRANCH   1  12
BRANCH   2  14
ATOM     14  O   UNL     1      42.915 -46.524 162.224  1.00  0.00    -0.504 OA
ATOM     15  H   UNL     1      43.114 -45.772 162.874  1.00  0.00     0.293 HD
ENDBRANCH   2  14
TORSDOF 2
ENDMDL
MODEL 2
REMARK VINA RESULT:    -6.659      7.469     11.646
REMARK INTER + INTRA:          -7.303
REMARK INTER:                  -7.239
REMARK INTRA:                  -0.064
REMARK UNBOUND:                -0.060
REMARK SMILES COc1cc2ccc(=O)oc2cc1O
REMARK SMILES IDX 3 1 13 2 12 3 11 4 5 5 4 6 6 7 7 8 8 9 9 10 10 11 2 12 1 13
REMARK SMILES IDX 14 14
REMARK H PARENT 14 15
REMARK Flexibility Score: inf
ROOT
ATOM      1  C   UNL     1      48.013 -47.163 164.659  1.00  0.00     0.161 A 
ATOM      2  C   UNL     1      48.198 -48.511 165.006  1.00  0.00     0.161 A 
ATOM      3  C   UNL     1      49.451 -48.964 165.440  1.00  0.00     0.098 A 
ATOM      4  C   UNL     1      50.528 -48.080 165.531  1.00  0.00     0.142 A 
ATOM      5  C   UNL     1      50.351 -46.724 165.185  1.00  0.00     0.022 A 
ATOM      6  C   UNL     1      49.099 -46.268 164.750  1.00  0.00     0.062 A 
ATOM      7  C   UNL     1      51.448 -45.862 165.287  1.00  0.00     0.019 A 
ATOM      8  C   UNL     1      52.674 -46.362 165.725  1.00  0.00     0.094 A 
ATOM      9  C   UNL     1      52.775 -47.718 166.051  1.00  0.00     0.336 A 
ATOM     10  O   UNL     1      53.873 -48.190 166.449  1.00  0.00    -0.246 OA
ATOM     11  O   UNL     1      51.715 -48.517 165.945  1.00  0.00    -0.423 OA
ENDROOT
BRANCH   1  12
ATOM     12  O   UNL     1      46.742 -46.753 164.228  1.00  0.00    -0.493 OA
ATOM     13  C   UNL     1      45.788 -46.089 165.050  1.00  0.00     0.278 C 
ENDBRANCH   1  12
BRANCH   2  14
ATOM     14  O   UNL     1      47.125 -49.397 164.915  1.00  0.00    -0.504 OA
ATOM     15  H   UNL     1      47.178 -50.239 164.354  1.00  0.00     0.293 HD
ENDBRANCH   2  14
TORSDOF 2
ENDMDL
MODEL 3
REMARK VINA RESULT:    -6.648      7.758     11.678
REMARK INTER + INTRA:          -7.291
REMARK INTER:                  -7.268
REMARK INTRA:                  -0.024
REMARK UNBOUND:                -0.060
REMARK SMILES COc1cc2ccc(=O)oc2cc1O
REMARK SMILES IDX 3 1 13 2 12 3 11 4 5 5 4 6 6 7 7 8 8 9 9 10 10 11 2 12 1 13
REMARK SMILES IDX 14 14
REMARK H PARENT 14 15
REMARK Flexibility Score: inf
ROOT
ATOM      1  C   UNL     1      48.356 -47.757 164.700  1.00  0.00     0.161 A 
ATOM      2  C   UNL     1      48.377 -46.400 164.341  1.00  0.00     0.161 A 
ATOM      3  C   UNL     1      49.547 -45.644 164.498  1.00  0.00     0.098 A 
ATOM      4  C   UNL     1      50.703 -46.233 165.015  1.00  0.00     0.142 A 
ATOM      5  C   UNL     1      50.691 -47.596 165.379  1.00  0.00     0.022 A 
ATOM      6  C   UNL     1      49.523 -48.354 165.222  1.00  0.00     0.062 A 
ATOM      7  C   UNL     1      51.864 -48.159 165.893  1.00  0.00     0.019 A 
ATOM      8  C   UNL     1      53.001 -47.364 166.030  1.00  0.00     0.094 A 
ATOM      9  C   UNL     1      52.939 -46.020 165.649  1.00  0.00     0.336 A 
ATOM     10  O   UNL     1      53.956 -45.285 165.764  1.00  0.00    -0.246 OA
ATOM     11  O   UNL     1      51.810 -45.510 165.162  1.00  0.00    -0.423 OA
ENDROOT
BRANCH   1  12
ATOM     12  O   UNL     1      47.163 -48.475 164.526  1.00  0.00    -0.493 OA
ATOM     13  C   UNL     1      46.789 -49.138 163.323  1.00  0.00     0.278 C 
ENDBRANCH   1  12
BRANCH   2  14
ATOM     14  O   UNL     1      47.225 -45.808 163.825  1.00  0.00    -0.504 OA
ATOM     15  H   UNL     1      46.646 -45.195 164.387  1.00  0.00     0.293 HD
ENDBRANCH   2  14
TORSDOF 2
ENDMDL
MODEL 4
REMARK VINA RESULT:    -6.534      1.480      2.475
REMARK INTER + INTRA:          -7.167
REMARK INTER:                  -7.118
REMARK INTRA:                  -0.049
REMARK UNBOUND:                -0.060
REMARK SMILES COc1cc2ccc(=O)oc2cc1O
REMARK SMILES IDX 3 1 13 2 12 3 11 4 5 5 4 6 6 7 7 8 8 9 9 10 10 11 2 12 1 13
REMARK SMILES IDX 14 14
REMARK H PARENT 14 15
REMARK Flexibility Score: inf
ROOT
ATOM      1  C   UNL     1      41.700 -48.023 162.535  1.00  0.00     0.161 A 
ATOM      2  C   UNL     1      41.455 -49.161 163.319  1.00  0.00     0.161 A 
ATOM      3  C   UNL     1      40.181 -49.745 163.341  1.00  0.00     0.098 A 
ATOM      4  C   UNL     1      39.142 -49.200 162.583  1.00  0.00     0.142 A 
ATOM      5  C   UNL     1      39.379 -48.056 161.792  1.00  0.00     0.022 A 
ATOM      6  C   UNL     1      40.652 -47.471 161.768  1.00  0.00     0.062 A 
ATOM      7  C   UNL     1      38.319 -47.533 161.044  1.00  0.00     0.019 A 
ATOM      8  C   UNL     1      37.070 -48.151 161.100  1.00  0.00     0.094 A 
ATOM      9  C   UNL     1      36.909 -49.282 161.907  1.00  0.00     0.336 A 
ATOM     10  O   UNL     1      35.790 -49.855 161.971  1.00  0.00    -0.246 OA
ATOM     11  O   UNL     1      37.935 -49.759 162.608  1.00  0.00    -0.423 OA
ENDROOT
BRANCH   1  12
ATOM     12  O   UNL     1      42.990 -47.471 162.542  1.00  0.00    -0.493 OA
ATOM     13  C   UNL     1      44.013 -47.798 161.609  1.00  0.00     0.278 C 
ENDBRANCH   1  12
BRANCH   2  14
ATOM     14  O   UNL     1      42.490 -49.708 164.077  1.00  0.00    -0.504 OA
ATOM     15  H   UNL     1      42.881 -50.618 163.863  1.00  0.00     0.293 HD
ENDBRANCH   2  14
TORSDOF 2
ENDMDL
MODEL 5
REMARK VINA RESULT:    -6.373      1.666      2.613
REMARK INTER + INTRA:          -6.993
REMARK INTER:                  -6.928
REMARK INTRA:                  -0.065
REMARK UNBOUND:                -0.060
REMARK SMILES COc1cc2ccc(=O)oc2cc1O
REMARK SMILES IDX 3 1 13 2 12 3 11 4 5 5 4 6 6 7 7 8 8 9 9 10 10 11 2 12 1 13
REMARK SMILES IDX 14 14
REMARK H PARENT 14 15
REMARK Flexibility Score: inf
ROOT
ATOM      1  C   UNL     1      42.614 -48.024 162.906  1.00  0.00     0.161 A 
ATOM      2  C   UNL     1      42.337 -49.192 163.633  1.00  0.00     0.161 A 
ATOM      3  C   UNL     1      41.054 -49.757 163.604  1.00  0.00     0.098 A 
ATOM      4  C   UNL     1      40.039 -49.162 162.852  1.00  0.00     0.142 A 
ATOM      5  C   UNL     1      40.308 -47.988 162.118  1.00  0.00     0.022 A 
ATOM      6  C   UNL     1      41.590 -47.422 162.145  1.00  0.00     0.062 A 
ATOM      7  C   UNL     1      39.271 -47.415 161.374  1.00  0.00     0.019 A 
ATOM      8  C   UNL     1      38.013 -48.015 161.378  1.00  0.00     0.094 A 
ATOM      9  C   UNL     1      37.819 -49.178 162.130  1.00  0.00     0.336 A 
ATOM     10  O   UNL     1      36.690 -49.736 162.147  1.00  0.00    -0.246 OA
ATOM     11  O   UNL     1      38.823 -49.703 162.829  1.00  0.00    -0.423 OA
ENDROOT
BRANCH   1  12
ATOM     12  O   UNL     1      43.912 -47.493 162.963  1.00  0.00    -0.493 OA
ATOM     13  C   UNL     1      44.861 -47.567 161.905  1.00  0.00     0.278 C 
ENDBRANCH   1  12
BRANCH   2  14
ATOM     14  O   UNL     1      43.348 -49.789 164.385  1.00  0.00    -0.504 OA
ATOM     15  H   UNL     1      43.160 -50.212 165.287  1.00  0.00     0.293 HD
ENDBRANCH   2  14
TORSDOF 2
ENDMDL
MODEL 6
REMARK VINA RESULT:    -6.315      4.555      6.679
REMARK INTER + INTRA:          -6.929
REMARK INTER:                  -6.873
REMARK INTRA:                  -0.056
REMARK UNBOUND:                -0.060
REMARK SMILES COc1cc2ccc(=O)oc2cc1O
REMARK SMILES IDX 3 1 13 2 12 3 11 4 5 5 4 6 6 7 7 8 8 9 9 10 10 11 2 12 1 13
REMARK SMILES IDX 14 14
REMARK H PARENT 14 15
REMARK Flexibility Score: inf
ROOT
ATOM      1  C   UNL     1      47.643 -46.770 164.824  1.00  0.00     0.161 A 
ATOM      2  C   UNL     1      46.821 -45.817 165.446  1.00  0.00     0.161 A 
ATOM      3  C   UNL     1      45.440 -46.034 165.550  1.00  0.00     0.098 A 
ATOM      4  C   UNL     1      44.868 -47.200 165.035  1.00  0.00     0.142 A 
ATOM      5  C   UNL     1      45.688 -48.163 164.409  1.00  0.00     0.022 A 
ATOM      6  C   UNL     1      47.068 -47.948 164.305  1.00  0.00     0.062 A 
ATOM      7  C   UNL     1      45.087 -49.321 163.904  1.00  0.00     0.019 A 
ATOM      8  C   UNL     1      43.709 -49.490 164.033  1.00  0.00     0.094 A 
ATOM      9  C   UNL     1      42.960 -48.492 164.666  1.00  0.00     0.336 A 
ATOM     10  O   UNL     1      41.714 -48.625 164.792  1.00  0.00    -0.246 OA
ATOM     11  O   UNL     1      43.557 -47.400 165.138  1.00  0.00    -0.423 OA
ENDROOT
BRANCH   1  12
ATOM     12  O   UNL     1      49.020 -46.512 164.742  1.00  0.00    -0.493 OA
ATOM     13  C   UNL     1      50.037 -47.420 165.150  1.00  0.00     0.278 C 
ENDBRANCH   1  12
BRANCH   2  14
ATOM     14  O   UNL     1      47.388 -44.651 165.960  1.00  0.00    -0.504 OA
ATOM     15  H   UNL     1      48.206 -44.229 165.537  1.00  0.00     0.293 HD
ENDBRANCH   2  14
TORSDOF 2
ENDMDL
MODEL 7
REMARK VINA RESULT:    -6.267      2.657      6.449
REMARK INTER + INTRA:          -6.877
REMARK INTER:                  -6.826
REMARK INTRA:                  -0.051
REMARK UNBOUND:                -0.060
REMARK SMILES COc1cc2ccc(=O)oc2cc1O
REMARK SMILES IDX 3 1 13 2 12 3 11 4 5 5 4 6 6 7 7 8 8 9 9 10 10 11 2 12 1 13
REMARK SMILES IDX 14 14
REMARK H PARENT 14 15
REMARK Flexibility Score: inf
ROOT
ATOM      1  C   UNL     1      41.557 -48.510 163.683  1.00  0.00     0.161 A 
ATOM      2  C   UNL     1      41.803 -48.609 165.061  1.00  0.00     0.161 A 
ATOM      3  C   UNL     1      43.004 -48.131 165.602  1.00  0.00     0.098 A 
ATOM      4  C   UNL     1      43.969 -47.552 164.774  1.00  0.00     0.142 A 
ATOM      5  C   UNL     1      43.730 -47.448 163.388  1.00  0.00     0.022 A 
ATOM      6  C   UNL     1      42.529 -47.925 162.845  1.00  0.00     0.062 A 
ATOM      7  C   UNL     1      44.715 -46.863 162.585  1.00  0.00     0.019 A 
ATOM      8  C   UNL     1      45.893 -46.403 163.171  1.00  0.00     0.094 A 
ATOM      9  C   UNL     1      46.060 -46.540 164.553  1.00  0.00     0.336 A 
ATOM     10  O   UNL     1      47.117 -46.130 165.102  1.00  0.00    -0.246 OA
ATOM     11  O   UNL     1      45.107 -47.100 165.294  1.00  0.00    -0.423 OA
ENDROOT
BRANCH   1  12
ATOM     12  O   UNL     1      40.341 -49.002 163.184  1.00  0.00    -0.493 OA
ATOM     13  C   UNL     1      39.571 -48.369 162.168  1.00  0.00     0.278 C 
ENDBRANCH   1  12
BRANCH   2  14
ATOM     14  O   UNL     1      40.842 -49.187 165.890  1.00  0.00    -0.504 OA
ATOM     15  H   UNL     1      40.257 -49.952 165.572  1.00  0.00     0.293 HD
ENDBRANCH   2  14
TORSDOF 2
ENDMDL
MODEL 8
REMARK VINA RESULT:    -6.091      2.766      6.291
REMARK INTER + INTRA:          -6.685
REMARK INTER:                  -6.624
REMARK INTRA:                  -0.061
REMARK UNBOUND:                -0.060
REMARK SMILES COc1cc2ccc(=O)oc2cc1O
REMARK SMILES IDX 3 1 13 2 12 3 11 4 5 5 4 6 6 7 7 8 8 9 9 10 10 11 2 12 1 13
REMARK SMILES IDX 14 14
REMARK H PARENT 14 15
REMARK Flexibility Score: inf
ROOT
ATOM      1  C   UNL     1      42.043 -47.673 161.956  1.00  0.00     0.161 A 
ATOM      2  C   UNL     1      42.886 -47.709 160.835  1.00  0.00     0.161 A 
ATOM      3  C   UNL     1      44.236 -48.060 160.975  1.00  0.00     0.098 A 
ATOM      4  C   UNL     1      44.756 -48.375 162.233  1.00  0.00     0.142 A 
ATOM      5  C   UNL     1      43.915 -48.341 163.365  1.00  0.00     0.022 A 
ATOM      6  C   UNL     1      42.565 -47.992 163.227  1.00  0.00     0.062 A 
ATOM      7  C   UNL     1      44.464 -48.663 164.611  1.00  0.00     0.019 A 
ATOM      8  C   UNL     1      45.813 -49.005 164.698  1.00  0.00     0.094 A 
ATOM      9  C   UNL     1      46.585 -49.017 163.532  1.00  0.00     0.336 A 
ATOM     10  O   UNL     1      47.805 -49.323 163.589  1.00  0.00    -0.246 OA
ATOM     11  O   UNL     1      46.038 -48.707 162.359  1.00  0.00    -0.423 OA
ENDROOT
BRANCH   1  12
ATOM     12  O   UNL     1      40.698 -47.317 161.770  1.00  0.00    -0.493 OA
ATOM     13  C   UNL     1      39.592 -48.164 162.059  1.00  0.00     0.278 C 
ENDBRANCH   1  12
BRANCH   2  14
ATOM     14  O   UNL     1      42.371 -47.394 159.578  1.00  0.00    -0.504 OA
ATOM     15  H   UNL     1      42.896 -47.572 158.730  1.00  0.00     0.293 HD
ENDBRANCH   2  14
TORSDOF 2
ENDMDL
MODEL 9
REMARK VINA RESULT:    -6.059      3.817      8.009
REMARK INTER + INTRA:          -6.650
REMARK INTER:                  -6.597
REMARK INTRA:                  -0.053
REMARK UNBOUND:                -0.060
REMARK SMILES COc1cc2ccc(=O)oc2cc1O
REMARK SMILES IDX 3 1 13 2 12 3 11 4 5 5 4 6 6 7 7 8 8 9 9 10 10 11 2 12 1 13
REMARK SMILES IDX 14 14
REMARK H PARENT 14 15
REMARK Flexibility Score: inf
ROOT
ATOM      1  C   UNL     1      43.692 -47.927 163.780  1.00  0.00     0.161 A 
ATOM      2  C   UNL     1      44.092 -49.248 164.037  1.00  0.00     0.161 A 
ATOM      3  C   UNL     1      45.424 -49.534 164.365  1.00  0.00     0.098 A 
ATOM      4  C   UNL     1      46.369 -48.506 164.438  1.00  0.00     0.142 A 
ATOM      5  C   UNL     1      45.975 -47.176 164.181  1.00  0.00     0.022 A 
ATOM      6  C   UNL     1      44.644 -46.888 163.853  1.00  0.00     0.062 A 
ATOM      7  C   UNL     1      46.943 -46.169 164.262  1.00  0.00     0.019 A 
ATOM      8  C   UNL     1      48.255 -46.505 164.592  1.00  0.00     0.094 A 
ATOM      9  C   UNL     1      48.572 -47.846 164.834  1.00  0.00     0.336 A 
ATOM     10  O   UNL     1      49.751 -48.170 165.133  1.00  0.00    -0.246 OA
ATOM     11  O   UNL     1      47.632 -48.784 164.750  1.00  0.00    -0.423 OA
ENDROOT
BRANCH   1  12
ATOM     12  O   UNL     1      42.349 -47.687 163.455  1.00  0.00    -0.493 OA
ATOM     13  C   UNL     1      41.840 -47.615 162.128  1.00  0.00     0.278 C 
ENDBRANCH   1  12
BRANCH   2  14
ATOM     14  O   UNL     1      43.152 -50.276 163.964  1.00  0.00    -0.504 OA
ATOM     15  H   UNL     1      43.195 -50.983 163.240  1.00  0.00     0.293 HD
ENDBRANCH   2  14
TORSDOF 2
ENDMDL
