MODEL 1
REMARK VINA RESULT:    -4.034      0.000      0.000
REMARK INTER + INTRA:          -8.958
REMARK INTER:                  -7.336
REMARK INTRA:                  -1.621
REMARK UNBOUND:                -1.621
REMARK SMILES CCCCCCCCCCCCCC[C@H](C)C(=O)[O-]
REMARK SMILES IDX 9 1 10 2 11 3 12 4 13 5 14 6 15 7 16 8 17 9 18 10 19 11 8 12
REMARK SMILES IDX 7 13 6 14 5 15 4 16 3 17 2 18 1 19
REMARK H PARENT
REMARK Flexibility Score: inf
ROOT
ATOM      1  C   UNL     1       0.890  -8.006   4.482  1.00  0.00     0.000 C 
ENDROOT
BRANCH   1   2
ATOM      2  C   UNL     1       1.710  -6.874   5.128  1.00  0.00     0.000 C 
BRANCH   2   3
ATOM      3  C   UNL     1       0.902  -5.616   5.509  1.00  0.00     0.000 C 
BRANCH   3   4
ATOM      4  C   UNL     1       1.742  -4.402   5.947  1.00  0.00     0.000 C 
BRANCH   4   5
ATOM      5  C   UNL     1       3.235  -4.735   6.109  1.00  0.00     0.001 C 
BRANCH   5   6
ATOM      6  C   UNL     1       4.101  -3.491   6.399  1.00  0.00     0.009 C 
BRANCH   6   7
ATOM      7  C   UNL     1       4.863  -2.962   5.163  1.00  0.00     0.032 C 
ATOM      8  C   UNL     1       6.345  -2.747   5.497  1.00  0.00     0.014 C 
BRANCH   7   9
ATOM      9  C   UNL     1       4.280  -1.674   4.654  1.00  0.00     0.044 C 
ATOM     10  O   UNL     1       4.224  -0.664   5.407  1.00  0.00    -0.550 OA
ATOM     11  O   UNL     1       3.777  -1.593   3.361  1.00  0.00    -0.550 OA
ENDBRANCH   7   9
ENDBRANCH   6   7
ENDBRANCH   5   6
ENDBRANCH   4   5
ENDBRANCH   3   4
ENDBRANCH   2   3
ENDBRANCH   1   2
BRANCH   1  12
ATOM     12  C   UNL     1       1.721  -9.203   3.985  1.00  0.00     0.000 C 
BRANCH  12  13
ATOM     13  C   UNL     1       3.193  -9.172   4.449  1.00  0.00    -0.000 C 
BRANCH  13  14
ATOM     14  C   UNL     1       4.183  -9.190   3.272  1.00  0.00    -0.000 C 
BRANCH  14  15
ATOM     15  C   UNL     1       5.498  -8.462   3.592  1.00  0.00    -0.000 C 
BRANCH  15  16
ATOM     16  C   UNL     1       5.333  -7.402   4.691  1.00  0.00    -0.000 C 
BRANCH  16  17
ATOM     17  C   UNL     1       6.249  -6.198   4.429  1.00  0.00    -0.000 C 
BRANCH  17  18
ATOM     18  C   UNL     1       7.533  -6.584   3.678  1.00  0.00    -0.003 C 
ATOM     19  C   UNL     1       7.843  -5.642   2.513  1.00  0.00     0.004 C 
ENDBRANCH  17  18
ENDBRANCH  16  17
ENDBRANCH  15  16
ENDBRANCH  14  15
ENDBRANCH  13  14
ENDBRANCH  12  13
ENDBRANCH   1  12
TORSDOF 14
ENDMDL
MODEL 2
REMARK VINA RESULT:    -3.987      1.225      4.048
REMARK INTER + INTRA:          -8.871
REMARK INTER:                  -7.113
REMARK INTRA:                  -1.758
REMARK UNBOUND:                -1.621
REMARK SMILES CCCCCCCCCCCCCC[C@H](C)C(=O)[O-]
REMARK SMILES IDX 9 1 10 2 11 3 12 4 13 5 14 6 15 7 16 8 17 9 18 10 19 11 8 12
REMARK SMILES IDX 7 13 6 14 5 15 4 16 3 17 2 18 1 19
REMARK H PARENT
REMARK Flexibility Score: inf
ROOT
ATOM      1  C   UNL     1       4.017  -9.757   3.245  1.00  0.00     0.000 C 
ENDROOT
BRANCH   1   2
ATOM      2  C   UNL     1       5.251  -8.837   3.244  1.00  0.00     0.000 C 
BRANCH   2   3
ATOM      3  C   UNL     1       5.514  -8.092   4.570  1.00  0.00     0.000 C 
BRANCH   3   4
ATOM      4  C   UNL     1       5.847  -6.595   4.430  1.00  0.00     0.000 C 
BRANCH   4   5
ATOM      5  C   UNL     1       5.628  -5.809   5.733  1.00  0.00     0.001 C 
BRANCH   5   6
ATOM      6  C   UNL     1       4.972  -4.432   5.501  1.00  0.00     0.009 C 
BRANCH   6   7
ATOM      7  C   UNL     1       5.857  -3.446   4.705  1.00  0.00     0.032 C 
ATOM      8  C   UNL     1       7.237  -3.315   5.361  1.00  0.00     0.014 C 
BRANCH   7   9
ATOM      9  C   UNL     1       5.227  -2.086   4.602  1.00  0.00     0.044 C 
ATOM     10  O   UNL     1       3.973  -1.967   4.621  1.00  0.00    -0.550 OA
ATOM     11  O   UNL     1       6.021  -0.953   4.462  1.00  0.00    -0.550 OA
ENDBRANCH   7   9
ENDBRANCH   6   7
ENDBRANCH   5   6
ENDBRANCH   4   5
ENDBRANCH   3   4
ENDBRANCH   2   3
ENDBRANCH   1   2
BRANCH   1  12
ATOM     12  C   UNL     1       3.034  -9.517   4.405  1.00  0.00     0.000 C 
BRANCH  12  13
ATOM     13  C   UNL     1       1.578  -9.283   3.946  1.00  0.00    -0.000 C 
BRANCH  13  14
ATOM     14  C   UNL     1       1.022  -7.929   4.418  1.00  0.00    -0.000 C 
BRANCH  14  15
ATOM     15  C   UNL     1       2.098  -7.040   5.062  1.00  0.00    -0.000 C 
BRANCH  15  16
ATOM     16  C   UNL     1       1.586  -6.298   6.304  1.00  0.00    -0.000 C 
BRANCH  16  17
ATOM     17  C   UNL     1       0.548  -5.235   5.916  1.00  0.00    -0.000 C 
BRANCH  17  18
ATOM     18  C   UNL     1       1.179  -3.856   5.669  1.00  0.00    -0.003 C 
ATOM     19  C   UNL     1       1.669  -3.190   6.956  1.00  0.00     0.004 C 
ENDBRANCH  17  18
ENDBRANCH  16  17
ENDBRANCH  15  16
ENDBRANCH  14  15
ENDBRANCH  13  14
ENDBRANCH  12  13
ENDBRANCH   1  12
TORSDOF 14
ENDMDL
MODEL 3
REMARK VINA RESULT:    -3.948      2.162      4.514
REMARK INTER + INTRA:          -8.800
REMARK INTER:                  -7.268
REMARK INTRA:                  -1.532
REMARK UNBOUND:                -1.621
REMARK SMILES CCCCCCCCCCCCCC[C@H](C)C(=O)[O-]
REMARK SMILES IDX 9 1 10 2 11 3 12 4 13 5 14 6 15 7 16 8 17 9 18 10 19 11 8 12
REMARK SMILES IDX 7 13 6 14 5 15 4 16 3 17 2 18 1 19
REMARK H PARENT
REMARK Flexibility Score: inf
ROOT
ATOM      1  C   UNL     1       2.526  -9.296   4.479  1.00  0.00     0.000 C 
ENDROOT
BRANCH   1   2
ATOM      2  C   UNL     1       3.355  -9.799   3.284  1.00  0.00     0.000 C 
BRANCH   2   3
ATOM      3  C   UNL     1       4.787  -9.230   3.195  1.00  0.00     0.000 C 
BRANCH   3   4
ATOM      4  C   UNL     1       5.160  -8.213   4.288  1.00  0.00     0.000 C 
BRANCH   4   5
ATOM      5  C   UNL     1       6.425  -7.407   3.949  1.00  0.00     0.001 C 
BRANCH   5   6
ATOM      6  C   UNL     1       6.363  -5.950   4.452  1.00  0.00     0.009 C 
BRANCH   6   7
ATOM      7  C   UNL     1       7.251  -4.974   3.646  1.00  0.00     0.032 C 
ATOM      8  C   UNL     1       7.932  -5.706   2.483  1.00  0.00     0.014 C 
BRANCH   7   9
ATOM      9  C   UNL     1       8.300  -4.331   4.508  1.00  0.00     0.044 C 
ATOM     10  O   UNL     1       8.387  -3.075   4.567  1.00  0.00    -0.550 OA
ATOM     11  O   UNL     1       9.195  -5.114   5.227  1.00  0.00    -0.550 OA
ENDBRANCH   7   9
ENDBRANCH   6   7
ENDBRANCH   5   6
ENDBRANCH   4   5
ENDBRANCH   3   4
ENDBRANCH   2   3
ENDBRANCH   1   2
BRANCH   1  12
ATOM     12  C   UNL     1       1.199  -8.612   4.104  1.00  0.00     0.000 C 
BRANCH  12  13
ATOM     13  C   UNL     1       0.898  -7.344   4.932  1.00  0.00    -0.000 C 
BRANCH  13  14
ATOM     14  C   UNL     1       2.151  -6.482   5.166  1.00  0.00    -0.000 C 
BRANCH  14  15
ATOM     15  C   UNL     1       2.232  -5.933   6.600  1.00  0.00    -0.000 C 
BRANCH  15  16
ATOM     16  C   UNL     1       2.424  -4.411   6.639  1.00  0.00    -0.000 C 
BRANCH  16  17
ATOM     17  C   UNL     1       3.745  -4.009   5.966  1.00  0.00    -0.000 C 
BRANCH  17  18
ATOM     18  C   UNL     1       3.765  -2.534   5.537  1.00  0.00    -0.003 C 
ATOM     19  C   UNL     1       4.905  -2.215   4.569  1.00  0.00     0.004 C 
ENDBRANCH  17  18
ENDBRANCH  16  17
ENDBRANCH  15  16
ENDBRANCH  14  15
ENDBRANCH  13  14
ENDBRANCH  12  13
ENDBRANCH   1  12
TORSDOF 14
ENDMDL
MODEL 4
REMARK VINA RESULT:    -3.921      3.097      5.507
REMARK INTER + INTRA:          -8.750
REMARK INTER:                  -7.132
REMARK INTRA:                  -1.619
REMARK UNBOUND:                -1.621
REMARK SMILES CCCCCCCCCCCCCC[C@H](C)C(=O)[O-]
REMARK SMILES IDX 9 1 10 2 11 3 12 4 13 5 14 6 15 7 16 8 17 9 18 10 19 11 8 12
REMARK SMILES IDX 7 13 6 14 5 15 4 16 3 17 2 18 1 19
REMARK H PARENT
REMARK Flexibility Score: inf
ROOT
ATOM      1  C   UNL     1       5.657  -8.433   3.576  1.00  0.00     0.000 C 
ENDROOT
BRANCH   1   2
ATOM      2  C   UNL     1       5.080  -9.858   3.643  1.00  0.00     0.000 C 
BRANCH   2   3
ATOM      3  C   UNL     1       3.756 -10.065   2.878  1.00  0.00     0.000 C 
BRANCH   3   4
ATOM      4  C   UNL     1       2.487 -10.074   3.749  1.00  0.00     0.000 C 
BRANCH   4   5
ATOM      5  C   UNL     1       2.035  -8.663   4.161  1.00  0.00     0.001 C 
BRANCH   5   6
ATOM      6  C   UNL     1       0.501  -8.529   4.263  1.00  0.00     0.009 C 
BRANCH   6   7
ATOM      7  C   UNL     1       0.033  -7.207   4.914  1.00  0.00     0.032 C 
ATOM      8  C   UNL     1       1.240  -6.361   5.336  1.00  0.00     0.014 C 
BRANCH   7   9
ATOM      9  C   UNL     1      -0.842  -7.453   6.111  1.00  0.00     0.044 C 
ATOM     10  O   UNL     1      -0.462  -8.236   7.022  1.00  0.00    -0.550 OA
ATOM     11  O   UNL     1      -2.083  -6.836   6.212  1.00  0.00    -0.550 OA
ENDBRANCH   7   9
ENDBRANCH   6   7
ENDBRANCH   5   6
ENDBRANCH   4   5
ENDBRANCH   3   4
ENDBRANCH   2   3
ENDBRANCH   1   2
BRANCH   1  12
ATOM     12  C   UNL     1       5.845  -7.747   4.942  1.00  0.00     0.000 C 
BRANCH  12  13
ATOM     13  C   UNL     1       4.842  -6.603   5.207  1.00  0.00    -0.000 C 
BRANCH  13  14
ATOM     14  C   UNL     1       5.457  -5.459   6.029  1.00  0.00    -0.000 C 
BRANCH  14  15
ATOM     15  C   UNL     1       5.265  -4.084   5.368  1.00  0.00    -0.000 C 
BRANCH  15  16
ATOM     16  C   UNL     1       6.350  -3.773   4.328  1.00  0.00    -0.000 C 
BRANCH  16  17
ATOM     17  C   UNL     1       7.704  -4.354   4.760  1.00  0.00    -0.000 C 
BRANCH  17  18
ATOM     18  C   UNL     1       8.572  -4.781   3.566  1.00  0.00    -0.003 C 
ATOM     19  C   UNL     1       7.818  -5.664   2.571  1.00  0.00     0.004 C 
ENDBRANCH  17  18
ENDBRANCH  16  17
ENDBRANCH  15  16
ENDBRANCH  14  15
ENDBRANCH  13  14
ENDBRANCH  12  13
ENDBRANCH   1  12
TORSDOF 14
ENDMDL
MODEL 5
REMARK VINA RESULT:    -3.862      1.207      1.985
REMARK INTER + INTRA:          -8.643
REMARK INTER:                  -6.905
REMARK INTRA:                  -1.738
REMARK UNBOUND:                -1.621
REMARK SMILES CCCCCCCCCCCCCC[C@H](C)C(=O)[O-]
REMARK SMILES IDX 9 1 10 2 11 3 12 4 13 5 14 6 15 7 16 8 17 9 18 10 19 11 8 12
REMARK SMILES IDX 7 13 6 14 5 15 4 16 3 17 2 18 1 19
REMARK H PARENT
REMARK Flexibility Score: inf
ROOT
ATOM      1  C   UNL     1       3.069  -9.082   4.554  1.00  0.00     0.000 C 
ENDROOT
BRANCH   1   2
ATOM      2  C   UNL     1       1.861  -8.154   4.335  1.00  0.00     0.000 C 
BRANCH   2   3
ATOM      3  C   UNL     1       1.737  -6.992   5.343  1.00  0.00     0.000 C 
BRANCH   3   4
ATOM      4  C   UNL     1       2.959  -6.060   5.427  1.00  0.00     0.000 C 
BRANCH   4   5
ATOM      5  C   UNL     1       2.757  -4.896   6.411  1.00  0.00     0.001 C 
BRANCH   5   6
ATOM      6  C   UNL     1       2.975  -3.513   5.760  1.00  0.00     0.009 C 
BRANCH   6   7
ATOM      7  C   UNL     1       4.448  -3.223   5.392  1.00  0.00     0.032 C 
ATOM      8  C   UNL     1       5.352  -3.394   6.619  1.00  0.00     0.014 C 
BRANCH   7   9
ATOM      9  C   UNL     1       4.623  -1.838   4.837  1.00  0.00     0.044 C 
ATOM     10  O   UNL     1       5.255  -1.663   3.760  1.00  0.00    -0.550 OA
ATOM     11  O   UNL     1       4.111  -0.739   5.517  1.00  0.00    -0.550 OA
ENDBRANCH   7   9
ENDBRANCH   6   7
ENDBRANCH   5   6
ENDBRANCH   4   5
ENDBRANCH   3   4
ENDBRANCH   2   3
ENDBRANCH   1   2
BRANCH   1  12
ATOM     12  C   UNL     1       3.864  -9.420   3.279  1.00  0.00     0.000 C 
BRANCH  12  13
ATOM     13  C   UNL     1       5.311  -8.880   3.288  1.00  0.00    -0.000 C 
BRANCH  13  14
ATOM     14  C   UNL     1       5.800  -8.530   4.704  1.00  0.00    -0.000 C 
BRANCH  14  15
ATOM     15  C   UNL     1       6.359  -7.101   4.800  1.00  0.00    -0.000 C 
BRANCH  15  16
ATOM     16  C   UNL     1       6.870  -6.575   3.452  1.00  0.00    -0.000 C 
BRANCH  16  17
ATOM     17  C   UNL     1       7.415  -5.147   3.594  1.00  0.00    -0.000 C 
BRANCH  17  18
ATOM     18  C   UNL     1       8.803  -5.107   4.253  1.00  0.00    -0.003 C 
ATOM     19  C   UNL     1       8.785  -4.442   5.630  1.00  0.00     0.004 C 
ENDBRANCH  17  18
ENDBRANCH  16  17
ENDBRANCH  15  16
ENDBRANCH  14  15
ENDBRANCH  13  14
ENDBRANCH  12  13
ENDBRANCH   1  12
TORSDOF 14
ENDMDL
MODEL 6
REMARK VINA RESULT:    -3.848      2.204      4.992
REMARK INTER + INTRA:          -8.619
REMARK INTER:                  -6.580
REMARK INTRA:                  -2.039
REMARK UNBOUND:                -1.621
REMARK SMILES CCCCCCCCCCCCCC[C@H](C)C(=O)[O-]
REMARK SMILES IDX 9 1 10 2 11 3 12 4 13 5 14 6 15 7 16 8 17 9 18 10 19 11 8 12
REMARK SMILES IDX 7 13 6 14 5 15 4 16 3 17 2 18 1 19
REMARK H PARENT
REMARK Flexibility Score: inf
ROOT
ATOM      1  C   UNL     1       3.476  -9.570   4.346  1.00  0.00     0.000 C 
ENDROOT
BRANCH   1   2
ATOM      2  C   UNL     1       4.599  -9.440   3.301  1.00  0.00     0.000 C 
BRANCH   2   3
ATOM      3  C   UNL     1       5.621  -8.317   3.574  1.00  0.00     0.000 C 
BRANCH   3   4
ATOM      4  C   UNL     1       6.320  -8.383   4.945  1.00  0.00     0.000 C 
BRANCH   4   5
ATOM      5  C   UNL     1       6.416  -7.011   5.634  1.00  0.00     0.001 C 
BRANCH   5   6
ATOM      6  C   UNL     1       5.931  -5.853   4.737  1.00  0.00     0.009 C 
BRANCH   6   7
ATOM      7  C   UNL     1       6.863  -4.620   4.754  1.00  0.00     0.032 C 
ATOM      8  C   UNL     1       6.046  -3.328   4.630  1.00  0.00     0.014 C 
BRANCH   7   9
ATOM      9  C   UNL     1       7.878  -4.671   3.647  1.00  0.00     0.044 C 
ATOM     10  O   UNL     1       8.785  -3.799   3.579  1.00  0.00    -0.550 OA
ATOM     11  O   UNL     1       7.811  -5.666   2.678  1.00  0.00    -0.550 OA
ENDBRANCH   7   9
ENDBRANCH   6   7
ENDBRANCH   5   6
ENDBRANCH   4   5
ENDBRANCH   3   4
ENDBRANCH   2   3
ENDBRANCH   1   2
BRANCH   1  12
ATOM     12  C   UNL     1       2.176  -8.825   3.993  1.00  0.00     0.000 C 
BRANCH  12  13
ATOM     13  C   UNL     1       2.010  -7.481   4.736  1.00  0.00    -0.000 C 
BRANCH  13  14
ATOM     14  C   UNL     1       2.822  -7.425   6.041  1.00  0.00    -0.000 C 
BRANCH  14  15
ATOM     15  C   UNL     1       2.650  -6.092   6.788  1.00  0.00    -0.000 C 
BRANCH  15  16
ATOM     16  C   UNL     1       2.667  -4.881   5.846  1.00  0.00    -0.000 C 
BRANCH  16  17
ATOM     17  C   UNL     1       1.605  -3.851   6.260  1.00  0.00    -0.000 C 
BRANCH  17  18
ATOM     18  C   UNL     1       0.177  -4.409   6.171  1.00  0.00    -0.003 C 
ATOM     19  C   UNL     1      -0.883  -3.393   6.600  1.00  0.00     0.004 C 
ENDBRANCH  17  18
ENDBRANCH  16  17
ENDBRANCH  15  16
ENDBRANCH  14  15
ENDBRANCH  13  14
ENDBRANCH  12  13
ENDBRANCH   1  12
TORSDOF 14
ENDMDL
MODEL 7
REMARK VINA RESULT:    -3.795      2.069      4.296
REMARK INTER + INTRA:          -8.521
REMARK INTER:                  -6.536
REMARK INTRA:                  -1.985
REMARK UNBOUND:                -1.621
REMARK SMILES CCCCCCCCCCCCCC[C@H](C)C(=O)[O-]
REMARK SMILES IDX 9 1 10 2 11 3 12 4 13 5 14 6 15 7 16 8 17 9 18 10 19 11 8 12
REMARK SMILES IDX 7 13 6 14 5 15 4 16 3 17 2 18 1 19
REMARK H PARENT
REMARK Flexibility Score: inf
ROOT
ATOM      1  C   UNL     1       1.849  -4.057   6.691  1.00  0.00     0.000 C 
ENDROOT
BRANCH   1   2
ATOM      2  C   UNL     1       3.055  -3.534   5.890  1.00  0.00     0.000 C 
BRANCH   2   3
ATOM      3  C   UNL     1       4.382  -4.281   6.141  1.00  0.00     0.000 C 
BRANCH   3   4
ATOM      4  C   UNL     1       4.544  -5.610   5.381  1.00  0.00     0.000 C 
BRANCH   4   5
ATOM      5  C   UNL     1       5.864  -6.328   5.706  1.00  0.00     0.001 C 
BRANCH   5   6
ATOM      6  C   UNL     1       6.712  -6.625   4.451  1.00  0.00     0.009 C 
BRANCH   6   7
ATOM      7  C   UNL     1       7.085  -5.363   3.639  1.00  0.00     0.032 C 
ATOM      8  C   UNL     1       7.848  -5.750   2.366  1.00  0.00     0.014 C 
BRANCH   7   9
ATOM      9  C   UNL     1       7.919  -4.407   4.444  1.00  0.00     0.044 C 
ATOM     10  O   UNL     1       7.653  -3.175   4.438  1.00  0.00    -0.550 OA
ATOM     11  O   UNL     1       9.003  -4.870   5.182  1.00  0.00    -0.550 OA
ENDBRANCH   7   9
ENDBRANCH   6   7
ENDBRANCH   5   6
ENDBRANCH   4   5
ENDBRANCH   3   4
ENDBRANCH   2   3
ENDBRANCH   1   2
BRANCH   1  12
ATOM     12  C   UNL     1       0.819  -4.849   5.865  1.00  0.00     0.000 C 
BRANCH  12  13
ATOM     13  C   UNL     1       0.932  -6.380   6.033  1.00  0.00    -0.000 C 
BRANCH  13  14
ATOM     14  C   UNL     1       0.505  -7.144   4.768  1.00  0.00    -0.000 C 
BRANCH  14  15
ATOM     15  C   UNL     1       1.497  -8.254   4.384  1.00  0.00    -0.000 C 
BRANCH  15  16
ATOM     16  C   UNL     1       2.485  -8.579   5.512  1.00  0.00    -0.000 C 
BRANCH  16  17
ATOM     17  C   UNL     1       3.719  -9.311   4.964  1.00  0.00    -0.000 C 
BRANCH  17  18
ATOM     18  C   UNL     1       3.778  -9.301   3.429  1.00  0.00    -0.003 C 
ATOM     19  C   UNL     1       5.172  -9.620   2.889  1.00  0.00     0.004 C 
ENDBRANCH  17  18
ENDBRANCH  16  17
ENDBRANCH  15  16
ENDBRANCH  14  15
ENDBRANCH  13  14
ENDBRANCH  12  13
ENDBRANCH   1  12
TORSDOF 14
ENDMDL
MODEL 8
REMARK VINA RESULT:    -3.786      1.163      4.631
REMARK INTER + INTRA:          -8.505
REMARK INTER:                  -6.838
REMARK INTRA:                  -1.668
REMARK UNBOUND:                -1.621
REMARK SMILES CCCCCCCCCCCCCC[C@H](C)C(=O)[O-]
REMARK SMILES IDX 9 1 10 2 11 3 12 4 13 5 14 6 15 7 16 8 17 9 18 10 19 11 8 12
REMARK SMILES IDX 7 13 6 14 5 15 4 16 3 17 2 18 1 19
REMARK H PARENT
REMARK Flexibility Score: inf
ROOT
ATOM      1  C   UNL     1       6.367  -7.532   4.422  1.00  0.00     0.000 C 
ENDROOT
BRANCH   1   2
ATOM      2  C   UNL     1       6.796  -6.730   3.181  1.00  0.00     0.000 C 
BRANCH   2   3
ATOM      3  C   UNL     1       7.838  -5.623   3.444  1.00  0.00     0.000 C 
BRANCH   3   4
ATOM      4  C   UNL     1       8.412  -5.585   4.873  1.00  0.00     0.000 C 
BRANCH   4   5
ATOM      5  C   UNL     1       8.019  -4.314   5.642  1.00  0.00     0.001 C 
BRANCH   5   6
ATOM      6  C   UNL     1       7.049  -3.409   4.854  1.00  0.00     0.009 C 
BRANCH   6   7
ATOM      7  C   UNL     1       5.781  -3.017   5.645  1.00  0.00     0.032 C 
ATOM      8  C   UNL     1       4.722  -4.122   5.545  1.00  0.00     0.014 C 
BRANCH   7   9
ATOM      9  C   UNL     1       5.193  -1.724   5.156  1.00  0.00     0.044 C 
ATOM     10  O   UNL     1       3.976  -1.464   5.359  1.00  0.00    -0.550 OA
ATOM     11  O   UNL     1       5.979  -0.815   4.457  1.00  0.00    -0.550 OA
ENDBRANCH   7   9
ENDBRANCH   6   7
ENDBRANCH   5   6
ENDBRANCH   4   5
ENDBRANCH   3   4
ENDBRANCH   2   3
ENDBRANCH   1   2
BRANCH   1  12
ATOM     12  C   UNL     1       4.846  -7.626   4.637  1.00  0.00     0.000 C 
BRANCH  12  13
ATOM     13  C   UNL     1       4.196  -8.846   3.950  1.00  0.00    -0.000 C 
BRANCH  13  14
ATOM     14  C   UNL     1       2.659  -8.804   4.004  1.00  0.00    -0.000 C 
BRANCH  14  15
ATOM     15  C   UNL     1       2.126  -7.535   4.690  1.00  0.00    -0.000 C 
BRANCH  15  16
ATOM     16  C   UNL     1       0.592  -7.481   4.722  1.00  0.00    -0.000 C 
BRANCH  16  17
ATOM     17  C   UNL     1       0.104  -6.388   5.685  1.00  0.00    -0.000 C 
BRANCH  17  18
ATOM     18  C   UNL     1       1.229  -5.434   6.113  1.00  0.00    -0.003 C 
ATOM     19  C   UNL     1       0.955  -3.982   5.719  1.00  0.00     0.004 C 
ENDBRANCH  17  18
ENDBRANCH  16  17
ENDBRANCH  15  16
ENDBRANCH  14  15
ENDBRANCH  13  14
ENDBRANCH  12  13
ENDBRANCH   1  12
TORSDOF 14
ENDMDL
MODEL 9
REMARK VINA RESULT:    -3.769      2.699      3.776
REMARK INTER + INTRA:          -8.474
REMARK INTER:                  -6.663
REMARK INTRA:                  -1.811
REMARK UNBOUND:                -1.621
REMARK SMILES CCCCCCCCCCCCCC[C@H](C)C(=O)[O-]
REMARK SMILES IDX 9 1 10 2 11 3 12 4 13 5 14 6 15 7 16 8 17 9 18 10 19 11 8 12
REMARK SMILES IDX 7 13 6 14 5 15 4 16 3 17 2 18 1 19
REMARK H PARENT
REMARK Flexibility Score: inf
ROOT
ATOM      1  C   UNL     1       2.551  -7.396   4.696  1.00  0.00     0.000 C 
ENDROOT
BRANCH   1   2
ATOM      2  C   UNL     1       2.648  -7.358   6.231  1.00  0.00     0.000 C 
BRANCH   2   3
ATOM      3  C   UNL     1       3.208  -6.046   6.819  1.00  0.00     0.000 C 
BRANCH   3   4
ATOM      4  C   UNL     1       3.215  -4.843   5.857  1.00  0.00     0.000 C 
BRANCH   4   5
ATOM      5  C   UNL     1       2.138  -3.799   6.197  1.00  0.00     0.001 C 
BRANCH   5   6
ATOM      6  C   UNL     1       0.719  -4.243   5.785  1.00  0.00     0.009 C 
BRANCH   6   7
ATOM      7  C   UNL     1      -0.301  -4.225   6.947  1.00  0.00     0.032 C 
ATOM      8  C   UNL     1      -0.287  -5.565   7.693  1.00  0.00     0.014 C 
BRANCH   7   9
ATOM      9  C   UNL     1      -1.695  -3.943   6.463  1.00  0.00     0.044 C 
ATOM     10  O   UNL     1      -2.143  -2.765   6.476  1.00  0.00    -0.550 OA
ATOM     11  O   UNL     1      -2.508  -4.979   6.019  1.00  0.00    -0.550 OA
ENDBRANCH   7   9
ENDBRANCH   6   7
ENDBRANCH   5   6
ENDBRANCH   4   5
ENDBRANCH   3   4
ENDBRANCH   2   3
ENDBRANCH   1   2
BRANCH   1  12
ATOM     12  C   UNL     1       2.105  -8.749   4.110  1.00  0.00     0.000 C 
BRANCH  12  13
ATOM     13  C   UNL     1       3.275  -9.709   3.805  1.00  0.00    -0.000 C 
BRANCH  13  14
ATOM     14  C   UNL     1       4.588  -8.963   3.512  1.00  0.00    -0.000 C 
BRANCH  14  15
ATOM     15  C   UNL     1       5.659  -9.206   4.587  1.00  0.00    -0.000 C 
BRANCH  15  16
ATOM     16  C   UNL     1       6.274  -7.902   5.113  1.00  0.00    -0.000 C 
BRANCH  16  17
ATOM     17  C   UNL     1       6.318  -6.835   4.009  1.00  0.00    -0.000 C 
BRANCH  17  18
ATOM     18  C   UNL     1       7.739  -6.310   3.751  1.00  0.00    -0.003 C 
ATOM     19  C   UNL     1       7.875  -5.611   2.398  1.00  0.00     0.004 C 
ENDBRANCH  17  18
ENDBRANCH  16  17
ENDBRANCH  15  16
ENDBRANCH  14  15
ENDBRANCH  13  14
ENDBRANCH  12  13
ENDBRANCH   1  12
TORSDOF 14
ENDMDL
