MODEL 1
REMARK VINA RESULT:    -5.785      0.000      0.000
REMARK INTER + INTRA:          -5.785
REMARK INTER:                  -5.785
REMARK INTRA:                   0.000
REMARK UNBOUND:                 0.000
REMARK SMILES CC(C)=C1CC[C@@H](C)CC1=O
REMARK SMILES IDX 8 1 7 2 6 3 5 4 4 5 2 6 1 7 3 8 10 9 11 10 9 11
REMARK H PARENT
REMARK Flexibility Score: inf
ROOT
ATOM      1  C   UNL     1     -10.893  73.585  34.492  1.00  0.00     0.008 C 
ATOM      2  C   UNL     1     -10.538  73.472  33.006  1.00  0.00    -0.006 C 
ATOM      3  C   UNL     1     -10.105  74.838  32.447  1.00  0.00     0.008 C 
ATOM      4  C   UNL     1      -9.648  74.724  30.987  1.00  0.00     0.039 C 
ATOM      5  C   UNL     1     -10.678  74.032  30.105  1.00  0.00    -0.006 C 
ATOM      6  C   UNL     1     -10.819  74.359  28.786  1.00  0.00    -0.070 C 
ATOM      7  C   UNL     1     -11.876  73.720  27.916  1.00  0.00     0.039 C 
ATOM      8  C   UNL     1      -9.946  75.412  28.143  1.00  0.00     0.039 C 
ATOM      9  C   UNL     1     -11.431  72.906  30.735  1.00  0.00     0.159 C 
ATOM     10  O   UNL     1     -11.820  71.917  30.058  1.00  0.00    -0.295 OA
ATOM     11  C   UNL     1     -11.733  72.934  32.206  1.00  0.00     0.084 C 
ENDROOT
TORSDOF 0
ENDMDL
MODEL 2
REMARK VINA RESULT:    -5.620      1.799      4.625
REMARK INTER + INTRA:          -5.620
REMARK INTER:                  -5.620
REMARK INTRA:                   0.000
REMARK UNBOUND:                 0.000
REMARK SMILES CC(C)=C1CC[C@@H](C)CC1=O
REMARK SMILES IDX 8 1 7 2 6 3 5 4 4 5 2 6 1 7 3 8 10 9 11 10 9 11
REMARK H PARENT
REMARK Flexibility Score: inf
ROOT
ATOM      1  C   UNL     1     -10.136  73.716  26.789  1.00  0.00     0.008 C 
ATOM      2  C   UNL     1     -10.007  73.532  28.305  1.00  0.00    -0.006 C 
ATOM      3  C   UNL     1     -11.253  72.831  28.873  1.00  0.00     0.008 C 
ATOM      4  C   UNL     1     -11.098  72.548  30.372  1.00  0.00     0.039 C 
ATOM      5  C   UNL     1     -10.715  73.790  31.165  1.00  0.00    -0.006 C 
ATOM      6  C   UNL     1     -11.126  73.964  32.456  1.00  0.00    -0.070 C 
ATOM      7  C   UNL     1     -10.799  75.219  33.233  1.00  0.00     0.039 C 
ATOM      8  C   UNL     1     -11.964  72.921  33.158  1.00  0.00     0.039 C 
ATOM      9  C   UNL     1      -9.776  74.735  30.489  1.00  0.00     0.159 C 
ATOM     10  O   UNL     1      -8.942  75.413  31.147  1.00  0.00    -0.295 OA
ATOM     11  C   UNL     1      -9.810  74.890  28.996  1.00  0.00     0.084 C 
ENDROOT
TORSDOF 0
ENDMDL
MODEL 3
REMARK VINA RESULT:    -5.295      1.818      2.785
REMARK INTER + INTRA:          -5.295
REMARK INTER:                  -5.295
REMARK INTRA:                   0.000
REMARK UNBOUND:                 0.000
REMARK SMILES CC(C)=C1CC[C@@H](C)CC1=O
REMARK SMILES IDX 8 1 7 2 6 3 5 4 4 5 2 6 1 7 3 8 10 9 11 10 9 11
REMARK H PARENT
REMARK Flexibility Score: inf
ROOT
ATOM      1  C   UNL     1     -10.916  72.782  35.880  1.00  0.00     0.008 C 
ATOM      2  C   UNL     1     -11.311  73.222  34.466  1.00  0.00    -0.006 C 
ATOM      3  C   UNL     1     -11.196  72.046  33.482  1.00  0.00     0.008 C 
ATOM      4  C   UNL     1     -11.684  72.442  32.082  1.00  0.00     0.039 C 
ATOM      5  C   UNL     1     -11.011  73.705  31.563  1.00  0.00    -0.006 C 
ATOM      6  C   UNL     1     -10.775  73.888  30.231  1.00  0.00    -0.070 C 
ATOM      7  C   UNL     1     -10.057  75.112  29.711  1.00  0.00     0.039 C 
ATOM      8  C   UNL     1     -11.190  72.852  29.212  1.00  0.00     0.039 C 
ATOM      9  C   UNL     1     -10.736  74.765  32.579  1.00  0.00     0.159 C 
ATOM     10  O   UNL     1     -10.765  75.988  32.274  1.00  0.00    -0.295 OA
ATOM     11  C   UNL     1     -10.424  74.385  33.998  1.00  0.00     0.084 C 
ENDROOT
TORSDOF 0
ENDMDL
MODEL 4
REMARK VINA RESULT:    -5.233      1.072      4.042
REMARK INTER + INTRA:          -5.233
REMARK INTER:                  -5.233
REMARK INTRA:                   0.000
REMARK UNBOUND:                 0.000
REMARK SMILES CC(C)=C1CC[C@@H](C)CC1=O
REMARK SMILES IDX 8 1 7 2 6 3 5 4 4 5 2 6 1 7 3 8 10 9 11 10 9 11
REMARK H PARENT
REMARK Flexibility Score: inf
ROOT
ATOM      1  C   UNL     1      -9.622  74.796  27.264  1.00  0.00     0.008 C 
ATOM      2  C   UNL     1     -10.405  74.590  28.566  1.00  0.00    -0.006 C 
ATOM      3  C   UNL     1      -9.743  75.358  29.722  1.00  0.00     0.008 C 
ATOM      4  C   UNL     1     -10.570  75.246  31.010  1.00  0.00     0.039 C 
ATOM      5  C   UNL     1     -10.891  73.803  31.375  1.00  0.00    -0.006 C 
ATOM      6  C   UNL     1     -11.015  73.411  32.677  1.00  0.00    -0.070 C 
ATOM      7  C   UNL     1     -11.278  71.971  33.053  1.00  0.00     0.039 C 
ATOM      8  C   UNL     1     -10.855  74.397  33.811  1.00  0.00     0.039 C 
ATOM      9  C   UNL     1     -11.175  72.886  30.231  1.00  0.00     0.159 C 
ATOM     10  O   UNL     1     -11.988  71.929  30.345  1.00  0.00    -0.295 OA
ATOM     11  C   UNL     1     -10.492  73.096  28.911  1.00  0.00     0.084 C 
ENDROOT
TORSDOF 0
ENDMDL
MODEL 5
REMARK VINA RESULT:    -4.973      1.636      1.962
REMARK INTER + INTRA:          -4.973
REMARK INTER:                  -4.973
REMARK INTRA:                   0.000
REMARK UNBOUND:                 0.000
REMARK SMILES CC(C)=C1CC[C@@H](C)CC1=O
REMARK SMILES IDX 8 1 7 2 6 3 5 4 4 5 2 6 1 7 3 8 10 9 11 10 9 11
REMARK H PARENT
REMARK Flexibility Score: inf
ROOT
ATOM      1  C   UNL     1     -11.107  72.500  33.571  1.00  0.00     0.008 C 
ATOM      2  C   UNL     1     -11.031  72.583  32.043  1.00  0.00    -0.006 C 
ATOM      3  C   UNL     1      -9.583  72.391  31.562  1.00  0.00     0.008 C 
ATOM      4  C   UNL     1      -9.503  72.370  30.030  1.00  0.00     0.039 C 
ATOM      5  C   UNL     1     -10.175  73.578  29.392  1.00  0.00    -0.006 C 
ATOM      6  C   UNL     1      -9.720  74.106  28.218  1.00  0.00    -0.070 C 
ATOM      7  C   UNL     1     -10.343  75.339  27.606  1.00  0.00     0.039 C 
ATOM      8  C   UNL     1      -8.538  73.503  27.494  1.00  0.00     0.039 C 
ATOM      9  C   UNL     1     -11.418  74.065  30.062  1.00  0.00     0.159 C 
ATOM     10  O   UNL     1     -12.356  74.588  29.402  1.00  0.00    -0.295 OA
ATOM     11  C   UNL     1     -11.573  73.933  31.549  1.00  0.00     0.084 C 
ENDROOT
TORSDOF 0
ENDMDL
MODEL 6
REMARK VINA RESULT:    -4.972      1.736      4.899
REMARK INTER + INTRA:          -4.972
REMARK INTER:                  -4.972
REMARK INTRA:                   0.000
REMARK UNBOUND:                 0.000
REMARK SMILES CC(C)=C1CC[C@@H](C)CC1=O
REMARK SMILES IDX 8 1 7 2 6 3 5 4 4 5 2 6 1 7 3 8 10 9 11 10 9 11
REMARK H PARENT
REMARK Flexibility Score: inf
ROOT
ATOM      1  C   UNL     1     -10.918  74.635  29.923  1.00  0.00     0.008 C 
ATOM      2  C   UNL     1     -11.206  74.170  31.355  1.00  0.00    -0.006 C 
ATOM      3  C   UNL     1     -10.816  75.261  32.367  1.00  0.00     0.008 C 
ATOM      4  C   UNL     1     -11.191  74.853  33.797  1.00  0.00     0.039 C 
ATOM      5  C   UNL     1     -10.647  73.483  34.177  1.00  0.00    -0.006 C 
ATOM      6  C   UNL     1     -10.289  73.192  35.462  1.00  0.00    -0.070 C 
ATOM      7  C   UNL     1      -9.695  71.854  35.839  1.00  0.00     0.039 C 
ATOM      8  C   UNL     1     -10.435  74.214  36.566  1.00  0.00     0.039 C 
ATOM      9  C   UNL     1     -10.642  72.457  33.092  1.00  0.00     0.159 C 
ATOM     10  O   UNL     1     -10.807  71.233  33.346  1.00  0.00    -0.295 OA
ATOM     11  C   UNL     1     -10.443  72.873  31.663  1.00  0.00     0.084 C 
ENDROOT
TORSDOF 0
ENDMDL
MODEL 7
REMARK VINA RESULT:    -4.890      1.636      2.478
REMARK INTER + INTRA:          -4.890
REMARK INTER:                  -4.890
REMARK INTRA:                   0.000
REMARK UNBOUND:                 0.000
REMARK SMILES CC(C)=C1CC[C@@H](C)CC1=O
REMARK SMILES IDX 8 1 7 2 6 3 5 4 4 5 2 6 1 7 3 8 10 9 11 10 9 11
REMARK H PARENT
REMARK Flexibility Score: inf
ROOT
ATOM      1  C   UNL     1     -11.254  72.441  33.663  1.00  0.00     0.008 C 
ATOM      2  C   UNL     1     -11.264  73.233  32.351  1.00  0.00    -0.006 C 
ATOM      3  C   UNL     1     -11.848  72.382  31.210  1.00  0.00     0.008 C 
ATOM      4  C   UNL     1     -11.961  73.192  29.912  1.00  0.00     0.039 C 
ATOM      5  C   UNL     1     -10.650  73.864  29.527  1.00  0.00    -0.006 C 
ATOM      6  C   UNL     1     -10.312  74.066  28.220  1.00  0.00    -0.070 C 
ATOM      7  C   UNL     1      -8.989  74.680  27.825  1.00  0.00     0.039 C 
ATOM      8  C   UNL     1     -11.235  73.646  27.099  1.00  0.00     0.039 C 
ATOM      9  C   UNL     1      -9.825  74.387  30.657  1.00  0.00     0.159 C 
ATOM     10  O   UNL     1      -9.107  75.414  30.524  1.00  0.00    -0.295 OA
ATOM     11  C   UNL     1      -9.844  73.691  31.988  1.00  0.00     0.084 C 
ENDROOT
TORSDOF 0
ENDMDL
MODEL 8
REMARK VINA RESULT:    -4.851      7.220      8.388
REMARK INTER + INTRA:          -4.851
REMARK INTER:                  -4.851
REMARK INTRA:                   0.000
REMARK UNBOUND:                 0.000
REMARK SMILES CC(C)=C1CC[C@@H](C)CC1=O
REMARK SMILES IDX 8 1 7 2 6 3 5 4 4 5 2 6 1 7 3 8 10 9 11 10 9 11
REMARK H PARENT
REMARK Flexibility Score: inf
ROOT
ATOM      1  C   UNL     1      -5.723  70.800  25.948  1.00  0.00     0.008 C 
ATOM      2  C   UNL     1      -6.228  72.091  25.294  1.00  0.00    -0.006 C 
ATOM      3  C   UNL     1      -7.763  72.167  25.362  1.00  0.00     0.008 C 
ATOM      4  C   UNL     1      -8.280  73.499  24.803  1.00  0.00     0.039 C 
ATOM      5  C   UNL     1      -7.741  73.797  23.411  1.00  0.00    -0.006 C 
ATOM      6  C   UNL     1      -8.478  74.498  22.499  1.00  0.00    -0.070 C 
ATOM      7  C   UNL     1      -7.977  74.750  21.095  1.00  0.00     0.039 C 
ATOM      8  C   UNL     1      -9.854  75.021  22.840  1.00  0.00     0.039 C 
ATOM      9  C   UNL     1      -6.330  73.384  23.152  1.00  0.00     0.159 C 
ATOM     10  O   UNL     1      -5.588  74.038  22.370  1.00  0.00    -0.295 OA
ATOM     11  C   UNL     1      -5.764  72.171  23.832  1.00  0.00     0.084 C 
ENDROOT
TORSDOF 0
ENDMDL
MODEL 9
REMARK VINA RESULT:    -4.782      6.825      7.916
REMARK INTER + INTRA:          -4.782
REMARK INTER:                  -4.782
REMARK INTRA:                   0.000
REMARK UNBOUND:                 0.000
REMARK SMILES CC(C)=C1CC[C@@H](C)CC1=O
REMARK SMILES IDX 8 1 7 2 6 3 5 4 4 5 2 6 1 7 3 8 10 9 11 10 9 11
REMARK H PARENT
REMARK Flexibility Score: inf
ROOT
ATOM      1  C   UNL     1      -4.413  71.253  25.769  1.00  0.00     0.008 C 
ATOM      2  C   UNL     1      -5.597  71.677  24.894  1.00  0.00    -0.006 C 
ATOM      3  C   UNL     1      -5.181  72.796  23.924  1.00  0.00     0.008 C 
ATOM      4  C   UNL     1      -6.326  73.162  22.971  1.00  0.00     0.039 C 
ATOM      5  C   UNL     1      -7.620  73.479  23.707  1.00  0.00    -0.006 C 
ATOM      6  C   UNL     1      -8.512  74.389  23.216  1.00  0.00    -0.070 C 
ATOM      7  C   UNL     1      -9.772  74.754  23.966  1.00  0.00     0.039 C 
ATOM      8  C   UNL     1      -8.260  75.107  21.910  1.00  0.00     0.039 C 
ATOM      9  C   UNL     1      -7.902  72.657  24.922  1.00  0.00     0.159 C 
ATOM     10  O   UNL     1      -9.082  72.368  25.258  1.00  0.00    -0.295 OA
ATOM     11  C   UNL     1      -6.769  72.150  25.767  1.00  0.00     0.084 C 
ENDROOT
TORSDOF 0
ENDMDL
