MODEL 1
REMARK VINA RESULT:    -4.341      0.000      0.000
REMARK INTER + INTRA:          -6.814
REMARK INTER:                  -6.117
REMARK INTRA:                  -0.696
REMARK UNBOUND:                -0.696
REMARK SMILES COc1ccc(-c2cc(=O)c3c(OC)c(OC)c(OC)c(OC)c3o2)cc1OC
REMARK SMILES IDX 7 1 8 2 9 3 10 4 11 5 24 6 25 7 21 8 18 9 15 10 12 11 6 12
REMARK SMILES IDX 3 13 27 14 4 15 26 16 5 17 2 18 1 19 28 20 29 21 22 22 23 23
REMARK SMILES IDX 13 24 14 25 19 26 20 27 16 28 17 29
REMARK H PARENT
REMARK Flexibility Score: inf
ROOT
ATOM      1  C   UNL     1      -0.527  27.336  12.048  1.00  0.00     0.138 A 
ATOM      2  C   UNL     1      -0.588  28.238  13.119  1.00  0.00     0.100 A 
ATOM      3  C   UNL     1       0.226  28.035  14.233  1.00  0.00     0.197 A 
ATOM      4  O   UNL     1       0.165  28.855  15.188  1.00  0.00    -0.289 OA
ATOM      5  C   UNL     1       1.104  26.929  14.265  1.00  0.00     0.115 A 
ATOM      6  C   UNL     1       1.114  26.069  13.146  1.00  0.00     0.188 A 
ATOM      7  O   UNL     1       0.316  26.309  12.109  1.00  0.00    -0.452 OA
ATOM      8  C   UNL     1       1.949  24.945  13.108  1.00  0.00     0.209 A 
ATOM      9  C   UNL     1       2.823  24.676  14.191  1.00  0.00     0.211 A 
ATOM     10  C   UNL     1       2.851  25.568  15.295  1.00  0.00     0.208 A 
ATOM     11  C   UNL     1       1.947  26.650  15.360  1.00  0.00     0.179 A 
ENDROOT
BRANCH   1  12
ATOM     12  C   UNL     1      -1.365  27.499  10.834  1.00  0.00     0.021 A 
ATOM     13  C   UNL     1      -2.911  27.819   8.493  1.00  0.00     0.160 A 
ATOM     14  C   UNL     1      -3.436  27.114   9.586  1.00  0.00     0.161 A 
ATOM     15  C   UNL     1      -1.611  28.351   8.570  1.00  0.00     0.051 A 
ATOM     16  C   UNL     1      -2.660  26.954  10.751  1.00  0.00     0.062 A 
ATOM     17  C   UNL     1      -0.848  28.187   9.727  1.00  0.00     0.016 A 
BRANCH  13  18
ATOM     18  O   UNL     1      -3.709  27.966   7.347  1.00  0.00    -0.493 OA
ATOM     19  C   UNL     1      -3.560  27.201   6.156  1.00  0.00     0.278 C 
ENDBRANCH  13  18
BRANCH  14  20
ATOM     20  O   UNL     1      -4.732  26.585   9.475  1.00  0.00    -0.493 OA
ATOM     21  C   UNL     1      -5.029  25.214   9.232  1.00  0.00     0.278 C 
ENDBRANCH  14  20
ENDBRANCH   1  12
BRANCH   8  22
ATOM     22  O   UNL     1       1.857  24.141  11.953  1.00  0.00    -0.490 OA
ATOM     23  C   UNL     1       1.005  23.016  11.758  1.00  0.00     0.278 C 
ENDBRANCH   8  22
BRANCH  11  24
ATOM     24  O   UNL     1       1.877  27.447  16.509  1.00  0.00    -0.492 OA
ATOM     25  C   UNL     1       2.905  28.365  16.867  1.00  0.00     0.278 C 
ENDBRANCH  11  24
BRANCH   9  26
ATOM     26  O   UNL     1       3.646  23.537  14.121  1.00  0.00    -0.490 OA
ATOM     27  C   UNL     1       3.337  22.222  14.573  1.00  0.00     0.279 C 
ENDBRANCH   9  26
BRANCH  10  28
ATOM     28  O   UNL     1       3.790  25.389  16.314  1.00  0.00    -0.490 OA
ATOM     29  C   UNL     1       3.504  24.636  17.491  1.00  0.00     0.278 C 
ENDBRANCH  10  28
TORSDOF 7
ENDMDL
MODEL 2
REMARK VINA RESULT:    -4.103      1.448      3.843
REMARK INTER + INTRA:          -6.478
REMARK INTER:                  -5.641
REMARK INTRA:                  -0.838
REMARK UNBOUND:                -0.696
REMARK SMILES COc1ccc(-c2cc(=O)c3c(OC)c(OC)c(OC)c(OC)c3o2)cc1OC
REMARK SMILES IDX 7 1 8 2 9 3 10 4 11 5 24 6 25 7 21 8 18 9 15 10 12 11 6 12
REMARK SMILES IDX 3 13 27 14 4 15 26 16 5 17 2 18 1 19 28 20 29 21 22 22 23 23
REMARK SMILES IDX 13 24 14 25 19 26 20 27 16 28 17 29
REMARK H PARENT
REMARK Flexibility Score: inf
ROOT
ATOM      1  C   UNL     1      -0.043  26.327  12.429  1.00  0.00     0.138 A 
ATOM      2  C   UNL     1       0.249  24.958  12.490  1.00  0.00     0.100 A 
ATOM      3  C   UNL     1       1.176  24.496  13.423  1.00  0.00     0.197 A 
ATOM      4  O   UNL     1       1.427  23.261  13.471  1.00  0.00    -0.289 OA
ATOM      5  C   UNL     1       1.803  25.411  14.298  1.00  0.00     0.115 A 
ATOM      6  C   UNL     1       1.452  26.773  14.181  1.00  0.00     0.188 A 
ATOM      7  O   UNL     1       0.562  27.160  13.272  1.00  0.00    -0.452 OA
ATOM      8  C   UNL     1       2.039  27.742  15.005  1.00  0.00     0.209 A 
ATOM      9  C   UNL     1       2.977  27.355  15.995  1.00  0.00     0.211 A 
ATOM     10  C   UNL     1       3.293  25.979  16.147  1.00  0.00     0.208 A 
ATOM     11  C   UNL     1       2.759  25.022  15.258  1.00  0.00     0.179 A 
ENDROOT
BRANCH   1  12
ATOM     12  C   UNL     1      -1.022  26.880  11.460  1.00  0.00     0.021 A 
ATOM     13  C   UNL     1      -2.929  27.913   9.651  1.00  0.00     0.160 A 
ATOM     14  C   UNL     1      -1.615  28.404   9.638  1.00  0.00     0.161 A 
ATOM     15  C   UNL     1      -3.287  26.915  10.576  1.00  0.00     0.051 A 
ATOM     16  C   UNL     1      -0.668  27.888  10.545  1.00  0.00     0.062 A 
ATOM     17  C   UNL     1      -2.343  26.410  11.472  1.00  0.00     0.016 A 
BRANCH  13  18
ATOM     18  O   UNL     1      -3.850  28.443   8.734  1.00  0.00    -0.493 OA
ATOM     19  C   UNL     1      -4.252  27.798   7.530  1.00  0.00     0.278 C 
ENDBRANCH  13  18
BRANCH  14  20
ATOM     20  O   UNL     1      -1.291  29.407   8.711  1.00  0.00    -0.493 OA
ATOM     21  C   UNL     1      -1.001  30.760   9.050  1.00  0.00     0.278 C 
ENDBRANCH  14  20
ENDBRANCH   1  12
BRANCH   8  22
ATOM     22  O   UNL     1       1.636  29.074  14.782  1.00  0.00    -0.490 OA
ATOM     23  C   UNL     1       0.585  29.775  15.441  1.00  0.00     0.278 C 
ENDBRANCH   8  22
BRANCH  11  24
ATOM     24  O   UNL     1       3.178  23.687  15.319  1.00  0.00    -0.492 OA
ATOM     25  C   UNL     1       4.454  23.263  14.849  1.00  0.00     0.278 C 
ENDBRANCH  11  24
BRANCH   9  26
ATOM     26  O   UNL     1       3.550  28.354  16.802  1.00  0.00    -0.490 OA
ATOM     27  C   UNL     1       3.037  28.875  18.024  1.00  0.00     0.279 C 
ENDBRANCH   9  26
BRANCH  10  28
ATOM     28  O   UNL     1       4.120  25.565  17.194  1.00  0.00    -0.490 OA
ATOM     29  C   UNL     1       3.606  25.172  18.464  1.00  0.00     0.278 C 
ENDBRANCH  10  28
TORSDOF 7
ENDMDL
MODEL 3
REMARK VINA RESULT:    -3.986      1.992      3.867
REMARK INTER + INTRA:          -6.313
REMARK INTER:                  -5.470
REMARK INTRA:                  -0.843
REMARK UNBOUND:                -0.696
REMARK SMILES COc1ccc(-c2cc(=O)c3c(OC)c(OC)c(OC)c(OC)c3o2)cc1OC
REMARK SMILES IDX 7 1 8 2 9 3 10 4 11 5 24 6 25 7 21 8 18 9 15 10 12 11 6 12
REMARK SMILES IDX 3 13 27 14 4 15 26 16 5 17 2 18 1 19 28 20 29 21 22 22 23 23
REMARK SMILES IDX 13 24 14 25 19 26 20 27 16 28 17 29
REMARK H PARENT
REMARK Flexibility Score: inf
ROOT
ATOM      1  C   UNL     1      -0.124  26.998  12.156  1.00  0.00     0.138 A 
ATOM      2  C   UNL     1      -0.228  25.607  12.021  1.00  0.00     0.100 A 
ATOM      3  C   UNL     1       0.467  24.780  12.903  1.00  0.00     0.197 A 
ATOM      4  O   UNL     1       0.363  23.530  12.774  1.00  0.00    -0.289 OA
ATOM      5  C   UNL     1       1.260  25.353  13.922  1.00  0.00     0.115 A 
ATOM      6  C   UNL     1       1.309  26.761  13.998  1.00  0.00     0.188 A 
ATOM      7  O   UNL     1       0.627  27.504  13.130  1.00  0.00    -0.452 OA
ATOM      8  C   UNL     1       2.081  27.405  14.973  1.00  0.00     0.209 A 
ATOM      9  C   UNL     1       2.803  26.638  15.922  1.00  0.00     0.211 A 
ATOM     10  C   UNL     1       2.715  25.222  15.878  1.00  0.00     0.208 A 
ATOM     11  C   UNL     1       2.002  24.584  14.841  1.00  0.00     0.179 A 
ENDROOT
BRANCH   1  12
ATOM     12  C   UNL     1      -0.841  27.930  11.250  1.00  0.00     0.021 A 
ATOM     13  C   UNL     1      -2.204  29.661   9.484  1.00  0.00     0.160 A 
ATOM     14  C   UNL     1      -2.291  29.866  10.869  1.00  0.00     0.161 A 
ATOM     15  C   UNL     1      -1.446  28.584   8.988  1.00  0.00     0.051 A 
ATOM     16  C   UNL     1      -1.612  28.997  11.747  1.00  0.00     0.062 A 
ATOM     17  C   UNL     1      -0.777  27.728   9.864  1.00  0.00     0.016 A 
BRANCH  13  18
ATOM     18  O   UNL     1      -2.888  30.545   8.633  1.00  0.00    -0.493 OA
ATOM     19  C   UNL     1      -3.745  30.141   7.571  1.00  0.00     0.278 C 
ENDBRANCH  13  18
BRANCH  14  20
ATOM     20  O   UNL     1      -3.064  30.942  11.334  1.00  0.00    -0.493 OA
ATOM     21  C   UNL     1      -2.535  32.110  11.952  1.00  0.00     0.278 C 
ENDBRANCH  14  20
ENDBRANCH   1  12
BRANCH   8  22
ATOM     22  O   UNL     1       2.079  28.814  14.939  1.00  0.00    -0.490 OA
ATOM     23  C   UNL     1       1.233  29.689  15.678  1.00  0.00     0.278 C 
ENDBRANCH   8  22
BRANCH  11  24
ATOM     24  O   UNL     1       2.029  23.190  14.716  1.00  0.00    -0.492 OA
ATOM     25  C   UNL     1       3.193  22.481  14.303  1.00  0.00     0.278 C 
ENDBRANCH  11  24
BRANCH   9  26
ATOM     26  O   UNL     1       3.573  27.316  16.886  1.00  0.00    -0.490 OA
ATOM     27  C   UNL     1       3.152  27.750  18.175  1.00  0.00     0.279 C 
ENDBRANCH   9  26
BRANCH  10  28
ATOM     28  O   UNL     1       3.320  24.453  16.876  1.00  0.00    -0.490 OA
ATOM     29  C   UNL     1       2.625  24.046  18.053  1.00  0.00     0.278 C 
ENDBRANCH  10  28
TORSDOF 7
ENDMDL
MODEL 4
REMARK VINA RESULT:    -3.857      3.150      8.913
REMARK INTER + INTRA:          -6.131
REMARK INTER:                  -5.427
REMARK INTRA:                  -0.705
REMARK UNBOUND:                -0.696
REMARK SMILES COc1ccc(-c2cc(=O)c3c(OC)c(OC)c(OC)c(OC)c3o2)cc1OC
REMARK SMILES IDX 7 1 8 2 9 3 10 4 11 5 24 6 25 7 21 8 18 9 15 10 12 11 6 12
REMARK SMILES IDX 3 13 27 14 4 15 26 16 5 17 2 18 1 19 28 20 29 21 22 22 23 23
REMARK SMILES IDX 13 24 14 25 19 26 20 27 16 28 17 29
REMARK H PARENT
REMARK Flexibility Score: inf
ROOT
ATOM      1  C   UNL     1      -0.929  28.049  10.936  1.00  0.00     0.138 A 
ATOM      2  C   UNL     1      -1.445  27.490   9.758  1.00  0.00     0.100 A 
ATOM      3  C   UNL     1      -2.124  28.306   8.854  1.00  0.00     0.197 A 
ATOM      4  O   UNL     1      -2.579  27.793   7.796  1.00  0.00    -0.289 OA
ATOM      5  C   UNL     1      -2.276  29.683   9.131  1.00  0.00     0.115 A 
ATOM      6  C   UNL     1      -1.724  30.173  10.334  1.00  0.00     0.188 A 
ATOM      7  O   UNL     1      -1.087  29.350  11.163  1.00  0.00    -0.452 OA
ATOM      8  C   UNL     1      -1.844  31.523  10.686  1.00  0.00     0.209 A 
ATOM      9  C   UNL     1      -2.501  32.425   9.812  1.00  0.00     0.211 A 
ATOM     10  C   UNL     1      -3.013  31.944   8.579  1.00  0.00     0.208 A 
ATOM     11  C   UNL     1      -2.960  30.568   8.273  1.00  0.00     0.179 A 
ENDROOT
BRANCH   1  12
ATOM     12  C   UNL     1      -0.196  27.233  11.936  1.00  0.00     0.021 A 
ATOM     13  C   UNL     1       1.169  25.711  13.884  1.00  0.00     0.160 A 
ATOM     14  C   UNL     1       1.027  25.213  12.580  1.00  0.00     0.161 A 
ATOM     15  C   UNL     1       0.617  26.963  14.212  1.00  0.00     0.051 A 
ATOM     16  C   UNL     1       0.342  25.974  11.612  1.00  0.00     0.062 A 
ATOM     17  C   UNL     1      -0.061  27.711  13.248  1.00  0.00     0.016 A 
BRANCH  13  18
ATOM     18  O   UNL     1       1.860  24.932  14.826  1.00  0.00    -0.493 OA
ATOM     19  C   UNL     1       3.003  25.371  15.552  1.00  0.00     0.278 C 
ENDBRANCH  13  18
BRANCH  14  20
ATOM     20  O   UNL     1       1.580  23.956  12.286  1.00  0.00    -0.493 OA
ATOM     21  C   UNL     1       1.407  23.265  11.054  1.00  0.00     0.278 C 
ENDBRANCH  14  20
ENDBRANCH   1  12
BRANCH   8  22
ATOM     22  O   UNL     1      -1.279  31.896  11.922  1.00  0.00    -0.490 OA
ATOM     23  C   UNL     1      -1.964  32.084  13.157  1.00  0.00     0.278 C 
ENDBRANCH   8  22
BRANCH  11  24
ATOM     24  O   UNL     1      -3.588  30.072   7.124  1.00  0.00    -0.492 OA
ATOM     25  C   UNL     1      -4.992  29.844   7.056  1.00  0.00     0.278 C 
ENDBRANCH  11  24
BRANCH   9  26
ATOM     26  O   UNL     1      -2.607  33.775  10.198  1.00  0.00    -0.490 OA
ATOM     27  C   UNL     1      -1.669  34.817   9.954  1.00  0.00     0.279 C 
ENDBRANCH   9  26
BRANCH  10  28
ATOM     28  O   UNL     1      -3.556  32.838   7.651  1.00  0.00    -0.490 OA
ATOM     29  C   UNL     1      -4.869  33.376   7.788  1.00  0.00     0.278 C 
ENDBRANCH  10  28
TORSDOF 7
ENDMDL
MODEL 5
REMARK VINA RESULT:    -3.848      6.552      9.899
REMARK INTER + INTRA:          -6.119
REMARK INTER:                  -5.309
REMARK INTRA:                  -0.810
REMARK UNBOUND:                -0.696
REMARK SMILES COc1ccc(-c2cc(=O)c3c(OC)c(OC)c(OC)c(OC)c3o2)cc1OC
REMARK SMILES IDX 7 1 8 2 9 3 10 4 11 5 24 6 25 7 21 8 18 9 15 10 12 11 6 12
REMARK SMILES IDX 3 13 27 14 4 15 26 16 5 17 2 18 1 19 28 20 29 21 22 22 23 23
REMARK SMILES IDX 13 24 14 25 19 26 20 27 16 28 17 29
REMARK H PARENT
REMARK Flexibility Score: inf
ROOT
ATOM      1  C   UNL     1      -3.501  27.201   5.796  1.00  0.00     0.138 A 
ATOM      2  C   UNL     1      -2.778  27.091   6.992  1.00  0.00     0.100 A 
ATOM      3  C   UNL     1      -2.815  28.138   7.913  1.00  0.00     0.197 A 
ATOM      4  O   UNL     1      -2.165  28.025   8.987  1.00  0.00    -0.289 OA
ATOM      5  C   UNL     1      -3.581  29.290   7.632  1.00  0.00     0.115 A 
ATOM      6  C   UNL     1      -4.286  29.325   6.410  1.00  0.00     0.188 A 
ATOM      7  O   UNL     1      -4.216  28.298   5.566  1.00  0.00    -0.452 OA
ATOM      8  C   UNL     1      -5.059  30.437   6.054  1.00  0.00     0.209 A 
ATOM      9  C   UNL     1      -5.166  31.537   6.942  1.00  0.00     0.211 A 
ATOM     10  C   UNL     1      -4.498  31.483   8.193  1.00  0.00     0.208 A 
ATOM     11  C   UNL     1      -3.656  30.394   8.505  1.00  0.00     0.179 A 
ENDROOT
BRANCH   1  12
ATOM     12  C   UNL     1      -3.504  26.121   4.778  1.00  0.00     0.021 A 
ATOM     13  C   UNL     1      -3.566  24.051   2.858  1.00  0.00     0.160 A 
ATOM     14  C   UNL     1      -2.673  25.121   2.704  1.00  0.00     0.161 A 
ATOM     15  C   UNL     1      -4.434  24.026   3.966  1.00  0.00     0.051 A 
ATOM     16  C   UNL     1      -2.648  26.154   3.662  1.00  0.00     0.062 A 
ATOM     17  C   UNL     1      -4.403  25.053   4.911  1.00  0.00     0.016 A 
BRANCH  13  18
ATOM     18  O   UNL     1      -3.566  23.035   1.889  1.00  0.00    -0.493 OA
ATOM     19  C   UNL     1      -4.688  22.687   1.086  1.00  0.00     0.278 C 
ENDBRANCH  13  18
BRANCH  14  20
ATOM     20  O   UNL     1      -1.828  25.124   1.582  1.00  0.00    -0.493 OA
ATOM     21  C   UNL     1      -0.694  25.970   1.425  1.00  0.00     0.278 C 
ENDBRANCH  14  20
ENDBRANCH   1  12
BRANCH   8  22
ATOM     22  O   UNL     1      -5.697  30.376   4.798  1.00  0.00    -0.490 OA
ATOM     23  C   UNL     1      -5.246  30.954   3.577  1.00  0.00     0.278 C 
ENDBRANCH   8  22
BRANCH  11  24
ATOM     24  O   UNL     1      -2.889  30.404   9.677  1.00  0.00    -0.492 OA
ATOM     25  C   UNL     1      -1.700  31.178   9.807  1.00  0.00     0.278 C 
ENDBRANCH  11  24
BRANCH   9  26
ATOM     26  O   UNL     1      -5.948  32.641   6.552  1.00  0.00    -0.490 OA
ATOM     27  C   UNL     1      -5.491  33.856   5.968  1.00  0.00     0.279 C 
ENDBRANCH   9  26
BRANCH  10  28
ATOM     28  O   UNL     1      -4.689  32.501   9.132  1.00  0.00    -0.490 OA
ATOM     29  C   UNL     1      -5.725  32.453  10.110  1.00  0.00     0.278 C 
ENDBRANCH  10  28
TORSDOF 7
ENDMDL
MODEL 6
REMARK VINA RESULT:    -3.840      6.035     10.501
REMARK INTER + INTRA:          -6.108
REMARK INTER:                  -5.264
REMARK INTRA:                  -0.844
REMARK UNBOUND:                -0.696
REMARK SMILES COc1ccc(-c2cc(=O)c3c(OC)c(OC)c(OC)c(OC)c3o2)cc1OC
REMARK SMILES IDX 7 1 8 2 9 3 10 4 11 5 24 6 25 7 21 8 18 9 15 10 12 11 6 12
REMARK SMILES IDX 3 13 27 14 4 15 26 16 5 17 2 18 1 19 28 20 29 21 22 22 23 23
REMARK SMILES IDX 13 24 14 25 19 26 20 27 16 28 17 29
REMARK H PARENT
REMARK Flexibility Score: inf
ROOT
ATOM      1  C   UNL     1      -1.573  31.978   9.911  1.00  0.00     0.138 A 
ATOM      2  C   UNL     1      -1.089  30.664   9.965  1.00  0.00     0.100 A 
ATOM      3  C   UNL     1      -1.667  29.688   9.154  1.00  0.00     0.197 A 
ATOM      4  O   UNL     1      -1.221  28.510   9.208  1.00  0.00    -0.289 OA
ATOM      5  C   UNL     1      -2.725  30.037   8.285  1.00  0.00     0.115 A 
ATOM      6  C   UNL     1      -3.152  31.381   8.282  1.00  0.00     0.188 A 
ATOM      7  O   UNL     1      -2.567  32.273   9.078  1.00  0.00    -0.452 OA
ATOM      8  C   UNL     1      -4.203  31.803   7.458  1.00  0.00     0.209 A 
ATOM      9  C   UNL     1      -4.832  30.879   6.586  1.00  0.00     0.211 A 
ATOM     10  C   UNL     1      -4.370  29.537   6.551  1.00  0.00     0.208 A 
ATOM     11  C   UNL     1      -3.368  29.105   7.446  1.00  0.00     0.179 A 
ENDROOT
BRANCH   1  12
ATOM     12  C   UNL     1      -0.999  33.061  10.748  1.00  0.00     0.021 A 
ATOM     13  C   UNL     1       0.136  35.083  12.360  1.00  0.00     0.160 A 
ATOM     14  C   UNL     1      -0.645  35.431  11.248  1.00  0.00     0.161 A 
ATOM     15  C   UNL     1       0.357  33.725  12.654  1.00  0.00     0.051 A 
ATOM     16  C   UNL     1      -1.207  34.419  10.445  1.00  0.00     0.062 A 
ATOM     17  C   UNL     1      -0.201  32.728  11.853  1.00  0.00     0.016 A 
BRANCH  13  18
ATOM     18  O   UNL     1       0.680  36.113  13.145  1.00  0.00    -0.493 OA
ATOM     19  C   UNL     1       1.975  36.081  13.732  1.00  0.00     0.278 C 
ENDBRANCH  13  18
BRANCH  14  20
ATOM     20  O   UNL     1      -0.838  36.795  10.974  1.00  0.00    -0.493 OA
ATOM     21  C   UNL     1      -1.061  37.335   9.676  1.00  0.00     0.278 C 
ENDBRANCH  14  20
ENDBRANCH   1  12
BRANCH   8  22
ATOM     22  O   UNL     1      -4.566  33.162   7.557  1.00  0.00    -0.490 OA
ATOM     23  C   UNL     1      -4.100  34.235   6.745  1.00  0.00     0.278 C 
ENDBRANCH   8  22
BRANCH  11  24
ATOM     24  O   UNL     1      -3.009  27.752   7.509  1.00  0.00    -0.492 OA
ATOM     25  C   UNL     1      -3.850  26.764   8.098  1.00  0.00     0.278 C 
ENDBRANCH  11  24
BRANCH   9  26
ATOM     26  O   UNL     1      -5.887  31.334   5.774  1.00  0.00    -0.490 OA
ATOM     27  C   UNL     1      -5.795  31.852   4.451  1.00  0.00     0.279 C 
ENDBRANCH   9  26
BRANCH  10  28
ATOM     28  O   UNL     1      -4.894  28.642   5.615  1.00  0.00    -0.490 OA
ATOM     29  C   UNL     1      -4.279  28.415   4.349  1.00  0.00     0.278 C 
ENDBRANCH  10  28
TORSDOF 7
ENDMDL
MODEL 7
REMARK VINA RESULT:    -3.817      5.481      7.732
REMARK INTER + INTRA:          -6.076
REMARK INTER:                  -5.240
REMARK INTRA:                  -0.836
REMARK UNBOUND:                -0.696
REMARK SMILES COc1ccc(-c2cc(=O)c3c(OC)c(OC)c(OC)c(OC)c3o2)cc1OC
REMARK SMILES IDX 7 1 8 2 9 3 10 4 11 5 24 6 25 7 21 8 18 9 15 10 12 11 6 12
REMARK SMILES IDX 3 13 27 14 4 15 26 16 5 17 2 18 1 19 28 20 29 21 22 22 23 23
REMARK SMILES IDX 13 24 14 25 19 26 20 27 16 28 17 29
REMARK H PARENT
REMARK Flexibility Score: inf
ROOT
ATOM      1  C   UNL     1      -1.061  32.426  10.885  1.00  0.00     0.138 A 
ATOM      2  C   UNL     1      -1.406  33.699  10.410  1.00  0.00     0.100 A 
ATOM      3  C   UNL     1      -1.005  34.827  11.125  1.00  0.00     0.197 A 
ATOM      4  O   UNL     1      -1.317  35.967  10.686  1.00  0.00    -0.289 OA
ATOM      5  C   UNL     1      -0.254  34.674  12.311  1.00  0.00     0.115 A 
ATOM      6  C   UNL     1       0.059  33.361  12.722  1.00  0.00     0.188 A 
ATOM      7  O   UNL     1      -0.349  32.318  12.003  1.00  0.00    -0.452 OA
ATOM      8  C   UNL     1       0.790  33.126  13.893  1.00  0.00     0.209 A 
ATOM      9  C   UNL     1       1.253  34.219  14.668  1.00  0.00     0.211 A 
ATOM     10  C   UNL     1       0.982  35.542  14.230  1.00  0.00     0.208 A 
ATOM     11  C   UNL     1       0.174  35.765  13.095  1.00  0.00     0.179 A 
ENDROOT
BRANCH   1  12
ATOM     12  C   UNL     1      -1.456  31.187  10.169  1.00  0.00     0.021 A 
ATOM     13  C   UNL     1      -2.207  28.862   8.754  1.00  0.00     0.160 A 
ATOM     14  C   UNL     1      -1.569  28.748   9.998  1.00  0.00     0.161 A 
ATOM     15  C   UNL     1      -2.456  30.138   8.216  1.00  0.00     0.051 A 
ATOM     16  C   UNL     1      -1.193  29.911  10.699  1.00  0.00     0.062 A 
ATOM     17  C   UNL     1      -2.079  31.285   8.917  1.00  0.00     0.016 A 
BRANCH  13  18
ATOM     18  O   UNL     1      -2.574  27.686   8.080  1.00  0.00    -0.493 OA
ATOM     19  C   UNL     1      -3.442  27.639   6.953  1.00  0.00     0.278 C 
ENDBRANCH  13  18
BRANCH  14  20
ATOM     20  O   UNL     1      -1.324  27.460  10.502  1.00  0.00    -0.493 OA
ATOM     21  C   UNL     1      -0.348  27.151  11.492  1.00  0.00     0.278 C 
ENDBRANCH  14  20
ENDBRANCH   1  12
BRANCH   8  22
ATOM     22  O   UNL     1       1.022  31.775  14.223  1.00  0.00    -0.490 OA
ATOM     23  C   UNL     1       0.272  30.972  15.129  1.00  0.00     0.278 C 
ENDBRANCH   8  22
BRANCH  11  24
ATOM     24  O   UNL     1      -0.209  37.065  12.742  1.00  0.00    -0.492 OA
ATOM     25  C   UNL     1      -1.182  37.801  13.477  1.00  0.00     0.278 C 
ENDBRANCH  11  24
BRANCH   9  26
ATOM     26  O   UNL     1       1.982  33.948  15.842  1.00  0.00    -0.490 OA
ATOM     27  C   UNL     1       1.484  33.906  17.175  1.00  0.00     0.279 C 
ENDBRANCH   9  26
BRANCH  10  28
ATOM     28  O   UNL     1       1.532  36.631  14.912  1.00  0.00    -0.490 OA
ATOM     29  C   UNL     1       2.817  37.160  14.595  1.00  0.00     0.278 C 
ENDBRANCH  10  28
TORSDOF 7
ENDMDL
MODEL 8
REMARK VINA RESULT:    -3.796      4.748      6.543
REMARK INTER + INTRA:          -6.046
REMARK INTER:                  -5.308
REMARK INTRA:                  -0.737
REMARK UNBOUND:                -0.696
REMARK SMILES COc1ccc(-c2cc(=O)c3c(OC)c(OC)c(OC)c(OC)c3o2)cc1OC
REMARK SMILES IDX 7 1 8 2 9 3 10 4 11 5 24 6 25 7 21 8 18 9 15 10 12 11 6 12
REMARK SMILES IDX 3 13 27 14 4 15 26 16 5 17 2 18 1 19 28 20 29 21 22 22 23 23
REMARK SMILES IDX 13 24 14 25 19 26 20 27 16 28 17 29
REMARK H PARENT
REMARK Flexibility Score: inf
ROOT
ATOM      1  C   UNL     1      -0.472  33.023  11.675  1.00  0.00     0.138 A 
ATOM      2  C   UNL     1       0.255  34.221  11.642  1.00  0.00     0.100 A 
ATOM      3  C   UNL     1       1.045  34.573  12.737  1.00  0.00     0.197 A 
ATOM      4  O   UNL     1       1.698  35.650  12.694  1.00  0.00    -0.289 OA
ATOM      5  C   UNL     1       1.107  33.716  13.858  1.00  0.00     0.115 A 
ATOM      6  C   UNL     1       0.352  32.525  13.815  1.00  0.00     0.188 A 
ATOM      7  O   UNL     1      -0.386  32.238  12.745  1.00  0.00    -0.452 OA
ATOM      8  C   UNL     1       0.353  31.631  14.892  1.00  0.00     0.209 A 
ATOM      9  C   UNL     1       1.145  31.902  16.036  1.00  0.00     0.211 A 
ATOM     10  C   UNL     1       1.944  33.075  16.061  1.00  0.00     0.208 A 
ATOM     11  C   UNL     1       1.871  34.009  15.006  1.00  0.00     0.179 A 
ENDROOT
BRANCH   1  12
ATOM     12  C   UNL     1      -1.328  32.593  10.542  1.00  0.00     0.021 A 
ATOM     13  C   UNL     1      -2.958  31.832   8.365  1.00  0.00     0.160 A 
ATOM     14  C   UNL     1      -2.160  30.875   9.009  1.00  0.00     0.161 A 
ATOM     15  C   UNL     1      -2.929  33.169   8.804  1.00  0.00     0.051 A 
ATOM     16  C   UNL     1      -1.345  31.260  10.092  1.00  0.00     0.062 A 
ATOM     17  C   UNL     1      -2.119  33.542   9.878  1.00  0.00     0.016 A 
BRANCH  13  18
ATOM     18  O   UNL     1      -3.763  31.419   7.291  1.00  0.00    -0.493 OA
ATOM     19  C   UNL     1      -5.164  31.185   7.376  1.00  0.00     0.278 C 
ENDBRANCH  13  18
BRANCH  14  20
ATOM     20  O   UNL     1      -2.202  29.552   8.540  1.00  0.00    -0.493 OA
ATOM     21  C   UNL     1      -1.282  28.532   8.914  1.00  0.00     0.278 C 
ENDBRANCH  14  20
ENDBRANCH   1  12
BRANCH   8  22
ATOM     22  O   UNL     1      -0.459  30.487  14.752  1.00  0.00    -0.490 OA
ATOM     23  C   UNL     1      -0.041  29.178  14.375  1.00  0.00     0.278 C 
ENDBRANCH   8  22
BRANCH  11  24
ATOM     24  O   UNL     1       2.551  35.231  15.093  1.00  0.00    -0.492 OA
ATOM     25  C   UNL     1       2.065  36.324  15.867  1.00  0.00     0.278 C 
ENDBRANCH  11  24
BRANCH   9  26
ATOM     26  O   UNL     1       1.119  30.984  17.103  1.00  0.00    -0.490 OA
ATOM     27  C   UNL     1       2.040  29.927  17.353  1.00  0.00     0.279 C 
ENDBRANCH   9  26
BRANCH  10  28
ATOM     28  O   UNL     1       2.823  33.299  17.124  1.00  0.00    -0.490 OA
ATOM     29  C   UNL     1       2.379  33.768  18.395  1.00  0.00     0.278 C 
ENDBRANCH  10  28
TORSDOF 7
ENDMDL
MODEL 9
REMARK VINA RESULT:    -3.750      5.069      7.421
REMARK INTER + INTRA:          -5.980
REMARK INTER:                  -5.155
REMARK INTRA:                  -0.825
REMARK UNBOUND:                -0.696
REMARK SMILES COc1ccc(-c2cc(=O)c3c(OC)c(OC)c(OC)c(OC)c3o2)cc1OC
REMARK SMILES IDX 7 1 8 2 9 3 10 4 11 5 24 6 25 7 21 8 18 9 15 10 12 11 6 12
REMARK SMILES IDX 3 13 27 14 4 15 26 16 5 17 2 18 1 19 28 20 29 21 22 22 23 23
REMARK SMILES IDX 13 24 14 25 19 26 20 27 16 28 17 29
REMARK H PARENT
REMARK Flexibility Score: inf
ROOT
ATOM      1  C   UNL     1      -1.597  31.859  10.315  1.00  0.00     0.138 A 
ATOM      2  C   UNL     1      -1.740  33.134   9.750  1.00  0.00     0.100 A 
ATOM      3  C   UNL     1      -1.295  34.250  10.458  1.00  0.00     0.197 A 
ATOM      4  O   UNL     1      -1.425  35.391   9.937  1.00  0.00    -0.289 OA
ATOM      5  C   UNL     1      -0.702  34.082  11.728  1.00  0.00     0.115 A 
ATOM      6  C   UNL     1      -0.587  32.768  12.228  1.00  0.00     0.188 A 
ATOM      7  O   UNL     1      -1.028  31.737  11.512  1.00  0.00    -0.452 OA
ATOM      8  C   UNL     1      -0.020  32.520  13.485  1.00  0.00     0.209 A 
ATOM      9  C   UNL     1       0.476  33.598  14.261  1.00  0.00     0.211 A 
ATOM     10  C   UNL     1       0.406  34.916  13.738  1.00  0.00     0.208 A 
ATOM     11  C   UNL     1      -0.241  35.162  12.509  1.00  0.00     0.179 A 
ENDROOT
BRANCH   1  12
ATOM     12  C   UNL     1      -2.048  30.633   9.612  1.00  0.00     0.021 A 
ATOM     13  C   UNL     1      -2.865  28.268   8.302  1.00  0.00     0.160 A 
ATOM     14  C   UNL     1      -3.753  29.347   8.414  1.00  0.00     0.161 A 
ATOM     15  C   UNL     1      -1.576  28.370   8.857  1.00  0.00     0.051 A 
ATOM     16  C   UNL     1      -3.343  30.524   9.071  1.00  0.00     0.062 A 
ATOM     17  C   UNL     1      -1.177  29.539   9.507  1.00  0.00     0.016 A 
BRANCH  13  18
ATOM     18  O   UNL     1      -3.300  27.109   7.639  1.00  0.00    -0.493 OA
ATOM     19  C   UNL     1      -3.095  26.847   6.255  1.00  0.00     0.278 C 
ENDBRANCH  13  18
BRANCH  14  20
ATOM     20  O   UNL     1      -5.036  29.211   7.860  1.00  0.00    -0.493 OA
ATOM     21  C   UNL     1      -5.451  29.789   6.628  1.00  0.00     0.278 C 
ENDBRANCH  14  20
ENDBRANCH   1  12
BRANCH   8  22
ATOM     22  O   UNL     1       0.018  31.172  13.896  1.00  0.00    -0.490 OA
ATOM     23  C   UNL     1      -0.918  30.504  14.736  1.00  0.00     0.278 C 
ENDBRANCH   8  22
BRANCH  11  24
ATOM     24  O   UNL     1      -0.433  36.474  12.059  1.00  0.00    -0.492 OA
ATOM     25  C   UNL     1      -1.385  37.354  12.650  1.00  0.00     0.278 C 
ENDBRANCH  11  24
BRANCH   9  26
ATOM     26  O   UNL     1       1.035  33.315  15.521  1.00  0.00    -0.490 OA
ATOM     27  C   UNL     1       0.386  33.385  16.787  1.00  0.00     0.279 C 
ENDBRANCH   9  26
BRANCH  10  28
ATOM     28  O   UNL     1       0.998  35.975  14.433  1.00  0.00    -0.490 OA
ATOM     29  C   UNL     1       2.361  36.345  14.243  1.00  0.00     0.278 C 
ENDBRANCH  10  28
TORSDOF 7
ENDMDL
