MODEL 1
REMARK VINA RESULT:    -5.320      0.000      0.000
REMARK INTER + INTRA:          -6.400
REMARK INTER:                  -6.098
REMARK INTRA:                  -0.302
REMARK UNBOUND:                -0.302
REMARK SMILES COc1ccc(C(C)=O)c(O)c1
REMARK SMILES IDX 6 1 10 2 12 3 3 4 4 5 5 6 7 7 8 8 9 9 11 10 2 12 1 13
REMARK H PARENT 11 11
REMARK Flexibility Score: inf
ROOT
ATOM      1  C   UNL     1      31.771   6.441 106.928  1.00  0.00     0.059 A 
ATOM      2  C   UNL     1      32.285   7.686 107.361  1.00  0.00     0.130 A 
ATOM      3  C   UNL     1      31.965   8.857 106.658  1.00  0.00     0.093 A 
ATOM      4  C   UNL     1      31.127   8.820 105.541  1.00  0.00     0.122 A 
ATOM      5  C   UNL     1      30.600   7.588 105.121  1.00  0.00     0.047 A 
ATOM      6  C   UNL     1      30.917   6.415 105.809  1.00  0.00     0.019 A 
ENDROOT
BRANCH   1   7
ATOM      7  C   UNL     1      32.087   5.161 107.617  1.00  0.00     0.163 C 
ATOM      8  C   UNL     1      32.889   4.075 106.969  1.00  0.00     0.093 C 
ATOM      9  O   UNL     1      31.667   4.973 108.792  1.00  0.00    -0.294 OA
ENDBRANCH   1   7
BRANCH   2  10
ATOM     10  O   UNL     1      33.093   7.770 108.494  1.00  0.00    -0.507 OA
ATOM     11  H   UNL     1      33.226   6.980 109.114  1.00  0.00     0.293 HD
ENDBRANCH   2  10
BRANCH   4  12
ATOM     12  O   UNL     1      30.842  10.025 104.881  1.00  0.00    -0.497 OA
ATOM     13  C   UNL     1      30.087  11.091 105.445  1.00  0.00     0.278 C 
ENDBRANCH   4  12
TORSDOF 3
ENDMDL
MODEL 2
REMARK VINA RESULT:    -4.965      1.084      1.983
REMARK INTER + INTRA:          -5.993
REMARK INTER:                  -5.896
REMARK INTRA:                  -0.097
REMARK UNBOUND:                -0.302
REMARK SMILES COc1ccc(C(C)=O)c(O)c1
REMARK SMILES IDX 6 1 10 2 12 3 3 4 4 5 5 6 7 7 8 8 9 9 11 10 2 12 1 13
REMARK H PARENT 11 11
REMARK Flexibility Score: inf
ROOT
ATOM      1  C   UNL     1      31.797   6.444 106.962  1.00  0.00     0.059 A 
ATOM      2  C   UNL     1      31.041   6.360 105.769  1.00  0.00     0.130 A 
ATOM      3  C   UNL     1      30.656   7.531 105.100  1.00  0.00     0.093 A 
ATOM      4  C   UNL     1      31.023   8.789 105.584  1.00  0.00     0.122 A 
ATOM      5  C   UNL     1      31.789   8.875 106.758  1.00  0.00     0.047 A 
ATOM      6  C   UNL     1      32.172   7.715 107.435  1.00  0.00     0.019 A 
ENDROOT
BRANCH   1   7
ATOM      7  C   UNL     1      32.220   5.241 107.728  1.00  0.00     0.163 C 
ATOM      8  C   UNL     1      33.257   4.287 107.218  1.00  0.00     0.093 C 
ATOM      9  O   UNL     1      31.693   5.006 108.849  1.00  0.00    -0.294 OA
ENDBRANCH   1   7
BRANCH   2  10
ATOM     10  O   UNL     1      30.689   5.121 105.232  1.00  0.00    -0.507 OA
ATOM     11  H   UNL     1      30.192   5.044 104.352  1.00  0.00     0.293 HD
ENDBRANCH   2  10
BRANCH   4  12
ATOM     12  O   UNL     1      30.609   9.925 104.871  1.00  0.00    -0.497 OA
ATOM     13  C   UNL     1      30.014  11.074 105.464  1.00  0.00     0.278 C 
ENDBRANCH   4  12
TORSDOF 3
ENDMDL
MODEL 3
REMARK VINA RESULT:    -4.731      2.293      3.135
REMARK INTER + INTRA:          -5.725
REMARK INTER:                  -5.465
REMARK INTRA:                  -0.259
REMARK UNBOUND:                -0.302
REMARK SMILES COc1ccc(C(C)=O)c(O)c1
REMARK SMILES IDX 6 1 10 2 12 3 3 4 4 5 5 6 7 7 8 8 9 9 11 10 2 12 1 13
REMARK H PARENT 11 11
REMARK Flexibility Score: inf
ROOT
ATOM      1  C   UNL     1      32.689   8.102 107.407  1.00  0.00     0.059 A 
ATOM      2  C   UNL     1      32.041   8.675 106.288  1.00  0.00     0.130 A 
ATOM      3  C   UNL     1      32.688   9.666 105.535  1.00  0.00     0.093 A 
ATOM      4  C   UNL     1      33.979  10.089 105.862  1.00  0.00     0.122 A 
ATOM      5  C   UNL     1      34.632   9.507 106.962  1.00  0.00     0.047 A 
ATOM      6  C   UNL     1      33.994   8.524 107.721  1.00  0.00     0.019 A 
ENDROOT
BRANCH   1   7
ATOM      7  C   UNL     1      32.050   7.061 108.256  1.00  0.00     0.163 C 
ATOM      8  C   UNL     1      32.477   5.625 108.225  1.00  0.00     0.093 C 
ATOM      9  O   UNL     1      31.113   7.388 109.033  1.00  0.00    -0.294 OA
ENDBRANCH   1   7
BRANCH   2  10
ATOM     10  O   UNL     1      30.768   8.252 105.905  1.00  0.00    -0.507 OA
ATOM     11  H   UNL     1      30.273   8.684 105.133  1.00  0.00     0.293 HD
ENDBRANCH   2  10
BRANCH   4  12
ATOM     12  O   UNL     1      34.576  11.083 105.071  1.00  0.00    -0.497 OA
ATOM     13  C   UNL     1      33.945  12.306 104.707  1.00  0.00     0.278 C 
ENDBRANCH   4  12
TORSDOF 3
ENDMDL
MODEL 4
REMARK VINA RESULT:    -4.721      1.387      4.987
REMARK INTER + INTRA:          -5.713
REMARK INTER:                  -5.383
REMARK INTRA:                  -0.330
REMARK UNBOUND:                -0.302
REMARK SMILES COc1ccc(C(C)=O)c(O)c1
REMARK SMILES IDX 6 1 10 2 12 3 3 4 4 5 5 6 7 7 8 8 9 9 11 10 2 12 1 13
REMARK H PARENT 11 11
REMARK Flexibility Score: inf
ROOT
ATOM      1  C   UNL     1      31.428   8.343 106.054  1.00  0.00     0.059 A 
ATOM      2  C   UNL     1      30.864   7.223 105.399  1.00  0.00     0.130 A 
ATOM      3  C   UNL     1      31.037   5.938 105.935  1.00  0.00     0.093 A 
ATOM      4  C   UNL     1      31.746   5.744 107.123  1.00  0.00     0.122 A 
ATOM      5  C   UNL     1      32.290   6.857 107.785  1.00  0.00     0.047 A 
ATOM      6  C   UNL     1      32.129   8.139 107.257  1.00  0.00     0.019 A 
ENDROOT
BRANCH   1   7
ATOM      7  C   UNL     1      31.296   9.728 105.528  1.00  0.00     0.163 C 
ATOM      8  C   UNL     1      32.483  10.591 105.228  1.00  0.00     0.093 C 
ATOM      9  O   UNL     1      30.146  10.203 105.323  1.00  0.00    -0.294 OA
ENDBRANCH   1   7
BRANCH   2  10
ATOM     10  O   UNL     1      30.116   7.379 104.231  1.00  0.00    -0.507 OA
ATOM     11  H   UNL     1      30.191   6.727 103.459  1.00  0.00     0.293 HD
ENDBRANCH   2  10
BRANCH   4  12
ATOM     12  O   UNL     1      31.884   4.435 107.611  1.00  0.00    -0.497 OA
ATOM     13  C   UNL     1      33.051   3.636 107.448  1.00  0.00     0.278 C 
ENDBRANCH   4  12
TORSDOF 3
ENDMDL
MODEL 5
REMARK VINA RESULT:    -4.640      3.069      5.081
REMARK INTER + INTRA:          -5.621
REMARK INTER:                  -5.287
REMARK INTRA:                  -0.334
REMARK UNBOUND:                -0.302
REMARK SMILES COc1ccc(C(C)=O)c(O)c1
REMARK SMILES IDX 6 1 10 2 12 3 3 4 4 5 5 6 7 7 8 8 9 9 11 10 2 12 1 13
REMARK H PARENT 11 11
REMARK Flexibility Score: inf
ROOT
ATOM      1  C   UNL     1      34.675   9.791 106.718  1.00  0.00     0.059 A 
ATOM      2  C   UNL     1      33.648   9.899 105.751  1.00  0.00     0.130 A 
ATOM      3  C   UNL     1      32.498   9.103 105.860  1.00  0.00     0.093 A 
ATOM      4  C   UNL     1      32.339   8.211 106.924  1.00  0.00     0.122 A 
ATOM      5  C   UNL     1      33.349   8.116 107.895  1.00  0.00     0.047 A 
ATOM      6  C   UNL     1      34.500   8.900 107.792  1.00  0.00     0.019 A 
ENDROOT
BRANCH   1   7
ATOM      7  C   UNL     1      35.926  10.593 106.649  1.00  0.00     0.163 C 
ATOM      8  C   UNL     1      36.418  11.417 107.800  1.00  0.00     0.093 C 
ATOM      9  O   UNL     1      36.606  10.587 105.587  1.00  0.00    -0.294 OA
ENDBRANCH   1   7
BRANCH   2  10
ATOM     10  O   UNL     1      33.751  10.806 104.696  1.00  0.00    -0.507 OA
ATOM     11  H   UNL     1      34.160  10.544 103.807  1.00  0.00     0.293 HD
ENDBRANCH   2  10
BRANCH   4  12
ATOM     12  O   UNL     1      31.166   7.443 106.980  1.00  0.00    -0.497 OA
ATOM     13  C   UNL     1      30.895   6.328 106.137  1.00  0.00     0.278 C 
ENDBRANCH   4  12
TORSDOF 3
ENDMDL
MODEL 6
REMARK VINA RESULT:    -4.627      2.730      4.415
REMARK INTER + INTRA:          -5.606
REMARK INTER:                  -5.274
REMARK INTRA:                  -0.332
REMARK UNBOUND:                -0.302
REMARK SMILES COc1ccc(C(C)=O)c(O)c1
REMARK SMILES IDX 6 1 10 2 12 3 3 4 4 5 5 6 7 7 8 8 9 9 11 10 2 12 1 13
REMARK H PARENT 11 11
REMARK Flexibility Score: inf
ROOT
ATOM      1  C   UNL     1      31.875   9.776 105.520  1.00  0.00     0.059 A 
ATOM      2  C   UNL     1      31.013  10.880 105.323  1.00  0.00     0.130 A 
ATOM      3  C   UNL     1      31.550  12.152 105.073  1.00  0.00     0.093 A 
ATOM      4  C   UNL     1      32.932  12.347 104.997  1.00  0.00     0.122 A 
ATOM      5  C   UNL     1      33.789  11.248 105.174  1.00  0.00     0.047 A 
ATOM      6  C   UNL     1      33.264   9.979 105.429  1.00  0.00     0.019 A 
ENDROOT
BRANCH   1   7
ATOM      7  C   UNL     1      31.369   8.407 105.807  1.00  0.00     0.163 C 
ATOM      8  C   UNL     1      31.743   7.654 107.047  1.00  0.00     0.093 C 
ATOM      9  O   UNL     1      30.595   7.849 104.981  1.00  0.00    -0.294 OA
ENDBRANCH   1   7
BRANCH   2  10
ATOM     10  O   UNL     1      29.627  10.720 105.352  1.00  0.00    -0.507 OA
ATOM     11  H   UNL     1      29.097  10.820 106.210  1.00  0.00     0.293 HD
ENDBRANCH   2  10
BRANCH   4  12
ATOM     12  O   UNL     1      33.409  13.641 104.743  1.00  0.00    -0.497 OA
ATOM     13  C   UNL     1      34.732  14.081 105.035  1.00  0.00     0.278 C 
ENDBRANCH   4  12
TORSDOF 3
ENDMDL
MODEL 7
REMARK VINA RESULT:    -4.553      1.034      4.618
REMARK INTER + INTRA:          -5.521
REMARK INTER:                  -5.185
REMARK INTRA:                  -0.336
REMARK UNBOUND:                -0.302
REMARK SMILES COc1ccc(C(C)=O)c(O)c1
REMARK SMILES IDX 6 1 10 2 12 3 3 4 4 5 5 6 7 7 8 8 9 9 11 10 2 12 1 13
REMARK H PARENT 11 11
REMARK Flexibility Score: inf
ROOT
ATOM      1  C   UNL     1      31.727   8.444 106.115  1.00  0.00     0.059 A 
ATOM      2  C   UNL     1      32.580   8.056 107.175  1.00  0.00     0.130 A 
ATOM      3  C   UNL     1      32.562   6.732 107.638  1.00  0.00     0.093 A 
ATOM      4  C   UNL     1      31.722   5.778 107.057  1.00  0.00     0.122 A 
ATOM      5  C   UNL     1      30.889   6.157 105.992  1.00  0.00     0.047 A 
ATOM      6  C   UNL     1      30.895   7.474 105.527  1.00  0.00     0.019 A 
ENDROOT
BRANCH   1   7
ATOM      7  C   UNL     1      31.687   9.836 105.589  1.00  0.00     0.163 C 
ATOM      8  C   UNL     1      30.402  10.570 105.355  1.00  0.00     0.093 C 
ATOM      9  O   UNL     1      32.768  10.428 105.327  1.00  0.00    -0.294 OA
ENDBRANCH   1   7
BRANCH   2  10
ATOM     10  O   UNL     1      33.461   8.969 107.755  1.00  0.00    -0.507 OA
ATOM     11  H   UNL     1      33.241   9.956 107.815  1.00  0.00     0.293 HD
ENDBRANCH   2  10
BRANCH   4  12
ATOM     12  O   UNL     1      31.749   4.470 107.564  1.00  0.00    -0.497 OA
ATOM     13  C   UNL     1      32.866   3.593 107.465  1.00  0.00     0.278 C 
ENDBRANCH   4  12
TORSDOF 3
ENDMDL
MODEL 8
REMARK VINA RESULT:    -4.480      2.695      5.079
REMARK INTER + INTRA:          -5.437
REMARK INTER:                  -5.127
REMARK INTRA:                  -0.310
REMARK UNBOUND:                -0.302
REMARK SMILES COc1ccc(C(C)=O)c(O)c1
REMARK SMILES IDX 6 1 10 2 12 3 3 4 4 5 5 6 7 7 8 8 9 9 11 10 2 12 1 13
REMARK H PARENT 11 11
REMARK Flexibility Score: inf
ROOT
ATOM      1  C   UNL     1      33.923   9.902 106.168  1.00  0.00     0.059 A 
ATOM      2  C   UNL     1      34.485   9.149 107.226  1.00  0.00     0.130 A 
ATOM      3  C   UNL     1      33.734   8.137 107.840  1.00  0.00     0.093 A 
ATOM      4  C   UNL     1      32.436   7.843 107.413  1.00  0.00     0.122 A 
ATOM      5  C   UNL     1      31.884   8.577 106.350  1.00  0.00     0.047 A 
ATOM      6  C   UNL     1      32.621   9.591 105.735  1.00  0.00     0.019 A 
ENDROOT
BRANCH   1   7
ATOM      7  C   UNL     1      34.661  11.000 105.487  1.00  0.00     0.163 C 
ATOM      8  C   UNL     1      33.968  12.192 104.902  1.00  0.00     0.093 C 
ATOM      9  O   UNL     1      35.917  10.934 105.393  1.00  0.00    -0.294 OA
ENDBRANCH   1   7
BRANCH   2  10
ATOM     10  O   UNL     1      35.791   9.385 107.656  1.00  0.00    -0.507 OA
ATOM     11  H   UNL     1      35.988   9.784 108.566  1.00  0.00     0.293 HD
ENDBRANCH   2  10
BRANCH   4  12
ATOM     12  O   UNL     1      31.735   6.818 108.066  1.00  0.00    -0.497 OA
ATOM     13  C   UNL     1      32.206   5.482 108.201  1.00  0.00     0.278 C 
ENDBRANCH   4  12
TORSDOF 3
ENDMDL
MODEL 9
REMARK VINA RESULT:    -4.265      2.762      3.545
REMARK INTER + INTRA:          -5.190
REMARK INTER:                  -4.852
REMARK INTRA:                  -0.338
REMARK UNBOUND:                -0.302
REMARK SMILES COc1ccc(C(C)=O)c(O)c1
REMARK SMILES IDX 6 1 10 2 12 3 3 4 4 5 5 6 7 7 8 8 9 9 11 10 2 12 1 13
REMARK H PARENT 11 11
REMARK Flexibility Score: inf
ROOT
ATOM      1  C   UNL     1      32.769   8.423 107.006  1.00  0.00     0.059 A 
ATOM      2  C   UNL     1      34.010   8.572 107.670  1.00  0.00     0.130 A 
ATOM      3  C   UNL     1      34.961   9.478 107.178  1.00  0.00     0.093 A 
ATOM      4  C   UNL     1      34.698  10.254 106.046  1.00  0.00     0.122 A 
ATOM      5  C   UNL     1      33.459  10.121 105.397  1.00  0.00     0.047 A 
ATOM      6  C   UNL     1      32.508   9.218 105.875  1.00  0.00     0.019 A 
ENDROOT
BRANCH   1   7
ATOM      7  C   UNL     1      31.725   7.467 107.466  1.00  0.00     0.163 C 
ATOM      8  C   UNL     1      30.967   6.587 106.520  1.00  0.00     0.093 C 
ATOM      9  O   UNL     1      31.461   7.387 108.697  1.00  0.00    -0.294 OA
ENDBRANCH   1   7
BRANCH   2  10
ATOM     10  O   UNL     1      34.295   7.845 108.825  1.00  0.00    -0.507 OA
ATOM     11  H   UNL     1      33.857   8.061 109.712  1.00  0.00     0.293 HD
ENDBRANCH   2  10
BRANCH   4  12
ATOM     12  O   UNL     1      35.689  11.144 105.603  1.00  0.00    -0.497 OA
ATOM     13  C   UNL     1      36.592  11.833 106.461  1.00  0.00     0.278 C 
ENDBRANCH   4  12
TORSDOF 3
ENDMDL
