MODEL 1
REMARK VINA RESULT:    -3.562      0.000      0.000
REMARK INTER + INTRA:          -6.330
REMARK INTER:                  -5.435
REMARK INTRA:                  -0.895
REMARK UNBOUND:                -0.895
REMARK SMILES CCCCCCCCCCC(=O)[O-]
REMARK SMILES IDX 7 1 8 2 9 3 10 4 11 5 12 6 13 7 6 8 5 9 4 10 3 11 2 12 1 13
REMARK H PARENT
REMARK Flexibility Score: inf
ROOT
ATOM      1  C   UNL     1     -20.762 -19.987   2.295  1.00  0.00     0.000 C 
ENDROOT
BRANCH   1   2
ATOM      2  C   UNL     1     -20.248 -19.607   0.896  1.00  0.00     0.000 C 
BRANCH   2   3
ATOM      3  C   UNL     1     -21.332 -19.471  -0.192  1.00  0.00     0.006 C 
BRANCH   3   4
ATOM      4  C   UNL     1     -21.501 -20.724  -1.070  1.00  0.00     0.053 C 
BRANCH   4   5
ATOM      5  C   UNL     1     -22.621 -21.605  -0.604  1.00  0.00     0.041 C 
ATOM      6  O   UNL     1     -23.622 -21.106  -0.027  1.00  0.00    -0.550 OA
ATOM      7  O   UNL     1     -22.540 -22.982  -0.770  1.00  0.00    -0.550 OA
ENDBRANCH   4   5
ENDBRANCH   3   4
ENDBRANCH   2   3
ENDBRANCH   1   2
BRANCH   1   8
ATOM      8  C   UNL     1     -20.670 -21.497   2.577  1.00  0.00     0.000 C 
BRANCH   8   9
ATOM      9  C   UNL     1     -19.711 -21.822   3.735  1.00  0.00    -0.000 C 
BRANCH   9  10
ATOM     10  C   UNL     1     -18.234 -21.652   3.341  1.00  0.00    -0.000 C 
BRANCH  10  11
ATOM     11  C   UNL     1     -17.544 -20.497   4.091  1.00  0.00    -0.000 C 
BRANCH  11  12
ATOM     12  C   UNL     1     -16.783 -19.503   3.195  1.00  0.00    -0.003 C 
ATOM     13  C   UNL     1     -16.364 -20.106   1.855  1.00  0.00     0.004 C 
ENDBRANCH  11  12
ENDBRANCH  10  11
ENDBRANCH   9  10
ENDBRANCH   8   9
ENDBRANCH   1   8
TORSDOF 9
ENDMDL
MODEL 2
REMARK VINA RESULT:    -3.472      0.962      2.402
REMARK INTER + INTRA:          -6.194
REMARK INTER:                  -5.342
REMARK INTRA:                  -0.851
REMARK UNBOUND:                -0.895
REMARK SMILES CCCCCCCCCCC(=O)[O-]
REMARK SMILES IDX 7 1 8 2 9 3 10 4 11 5 12 6 13 7 6 8 5 9 4 10 3 11 2 12 1 13
REMARK H PARENT
REMARK Flexibility Score: inf
ROOT
ATOM      1  C   UNL     1     -19.398 -18.069   1.718  1.00  0.00     0.000 C 
ENDROOT
BRANCH   1   2
ATOM      2  C   UNL     1     -19.884 -19.390   1.098  1.00  0.00     0.000 C 
BRANCH   2   3
ATOM      3  C   UNL     1     -21.179 -19.292   0.267  1.00  0.00     0.006 C 
BRANCH   3   4
ATOM      4  C   UNL     1     -21.321 -20.387  -0.806  1.00  0.00     0.053 C 
BRANCH   4   5
ATOM      5  C   UNL     1     -22.583 -21.182  -0.652  1.00  0.00     0.041 C 
ATOM      6  O   UNL     1     -23.694 -20.596  -0.566  1.00  0.00    -0.550 OA
ATOM      7  O   UNL     1     -22.529 -22.567  -0.562  1.00  0.00    -0.550 OA
ENDBRANCH   4   5
ENDBRANCH   3   4
ENDBRANCH   2   3
ENDBRANCH   1   2
BRANCH   1   8
ATOM      8  C   UNL     1     -17.916 -18.111   2.132  1.00  0.00     0.000 C 
BRANCH   8   9
ATOM      9  C   UNL     1     -17.213 -19.400   1.673  1.00  0.00    -0.000 C 
BRANCH   9  10
ATOM     10  C   UNL     1     -16.434 -20.082   2.811  1.00  0.00    -0.000 C 
BRANCH  10  11
ATOM     11  C   UNL     1     -17.350 -20.596   3.938  1.00  0.00    -0.000 C 
BRANCH  11  12
ATOM     12  C   UNL     1     -18.359 -21.679   3.513  1.00  0.00    -0.003 C 
ATOM     13  C   UNL     1     -19.744 -21.477   4.126  1.00  0.00     0.004 C 
ENDBRANCH  11  12
ENDBRANCH  10  11
ENDBRANCH   9  10
ENDBRANCH   8   9
ENDBRANCH   1   8
TORSDOF 9
ENDMDL
MODEL 3
REMARK VINA RESULT:    -3.441      1.380      2.426
REMARK INTER + INTRA:          -6.147
REMARK INTER:                  -5.577
REMARK INTRA:                  -0.570
REMARK UNBOUND:                -0.895
REMARK SMILES CCCCCCCCCCC(=O)[O-]
REMARK SMILES IDX 7 1 8 2 9 3 10 4 11 5 12 6 13 7 6 8 5 9 4 10 3 11 2 12 1 13
REMARK H PARENT
REMARK Flexibility Score: inf
ROOT
ATOM      1  C   UNL     1     -21.203 -17.702   1.105  1.00  0.00     0.000 C 
ENDROOT
BRANCH   1   2
ATOM      2  C   UNL     1     -21.924 -18.723   0.209  1.00  0.00     0.000 C 
BRANCH   2   3
ATOM      3  C   UNL     1     -21.065 -19.916  -0.256  1.00  0.00     0.006 C 
BRANCH   3   4
ATOM      4  C   UNL     1     -21.796 -20.887  -1.201  1.00  0.00     0.053 C 
BRANCH   4   5
ATOM      5  C   UNL     1     -22.334 -22.089  -0.484  1.00  0.00     0.041 C 
ATOM      6  O   UNL     1     -22.460 -22.076   0.768  1.00  0.00    -0.550 OA
ATOM      7  O   UNL     1     -22.658 -23.238  -1.194  1.00  0.00    -0.550 OA
ENDBRANCH   4   5
ENDBRANCH   3   4
ENDBRANCH   2   3
ENDBRANCH   1   2
BRANCH   1   8
ATOM      8  C   UNL     1     -20.053 -18.324   1.916  1.00  0.00     0.000 C 
BRANCH   8   9
ATOM      9  C   UNL     1     -18.735 -17.545   1.761  1.00  0.00    -0.000 C 
BRANCH   9  10
ATOM     10  C   UNL     1     -17.566 -18.211   2.506  1.00  0.00    -0.000 C 
BRANCH  10  11
ATOM     11  C   UNL     1     -17.044 -19.473   1.794  1.00  0.00    -0.000 C 
BRANCH  11  12
ATOM     12  C   UNL     1     -16.801 -20.685   2.712  1.00  0.00    -0.003 C 
ATOM     13  C   UNL     1     -18.068 -21.161   3.421  1.00  0.00     0.004 C 
ENDBRANCH  11  12
ENDBRANCH  10  11
ENDBRANCH   9  10
ENDBRANCH   8   9
ENDBRANCH   1   8
TORSDOF 9
ENDMDL
MODEL 4
REMARK VINA RESULT:    -3.429      1.440      2.395
REMARK INTER + INTRA:          -6.128
REMARK INTER:                  -5.053
REMARK INTRA:                  -1.075
REMARK UNBOUND:                -0.895
REMARK SMILES CCCCCCCCCCC(=O)[O-]
REMARK SMILES IDX 7 1 8 2 9 3 10 4 11 5 12 6 13 7 6 8 5 9 4 10 3 11 2 12 1 13
REMARK H PARENT
REMARK Flexibility Score: inf
ROOT
ATOM      1  C   UNL     1     -20.127 -21.206   3.514  1.00  0.00     0.000 C 
ENDROOT
BRANCH   1   2
ATOM      2  C   UNL     1     -20.868 -21.337   2.173  1.00  0.00     0.000 C 
BRANCH   2   3
ATOM      3  C   UNL     1     -21.261 -20.005   1.503  1.00  0.00     0.006 C 
BRANCH   3   4
ATOM      4  C   UNL     1     -20.730 -19.844   0.067  1.00  0.00     0.053 C 
BRANCH   4   5
ATOM      5  C   UNL     1     -21.717 -20.303  -0.964  1.00  0.00     0.041 C 
ATOM      6  O   UNL     1     -21.805 -21.524  -1.257  1.00  0.00    -0.550 OA
ATOM      7  O   UNL     1     -22.510 -19.378  -1.632  1.00  0.00    -0.550 OA
ENDBRANCH   4   5
ENDBRANCH   3   4
ENDBRANCH   2   3
ENDBRANCH   1   2
BRANCH   1   8
ATOM      8  C   UNL     1     -18.702 -21.787   3.470  1.00  0.00     0.000 C 
BRANCH   8   9
ATOM      9  C   UNL     1     -17.630 -20.743   3.823  1.00  0.00    -0.000 C 
BRANCH   9  10
ATOM     10  C   UNL     1     -16.697 -20.433   2.640  1.00  0.00    -0.000 C 
BRANCH  10  11
ATOM     11  C   UNL     1     -17.243 -19.322   1.724  1.00  0.00    -0.000 C 
BRANCH  11  12
ATOM     12  C   UNL     1     -17.638 -18.020   2.445  1.00  0.00    -0.003 C 
ATOM     13  C   UNL     1     -18.717 -17.232   1.704  1.00  0.00     0.004 C 
ENDBRANCH  11  12
ENDBRANCH  10  11
ENDBRANCH   9  10
ENDBRANCH   8   9
ENDBRANCH   1   8
TORSDOF 9
ENDMDL
MODEL 5
REMARK VINA RESULT:    -3.410      5.541      7.127
REMARK INTER + INTRA:          -6.099
REMARK INTER:                  -5.520
REMARK INTRA:                  -0.579
REMARK UNBOUND:                -0.895
REMARK SMILES CCCCCCCCCCC(=O)[O-]
REMARK SMILES IDX 7 1 8 2 9 3 10 4 11 5 12 6 13 7 6 8 5 9 4 10 3 11 2 12 1 13
REMARK H PARENT
REMARK Flexibility Score: inf
ROOT
ATOM      1  C   UNL     1     -19.141 -16.371   1.090  1.00  0.00     0.000 C 
ENDROOT
BRANCH   1   2
ATOM      2  C   UNL     1     -17.893 -17.047   1.683  1.00  0.00     0.000 C 
BRANCH   2   3
ATOM      3  C   UNL     1     -18.089 -18.504   2.147  1.00  0.00     0.006 C 
BRANCH   3   4
ATOM      4  C   UNL     1     -16.952 -19.455   1.730  1.00  0.00     0.053 C 
BRANCH   4   5
ATOM      5  C   UNL     1     -16.381 -20.210   2.892  1.00  0.00     0.041 C 
ATOM      6  O   UNL     1     -17.138 -20.862   3.658  1.00  0.00    -0.550 OA
ATOM      7  O   UNL     1     -15.017 -20.162   3.153  1.00  0.00    -0.550 OA
ENDBRANCH   4   5
ENDBRANCH   3   4
ENDBRANCH   2   3
ENDBRANCH   1   2
BRANCH   1   8
ATOM      8  C   UNL     1     -18.842 -14.988   0.485  1.00  0.00     0.000 C 
BRANCH   8   9
ATOM      9  C   UNL     1     -17.465 -14.447   0.904  1.00  0.00    -0.000 C 
BRANCH   9  10
ATOM     10  C   UNL     1     -16.543 -14.187  -0.300  1.00  0.00    -0.000 C 
BRANCH  10  11
ATOM     11  C   UNL     1     -17.069 -14.820  -1.603  1.00  0.00    -0.000 C 
BRANCH  11  12
ATOM     12  C   UNL     1     -17.191 -13.851  -2.793  1.00  0.00    -0.003 C 
ATOM     13  C   UNL     1     -18.618 -13.737  -3.326  1.00  0.00     0.004 C 
ENDBRANCH  11  12
ENDBRANCH  10  11
ENDBRANCH   9  10
ENDBRANCH   8   9
ENDBRANCH   1   8
TORSDOF 9
ENDMDL
MODEL 6
REMARK VINA RESULT:    -3.356      9.129     10.802
REMARK INTER + INTRA:          -6.016
REMARK INTER:                  -4.974
REMARK INTRA:                  -1.042
REMARK UNBOUND:                -0.895
REMARK SMILES CCCCCCCCCCC(=O)[O-]
REMARK SMILES IDX 7 1 8 2 9 3 10 4 11 5 12 6 13 7 6 8 5 9 4 10 3 11 2 12 1 13
REMARK H PARENT
REMARK Flexibility Score: inf
ROOT
ATOM      1  C   UNL     1     -17.154 -13.752   0.632  1.00  0.00     0.000 C 
ENDROOT
BRANCH   1   2
ATOM      2  C   UNL     1     -15.626 -13.928   0.594  1.00  0.00     0.000 C 
BRANCH   2   3
ATOM      3  C   UNL     1     -14.826 -12.943   1.469  1.00  0.00     0.006 C 
BRANCH   3   4
ATOM      4  C   UNL     1     -14.070 -11.865   0.670  1.00  0.00     0.053 C 
BRANCH   4   5
ATOM      5  C   UNL     1     -12.585 -12.069   0.696  1.00  0.00     0.041 C 
ATOM      6  O   UNL     1     -11.812 -11.135   0.358  1.00  0.00    -0.550 OA
ATOM      7  O   UNL     1     -12.055 -13.302   1.055  1.00  0.00    -0.550 OA
ENDBRANCH   4   5
ENDBRANCH   3   4
ENDBRANCH   2   3
ENDBRANCH   1   2
BRANCH   1   8
ATOM      8  C   UNL     1     -17.884 -14.626  -0.403  1.00  0.00     0.000 C 
BRANCH   8   9
ATOM      9  C   UNL     1     -17.054 -14.843  -1.680  1.00  0.00    -0.000 C 
BRANCH   9  10
ATOM     10  C   UNL     1     -17.691 -14.181  -2.915  1.00  0.00    -0.000 C 
BRANCH  10  11
ATOM     11  C   UNL     1     -17.874 -12.661  -2.751  1.00  0.00    -0.000 C 
BRANCH  11  12
ATOM     12  C   UNL     1     -16.572 -11.869  -2.533  1.00  0.00    -0.003 C 
ATOM     13  C   UNL     1     -16.750 -10.673  -1.598  1.00  0.00     0.004 C 
ENDBRANCH  11  12
ENDBRANCH  10  11
ENDBRANCH   9  10
ENDBRANCH   8   9
ENDBRANCH   1   8
TORSDOF 9
ENDMDL
MODEL 7
REMARK VINA RESULT:    -3.321      3.819      6.181
REMARK INTER + INTRA:          -5.963
REMARK INTER:                  -5.305
REMARK INTRA:                  -0.658
REMARK UNBOUND:                -0.895
REMARK SMILES CCCCCCCCCCC(=O)[O-]
REMARK SMILES IDX 7 1 8 2 9 3 10 4 11 5 12 6 13 7 6 8 5 9 4 10 3 11 2 12 1 13
REMARK H PARENT
REMARK Flexibility Score: inf
ROOT
ATOM      1  C   UNL     1     -19.178 -18.510   2.274  1.00  0.00     0.000 C 
ENDROOT
BRANCH   1   2
ATOM      2  C   UNL     1     -17.689 -18.315   1.941  1.00  0.00     0.000 C 
BRANCH   2   3
ATOM      3  C   UNL     1     -16.916 -19.604   1.595  1.00  0.00     0.006 C 
BRANCH   3   4
ATOM      4  C   UNL     1     -16.899 -20.649   2.725  1.00  0.00     0.053 C 
BRANCH   4   5
ATOM      5  C   UNL     1     -15.974 -20.269   3.843  1.00  0.00     0.041 C 
ATOM      6  O   UNL     1     -14.771 -19.990   3.603  1.00  0.00    -0.550 OA
ATOM      7  O   UNL     1     -16.431 -20.264   5.155  1.00  0.00    -0.550 OA
ENDBRANCH   4   5
ENDBRANCH   3   4
ENDBRANCH   2   3
ENDBRANCH   1   2
BRANCH   1   8
ATOM      8  C   UNL     1     -19.968 -19.160   1.124  1.00  0.00     0.000 C 
BRANCH   8   9
ATOM      9  C   UNL     1     -20.917 -20.266   1.616  1.00  0.00    -0.000 C 
BRANCH   9  10
ATOM     10  C   UNL     1     -21.663 -20.958   0.461  1.00  0.00    -0.000 C 
BRANCH  10  11
ATOM     11  C   UNL     1     -21.313 -20.364  -0.916  1.00  0.00    -0.000 C 
BRANCH  11  12
ATOM     12  C   UNL     1     -22.464 -19.617  -1.615  1.00  0.00    -0.003 C 
ATOM     13  C   UNL     1     -23.078 -18.521  -0.746  1.00  0.00     0.004 C 
ENDBRANCH  11  12
ENDBRANCH  10  11
ENDBRANCH   9  10
ENDBRANCH   8   9
ENDBRANCH   1   8
TORSDOF 9
ENDMDL
MODEL 8
REMARK VINA RESULT:    -3.237      7.674      8.900
REMARK INTER + INTRA:          -5.836
REMARK INTER:                  -5.202
REMARK INTRA:                  -0.634
REMARK UNBOUND:                -0.895
REMARK SMILES CCCCCCCCCCC(=O)[O-]
REMARK SMILES IDX 7 1 8 2 9 3 10 4 11 5 12 6 13 7 6 8 5 9 4 10 3 11 2 12 1 13
REMARK H PARENT
REMARK Flexibility Score: inf
ROOT
ATOM      1  C   UNL     1     -16.741 -13.473   0.436  1.00  0.00     0.000 C 
ENDROOT
BRANCH   1   2
ATOM      2  C   UNL     1     -17.287 -14.689  -0.331  1.00  0.00     0.000 C 
BRANCH   2   3
ATOM      3  C   UNL     1     -16.862 -14.782  -1.810  1.00  0.00     0.006 C 
BRANCH   3   4
ATOM      4  C   UNL     1     -17.237 -13.547  -2.650  1.00  0.00     0.053 C 
BRANCH   4   5
ATOM      5  C   UNL     1     -18.648 -13.603  -3.154  1.00  0.00     0.041 C 
ATOM      6  O   UNL     1     -18.924 -14.257  -4.192  1.00  0.00    -0.550 OA
ATOM      7  O   UNL     1     -19.651 -12.898  -2.500  1.00  0.00    -0.550 OA
ENDBRANCH   4   5
ENDBRANCH   3   4
ENDBRANCH   2   3
ENDBRANCH   1   2
BRANCH   1   8
ATOM      8  C   UNL     1     -15.237 -13.584   0.744  1.00  0.00     0.000 C 
BRANCH   8   9
ATOM      9  C   UNL     1     -14.504 -12.241   0.588  1.00  0.00    -0.000 C 
BRANCH   9  10
ATOM     10  C   UNL     1     -12.987 -12.370   0.809  1.00  0.00    -0.000 C 
BRANCH  10  11
ATOM     11  C   UNL     1     -12.552 -13.808   1.147  1.00  0.00    -0.000 C 
BRANCH  11  12
ATOM     12  C   UNL     1     -11.910 -13.984   2.535  1.00  0.00    -0.003 C 
ATOM     13  C   UNL     1     -12.925 -13.922   3.675  1.00  0.00     0.004 C 
ENDBRANCH  11  12
ENDBRANCH  10  11
ENDBRANCH   9  10
ENDBRANCH   8   9
ENDBRANCH   1   8
TORSDOF 9
ENDMDL
MODEL 9
REMARK VINA RESULT:    -3.223      8.916     10.649
REMARK INTER + INTRA:          -5.814
REMARK INTER:                  -4.856
REMARK INTRA:                  -0.959
REMARK UNBOUND:                -0.895
REMARK SMILES CCCCCCCCCCC(=O)[O-]
REMARK SMILES IDX 7 1 8 2 9 3 10 4 11 5 12 6 13 7 6 8 5 9 4 10 3 11 2 12 1 13
REMARK H PARENT
REMARK Flexibility Score: inf
ROOT
ATOM      1  C   UNL     1     -16.463 -11.136  -0.950  1.00  0.00     0.000 C 
ENDROOT
BRANCH   1   2
ATOM      2  C   UNL     1     -15.015 -11.409  -0.507  1.00  0.00     0.000 C 
BRANCH   2   3
ATOM      3  C   UNL     1     -14.857 -11.971   0.920  1.00  0.00     0.006 C 
BRANCH   3   4
ATOM      4  C   UNL     1     -14.260 -13.389   0.974  1.00  0.00     0.053 C 
BRANCH   4   5
ATOM      5  C   UNL     1     -12.781 -13.379   1.220  1.00  0.00     0.041 C 
ATOM      6  O   UNL     1     -12.031 -12.629   0.543  1.00  0.00    -0.550 OA
ATOM      7  O   UNL     1     -12.226 -14.228   2.170  1.00  0.00    -0.550 OA
ENDBRANCH   4   5
ENDBRANCH   3   4
ENDBRANCH   2   3
ENDBRANCH   1   2
BRANCH   1   8
ATOM      8  C   UNL     1     -16.723 -11.526  -2.416  1.00  0.00     0.000 C 
BRANCH   8   9
ATOM      9  C   UNL     1     -17.819 -12.596  -2.555  1.00  0.00    -0.000 C 
BRANCH   9  10
ATOM     10  C   UNL     1     -17.245 -13.992  -2.852  1.00  0.00    -0.000 C 
BRANCH  10  11
ATOM     11  C   UNL     1     -16.980 -14.813  -1.576  1.00  0.00    -0.000 C 
BRANCH  11  12
ATOM     12  C   UNL     1     -17.926 -14.510  -0.400  1.00  0.00    -0.003 C 
ATOM     13  C   UNL     1     -17.779 -15.500   0.755  1.00  0.00     0.004 C 
ENDBRANCH  11  12
ENDBRANCH  10  11
ENDBRANCH   9  10
ENDBRANCH   8   9
ENDBRANCH   1   8
TORSDOF 9
ENDMDL
