MODEL 1
REMARK VINA RESULT:    -6.549      0.000      0.000
REMARK INTER + INTRA:          -9.413
REMARK INTER:                  -8.081
REMARK INTRA:                  -1.332
REMARK UNBOUND:                -1.332
REMARK SMILES CC(C)=CCC[C@H](C)c1ccc(C)cc1
REMARK SMILES IDX 6 1 7 2 8 3 9 4 13 5 12 6 11 7 14 8 10 9 15 10 5 11 4 12
REMARK SMILES IDX 2 13 1 14 3 15
REMARK H PARENT
REMARK Flexibility Score: inf
ROOT
ATOM      1  C   UNL     1       8.418   4.753  -0.655  1.00  0.00     0.012 C 
ENDROOT
BRANCH   1   2
ATOM      2  C   UNL     1       9.379   3.796  -1.396  1.00  0.00     0.016 C 
ATOM      3  C   UNL     1      10.564   3.363  -0.517  1.00  0.00     0.013 C 
BRANCH   2   4
ATOM      4  C   UNL     1       9.880   4.438  -2.678  1.00  0.00    -0.045 A 
ATOM      5  C   UNL     1      11.333   6.280  -6.304  1.00  0.00     0.044 C 
ATOM      6  C   UNL     1      10.837   5.613  -5.056  1.00  0.00    -0.051 A 
ATOM      7  C   UNL     1      11.687   5.457  -3.951  1.00  0.00     0.004 A 
ATOM      8  C   UNL     1       9.500   5.200  -4.959  1.00  0.00     0.004 A 
ATOM      9  C   UNL     1      11.215   4.869  -2.775  1.00  0.00     0.004 A 
ATOM     10  C   UNL     1       9.027   4.612  -3.783  1.00  0.00     0.004 A 
ENDBRANCH   2   4
ENDBRANCH   1   2
BRANCH   1  11
ATOM     11  C   UNL     1       8.932   6.200  -0.624  1.00  0.00     0.028 C 
BRANCH  11  12
ATOM     12  C   UNL     1       7.875   7.152  -1.125  1.00  0.00    -0.028 C 
ATOM     13  C   UNL     1       8.075   8.074  -2.094  1.00  0.00    -0.080 C 
ATOM     14  C   UNL     1       6.934   8.987  -2.462  1.00  0.00     0.039 C 
ATOM     15  C   UNL     1       9.394   8.200  -2.819  1.00  0.00     0.039 C 
ENDBRANCH  11  12
ENDBRANCH   1  11
TORSDOF 4
ENDMDL
MODEL 2
REMARK VINA RESULT:    -5.945      1.397      4.042
REMARK INTER + INTRA:          -8.668
REMARK INTER:                  -7.245
REMARK INTRA:                  -1.423
REMARK UNBOUND:                -1.332
REMARK SMILES CC(C)=CCC[C@H](C)c1ccc(C)cc1
REMARK SMILES IDX 6 1 7 2 8 3 9 4 13 5 12 6 11 7 14 8 10 9 15 10 5 11 4 12
REMARK SMILES IDX 2 13 1 14 3 15
REMARK H PARENT
REMARK Flexibility Score: inf
ROOT
ATOM      1  C   UNL     1       9.582   7.743  -5.180  1.00  0.00     0.012 C 
ENDROOT
BRANCH   1   2
ATOM      2  C   UNL     1      10.669   6.822  -4.582  1.00  0.00     0.016 C 
ATOM      3  C   UNL     1      11.210   5.815  -5.609  1.00  0.00     0.013 C 
BRANCH   2   4
ATOM      4  C   UNL     1      10.134   6.096  -3.361  1.00  0.00    -0.045 A 
ATOM      5  C   UNL     1       8.576   4.030   0.098  1.00  0.00     0.044 C 
ATOM      6  C   UNL     1       9.131   4.722  -1.111  1.00  0.00    -0.051 A 
ATOM      7  C   UNL     1       8.407   4.739  -2.312  1.00  0.00     0.004 A 
ATOM      8  C   UNL     1      10.348   5.415  -1.033  1.00  0.00     0.004 A 
ATOM      9  C   UNL     1       8.906   5.414  -3.429  1.00  0.00     0.004 A 
ATOM     10  C   UNL     1      10.849   6.090  -2.149  1.00  0.00     0.004 A 
ENDBRANCH   2   4
ENDBRANCH   1   2
BRANCH   1  11
ATOM     11  C   UNL     1       9.373   9.024  -4.357  1.00  0.00     0.028 C 
BRANCH  11  12
ATOM     12  C   UNL     1       7.918   9.198  -4.002  1.00  0.00    -0.028 C 
ATOM     13  C   UNL     1       7.404   9.005  -2.766  1.00  0.00    -0.080 C 
ATOM     14  C   UNL     1       5.920   9.175  -2.569  1.00  0.00     0.039 C 
ATOM     15  C   UNL     1       8.276   8.642  -1.585  1.00  0.00     0.039 C 
ENDBRANCH  11  12
ENDBRANCH   1  11
TORSDOF 4
ENDMDL
MODEL 3
REMARK VINA RESULT:    -5.942      1.460      3.778
REMARK INTER + INTRA:          -8.664
REMARK INTER:                  -7.704
REMARK INTRA:                  -0.960
REMARK UNBOUND:                -1.332
REMARK SMILES CC(C)=CCC[C@H](C)c1ccc(C)cc1
REMARK SMILES IDX 6 1 7 2 8 3 9 4 13 5 12 6 11 7 14 8 10 9 15 10 5 11 4 12
REMARK SMILES IDX 2 13 1 14 3 15
REMARK H PARENT
REMARK Flexibility Score: inf
ROOT
ATOM      1  C   UNL     1       8.443   5.433  -1.397  1.00  0.00     0.012 C 
ENDROOT
BRANCH   1   2
ATOM      2  C   UNL     1       8.725   6.944  -1.557  1.00  0.00     0.016 C 
ATOM      3  C   UNL     1       7.520   7.808  -1.152  1.00  0.00     0.013 C 
BRANCH   2   4
ATOM      4  C   UNL     1       9.143   7.256  -2.983  1.00  0.00    -0.045 A 
ATOM      5  C   UNL     1      10.327   8.180  -7.033  1.00  0.00     0.044 C 
ATOM      6  C   UNL     1       9.944   7.849  -5.621  1.00  0.00    -0.051 A 
ATOM      7  C   UNL     1      10.028   8.826  -4.618  1.00  0.00     0.004 A 
ATOM      8  C   UNL     1       9.436   6.581  -5.304  1.00  0.00     0.004 A 
ATOM      9  C   UNL     1       9.637   8.531  -3.309  1.00  0.00     0.004 A 
ATOM     10  C   UNL     1       9.045   6.284  -3.996  1.00  0.00     0.004 A 
ENDBRANCH   2   4
ENDBRANCH   1   2
BRANCH   1  11
ATOM     11  C   UNL     1       9.599   4.684  -0.717  1.00  0.00     0.028 C 
BRANCH  11  12
ATOM     12  C   UNL     1      10.928   5.160  -1.249  1.00  0.00    -0.028 C 
ATOM     13  C   UNL     1      11.602   4.568  -2.260  1.00  0.00    -0.080 C 
ATOM     14  C   UNL     1      12.942   5.131  -2.657  1.00  0.00     0.039 C 
ATOM     15  C   UNL     1      11.043   3.378  -3.006  1.00  0.00     0.039 C 
ENDBRANCH  11  12
ENDBRANCH   1  11
TORSDOF 4
ENDMDL
MODEL 4
REMARK VINA RESULT:    -5.903      1.184      4.513
REMARK INTER + INTRA:          -8.615
REMARK INTER:                  -7.564
REMARK INTRA:                  -1.051
REMARK UNBOUND:                -1.332
REMARK SMILES CC(C)=CCC[C@H](C)c1ccc(C)cc1
REMARK SMILES IDX 6 1 7 2 8 3 9 4 13 5 12 6 11 7 14 8 10 9 15 10 5 11 4 12
REMARK SMILES IDX 2 13 1 14 3 15
REMARK H PARENT
REMARK Flexibility Score: inf
ROOT
ATOM      1  C   UNL     1       8.487   4.706  -2.328  1.00  0.00     0.012 C 
ENDROOT
BRANCH   1   2
ATOM      2  C   UNL     1       9.075   5.763  -1.365  1.00  0.00     0.016 C 
ATOM      3  C   UNL     1       8.693   5.493   0.099  1.00  0.00     0.013 C 
BRANCH   2   4
ATOM      4  C   UNL     1       8.635   7.156  -1.777  1.00  0.00    -0.045 A 
ATOM      5  C   UNL     1       7.417  11.125  -2.971  1.00  0.00     0.044 C 
ATOM      6  C   UNL     1       7.818   9.735  -2.573  1.00  0.00    -0.051 A 
ATOM      7  C   UNL     1       8.765   9.028  -3.327  1.00  0.00     0.004 A 
ATOM      8  C   UNL     1       7.298   9.157  -1.405  1.00  0.00     0.004 A 
ATOM      9  C   UNL     1       9.166   7.748  -2.938  1.00  0.00     0.004 A 
ATOM     10  C   UNL     1       7.698   7.877  -1.014  1.00  0.00     0.004 A 
ENDBRANCH   2   4
ENDBRANCH   1   2
BRANCH   1  11
ATOM     11  C   UNL     1       9.574   3.900  -3.055  1.00  0.00     0.028 C 
BRANCH  11  12
ATOM     12  C   UNL     1       9.963   4.575  -4.346  1.00  0.00    -0.028 C 
ATOM     13  C   UNL     1      11.091   5.301  -4.519  1.00  0.00    -0.080 C 
ATOM     14  C   UNL     1      11.328   5.954  -5.856  1.00  0.00     0.039 C 
ATOM     15  C   UNL     1      12.118   5.457  -3.421  1.00  0.00     0.039 C 
ENDBRANCH  11  12
ENDBRANCH   1  11
TORSDOF 4
ENDMDL
MODEL 5
REMARK VINA RESULT:    -5.881      1.729      3.908
REMARK INTER + INTRA:          -8.589
REMARK INTER:                  -7.590
REMARK INTRA:                  -0.998
REMARK UNBOUND:                -1.332
REMARK SMILES CC(C)=CCC[C@H](C)c1ccc(C)cc1
REMARK SMILES IDX 6 1 7 2 8 3 9 4 13 5 12 6 11 7 14 8 10 9 15 10 5 11 4 12
REMARK SMILES IDX 2 13 1 14 3 15
REMARK H PARENT
REMARK Flexibility Score: inf
ROOT
ATOM      1  C   UNL     1      10.732   3.805  -3.899  1.00  0.00     0.012 C 
ENDROOT
BRANCH   1   2
ATOM      2  C   UNL     1      11.597   5.020  -4.302  1.00  0.00     0.016 C 
ATOM      3  C   UNL     1      12.586   5.424  -3.197  1.00  0.00     0.013 C 
BRANCH   2   4
ATOM      4  C   UNL     1      10.714   6.197  -4.676  1.00  0.00    -0.045 A 
ATOM      5  C   UNL     1       8.227   9.556  -5.767  1.00  0.00     0.044 C 
ATOM      6  C   UNL     1       9.069   8.371  -5.399  1.00  0.00    -0.051 A 
ATOM      7  C   UNL     1      10.023   7.874  -6.299  1.00  0.00     0.004 A 
ATOM      8  C   UNL     1       8.958   7.791  -4.127  1.00  0.00     0.004 A 
ATOM      9  C   UNL     1      10.834   6.793  -5.944  1.00  0.00     0.004 A 
ATOM     10  C   UNL     1       9.768   6.710  -3.770  1.00  0.00     0.004 A 
ENDBRANCH   2   4
ENDBRANCH   1   2
BRANCH   1  11
ATOM     11  C   UNL     1      11.069   3.279  -2.495  1.00  0.00     0.028 C 
BRANCH  11  12
ATOM     12  C   UNL     1       9.850   3.307  -1.608  1.00  0.00    -0.028 C 
ATOM     13  C   UNL     1       9.612   4.246  -0.665  1.00  0.00    -0.080 C 
ATOM     14  C   UNL     1       8.368   4.121   0.176  1.00  0.00     0.039 C 
ATOM     15  C   UNL     1      10.544   5.415  -0.447  1.00  0.00     0.039 C 
ENDBRANCH  11  12
ENDBRANCH   1  11
TORSDOF 4
ENDMDL
MODEL 6
REMARK VINA RESULT:    -5.780      1.789      3.871
REMARK INTER + INTRA:          -8.464
REMARK INTER:                  -7.677
REMARK INTRA:                  -0.787
REMARK UNBOUND:                -1.332
REMARK SMILES CC(C)=CCC[C@H](C)c1ccc(C)cc1
REMARK SMILES IDX 6 1 7 2 8 3 9 4 13 5 12 6 11 7 14 8 10 9 15 10 5 11 4 12
REMARK SMILES IDX 2 13 1 14 3 15
REMARK H PARENT
REMARK Flexibility Score: inf
ROOT
ATOM      1  C   UNL     1      11.252   4.734  -3.573  1.00  0.00     0.012 C 
ENDROOT
BRANCH   1   2
ATOM      2  C   UNL     1       9.861   5.358  -3.829  1.00  0.00     0.016 C 
ATOM      3  C   UNL     1       8.904   4.381  -4.531  1.00  0.00     0.013 C 
BRANCH   2   4
ATOM      4  C   UNL     1       9.996   6.637  -4.636  1.00  0.00    -0.045 A 
ATOM      5  C   UNL     1      10.407  10.261  -6.949  1.00  0.00     0.044 C 
ATOM      6  C   UNL     1      10.238   8.997  -6.160  1.00  0.00    -0.051 A 
ATOM      7  C   UNL     1      10.797   7.795  -6.620  1.00  0.00     0.004 A 
ATOM      8  C   UNL     1       9.578   9.018  -4.923  1.00  0.00     0.004 A 
ATOM      9  C   UNL     1      10.672   6.624  -5.869  1.00  0.00     0.004 A 
ATOM     10  C   UNL     1       9.452   7.848  -4.170  1.00  0.00     0.004 A 
ENDBRANCH   2   4
ENDBRANCH   1   2
BRANCH   1  11
ATOM     11  C   UNL     1      11.759   4.985  -2.145  1.00  0.00     0.028 C 
BRANCH  11  12
ATOM     12  C   UNL     1      10.661   5.553  -1.282  1.00  0.00    -0.028 C 
ATOM     13  C   UNL     1       9.762   4.808  -0.600  1.00  0.00    -0.080 C 
ATOM     14  C   UNL     1       8.692   5.517   0.190  1.00  0.00     0.039 C 
ATOM     15  C   UNL     1       9.814   3.298  -0.596  1.00  0.00     0.039 C 
ENDBRANCH  11  12
ENDBRANCH   1  11
TORSDOF 4
ENDMDL
MODEL 7
REMARK VINA RESULT:    -5.557      1.275      4.806
REMARK INTER + INTRA:          -8.189
REMARK INTER:                  -7.014
REMARK INTRA:                  -1.175
REMARK UNBOUND:                -1.332
REMARK SMILES CC(C)=CCC[C@H](C)c1ccc(C)cc1
REMARK SMILES IDX 6 1 7 2 8 3 9 4 13 5 12 6 11 7 14 8 10 9 15 10 5 11 4 12
REMARK SMILES IDX 2 13 1 14 3 15
REMARK H PARENT
REMARK Flexibility Score: inf
ROOT
ATOM      1  C   UNL     1       9.450   4.400  -4.608  1.00  0.00     0.012 C 
ENDROOT
BRANCH   1   2
ATOM      2  C   UNL     1       9.691   5.873  -5.009  1.00  0.00     0.016 C 
ATOM      3  C   UNL     1      11.168   6.158  -5.324  1.00  0.00     0.013 C 
BRANCH   2   4
ATOM      4  C   UNL     1       9.194   6.806  -3.919  1.00  0.00    -0.045 A 
ATOM      5  C   UNL     1       7.754   9.435  -0.808  1.00  0.00     0.044 C 
ATOM      6  C   UNL     1       8.279   8.517  -1.872  1.00  0.00    -0.051 A 
ATOM      7  C   UNL     1       7.941   7.155  -1.862  1.00  0.00     0.004 A 
ATOM      8  C   UNL     1       9.057   9.024  -2.923  1.00  0.00     0.004 A 
ATOM      9  C   UNL     1       8.399   6.306  -2.872  1.00  0.00     0.004 A 
ATOM     10  C   UNL     1       9.516   8.176  -3.934  1.00  0.00     0.004 A 
ENDBRANCH   2   4
ENDBRANCH   1   2
BRANCH   1  11
ATOM     11  C   UNL     1      10.660   3.776  -3.897  1.00  0.00     0.028 C 
BRANCH  11  12
ATOM     12  C   UNL     1      10.262   3.232  -2.548  1.00  0.00    -0.028 C 
ATOM     13  C   UNL     1      10.542   3.833  -1.369  1.00  0.00    -0.080 C 
ATOM     14  C   UNL     1      10.118   3.150  -0.095  1.00  0.00     0.039 C 
ATOM     15  C   UNL     1      11.247   5.168  -1.300  1.00  0.00     0.039 C 
ENDBRANCH  11  12
ENDBRANCH   1  11
TORSDOF 4
ENDMDL
MODEL 8
REMARK VINA RESULT:    -5.331      2.056      4.633
REMARK INTER + INTRA:          -7.910
REMARK INTER:                  -7.324
REMARK INTRA:                  -0.586
REMARK UNBOUND:                -1.332
REMARK SMILES CC(C)=CCC[C@H](C)c1ccc(C)cc1
REMARK SMILES IDX 6 1 7 2 8 3 9 4 13 5 12 6 11 7 14 8 10 9 15 10 5 11 4 12
REMARK SMILES IDX 2 13 1 14 3 15
REMARK H PARENT
REMARK Flexibility Score: inf
ROOT
ATOM      1  C   UNL     1       7.048   8.843  -1.740  1.00  0.00     0.012 C 
ENDROOT
BRANCH   1   2
ATOM      2  C   UNL     1       8.472   8.616  -2.297  1.00  0.00     0.016 C 
ATOM      3  C   UNL     1       8.545   8.833  -3.817  1.00  0.00     0.013 C 
BRANCH   2   4
ATOM      4  C   UNL     1       8.963   7.225  -1.938  1.00  0.00    -0.045 A 
ATOM      5  C   UNL     1      10.342   3.269  -0.886  1.00  0.00     0.044 C 
ATOM      6  C   UNL     1       9.847   4.630  -1.274  1.00  0.00    -0.051 A 
ATOM      7  C   UNL     1       8.692   5.159  -0.681  1.00  0.00     0.004 A 
ATOM      8  C   UNL     1      10.572   5.414  -2.184  1.00  0.00     0.004 A 
ATOM      9  C   UNL     1       8.249   6.442  -1.014  1.00  0.00     0.004 A 
ATOM     10  C   UNL     1      10.132   6.696  -2.518  1.00  0.00     0.004 A 
ENDBRANCH   2   4
ENDBRANCH   1   2
BRANCH   1  11
ATOM     11  C   UNL     1       6.161   9.653  -2.698  1.00  0.00     0.028 C 
BRANCH  11  12
ATOM     12  C   UNL     1       4.718   9.233  -2.573  1.00  0.00    -0.028 C 
ATOM     13  C   UNL     1       3.817   9.284  -3.579  1.00  0.00    -0.080 C 
ATOM     14  C   UNL     1       2.397   8.870  -3.294  1.00  0.00     0.039 C 
ATOM     15  C   UNL     1       4.199   9.725  -4.973  1.00  0.00     0.039 C 
ENDBRANCH  11  12
ENDBRANCH   1  11
TORSDOF 4
ENDMDL
MODEL 9
REMARK VINA RESULT:    -5.319      1.727      4.532
REMARK INTER + INTRA:          -7.895
REMARK INTER:                  -7.098
REMARK INTRA:                  -0.797
REMARK UNBOUND:                -1.332
REMARK SMILES CC(C)=CCC[C@H](C)c1ccc(C)cc1
REMARK SMILES IDX 6 1 7 2 8 3 9 4 13 5 12 6 11 7 14 8 10 9 15 10 5 11 4 12
REMARK SMILES IDX 2 13 1 14 3 15
REMARK H PARENT
REMARK Flexibility Score: inf
ROOT
ATOM      1  C   UNL     1      10.884   4.853  -4.517  1.00  0.00     0.012 C 
ENDROOT
BRANCH   1   2
ATOM      2  C   UNL     1      11.330   5.524  -3.198  1.00  0.00     0.016 C 
ATOM      3  C   UNL     1      12.784   5.184  -2.834  1.00  0.00     0.013 C 
BRANCH   2   4
ATOM      4  C   UNL     1      10.397   5.135  -2.065  1.00  0.00    -0.045 A 
ATOM      5  C   UNL     1       7.738   4.065   1.166  1.00  0.00     0.044 C 
ATOM      6  C   UNL     1       8.640   4.427   0.024  1.00  0.00    -0.051 A 
ATOM      7  C   UNL     1       8.618   5.723  -0.512  1.00  0.00     0.004 A 
ATOM      8  C   UNL     1       9.561   3.494  -0.473  1.00  0.00     0.004 A 
ATOM      9  C   UNL     1       9.483   6.073  -1.552  1.00  0.00     0.004 A 
ATOM     10  C   UNL     1      10.427   3.841  -1.513  1.00  0.00     0.004 A 
ENDBRANCH   2   4
ENDBRANCH   1   2
BRANCH   1  11
ATOM     11  C   UNL     1      10.156   5.825  -5.458  1.00  0.00     0.028 C 
BRANCH  11  12
ATOM     12  C   UNL     1      10.446   7.254  -5.076  1.00  0.00    -0.028 C 
ATOM     13  C   UNL     1       9.886   8.333  -5.668  1.00  0.00    -0.080 C 
ATOM     14  C   UNL     1      10.305   9.705  -5.208  1.00  0.00     0.039 C 
ATOM     15  C   UNL     1       8.849   8.198  -6.759  1.00  0.00     0.039 C 
ENDBRANCH  11  12
ENDBRANCH   1  11
TORSDOF 4
ENDMDL
