MODEL 1
REMARK VINA RESULT:    -4.237      0.000      0.000
REMARK INTER + INTRA:          -5.990
REMARK INTER:                  -6.467
REMARK INTRA:                   0.477
REMARK UNBOUND:                 0.477
REMARK SMILES CC1=CCC[C@H](C)C(=O)C[C@@H](C(C)C)C(=O)C1
REMARK SMILES IDX 8 1 9 2 6 3 7 4 5 5 4 6 3 7 2 8 1 9 10 11 11 12 15 13 16 14
REMARK SMILES IDX 17 15 12 17 13 18 14 19
REMARK H PARENT
REMARK Flexibility Score: 70.00
ROOT
ATOM      1  C   UNL     1     -11.315 -18.017  30.575  1.00  0.00     0.136 C 
ATOM      2  O   UNL     1     -10.203 -17.863  30.090  1.00  0.00    -0.299 OA
ENDROOT
BRANCH   1   3
ATOM      3  C   UNL     1     -11.958 -19.385  30.552  1.00  0.00     0.053 C 
ATOM      4  C   UNL     1     -11.882 -20.058  31.927  1.00  0.00     0.016 C 
BRANCH   3   5
ATOM      5  C   UNL     1     -13.423 -19.244  30.069  1.00  0.00     0.015 C 
BRANCH   5   6
ATOM      6  C   UNL     1     -13.631 -19.231  28.542  1.00  0.00     0.028 C 
BRANCH   6   7
ATOM      7  C   UNL     1     -12.464 -18.777  27.691  1.00  0.00    -0.028 C 
ATOM      8  C   UNL     1     -12.227 -17.522  27.236  1.00  0.00    -0.070 CG0
ATOM      9  C   UNL     1     -11.058 -17.327  26.302  1.00  0.00     0.039 C 
ATOM     10  G   UNL     1     -13.007 -16.294  27.671  1.00  0.00     0.000 G0
ENDBRANCH   6   7
ENDBRANCH   5   6
ENDBRANCH   3   5
ENDBRANCH   1   3
BRANCH   1  11
ATOM     11  C   UNL     1     -11.993 -16.848  31.252  1.00  0.00     0.087 C 
BRANCH  11  12
ATOM     12  C   UNL     1     -13.053 -16.162  30.339  1.00  0.00     0.066 C 
BRANCH  12  13
ATOM     13  C   UNL     1     -12.448 -15.764  28.999  1.00  0.00     0.140 C 
ATOM     14  O   UNL     1     -11.513 -14.976  28.978  1.00  0.00    -0.299 OA
BRANCH  13  15
ATOM     15  C   UNL     1     -12.989 -16.284  27.683  1.00  0.00     0.106 CG0
ATOM     16  G   UNL     1     -12.241 -17.533  27.248  1.00  0.00     0.000 G0
ENDBRANCH  13  15
ENDBRANCH  12  13
BRANCH  12  17
ATOM     17  C   UNL     1     -13.753 -14.936  31.009  1.00  0.00    -0.006 C 
ATOM     18  C   UNL     1     -14.533 -15.280  32.292  1.00  0.00     0.008 C 
ATOM     19  C   UNL     1     -14.670 -14.197  30.021  1.00  0.00     0.008 C 
ENDBRANCH  12  17
ENDBRANCH  11  12
ENDBRANCH   1  11
TORSDOF 1
ENDMDL
MODEL 2
REMARK VINA RESULT:    -4.223      1.696      3.501
REMARK INTER + INTRA:          -5.969
REMARK INTER:                  -6.736
REMARK INTRA:                   0.768
REMARK UNBOUND:                 0.477
REMARK SMILES CC1=CCC[C@H](C)C(=O)C[C@@H](C(C)C)C(=O)C1
REMARK SMILES IDX 8 1 9 2 6 3 7 4 5 5 4 6 3 7 2 8 1 9 10 11 11 12 15 13 16 14
REMARK SMILES IDX 17 15 12 17 13 18 14 19
REMARK H PARENT
REMARK Flexibility Score: 70.00
ROOT
ATOM      1  C   UNL     1     -11.567 -16.763  28.147  1.00  0.00     0.136 C 
ATOM      2  O   UNL     1     -10.523 -17.354  27.913  1.00  0.00    -0.299 OA
ENDROOT
BRANCH   1   3
ATOM      3  C   UNL     1     -12.876 -17.327  27.642  1.00  0.00     0.053 C 
ATOM      4  C   UNL     1     -13.250 -16.731  26.280  1.00  0.00     0.016 C 
BRANCH   3   5
ATOM      5  C   UNL     1     -12.764 -18.871  27.574  1.00  0.00     0.015 C 
BRANCH   5   6
ATOM      6  C   UNL     1     -13.719 -19.656  28.496  1.00  0.00     0.028 C 
BRANCH   6   7
ATOM      7  C   UNL     1     -13.136 -20.218  29.775  1.00  0.00    -0.028 C 
ATOM      8  C   UNL     1     -12.842 -19.533  30.907  1.00  0.00    -0.070 CG0
ATOM      9  C   UNL     1     -12.155 -20.285  32.020  1.00  0.00     0.039 C 
ATOM     10  G   UNL     1     -13.232 -18.086  31.155  1.00  0.00     0.000 G0
ENDBRANCH   6   7
ENDBRANCH   5   6
ENDBRANCH   3   5
ENDBRANCH   1   3
BRANCH   1  11
ATOM     11  C   UNL     1     -11.534 -15.516  29.000  1.00  0.00     0.087 C 
BRANCH  11  12
ATOM     12  C   UNL     1     -12.215 -15.723  30.386  1.00  0.00     0.066 C 
BRANCH  12  13
ATOM     13  C   UNL     1     -12.033 -17.152  30.878  1.00  0.00     0.140 C 
ATOM     14  O   UNL     1     -10.903 -17.587  31.042  1.00  0.00    -0.299 OA
BRANCH  13  15
ATOM     15  C   UNL     1     -13.210 -18.071  31.139  1.00  0.00     0.106 CG0
ATOM     16  G   UNL     1     -12.826 -19.521  30.901  1.00  0.00     0.000 G0
ENDBRANCH  13  15
ENDBRANCH  12  13
BRANCH  12  17
ATOM     17  C   UNL     1     -13.726 -15.326  30.404  1.00  0.00    -0.006 C 
ATOM     18  C   UNL     1     -14.117 -14.285  29.338  1.00  0.00     0.008 C 
ATOM     19  C   UNL     1     -14.169 -14.843  31.795  1.00  0.00     0.008 C 
ENDBRANCH  12  17
ENDBRANCH  11  12
ENDBRANCH   1  11
TORSDOF 1
ENDMDL
MODEL 3
REMARK VINA RESULT:    -3.823      1.819      3.137
REMARK INTER + INTRA:          -5.358
REMARK INTER:                  -6.446
REMARK INTRA:                   1.088
REMARK UNBOUND:                 0.477
REMARK SMILES CC1=CCC[C@H](C)C(=O)C[C@@H](C(C)C)C(=O)C1
REMARK SMILES IDX 8 1 9 2 6 3 7 4 5 5 4 6 3 7 2 8 1 9 10 11 11 12 15 13 16 14
REMARK SMILES IDX 17 15 12 17 13 18 14 19
REMARK H PARENT
REMARK Flexibility Score: 70.00
ROOT
ATOM      1  C   UNL     1     -11.640 -16.034  30.750  1.00  0.00     0.136 C 
ATOM      2  O   UNL     1     -12.695 -16.105  31.364  1.00  0.00    -0.299 OA
ENDROOT
BRANCH   1   3
ATOM      3  C   UNL     1     -10.372 -16.569  31.377  1.00  0.00     0.053 C 
ATOM      4  C   UNL     1      -9.905 -15.679  32.534  1.00  0.00     0.016 C 
BRANCH   3   5
ATOM      5  C   UNL     1     -10.618 -18.026  31.843  1.00  0.00     0.015 C 
BRANCH   5   6
ATOM      6  C   UNL     1     -10.541 -19.106  30.746  1.00  0.00     0.028 C 
BRANCH   6   7
ATOM      7  C   UNL     1     -11.847 -19.550  30.122  1.00  0.00    -0.028 C 
ATOM      8  C   UNL     1     -12.377 -19.123  28.949  1.00  0.00    -0.070 CG0
ATOM      9  C   UNL     1     -13.753 -19.619  28.583  1.00  0.00     0.039 C 
ATOM     10  G   UNL     1     -11.642 -18.248  27.948  1.00  0.00     0.000 G0
ENDBRANCH   6   7
ENDBRANCH   5   6
ENDBRANCH   3   5
ENDBRANCH   1   3
BRANCH   1  11
ATOM     11  C   UNL     1     -11.641 -15.478  29.345  1.00  0.00     0.087 C 
BRANCH  11  12
ATOM     12  C   UNL     1     -12.861 -15.968  28.509  1.00  0.00     0.066 C 
BRANCH  12  13
ATOM     13  C   UNL     1     -12.452 -17.056  27.526  1.00  0.00     0.140 C 
ATOM     14  O   UNL     1     -12.819 -16.977  26.363  1.00  0.00    -0.299 OA
BRANCH  13  15
ATOM     15  C   UNL     1     -11.631 -18.258  27.948  1.00  0.00     0.106 CG0
ATOM     16  G   UNL     1     -12.395 -19.109  28.947  1.00  0.00     0.000 G0
ENDBRANCH  13  15
ENDBRANCH  12  13
BRANCH  12  17
ATOM     17  C   UNL     1     -13.612 -14.815  27.768  1.00  0.00    -0.006 C 
ATOM     18  C   UNL     1     -14.378 -13.859  28.702  1.00  0.00     0.008 C 
ATOM     19  C   UNL     1     -14.558 -15.359  26.685  1.00  0.00     0.008 C 
ENDBRANCH  12  17
ENDBRANCH  11  12
ENDBRANCH   1  11
TORSDOF 1
ENDMDL
MODEL 4
REMARK VINA RESULT:    -3.785      1.817      4.131
REMARK INTER + INTRA:          -5.300
REMARK INTER:                  -5.662
REMARK INTRA:                   0.362
REMARK UNBOUND:                 0.477
REMARK SMILES CC1=CCC[C@H](C)C(=O)C[C@@H](C(C)C)C(=O)C1
REMARK SMILES IDX 8 1 9 2 6 3 7 4 5 5 4 6 3 7 2 8 1 9 10 11 11 12 15 13 16 14
REMARK SMILES IDX 17 15 12 17 13 18 14 19
REMARK H PARENT
REMARK Flexibility Score: 70.00
ROOT
ATOM      1  C   UNL     1     -12.042 -15.438  29.411  1.00  0.00     0.136 C 
ATOM      2  O   UNL     1     -11.079 -14.794  29.018  1.00  0.00    -0.299 OA
ENDROOT
BRANCH   1   3
ATOM      3  C   UNL     1     -13.263 -15.573  28.529  1.00  0.00     0.053 C 
ATOM      4  C   UNL     1     -13.888 -14.206  28.230  1.00  0.00     0.016 C 
BRANCH   3   5
ATOM      5  C   UNL     1     -12.862 -16.311  27.227  1.00  0.00     0.015 C 
BRANCH   5   6
ATOM      6  C   UNL     1     -12.258 -17.718  27.409  1.00  0.00     0.028 C 
BRANCH   6   7
ATOM      7  C   UNL     1     -13.192 -18.817  27.868  1.00  0.00    -0.028 C 
ATOM      8  C   UNL     1     -12.940 -19.763  28.805  1.00  0.00    -0.070 CG0
ATOM      9  C   UNL     1     -13.983 -20.833  29.016  1.00  0.00     0.039 C 
ATOM     10  G   UNL     1     -11.720 -19.766  29.709  1.00  0.00     0.000 G0
ENDBRANCH   6   7
ENDBRANCH   5   6
ENDBRANCH   3   5
ENDBRANCH   1   3
BRANCH   1  11
ATOM     11  C   UNL     1     -11.962 -16.146  30.744  1.00  0.00     0.087 C 
BRANCH  11  12
ATOM     12  C   UNL     1     -11.022 -17.388  30.704  1.00  0.00     0.066 C 
BRANCH  12  13
ATOM     13  C   UNL     1     -11.821 -18.682  30.768  1.00  0.00     0.140 C 
ATOM     14  O   UNL     1     -12.562 -18.879  31.720  1.00  0.00    -0.299 OA
BRANCH  13  15
ATOM     15  C   UNL     1     -11.702 -19.757  29.706  1.00  0.00     0.106 CG0
ATOM     16  G   UNL     1     -12.936 -19.779  28.820  1.00  0.00     0.000 G0
ENDBRANCH  13  15
ENDBRANCH  12  13
BRANCH  12  17
ATOM     17  C   UNL     1      -9.920 -17.371  31.812  1.00  0.00    -0.006 C 
ATOM     18  C   UNL     1      -9.876 -18.645  32.677  1.00  0.00     0.008 C 
ATOM     19  C   UNL     1     -10.040 -16.131  32.713  1.00  0.00     0.008 C 
ENDBRANCH  12  17
ENDBRANCH  11  12
ENDBRANCH   1  11
TORSDOF 1
ENDMDL
MODEL 5
REMARK VINA RESULT:    -3.775      2.077      4.030
REMARK INTER + INTRA:          -5.284
REMARK INTER:                  -5.881
REMARK INTRA:                   0.597
REMARK UNBOUND:                 0.477
REMARK SMILES CC1=CCC[C@H](C)C(=O)C[C@@H](C(C)C)C(=O)C1
REMARK SMILES IDX 8 1 9 2 6 3 7 4 5 5 4 6 3 7 2 8 1 9 10 11 11 12 15 13 16 14
REMARK SMILES IDX 17 15 12 17 13 18 14 19
REMARK H PARENT
REMARK Flexibility Score: 70.00
ROOT
ATOM      1  C   UNL     1     -12.736 -16.164  28.564  1.00  0.00     0.136 C 
ATOM      2  O   UNL     1     -12.799 -14.968  28.318  1.00  0.00    -0.299 OA
ENDROOT
BRANCH   1   3
ATOM      3  C   UNL     1     -12.954 -17.168  27.454  1.00  0.00     0.053 C 
ATOM      4  C   UNL     1     -11.625 -17.759  26.969  1.00  0.00     0.016 C 
BRANCH   3   5
ATOM      5  C   UNL     1     -13.916 -18.273  27.957  1.00  0.00     0.015 C 
BRANCH   5   6
ATOM      6  C   UNL     1     -13.267 -19.631  28.291  1.00  0.00     0.028 C 
BRANCH   6   7
ATOM      7  C   UNL     1     -13.302 -20.075  29.738  1.00  0.00    -0.028 C 
ATOM      8  C   UNL     1     -12.253 -20.154  30.593  1.00  0.00    -0.070 CG0
ATOM      9  C   UNL     1     -12.508 -20.739  31.960  1.00  0.00     0.039 C 
ATOM     10  G   UNL     1     -10.864 -19.618  30.292  1.00  0.00     0.000 G0
ENDBRANCH   6   7
ENDBRANCH   5   6
ENDBRANCH   3   5
ENDBRANCH   1   3
BRANCH   1  11
ATOM     11  C   UNL     1     -12.369 -16.613  29.959  1.00  0.00     0.087 C 
BRANCH  11  12
ATOM     12  C   UNL     1     -10.857 -16.967  30.094  1.00  0.00     0.066 C 
BRANCH  12  13
ATOM     13  C   UNL     1     -10.663 -18.247  30.895  1.00  0.00     0.140 C 
ATOM     14  O   UNL     1     -10.300 -18.173  32.060  1.00  0.00    -0.299 OA
BRANCH  13  15
ATOM     15  C   UNL     1     -10.870 -19.619  30.285  1.00  0.00     0.106 CG0
ATOM     16  G   UNL     1     -12.267 -20.137  30.584  1.00  0.00     0.000 G0
ENDBRANCH  13  15
ENDBRANCH  12  13
BRANCH  12  17
ATOM     17  C   UNL     1      -9.998 -15.809  30.698  1.00  0.00    -0.006 C 
ATOM     18  C   UNL     1     -10.482 -15.319  32.076  1.00  0.00     0.008 C 
ATOM     19  C   UNL     1      -9.887 -14.621  29.730  1.00  0.00     0.008 C 
ENDBRANCH  12  17
ENDBRANCH  11  12
ENDBRANCH   1  11
TORSDOF 1
ENDMDL
MODEL 6
REMARK VINA RESULT:    -3.573      2.266      3.486
REMARK INTER + INTRA:          -4.976
REMARK INTER:                  -6.287
REMARK INTRA:                   1.311
REMARK UNBOUND:                 0.477
REMARK SMILES CC1=CCC[C@H](C)C(=O)C[C@@H](C(C)C)C(=O)C1
REMARK SMILES IDX 8 1 9 2 6 3 7 4 5 5 4 6 3 7 2 8 1 9 10 11 11 12 15 13 16 14
REMARK SMILES IDX 17 15 12 17 13 18 14 19
REMARK H PARENT
REMARK Flexibility Score: 70.00
ROOT
ATOM      1  C   UNL     1     -12.614 -19.292  29.817  1.00  0.00     0.136 C 
ATOM      2  O   UNL     1     -12.781 -20.190  29.003  1.00  0.00    -0.299 OA
ENDROOT
BRANCH   1   3
ATOM      3  C   UNL     1     -12.148 -19.628  31.216  1.00  0.00     0.053 C 
ATOM      4  C   UNL     1     -12.511 -21.069  31.593  1.00  0.00     0.016 C 
BRANCH   3   5
ATOM      5  C   UNL     1     -10.621 -19.384  31.309  1.00  0.00     0.015 C 
BRANCH   5   6
ATOM      6  C   UNL     1     -10.187 -18.110  32.062  1.00  0.00     0.028 C 
BRANCH   6   7
ATOM      7  C   UNL     1     -10.164 -16.818  31.274  1.00  0.00    -0.028 C 
ATOM      8  C   UNL     1      -9.977 -16.680  29.938  1.00  0.00    -0.070 CG0
ATOM      9  C   UNL     1      -9.875 -15.279  29.388  1.00  0.00     0.039 C 
ATOM     10  G   UNL     1      -9.946 -17.838  28.956  1.00  0.00     0.000 G0
ENDBRANCH   6   7
ENDBRANCH   5   6
ENDBRANCH   3   5
ENDBRANCH   1   3
BRANCH   1  11
ATOM     11  C   UNL     1     -12.807 -17.858  29.384  1.00  0.00     0.087 C 
BRANCH  11  12
ATOM     12  C   UNL     1     -12.379 -17.618  27.905  1.00  0.00     0.066 C 
BRANCH  12  13
ATOM     13  C   UNL     1     -10.864 -17.649  27.760  1.00  0.00     0.140 C 
ATOM     14  O   UNL     1     -10.368 -17.517  26.651  1.00  0.00    -0.299 OA
BRANCH  13  15
ATOM     15  C   UNL     1      -9.945 -17.874  28.944  1.00  0.00     0.106 CG0
ATOM     16  G   UNL     1      -9.995 -16.694  29.899  1.00  0.00     0.000 G0
ENDBRANCH  13  15
ENDBRANCH  12  13
BRANCH  12  17
ATOM     17  C   UNL     1     -12.960 -16.302  27.293  1.00  0.00    -0.006 C 
ATOM     18  C   UNL     1     -13.338 -15.235  28.339  1.00  0.00     0.008 C 
ATOM     19  C   UNL     1     -14.160 -16.584  26.376  1.00  0.00     0.008 C 
ENDBRANCH  12  17
ENDBRANCH  11  12
ENDBRANCH   1  11
TORSDOF 1
ENDMDL
MODEL 7
REMARK VINA RESULT:    -3.394      2.229      4.312
REMARK INTER + INTRA:          -4.703
REMARK INTER:                  -5.811
REMARK INTRA:                   1.109
REMARK UNBOUND:                 0.477
REMARK SMILES CC1=CCC[C@H](C)C(=O)C[C@@H](C(C)C)C(=O)C1
REMARK SMILES IDX 8 1 9 2 6 3 7 4 5 5 4 6 3 7 2 8 1 9 10 11 11 12 15 13 16 14
REMARK SMILES IDX 17 15 12 17 13 18 14 19
REMARK H PARENT
REMARK Flexibility Score: 70.00
ROOT
ATOM      1  C   UNL     1     -11.508 -16.090  30.455  1.00  0.00     0.136 C 
ATOM      2  O   UNL     1     -12.612 -15.743  30.852  1.00  0.00    -0.299 OA
ENDROOT
BRANCH   1   3
ATOM      3  C   UNL     1     -10.325 -16.042  31.396  1.00  0.00     0.053 C 
ATOM      4  C   UNL     1     -10.606 -15.133  32.597  1.00  0.00     0.016 C 
BRANCH   3   5
ATOM      5  C   UNL     1      -9.981 -17.485  31.844  1.00  0.00     0.015 C 
BRANCH   5   6
ATOM      6  C   UNL     1      -9.875 -18.533  30.717  1.00  0.00     0.028 C 
BRANCH   6   7
ATOM      7  C   UNL     1     -10.625 -19.833  30.912  1.00  0.00    -0.028 C 
ATOM      8  C   UNL     1     -11.969 -20.003  30.935  1.00  0.00    -0.070 CG0
ATOM      9  C   UNL     1     -12.494 -21.379  31.262  1.00  0.00     0.039 C 
ATOM     10  G   UNL     1     -12.974 -18.923  30.573  1.00  0.00     0.000 G0
ENDBRANCH   6   7
ENDBRANCH   5   6
ENDBRANCH   3   5
ENDBRANCH   1   3
BRANCH   1  11
ATOM     11  C   UNL     1     -11.365 -16.628  29.050  1.00  0.00     0.087 C 
BRANCH  11  12
ATOM     12  C   UNL     1     -12.693 -17.235  28.505  1.00  0.00     0.066 C 
BRANCH  12  13
ATOM     13  C   UNL     1     -12.929 -18.631  29.066  1.00  0.00     0.140 C 
ATOM     14  O   UNL     1     -13.122 -19.559  28.295  1.00  0.00    -0.299 OA
BRANCH  13  15
ATOM     15  C   UNL     1     -12.968 -18.905  30.557  1.00  0.00     0.106 CG0
ATOM     16  G   UNL     1     -11.960 -19.977  30.934  1.00  0.00     0.000 G0
ENDBRANCH  13  15
ENDBRANCH  12  13
BRANCH  12  17
ATOM     17  C   UNL     1     -12.776 -17.252  26.945  1.00  0.00    -0.006 C 
ATOM     18  C   UNL     1     -11.431 -16.993  26.239  1.00  0.00     0.008 C 
ATOM     19  C   UNL     1     -13.838 -16.271  26.422  1.00  0.00     0.008 C 
ENDBRANCH  12  17
ENDBRANCH  11  12
ENDBRANCH   1  11
TORSDOF 1
ENDMDL
MODEL 8
REMARK VINA RESULT:    -3.249      1.774      3.628
REMARK INTER + INTRA:          -4.481
REMARK INTER:                  -5.583
REMARK INTRA:                   1.101
REMARK UNBOUND:                 0.477
REMARK SMILES CC1=CCC[C@H](C)C(=O)C[C@@H](C(C)C)C(=O)C1
REMARK SMILES IDX 8 1 9 2 6 3 7 4 5 5 4 6 3 7 2 8 1 9 10 11 11 12 15 13 16 14
REMARK SMILES IDX 17 15 12 17 13 18 14 19
REMARK H PARENT
REMARK Flexibility Score: 70.00
ROOT
ATOM      1  C   UNL     1     -10.499 -17.577  31.349  1.00  0.00     0.136 C 
ATOM      2  O   UNL     1     -10.300 -18.165  32.402  1.00  0.00    -0.299 OA
ENDROOT
BRANCH   1   3
ATOM      3  C   UNL     1     -10.927 -16.126  31.371  1.00  0.00     0.053 C 
ATOM      4  C   UNL     1      -9.877 -15.227  30.710  1.00  0.00     0.016 C 
BRANCH   3   5
ATOM      5  C   UNL     1     -12.305 -15.999  30.674  1.00  0.00     0.015 C 
BRANCH   5   6
ATOM      6  C   UNL     1     -12.327 -15.170  29.374  1.00  0.00     0.028 C 
BRANCH   6   7
ATOM      7  C   UNL     1     -13.172 -15.697  28.234  1.00  0.00    -0.028 C 
ATOM      8  C   UNL     1     -12.882 -16.740  27.419  1.00  0.00    -0.070 CG0
ATOM      9  C   UNL     1     -13.822 -17.012  26.271  1.00  0.00     0.039 C 
ATOM     10  G   UNL     1     -11.722 -17.697  27.636  1.00  0.00     0.000 G0
ENDBRANCH   6   7
ENDBRANCH   5   6
ENDBRANCH   3   5
ENDBRANCH   1   3
BRANCH   1  11
ATOM     11  C   UNL     1     -10.241 -18.293  30.043  1.00  0.00     0.087 C 
BRANCH  11  12
ATOM     12  C   UNL     1     -11.357 -19.324  29.698  1.00  0.00     0.066 C 
BRANCH  12  13
ATOM     13  C   UNL     1     -12.128 -18.903  28.454  1.00  0.00     0.140 C 
ATOM     14  O   UNL     1     -13.091 -19.566  28.096  1.00  0.00    -0.299 OA
BRANCH  13  15
ATOM     15  C   UNL     1     -11.720 -17.705  27.619  1.00  0.00     0.106 CG0
ATOM     16  G   UNL     1     -12.897 -16.768  27.409  1.00  0.00     0.000 G0
ENDBRANCH  13  15
ENDBRANCH  12  13
BRANCH  12  17
ATOM     17  C   UNL     1     -12.339 -19.599  30.882  1.00  0.00    -0.006 C 
ATOM     18  C   UNL     1     -12.288 -21.042  31.421  1.00  0.00     0.008 C 
ATOM     19  C   UNL     1     -13.786 -19.229  30.517  1.00  0.00     0.008 C 
ENDBRANCH  12  17
ENDBRANCH  11  12
ENDBRANCH   1  11
TORSDOF 1
ENDMDL
MODEL 9
REMARK VINA RESULT:    -2.951      1.605      3.913
REMARK INTER + INTRA:          -4.027
REMARK INTER:                  -6.261
REMARK INTRA:                   2.234
REMARK UNBOUND:                 0.477
REMARK SMILES CC1=CCC[C@H](C)C(=O)C[C@@H](C(C)C)C(=O)C1
REMARK SMILES IDX 8 1 9 2 6 3 7 4 5 5 4 6 3 7 2 8 1 9 10 11 11 12 15 13 16 14
REMARK SMILES IDX 17 15 12 17 13 18 14 19
REMARK H PARENT
REMARK Flexibility Score: 70.00
ROOT
ATOM      1  C   UNL     1     -13.393 -16.001  30.657  1.00  0.00     0.136 C 
ATOM      2  O   UNL     1     -13.683 -15.254  31.580  1.00  0.00    -0.299 OA
ENDROOT
BRANCH   1   3
ATOM      3  C   UNL     1     -13.032 -15.420  29.308  1.00  0.00     0.053 C 
ATOM      4  C   UNL     1     -13.937 -14.235  28.954  1.00  0.00     0.016 C 
BRANCH   3   5
ATOM      5  C   UNL     1     -11.538 -15.010  29.321  1.00  0.00     0.015 C 
BRANCH   5   6
ATOM      6  C   UNL     1     -10.526 -16.148  29.082  1.00  0.00     0.028 C 
BRANCH   6   7
ATOM      7  C   UNL     1     -10.419 -16.692  27.674  1.00  0.00    -0.028 C 
ATOM      8  C   UNL     1     -11.322 -17.471  27.030  1.00  0.00    -0.070 CG0
ATOM      9  C   UNL     1     -10.947 -17.994  25.666  1.00  0.00     0.039 C 
ATOM     10  G   UNL     1     -12.713 -17.781  27.558  1.00  0.00     0.000 G0
ENDBRANCH   6   7
ENDBRANCH   5   6
ENDBRANCH   3   5
ENDBRANCH   1   3
BRANCH   1  11
ATOM     11  C   UNL     1     -13.331 -17.491  30.905  1.00  0.00     0.087 C 
BRANCH  11  12
ATOM     12  C   UNL     1     -12.179 -18.180  30.114  1.00  0.00     0.066 C 
BRANCH  12  13
ATOM     13  C   UNL     1     -12.665 -18.683  28.762  1.00  0.00     0.140 C 
ATOM     14  O   UNL     1     -12.996 -19.854  28.645  1.00  0.00    -0.299 OA
BRANCH  13  15
ATOM     15  C   UNL     1     -12.721 -17.787  27.540  1.00  0.00     0.106 CG0
ATOM     16  G   UNL     1     -11.324 -17.489  27.026  1.00  0.00     0.000 G0
ENDBRANCH  13  15
ENDBRANCH  12  13
BRANCH  12  17
ATOM     17  C   UNL     1     -11.481 -19.332  30.907  1.00  0.00    -0.006 C 
ATOM     18  C   UNL     1     -12.458 -20.285  31.623  1.00  0.00     0.008 C 
ATOM     19  C   UNL     1     -10.451 -18.788  31.910  1.00  0.00     0.008 C 
ENDBRANCH  12  17
ENDBRANCH  11  12
ENDBRANCH   1  11
TORSDOF 1
ENDMDL
