MODEL 1
REMARK VINA RESULT:    -3.021      0.000      0.000
REMARK INTER + INTRA:          -4.285
REMARK INTER:                  -3.992
REMARK INTRA:                  -0.293
REMARK UNBOUND:                -0.293
REMARK SMILES CCCCCCCO
REMARK SMILES IDX 5 1 4 2 3 3 2 4 1 5 6 6 7 7 8 8
REMARK H PARENT 8 9
REMARK Flexibility Score: inf
ROOT
ATOM      1  C   UNL     1     107.456 107.076 101.942  1.00  0.00     0.002 C 
ENDROOT
BRANCH   1   2
ATOM      2  C   UNL     1     106.206 106.559 102.669  1.00  0.00     0.000 C 
BRANCH   2   3
ATOM      3  C   UNL     1     104.920 107.279 102.206  1.00  0.00    -0.000 C 
BRANCH   3   4
ATOM      4  C   UNL     1     104.626 108.573 102.982  1.00  0.00    -0.003 C 
ATOM      5  C   UNL     1     104.979 108.476 104.465  1.00  0.00     0.004 C 
ENDBRANCH   3   4
ENDBRANCH   2   3
ENDBRANCH   1   2
BRANCH   1   6
ATOM      6  C   UNL     1     108.550 107.473 102.942  1.00  0.00     0.028 C 
BRANCH   6   7
ATOM      7  C   UNL     1     108.294 106.879 104.327  1.00  0.00     0.156 C 
BRANCH   7   8
ATOM      8  O   UNL     1     109.310 107.261 105.213  1.00  0.00    -0.396 OA
ATOM      9  H   UNL     1     109.732 106.420 105.527  1.00  0.00     0.210 HD
ENDBRANCH   7   8
ENDBRANCH   6   7
ENDBRANCH   1   6
TORSDOF 6
ENDMDL
MODEL 2
REMARK VINA RESULT:    -3.005      1.987      3.018
REMARK INTER + INTRA:          -4.265
REMARK INTER:                  -3.974
REMARK INTRA:                  -0.290
REMARK UNBOUND:                -0.293
REMARK SMILES CCCCCCCO
REMARK SMILES IDX 5 1 4 2 3 3 2 4 1 5 6 6 7 7 8 8
REMARK H PARENT 8 9
REMARK Flexibility Score: inf
ROOT
ATOM      1  C   UNL     1     108.167 106.312 102.012  1.00  0.00     0.002 C 
ENDROOT
BRANCH   1   2
ATOM      2  C   UNL     1     106.684 105.964 102.211  1.00  0.00     0.000 C 
BRANCH   2   3
ATOM      3  C   UNL     1     106.428 104.442 102.149  1.00  0.00    -0.000 C 
BRANCH   3   4
ATOM      4  C   UNL     1     107.392 103.620 103.020  1.00  0.00    -0.003 C 
ATOM      5  C   UNL     1     106.947 103.523 104.478  1.00  0.00     0.004 C 
ENDBRANCH   3   4
ENDBRANCH   2   3
ENDBRANCH   1   2
BRANCH   1   6
ATOM      6  C   UNL     1     108.614 107.397 103.001  1.00  0.00     0.028 C 
BRANCH   6   7
ATOM      7  C   UNL     1     108.298 107.011 104.447  1.00  0.00     0.156 C 
BRANCH   7   8
ATOM      8  O   UNL     1     109.398 107.281 105.271  1.00  0.00    -0.396 OA
ATOM      9  H   UNL     1     109.988 106.486 105.213  1.00  0.00     0.210 HD
ENDBRANCH   7   8
ENDBRANCH   6   7
ENDBRANCH   1   6
TORSDOF 6
ENDMDL
MODEL 3
REMARK VINA RESULT:    -2.945      2.047      2.514
REMARK INTER + INTRA:          -4.186
REMARK INTER:                  -3.917
REMARK INTRA:                  -0.269
REMARK UNBOUND:                -0.293
REMARK SMILES CCCCCCCO
REMARK SMILES IDX 5 1 4 2 3 3 2 4 1 5 6 6 7 7 8 8
REMARK H PARENT 8 9
REMARK Flexibility Score: inf
ROOT
ATOM      1  C   UNL     1     107.707 107.511 102.778  1.00  0.00     0.002 C 
ENDROOT
BRANCH   1   2
ATOM      2  C   UNL     1     106.993 107.021 104.047  1.00  0.00     0.000 C 
BRANCH   2   3
ATOM      3  C   UNL     1     105.671 107.777 104.303  1.00  0.00    -0.000 C 
BRANCH   3   4
ATOM      4  C   UNL     1     104.704 107.747 103.108  1.00  0.00    -0.003 C 
ATOM      5  C   UNL     1     104.314 109.140 102.618  1.00  0.00     0.004 C 
ENDBRANCH   3   4
ENDBRANCH   2   3
ENDBRANCH   1   2
BRANCH   1   6
ATOM      6  C   UNL     1     108.214 106.328 101.941  1.00  0.00     0.028 C 
BRANCH   6   7
ATOM      7  C   UNL     1     107.186 105.198 101.876  1.00  0.00     0.156 C 
BRANCH   7   8
ATOM      8  O   UNL     1     107.832 103.955 101.885  1.00  0.00    -0.396 OA
ATOM      9  H   UNL     1     107.114 103.271 101.862  1.00  0.00     0.210 HD
ENDBRANCH   7   8
ENDBRANCH   6   7
ENDBRANCH   1   6
TORSDOF 6
ENDMDL
MODEL 4
REMARK VINA RESULT:    -2.921      2.451      3.737
REMARK INTER + INTRA:          -4.153
REMARK INTER:                  -3.911
REMARK INTRA:                  -0.242
REMARK UNBOUND:                -0.293
REMARK SMILES CCCCCCCO
REMARK SMILES IDX 5 1 4 2 3 3 2 4 1 5 6 6 7 7 8 8
REMARK H PARENT 8 9
REMARK Flexibility Score: inf
ROOT
ATOM      1  C   UNL     1     107.761 106.020 104.257  1.00  0.00     0.002 C 
ENDROOT
BRANCH   1   2
ATOM      2  C   UNL     1     106.973 104.703 104.188  1.00  0.00     0.000 C 
BRANCH   2   3
ATOM      3  C   UNL     1     106.124 104.596 102.903  1.00  0.00    -0.000 C 
BRANCH   3   4
ATOM      4  C   UNL     1     106.609 103.506 101.933  1.00  0.00    -0.003 C 
ATOM      5  C   UNL     1     107.793 102.707 102.474  1.00  0.00     0.004 C 
ENDBRANCH   3   4
ENDBRANCH   2   3
ENDBRANCH   1   2
BRANCH   1   6
ATOM      6  C   UNL     1     107.413 106.931 103.072  1.00  0.00     0.028 C 
BRANCH   6   7
ATOM      7  C   UNL     1     108.636 107.218 102.200  1.00  0.00     0.156 C 
BRANCH   7   8
ATOM      8  O   UNL     1     109.340 108.321 102.702  1.00  0.00    -0.396 OA
ATOM      9  H   UNL     1     109.419 108.175 103.681  1.00  0.00     0.210 HD
ENDBRANCH   7   8
ENDBRANCH   6   7
ENDBRANCH   1   6
TORSDOF 6
ENDMDL
MODEL 5
REMARK VINA RESULT:    -2.918      2.080      3.678
REMARK INTER + INTRA:          -4.149
REMARK INTER:                  -3.917
REMARK INTRA:                  -0.233
REMARK UNBOUND:                -0.293
REMARK SMILES CCCCCCCO
REMARK SMILES IDX 5 1 4 2 3 3 2 4 1 5 6 6 7 7 8 8
REMARK H PARENT 8 9
REMARK Flexibility Score: inf
ROOT
ATOM      1  C   UNL     1     104.877 108.407 103.124  1.00  0.00     0.002 C 
ENDROOT
BRANCH   1   2
ATOM      2  C   UNL     1     106.013 108.048 102.155  1.00  0.00     0.000 C 
BRANCH   2   3
ATOM      3  C   UNL     1     106.664 106.689 102.495  1.00  0.00    -0.000 C 
BRANCH   3   4
ATOM      4  C   UNL     1     108.151 106.607 102.115  1.00  0.00    -0.003 C 
ATOM      5  C   UNL     1     108.981 107.752 102.691  1.00  0.00     0.004 C 
ENDBRANCH   3   4
ENDBRANCH   2   3
ENDBRANCH   1   2
BRANCH   1   6
ATOM      6  C   UNL     1     104.844 107.440 104.316  1.00  0.00     0.028 C 
BRANCH   6   7
ATOM      7  C   UNL     1     105.087 108.164 105.640  1.00  0.00     0.156 C 
BRANCH   7   8
ATOM      8  O   UNL     1     104.702 109.507 105.536  1.00  0.00    -0.396 OA
ATOM      9  H   UNL     1     105.220 109.997 106.226  1.00  0.00     0.210 HD
ENDBRANCH   7   8
ENDBRANCH   6   7
ENDBRANCH   1   6
TORSDOF 6
ENDMDL
MODEL 6
REMARK VINA RESULT:    -2.869      3.094      4.052
REMARK INTER + INTRA:          -4.085
REMARK INTER:                  -3.883
REMARK INTRA:                  -0.201
REMARK UNBOUND:                -0.293
REMARK SMILES CCCCCCCO
REMARK SMILES IDX 5 1 4 2 3 3 2 4 1 5 6 6 7 7 8 8
REMARK H PARENT 8 9
REMARK Flexibility Score: inf
ROOT
ATOM      1  C   UNL     1     105.495 107.882 104.074  1.00  0.00     0.002 C 
ENDROOT
BRANCH   1   2
ATOM      2  C   UNL     1     105.581 106.400 104.468  1.00  0.00     0.000 C 
BRANCH   2   3
ATOM      3  C   UNL     1     104.245 105.658 104.245  1.00  0.00    -0.000 C 
BRANCH   3   4
ATOM      4  C   UNL     1     104.231 104.784 102.979  1.00  0.00    -0.003 C 
ATOM      5  C   UNL     1     102.831 104.307 102.597  1.00  0.00     0.004 C 
ENDBRANCH   3   4
ENDBRANCH   2   3
ENDBRANCH   1   2
BRANCH   1   6
ATOM      6  C   UNL     1     105.850 108.079 102.594  1.00  0.00     0.028 C 
BRANCH   6   7
ATOM      7  C   UNL     1     104.865 109.017 101.895  1.00  0.00     0.156 C 
BRANCH   7   8
ATOM      8  O   UNL     1     103.716 109.183 102.677  1.00  0.00    -0.396 OA
ATOM      9  H   UNL     1     103.508 110.153 102.661  1.00  0.00     0.210 HD
ENDBRANCH   7   8
ENDBRANCH   6   7
ENDBRANCH   1   6
TORSDOF 6
ENDMDL
MODEL 7
REMARK VINA RESULT:    -2.856      2.963      4.308
REMARK INTER + INTRA:          -4.068
REMARK INTER:                  -3.918
REMARK INTRA:                  -0.150
REMARK UNBOUND:                -0.293
REMARK SMILES CCCCCCCO
REMARK SMILES IDX 5 1 4 2 3 3 2 4 1 5 6 6 7 7 8 8
REMARK H PARENT 8 9
REMARK Flexibility Score: inf
ROOT
ATOM      1  C   UNL     1     107.206 107.467 102.263  1.00  0.00     0.002 C 
ENDROOT
BRANCH   1   2
ATOM      2  C   UNL     1     107.564 105.974 102.303  1.00  0.00     0.000 C 
BRANCH   2   3
ATOM      3  C   UNL     1     107.270 105.338 103.679  1.00  0.00    -0.000 C 
BRANCH   3   4
ATOM      4  C   UNL     1     106.897 103.848 103.602  1.00  0.00    -0.003 C 
ATOM      5  C   UNL     1     107.674 103.091 102.528  1.00  0.00     0.004 C 
ENDBRANCH   3   4
ENDBRANCH   2   3
ENDBRANCH   1   2
BRANCH   1   6
ATOM      6  C   UNL     1     105.820 107.716 102.874  1.00  0.00     0.028 C 
BRANCH   6   7
ATOM      7  C   UNL     1     104.985 108.667 102.015  1.00  0.00     0.156 C 
BRANCH   7   8
ATOM      8  O   UNL     1     103.832 109.058 102.707  1.00  0.00    -0.396 OA
ATOM      9  H   UNL     1     104.009 109.977 103.039  1.00  0.00     0.210 HD
ENDBRANCH   7   8
ENDBRANCH   6   7
ENDBRANCH   1   6
TORSDOF 6
ENDMDL
MODEL 8
REMARK VINA RESULT:    -2.849      2.952      4.309
REMARK INTER + INTRA:          -4.058
REMARK INTER:                  -3.863
REMARK INTRA:                  -0.195
REMARK UNBOUND:                -0.293
REMARK SMILES CCCCCCCO
REMARK SMILES IDX 5 1 4 2 3 3 2 4 1 5 6 6 7 7 8 8
REMARK H PARENT 8 9
REMARK Flexibility Score: inf
ROOT
ATOM      1  C   UNL     1     104.578 107.361 102.736  1.00  0.00     0.002 C 
ENDROOT
BRANCH   1   2
ATOM      2  C   UNL     1     105.789 108.095 102.141  1.00  0.00     0.000 C 
BRANCH   2   3
ATOM      3  C   UNL     1     106.976 107.145 101.875  1.00  0.00    -0.000 C 
BRANCH   3   4
ATOM      4  C   UNL     1     108.250 107.519 102.651  1.00  0.00    -0.003 C 
ATOM      5  C   UNL     1     108.247 107.007 104.090  1.00  0.00     0.004 C 
ENDBRANCH   3   4
ENDBRANCH   2   3
ENDBRANCH   1   2
BRANCH   1   6
ATOM      6  C   UNL     1     104.197 106.146 101.880  1.00  0.00     0.028 C 
BRANCH   6   7
ATOM      7  C   UNL     1     104.053 104.879 102.725  1.00  0.00     0.156 C 
BRANCH   7   8
ATOM      8  O   UNL     1     102.998 104.094 102.244  1.00  0.00    -0.396 OA
ATOM      9  H   UNL     1     103.231 103.154 102.464  1.00  0.00     0.210 HD
ENDBRANCH   7   8
ENDBRANCH   6   7
ENDBRANCH   1   6
TORSDOF 6
ENDMDL
MODEL 9
REMARK VINA RESULT:    -2.826      3.148      4.277
REMARK INTER + INTRA:          -4.027
REMARK INTER:                  -3.850
REMARK INTRA:                  -0.177
REMARK UNBOUND:                -0.293
REMARK SMILES CCCCCCCO
REMARK SMILES IDX 5 1 4 2 3 3 2 4 1 5 6 6 7 7 8 8
REMARK H PARENT 8 9
REMARK Flexibility Score: inf
ROOT
ATOM      1  C   UNL     1     104.477 105.893 102.564  1.00  0.00     0.002 C 
ENDROOT
BRANCH   1   2
ATOM      2  C   UNL     1     104.720 107.195 103.342  1.00  0.00     0.000 C 
BRANCH   2   3
ATOM      3  C   UNL     1     106.021 107.903 102.906  1.00  0.00    -0.000 C 
BRANCH   3   4
ATOM      4  C   UNL     1     107.295 107.247 103.464  1.00  0.00    -0.003 C 
ATOM      5  C   UNL     1     108.550 107.605 102.670  1.00  0.00     0.004 C 
ENDBRANCH   3   4
ENDBRANCH   2   3
ENDBRANCH   1   2
BRANCH   1   6
ATOM      6  C   UNL     1     103.699 104.880 103.416  1.00  0.00     0.028 C 
BRANCH   6   7
ATOM      7  C   UNL     1     103.794 105.203 104.907  1.00  0.00     0.156 C 
BRANCH   7   8
ATOM      8  O   UNL     1     102.649 104.749 105.574  1.00  0.00    -0.396 OA
ATOM      9  H   UNL     1     102.165 105.561 105.875  1.00  0.00     0.210 HD
ENDBRANCH   7   8
ENDBRANCH   6   7
ENDBRANCH   1   6
TORSDOF 6
ENDMDL
