MODEL 1
REMARK VINA RESULT:    -4.183      0.000      0.000
REMARK INTER + INTRA:         -15.599
REMARK INTER:                 -11.029
REMARK INTRA:                  -4.570
REMARK UNBOUND:                -4.570
REMARK SMILES CCCCCCCCCCCCCCCCCCCCCCCCCCCCCC(=O)[O-]
REMARK SMILES IDX 16 1 17 2 18 3 19 4 20 5 21 6 22 7 23 8 24 9 25 10 26 11
REMARK SMILES IDX 27 12 28 13 29 14 30 15 31 16 32 17 15 18 14 19 13 20 12 21
REMARK SMILES IDX 11 22 10 23 9 24 8 25 7 26 6 27 5 28 4 29 3 30 2 31 1 32
REMARK H PARENT
REMARK Flexibility Score: inf
ROOT
ATOM      1  C   UNL     1      18.447  12.300  34.952  1.00  0.00     0.000 C 
ENDROOT
BRANCH   1   2
ATOM      2  C   UNL     1      18.068  12.398  33.465  1.00  0.00     0.000 C 
BRANCH   2   3
ATOM      3  C   UNL     1      18.195  13.826  32.908  1.00  0.00     0.000 C 
BRANCH   3   4
ATOM      4  C   UNL     1      19.415  14.064  31.996  1.00  0.00     0.000 C 
BRANCH   4   5
ATOM      5  C   UNL     1      19.167  13.822  30.495  1.00  0.00     0.000 C 
BRANCH   5   6
ATOM      6  C   UNL     1      20.096  12.754  29.897  1.00  0.00     0.000 C 
BRANCH   6   7
ATOM      7  C   UNL     1      19.476  11.353  30.022  1.00  0.00     0.000 C 
BRANCH   7   8
ATOM      8  C   UNL     1      20.527  10.247  30.204  1.00  0.00     0.000 C 
BRANCH   8   9
ATOM      9  C   UNL     1      19.919   8.921  30.691  1.00  0.00     0.000 C 
BRANCH   9  10
ATOM     10  C   UNL     1      18.677   9.124  31.577  1.00  0.00     0.000 C 
BRANCH  10  11
ATOM     11  C   UNL     1      18.890   8.850  33.080  1.00  0.00     0.000 C 
BRANCH  11  12
ATOM     12  C   UNL     1      20.245   9.315  33.643  1.00  0.00     0.000 C 
BRANCH  12  13
ATOM     13  C   UNL     1      20.420   8.970  35.132  1.00  0.00     0.006 C 
BRANCH  13  14
ATOM     14  C   UNL     1      19.077   8.889  35.870  1.00  0.00     0.053 C 
BRANCH  14  15
ATOM     15  C   UNL     1      19.106   7.879  36.977  1.00  0.00     0.041 C 
ATOM     16  O   UNL     1      19.751   8.114  38.033  1.00  0.00    -0.550 OA
ATOM     17  O   UNL     1      18.422   6.676  36.839  1.00  0.00    -0.550 OA
ENDBRANCH  14  15
ENDBRANCH  13  14
ENDBRANCH  12  13
ENDBRANCH  11  12
ENDBRANCH  10  11
ENDBRANCH   9  10
ENDBRANCH   8   9
ENDBRANCH   7   8
ENDBRANCH   6   7
ENDBRANCH   5   6
ENDBRANCH   4   5
ENDBRANCH   3   4
ENDBRANCH   2   3
ENDBRANCH   1   2
BRANCH   1  18
ATOM     18  C   UNL     1      18.976  13.641  35.501  1.00  0.00     0.000 C 
BRANCH  18  19
ATOM     19  C   UNL     1      20.511  13.761  35.492  1.00  0.00     0.000 C 
BRANCH  19  20
ATOM     20  C   UNL     1      21.256  12.411  35.587  1.00  0.00     0.000 C 
BRANCH  20  21
ATOM     21  C   UNL     1      22.751  12.454  35.205  1.00  0.00     0.000 C 
BRANCH  21  22
ATOM     22  C   UNL     1      23.160  11.610  33.982  1.00  0.00     0.000 C 
BRANCH  22  23
ATOM     23  C   UNL     1      22.405  11.994  32.698  1.00  0.00     0.000 C 
BRANCH  23  24
ATOM     24  C   UNL     1      23.350  12.377  31.548  1.00  0.00    -0.000 C 
BRANCH  24  25
ATOM     25  C   UNL     1      24.815  12.511  31.999  1.00  0.00    -0.000 C 
BRANCH  25  26
ATOM     26  C   UNL     1      25.776  12.717  30.818  1.00  0.00    -0.000 C 
BRANCH  26  27
ATOM     27  C   UNL     1      27.203  12.229  31.123  1.00  0.00    -0.000 C 
BRANCH  27  28
ATOM     28  C   UNL     1      27.757  12.797  32.442  1.00  0.00    -0.000 C 
BRANCH  28  29
ATOM     29  C   UNL     1      28.060  11.742  33.525  1.00  0.00    -0.000 C 
BRANCH  29  30
ATOM     30  C   UNL     1      27.513  12.068  34.929  1.00  0.00    -0.000 C 
BRANCH  30  31
ATOM     31  C   UNL     1      26.701  13.371  35.021  1.00  0.00    -0.003 C 
ATOM     32  C   UNL     1      27.551  14.576  35.422  1.00  0.00     0.004 C 
ENDBRANCH  30  31
ENDBRANCH  29  30
ENDBRANCH  28  29
ENDBRANCH  27  28
ENDBRANCH  26  27
ENDBRANCH  25  26
ENDBRANCH  24  25
ENDBRANCH  23  24
ENDBRANCH  22  23
ENDBRANCH  21  22
ENDBRANCH  20  21
ENDBRANCH  19  20
ENDBRANCH  18  19
ENDBRANCH   1  18
TORSDOF 28
ENDMDL
MODEL 2
REMARK VINA RESULT:    -4.069      2.479      7.685
REMARK INTER + INTRA:         -15.298
REMARK INTER:                 -11.299
REMARK INTRA:                  -3.999
REMARK UNBOUND:                -4.570
REMARK SMILES CCCCCCCCCCCCCCCCCCCCCCCCCCCCCC(=O)[O-]
REMARK SMILES IDX 16 1 17 2 18 3 19 4 20 5 21 6 22 7 23 8 24 9 25 10 26 11
REMARK SMILES IDX 27 12 28 13 29 14 30 15 31 16 32 17 15 18 14 19 13 20 12 21
REMARK SMILES IDX 11 22 10 23 9 24 8 25 7 26 6 27 5 28 4 29 3 30 2 31 1 32
REMARK H PARENT
REMARK Flexibility Score: inf
ROOT
ATOM      1  C   UNL     1      26.694  12.454  32.012  1.00  0.00     0.000 C 
ENDROOT
BRANCH   1   2
ATOM      2  C   UNL     1      27.674  13.357  32.781  1.00  0.00     0.000 C 
BRANCH   2   3
ATOM      3  C   UNL     1      28.048  12.793  34.163  1.00  0.00     0.000 C 
BRANCH   3   4
ATOM      4  C   UNL     1      27.743  11.295  34.360  1.00  0.00     0.000 C 
BRANCH   4   5
ATOM      5  C   UNL     1      26.423  10.986  35.092  1.00  0.00     0.000 C 
BRANCH   5   6
ATOM      6  C   UNL     1      25.869  12.193  35.865  1.00  0.00     0.000 C 
BRANCH   6   7
ATOM      7  C   UNL     1      24.442  12.534  35.405  1.00  0.00     0.000 C 
BRANCH   7   8
ATOM      8  C   UNL     1      23.892  11.537  34.373  1.00  0.00     0.000 C 
BRANCH   8   9
ATOM      9  C   UNL     1      22.571  10.887  34.817  1.00  0.00     0.000 C 
BRANCH   9  10
ATOM     10  C   UNL     1      21.347  11.784  34.556  1.00  0.00     0.000 C 
BRANCH  10  11
ATOM     11  C   UNL     1      20.908  12.660  35.747  1.00  0.00     0.000 C 
BRANCH  11  12
ATOM     12  C   UNL     1      19.402  12.629  36.061  1.00  0.00     0.000 C 
BRANCH  12  13
ATOM     13  C   UNL     1      18.636  13.796  35.414  1.00  0.00     0.006 C 
BRANCH  13  14
ATOM     14  C   UNL     1      18.241  13.497  33.962  1.00  0.00     0.053 C 
BRANCH  14  15
ATOM     15  C   UNL     1      19.132  14.200  32.983  1.00  0.00     0.041 C 
ATOM     16  O   UNL     1      20.177  14.783  33.380  1.00  0.00    -0.550 OA
ATOM     17  O   UNL     1      18.806  14.214  31.631  1.00  0.00    -0.550 OA
ENDBRANCH  14  15
ENDBRANCH  13  14
ENDBRANCH  12  13
ENDBRANCH  11  12
ENDBRANCH  10  11
ENDBRANCH   9  10
ENDBRANCH   8   9
ENDBRANCH   7   8
ENDBRANCH   6   7
ENDBRANCH   5   6
ENDBRANCH   4   5
ENDBRANCH   3   4
ENDBRANCH   2   3
ENDBRANCH   1   2
BRANCH   1  18
ATOM     18  C   UNL     1      25.923  13.234  30.928  1.00  0.00     0.000 C 
BRANCH  18  19
ATOM     19  C   UNL     1      24.838  12.408  30.213  1.00  0.00     0.000 C 
BRANCH  19  20
ATOM     20  C   UNL     1      23.484  12.355  30.956  1.00  0.00     0.000 C 
BRANCH  20  21
ATOM     21  C   UNL     1      22.375  11.546  30.250  1.00  0.00     0.000 C 
BRANCH  21  22
ATOM     22  C   UNL     1      20.977  11.610  30.896  1.00  0.00     0.000 C 
BRANCH  22  23
ATOM     23  C   UNL     1      19.849  11.167  29.950  1.00  0.00     0.000 C 
BRANCH  23  24
ATOM     24  C   UNL     1      18.553  10.816  30.699  1.00  0.00    -0.000 C 
BRANCH  24  25
ATOM     25  C   UNL     1      18.791  10.495  32.185  1.00  0.00    -0.000 C 
BRANCH  25  26
ATOM     26  C   UNL     1      18.850   8.984  32.457  1.00  0.00    -0.000 C 
BRANCH  26  27
ATOM     27  C   UNL     1      19.629   8.642  33.739  1.00  0.00    -0.000 C 
BRANCH  27  28
ATOM     28  C   UNL     1      18.953   9.191  35.009  1.00  0.00    -0.000 C 
BRANCH  28  29
ATOM     29  C   UNL     1      19.770   9.016  36.304  1.00  0.00    -0.000 C 
BRANCH  29  30
ATOM     30  C   UNL     1      19.133   8.094  37.363  1.00  0.00    -0.000 C 
BRANCH  30  31
ATOM     31  C   UNL     1      19.438   6.597  37.186  1.00  0.00    -0.003 C 
ATOM     32  C   UNL     1      18.247   5.806  36.649  1.00  0.00     0.004 C 
ENDBRANCH  30  31
ENDBRANCH  29  30
ENDBRANCH  28  29
ENDBRANCH  27  28
ENDBRANCH  26  27
ENDBRANCH  25  26
ENDBRANCH  24  25
ENDBRANCH  23  24
ENDBRANCH  22  23
ENDBRANCH  21  22
ENDBRANCH  20  21
ENDBRANCH  19  20
ENDBRANCH  18  19
ENDBRANCH   1  18
TORSDOF 28
ENDMDL
MODEL 3
REMARK VINA RESULT:    -4.038      1.847      7.260
REMARK INTER + INTRA:         -15.218
REMARK INTER:                 -10.715
REMARK INTRA:                  -4.503
REMARK UNBOUND:                -4.570
REMARK SMILES CCCCCCCCCCCCCCCCCCCCCCCCCCCCCC(=O)[O-]
REMARK SMILES IDX 16 1 17 2 18 3 19 4 20 5 21 6 22 7 23 8 24 9 25 10 26 11
REMARK SMILES IDX 27 12 28 13 29 14 30 15 31 16 32 17 15 18 14 19 13 20 12 21
REMARK SMILES IDX 11 22 10 23 9 24 8 25 7 26 6 27 5 28 4 29 3 30 2 31 1 32
REMARK H PARENT
REMARK Flexibility Score: inf
ROOT
ATOM      1  C   UNL     1      24.022  12.531  31.502  1.00  0.00     0.000 C 
ENDROOT
BRANCH   1   2
ATOM      2  C   UNL     1      25.155  12.317  30.485  1.00  0.00     0.000 C 
BRANCH   2   3
ATOM      3  C   UNL     1      26.429  13.106  30.833  1.00  0.00     0.000 C 
BRANCH   3   4
ATOM      4  C   UNL     1      26.662  13.335  32.340  1.00  0.00     0.000 C 
BRANCH   4   5
ATOM      5  C   UNL     1      28.012  12.825  32.878  1.00  0.00     0.000 C 
BRANCH   5   6
ATOM      6  C   UNL     1      27.899  11.473  33.600  1.00  0.00     0.000 C 
BRANCH   6   7
ATOM      7  C   UNL     1      26.507  11.300  34.230  1.00  0.00     0.000 C 
BRANCH   7   8
ATOM      8  C   UNL     1      26.303  12.172  35.479  1.00  0.00     0.000 C 
BRANCH   8   9
ATOM      9  C   UNL     1      24.913  11.991  36.112  1.00  0.00     0.000 C 
BRANCH   9  10
ATOM     10  C   UNL     1      23.781  12.560  35.237  1.00  0.00     0.000 C 
BRANCH  10  11
ATOM     11  C   UNL     1      22.410  11.875  35.410  1.00  0.00     0.000 C 
BRANCH  11  12
ATOM     12  C   UNL     1      21.485  11.945  34.182  1.00  0.00     0.000 C 
BRANCH  12  13
ATOM     13  C   UNL     1      20.835  13.328  34.006  1.00  0.00     0.006 C 
BRANCH  13  14
ATOM     14  C   UNL     1      20.290  13.885  35.328  1.00  0.00     0.053 C 
BRANCH  14  15
ATOM     15  C   UNL     1      18.951  13.305  35.670  1.00  0.00     0.041 C 
ATOM     16  O   UNL     1      17.953  13.535  34.936  1.00  0.00    -0.550 OA
ATOM     17  O   UNL     1      18.805  12.512  36.802  1.00  0.00    -0.550 OA
ENDBRANCH  14  15
ENDBRANCH  13  14
ENDBRANCH  12  13
ENDBRANCH  11  12
ENDBRANCH  10  11
ENDBRANCH   9  10
ENDBRANCH   8   9
ENDBRANCH   7   8
ENDBRANCH   6   7
ENDBRANCH   5   6
ENDBRANCH   4   5
ENDBRANCH   3   4
ENDBRANCH   2   3
ENDBRANCH   1   2
BRANCH   1  18
ATOM     18  C   UNL     1      22.701  11.886  31.037  1.00  0.00     0.000 C 
BRANCH  18  19
ATOM     19  C   UNL     1      22.014  12.629  29.876  1.00  0.00     0.000 C 
BRANCH  19  20
ATOM     20  C   UNL     1      21.761  14.130  30.142  1.00  0.00     0.000 C 
BRANCH  20  21
ATOM     21  C   UNL     1      20.308  14.499  30.509  1.00  0.00     0.000 C 
BRANCH  21  22
ATOM     22  C   UNL     1      19.242  13.427  30.209  1.00  0.00     0.000 C 
BRANCH  22  23
ATOM     23  C   UNL     1      18.169  13.313  31.304  1.00  0.00     0.000 C 
BRANCH  23  24
ATOM     24  C   UNL     1      18.070  11.896  31.891  1.00  0.00    -0.000 C 
BRANCH  24  25
ATOM     25  C   UNL     1      19.160  10.951  31.354  1.00  0.00    -0.000 C 
BRANCH  25  26
ATOM     26  C   UNL     1      19.251   9.644  32.158  1.00  0.00    -0.000 C 
BRANCH  26  27
ATOM     27  C   UNL     1      18.073   9.462  33.129  1.00  0.00    -0.000 C 
BRANCH  27  28
ATOM     28  C   UNL     1      18.512   8.918  34.502  1.00  0.00    -0.000 C 
BRANCH  28  29
ATOM     29  C   UNL     1      20.023   9.024  34.787  1.00  0.00    -0.000 C 
BRANCH  29  30
ATOM     30  C   UNL     1      20.425   8.852  36.266  1.00  0.00    -0.000 C 
BRANCH  30  31
ATOM     31  C   UNL     1      19.325   8.273  37.172  1.00  0.00    -0.003 C 
ATOM     32  C   UNL     1      19.419   6.756  37.327  1.00  0.00     0.004 C 
ENDBRANCH  30  31
ENDBRANCH  29  30
ENDBRANCH  28  29
ENDBRANCH  27  28
ENDBRANCH  26  27
ENDBRANCH  25  26
ENDBRANCH  24  25
ENDBRANCH  23  24
ENDBRANCH  22  23
ENDBRANCH  21  22
ENDBRANCH  20  21
ENDBRANCH  19  20
ENDBRANCH  18  19
ENDBRANCH   1  18
TORSDOF 28
ENDMDL
MODEL 4
REMARK VINA RESULT:    -3.909      1.851      7.133
REMARK INTER + INTRA:         -14.878
REMARK INTER:                  -9.813
REMARK INTRA:                  -5.065
REMARK UNBOUND:                -4.570
REMARK SMILES CCCCCCCCCCCCCCCCCCCCCCCCCCCCCC(=O)[O-]
REMARK SMILES IDX 16 1 17 2 18 3 19 4 20 5 21 6 22 7 23 8 24 9 25 10 26 11
REMARK SMILES IDX 27 12 28 13 29 14 30 15 31 16 32 17 15 18 14 19 13 20 12 21
REMARK SMILES IDX 11 22 10 23 9 24 8 25 7 26 6 27 5 28 4 29 3 30 2 31 1 32
REMARK H PARENT
REMARK Flexibility Score: inf
ROOT
ATOM      1  C   UNL     1      22.582  11.497  32.695  1.00  0.00     0.000 C 
ENDROOT
BRANCH   1   2
ATOM      2  C   UNL     1      23.650  12.503  32.234  1.00  0.00     0.000 C 
BRANCH   2   3
ATOM      3  C   UNL     1      23.953  12.405  30.728  1.00  0.00     0.000 C 
BRANCH   3   4
ATOM      4  C   UNL     1      25.011  13.400  30.211  1.00  0.00     0.000 C 
BRANCH   4   5
ATOM      5  C   UNL     1      26.473  13.008  30.498  1.00  0.00     0.000 C 
BRANCH   5   6
ATOM      6  C   UNL     1      26.758  11.521  30.237  1.00  0.00     0.000 C 
BRANCH   6   7
ATOM      7  C   UNL     1      27.593  10.912  31.375  1.00  0.00     0.000 C 
BRANCH   7   8
ATOM      8  C   UNL     1      27.147  11.390  32.766  1.00  0.00     0.000 C 
BRANCH   8   9
ATOM      9  C   UNL     1      28.318  11.519  33.755  1.00  0.00     0.000 C 
BRANCH   9  10
ATOM     10  C   UNL     1      28.183  12.741  34.683  1.00  0.00     0.000 C 
BRANCH  10  11
ATOM     11  C   UNL     1      27.335  13.901  34.122  1.00  0.00     0.000 C 
BRANCH  11  12
ATOM     12  C   UNL     1      26.004  14.150  34.853  1.00  0.00     0.000 C 
BRANCH  12  13
ATOM     13  C   UNL     1      25.735  13.122  35.965  1.00  0.00     0.006 C 
BRANCH  13  14
ATOM     14  C   UNL     1      24.281  12.631  35.962  1.00  0.00     0.053 C 
BRANCH  14  15
ATOM     15  C   UNL     1      24.195  11.136  35.889  1.00  0.00     0.041 C 
ATOM     16  O   UNL     1      25.245  10.441  35.863  1.00  0.00    -0.550 OA
ATOM     17  O   UNL     1      22.953  10.513  35.847  1.00  0.00    -0.550 OA
ENDBRANCH  14  15
ENDBRANCH  13  14
ENDBRANCH  12  13
ENDBRANCH  11  12
ENDBRANCH  10  11
ENDBRANCH   9  10
ENDBRANCH   8   9
ENDBRANCH   7   8
ENDBRANCH   6   7
ENDBRANCH   5   6
ENDBRANCH   4   5
ENDBRANCH   3   4
ENDBRANCH   2   3
ENDBRANCH   1   2
BRANCH   1  18
ATOM     18  C   UNL     1      21.603  11.135  31.559  1.00  0.00     0.000 C 
BRANCH  18  19
ATOM     19  C   UNL     1      20.579  10.048  31.935  1.00  0.00     0.000 C 
BRANCH  19  20
ATOM     20  C   UNL     1      19.190  10.231  31.286  1.00  0.00     0.000 C 
BRANCH  20  21
ATOM     21  C   UNL     1      18.951  11.599  30.611  1.00  0.00     0.000 C 
BRANCH  21  22
ATOM     22  C   UNL     1      17.875  12.492  31.258  1.00  0.00     0.000 C 
BRANCH  22  23
ATOM     23  C   UNL     1      18.438  13.804  31.830  1.00  0.00     0.000 C 
BRANCH  23  24
ATOM     24  C   UNL     1      19.870  14.092  31.352  1.00  0.00    -0.000 C 
BRANCH  24  25
ATOM     25  C   UNL     1      20.793  14.570  32.487  1.00  0.00    -0.000 C 
BRANCH  25  26
ATOM     26  C   UNL     1      20.097  14.554  33.856  1.00  0.00    -0.000 C 
BRANCH  26  27
ATOM     27  C   UNL     1      20.722  13.538  34.827  1.00  0.00    -0.000 C 
BRANCH  27  28
ATOM     28  C   UNL     1      19.719  13.021  35.875  1.00  0.00    -0.000 C 
BRANCH  28  29
ATOM     29  C   UNL     1      18.629  12.082  35.320  1.00  0.00    -0.000 C 
BRANCH  29  30
ATOM     30  C   UNL     1      19.078  10.627  35.078  1.00  0.00    -0.000 C 
BRANCH  30  31
ATOM     31  C   UNL     1      19.671   9.920  36.308  1.00  0.00    -0.003 C 
ATOM     32  C   UNL     1      19.543   8.399  36.240  1.00  0.00     0.004 C 
ENDBRANCH  30  31
ENDBRANCH  29  30
ENDBRANCH  28  29
ENDBRANCH  27  28
ENDBRANCH  26  27
ENDBRANCH  25  26
ENDBRANCH  24  25
ENDBRANCH  23  24
ENDBRANCH  22  23
ENDBRANCH  21  22
ENDBRANCH  20  21
ENDBRANCH  19  20
ENDBRANCH  18  19
ENDBRANCH   1  18
TORSDOF 28
ENDMDL
MODEL 5
REMARK VINA RESULT:    -3.842      1.325      4.599
REMARK INTER + INTRA:         -14.699
REMARK INTER:                 -10.782
REMARK INTRA:                  -3.917
REMARK UNBOUND:                -4.570
REMARK SMILES CCCCCCCCCCCCCCCCCCCCCCCCCCCCCC(=O)[O-]
REMARK SMILES IDX 16 1 17 2 18 3 19 4 20 5 21 6 22 7 23 8 24 9 25 10 26 11
REMARK SMILES IDX 27 12 28 13 29 14 30 15 31 16 32 17 15 18 14 19 13 20 12 21
REMARK SMILES IDX 11 22 10 23 9 24 8 25 7 26 6 27 5 28 4 29 3 30 2 31 1 32
REMARK H PARENT
REMARK Flexibility Score: inf
ROOT
ATOM      1  C   UNL     1      22.615  12.199  31.987  1.00  0.00     0.000 C 
ENDROOT
BRANCH   1   2
ATOM      2  C   UNL     1      21.856  11.507  30.842  1.00  0.00     0.000 C 
BRANCH   2   3
ATOM      3  C   UNL     1      20.723  10.594  31.341  1.00  0.00     0.000 C 
BRANCH   3   4
ATOM      4  C   UNL     1      19.317  11.228  31.319  1.00  0.00     0.000 C 
BRANCH   4   5
ATOM      5  C   UNL     1      19.241  12.628  30.681  1.00  0.00     0.000 C 
BRANCH   5   6
ATOM      6  C   UNL     1      18.913  13.733  31.698  1.00  0.00     0.000 C 
BRANCH   6   7
ATOM      7  C   UNL     1      20.190  14.247  32.384  1.00  0.00     0.000 C 
BRANCH   7   8
ATOM      8  C   UNL     1      19.993  14.524  33.882  1.00  0.00     0.000 C 
BRANCH   8   9
ATOM      9  C   UNL     1      20.720  13.504  34.777  1.00  0.00     0.000 C 
BRANCH   9  10
ATOM     10  C   UNL     1      19.783  12.834  35.799  1.00  0.00     0.000 C 
BRANCH  10  11
ATOM     11  C   UNL     1      18.312  12.706  35.357  1.00  0.00     0.000 C 
BRANCH  11  12
ATOM     12  C   UNL     1      17.967  11.411  34.601  1.00  0.00     0.000 C 
BRANCH  12  13
ATOM     13  C   UNL     1      19.070  10.345  34.716  1.00  0.00     0.006 C 
BRANCH  13  14
ATOM     14  C   UNL     1      18.502   8.919  34.711  1.00  0.00     0.053 C 
BRANCH  14  15
ATOM     15  C   UNL     1      18.803   8.192  35.987  1.00  0.00     0.041 C 
ATOM     16  O   UNL     1      18.211   7.113  36.257  1.00  0.00    -0.550 OA
ATOM     17  O   UNL     1      19.736   8.709  36.878  1.00  0.00    -0.550 OA
ENDBRANCH  14  15
ENDBRANCH  13  14
ENDBRANCH  12  13
ENDBRANCH  11  12
ENDBRANCH  10  11
ENDBRANCH   9  10
ENDBRANCH   8   9
ENDBRANCH   7   8
ENDBRANCH   6   7
ENDBRANCH   5   6
ENDBRANCH   4   5
ENDBRANCH   3   4
ENDBRANCH   2   3
ENDBRANCH   1   2
BRANCH   1  18
ATOM     18  C   UNL     1      24.096  12.440  31.633  1.00  0.00     0.000 C 
BRANCH  18  19
ATOM     19  C   UNL     1      24.344  12.748  30.145  1.00  0.00     0.000 C 
BRANCH  19  20
ATOM     20  C   UNL     1      25.441  13.804  29.887  1.00  0.00     0.000 C 
BRANCH  20  21
ATOM     21  C   UNL     1      26.891  13.279  29.955  1.00  0.00     0.000 C 
BRANCH  21  22
ATOM     22  C   UNL     1      27.087  11.926  30.667  1.00  0.00     0.000 C 
BRANCH  22  23
ATOM     23  C   UNL     1      28.274  11.918  31.644  1.00  0.00     0.000 C 
BRANCH  23  24
ATOM     24  C   UNL     1      27.881  11.436  33.050  1.00  0.00    -0.000 C 
BRANCH  24  25
ATOM     25  C   UNL     1      28.101  12.507  34.132  1.00  0.00    -0.000 C 
BRANCH  25  26
ATOM     26  C   UNL     1      27.347  13.811  33.830  1.00  0.00    -0.000 C 
BRANCH  26  27
ATOM     27  C   UNL     1      26.615  14.371  35.061  1.00  0.00    -0.000 C 
BRANCH  27  28
ATOM     28  C   UNL     1      25.940  13.273  35.903  1.00  0.00    -0.000 C 
BRANCH  28  29
ATOM     29  C   UNL     1      24.807  12.512  35.187  1.00  0.00    -0.000 C 
BRANCH  29  30
ATOM     30  C   UNL     1      24.534  11.090  35.717  1.00  0.00    -0.000 C 
BRANCH  30  31
ATOM     31  C   UNL     1      23.065  10.802  36.069  1.00  0.00    -0.003 C 
ATOM     32  C   UNL     1      22.254  10.294  34.878  1.00  0.00     0.004 C 
ENDBRANCH  30  31
ENDBRANCH  29  30
ENDBRANCH  28  29
ENDBRANCH  27  28
ENDBRANCH  26  27
ENDBRANCH  25  26
ENDBRANCH  24  25
ENDBRANCH  23  24
ENDBRANCH  22  23
ENDBRANCH  21  22
ENDBRANCH  20  21
ENDBRANCH  19  20
ENDBRANCH  18  19
ENDBRANCH   1  18
TORSDOF 28
ENDMDL
MODEL 6
REMARK VINA RESULT:    -3.786      1.927      7.561
REMARK INTER + INTRA:         -14.554
REMARK INTER:                 -11.281
REMARK INTRA:                  -3.273
REMARK UNBOUND:                -4.570
REMARK SMILES CCCCCCCCCCCCCCCCCCCCCCCCCCCCCC(=O)[O-]
REMARK SMILES IDX 16 1 17 2 18 3 19 4 20 5 21 6 22 7 23 8 24 9 25 10 26 11
REMARK SMILES IDX 27 12 28 13 29 14 30 15 31 16 32 17 15 18 14 19 13 20 12 21
REMARK SMILES IDX 11 22 10 23 9 24 8 25 7 26 6 27 5 28 4 29 3 30 2 31 1 32
REMARK H PARENT
REMARK Flexibility Score: inf
ROOT
ATOM      1  C   UNL     1      23.209  12.243  31.241  1.00  0.00     0.000 C 
ENDROOT
BRANCH   1   2
ATOM      2  C   UNL     1      23.888  12.459  29.878  1.00  0.00     0.000 C 
BRANCH   2   3
ATOM      3  C   UNL     1      25.100  13.404  29.956  1.00  0.00     0.000 C 
BRANCH   3   4
ATOM      4  C   UNL     1      26.081  13.112  31.108  1.00  0.00     0.000 C 
BRANCH   4   5
ATOM      5  C   UNL     1      27.562  13.008  30.696  1.00  0.00     0.000 C 
BRANCH   5   6
ATOM      6  C   UNL     1      28.362  12.033  31.574  1.00  0.00     0.000 C 
BRANCH   6   7
ATOM      7  C   UNL     1      27.503  11.504  32.734  1.00  0.00     0.000 C 
BRANCH   7   8
ATOM      8  C   UNL     1      28.251  11.495  34.076  1.00  0.00     0.000 C 
BRANCH   8   9
ATOM      9  C   UNL     1      27.457  12.175  35.205  1.00  0.00     0.000 C 
BRANCH   9  10
ATOM     10  C   UNL     1      26.366  13.125  34.678  1.00  0.00     0.000 C 
BRANCH  10  11
ATOM     11  C   UNL     1      24.943  12.530  34.634  1.00  0.00     0.000 C 
BRANCH  11  12
ATOM     12  C   UNL     1      24.424  11.980  35.975  1.00  0.00     0.000 C 
BRANCH  12  13
ATOM     13  C   UNL     1      22.988  11.437  35.877  1.00  0.00     0.006 C 
BRANCH  13  14
ATOM     14  C   UNL     1      22.257  11.951  34.630  1.00  0.00     0.053 C 
BRANCH  14  15
ATOM     15  C   UNL     1      21.208  12.965  34.972  1.00  0.00     0.041 C 
ATOM     16  O   UNL     1      21.167  14.066  34.362  1.00  0.00    -0.550 OA
ATOM     17  O   UNL     1      20.277  12.694  35.969  1.00  0.00    -0.550 OA
ENDBRANCH  14  15
ENDBRANCH  13  14
ENDBRANCH  12  13
ENDBRANCH  11  12
ENDBRANCH  10  11
ENDBRANCH   9  10
ENDBRANCH   8   9
ENDBRANCH   7   8
ENDBRANCH   6   7
ENDBRANCH   5   6
ENDBRANCH   4   5
ENDBRANCH   3   4
ENDBRANCH   2   3
ENDBRANCH   1   2
BRANCH   1  18
ATOM     18  C   UNL     1      21.845  11.539  31.099  1.00  0.00     0.000 C 
BRANCH  18  19
ATOM     19  C   UNL     1      20.935  12.145  30.014  1.00  0.00     0.000 C 
BRANCH  19  20
ATOM     20  C   UNL     1      20.632  13.648  30.204  1.00  0.00     0.000 C 
BRANCH  20  21
ATOM     21  C   UNL     1      19.154  13.993  30.488  1.00  0.00     0.000 C 
BRANCH  21  22
ATOM     22  C   UNL     1      18.292  12.850  31.058  1.00  0.00     0.000 C 
BRANCH  22  23
ATOM     23  C   UNL     1      18.547  12.582  32.551  1.00  0.00     0.000 C 
BRANCH  23  24
ATOM     24  C   UNL     1      17.875  11.290  33.043  1.00  0.00    -0.000 C 
BRANCH  24  25
ATOM     25  C   UNL     1      18.195  10.075  32.154  1.00  0.00    -0.000 C 
BRANCH  25  26
ATOM     26  C   UNL     1      19.280   9.173  32.761  1.00  0.00    -0.000 C 
BRANCH  26  27
ATOM     27  C   UNL     1      18.913   8.665  34.165  1.00  0.00    -0.000 C 
BRANCH  27  28
ATOM     28  C   UNL     1      19.530   9.520  35.287  1.00  0.00    -0.000 C 
BRANCH  28  29
ATOM     29  C   UNL     1      20.275   8.722  36.375  1.00  0.00    -0.000 C 
BRANCH  29  30
ATOM     30  C   UNL     1      19.373   8.051  37.430  1.00  0.00    -0.000 C 
BRANCH  30  31
ATOM     31  C   UNL     1      19.200   6.532  37.261  1.00  0.00    -0.003 C 
ATOM     32  C   UNL     1      18.045   6.164  36.331  1.00  0.00     0.004 C 
ENDBRANCH  30  31
ENDBRANCH  29  30
ENDBRANCH  28  29
ENDBRANCH  27  28
ENDBRANCH  26  27
ENDBRANCH  25  26
ENDBRANCH  24  25
ENDBRANCH  23  24
ENDBRANCH  22  23
ENDBRANCH  21  22
ENDBRANCH  20  21
ENDBRANCH  19  20
ENDBRANCH  18  19
ENDBRANCH   1  18
TORSDOF 28
ENDMDL
MODEL 7
REMARK VINA RESULT:    -3.772      1.275      3.602
REMARK INTER + INTRA:         -14.516
REMARK INTER:                 -10.025
REMARK INTRA:                  -4.491
REMARK UNBOUND:                -4.570
REMARK SMILES CCCCCCCCCCCCCCCCCCCCCCCCCCCCCC(=O)[O-]
REMARK SMILES IDX 16 1 17 2 18 3 19 4 20 5 21 6 22 7 23 8 24 9 25 10 26 11
REMARK SMILES IDX 27 12 28 13 29 14 30 15 31 16 32 17 15 18 14 19 13 20 12 21
REMARK SMILES IDX 11 22 10 23 9 24 8 25 7 26 6 27 5 28 4 29 3 30 2 31 1 32
REMARK H PARENT
REMARK Flexibility Score: inf
ROOT
ATOM      1  C   UNL     1      21.852  10.862  31.806  1.00  0.00     0.000 C 
ENDROOT
BRANCH   1   2
ATOM      2  C   UNL     1      20.898  10.858  30.599  1.00  0.00     0.000 C 
BRANCH   2   3
ATOM      3  C   UNL     1      20.181  12.205  30.400  1.00  0.00     0.000 C 
BRANCH   3   4
ATOM      4  C   UNL     1      18.643  12.121  30.331  1.00  0.00     0.000 C 
BRANCH   4   5
ATOM      5  C   UNL     1      17.904  13.447  30.595  1.00  0.00     0.000 C 
BRANCH   5   6
ATOM      6  C   UNL     1      18.708  14.419  31.472  1.00  0.00     0.000 C 
BRANCH   6   7
ATOM      7  C   UNL     1      18.318  14.277  32.952  1.00  0.00     0.000 C 
BRANCH   7   8
ATOM      8  C   UNL     1      19.517  13.954  33.858  1.00  0.00     0.000 C 
BRANCH   8   9
ATOM      9  C   UNL     1      19.096  13.378  35.221  1.00  0.00     0.000 C 
BRANCH   9  10
ATOM     10  C   UNL     1      18.310  12.060  35.094  1.00  0.00     0.000 C 
BRANCH  10  11
ATOM     11  C   UNL     1      18.815  11.097  34.001  1.00  0.00     0.000 C 
BRANCH  11  12
ATOM     12  C   UNL     1      19.901  10.105  34.456  1.00  0.00     0.000 C 
BRANCH  12  13
ATOM     13  C   UNL     1      19.634   9.535  35.859  1.00  0.00     0.006 C 
BRANCH  13  14
ATOM     14  C   UNL     1      18.922   8.176  35.808  1.00  0.00     0.053 C 
BRANCH  14  15
ATOM     15  C   UNL     1      19.165   7.370  37.048  1.00  0.00     0.041 C 
ATOM     16  O   UNL     1      18.886   6.141  37.070  1.00  0.00    -0.550 OA
ATOM     17  O   UNL     1      19.697   7.977  38.180  1.00  0.00    -0.550 OA
ENDBRANCH  14  15
ENDBRANCH  13  14
ENDBRANCH  12  13
ENDBRANCH  11  12
ENDBRANCH  10  11
ENDBRANCH   9  10
ENDBRANCH   8   9
ENDBRANCH   7   8
ENDBRANCH   6   7
ENDBRANCH   5   6
ENDBRANCH   4   5
ENDBRANCH   3   4
ENDBRANCH   2   3
ENDBRANCH   1   2
BRANCH   1  18
ATOM     18  C   UNL     1      22.093  12.286  32.345  1.00  0.00     0.000 C 
BRANCH  18  19
ATOM     19  C   UNL     1      23.222  12.379  33.389  1.00  0.00     0.000 C 
BRANCH  19  20
ATOM     20  C   UNL     1      22.732  12.569  34.841  1.00  0.00     0.000 C 
BRANCH  20  21
ATOM     21  C   UNL     1      23.161  11.466  35.832  1.00  0.00     0.000 C 
BRANCH  21  22
ATOM     22  C   UNL     1      24.645  11.472  36.248  1.00  0.00     0.000 C 
BRANCH  22  23
ATOM     23  C   UNL     1      25.564  10.771  35.234  1.00  0.00     0.000 C 
BRANCH  23  24
ATOM     24  C   UNL     1      26.822  11.592  34.909  1.00  0.00    -0.000 C 
BRANCH  24  25
ATOM     25  C   UNL     1      26.520  13.085  34.688  1.00  0.00    -0.000 C 
BRANCH  25  26
ATOM     26  C   UNL     1      27.257  13.659  33.469  1.00  0.00    -0.000 C 
BRANCH  26  27
ATOM     27  C   UNL     1      28.386  12.740  32.972  1.00  0.00    -0.000 C 
BRANCH  27  28
ATOM     28  C   UNL     1      28.234  12.360  31.488  1.00  0.00    -0.000 C 
BRANCH  28  29
ATOM     29  C   UNL     1      27.353  11.123  31.222  1.00  0.00    -0.000 C 
BRANCH  29  30
ATOM     30  C   UNL     1      26.604  11.128  29.875  1.00  0.00    -0.000 C 
BRANCH  30  31
ATOM     31  C   UNL     1      25.181  11.709  29.929  1.00  0.00    -0.003 C 
ATOM     32  C   UNL     1      25.162  13.216  30.183  1.00  0.00     0.004 C 
ENDBRANCH  30  31
ENDBRANCH  29  30
ENDBRANCH  28  29
ENDBRANCH  27  28
ENDBRANCH  26  27
ENDBRANCH  25  26
ENDBRANCH  24  25
ENDBRANCH  23  24
ENDBRANCH  22  23
ENDBRANCH  21  22
ENDBRANCH  20  21
ENDBRANCH  19  20
ENDBRANCH  18  19
ENDBRANCH   1  18
TORSDOF 28
ENDMDL
MODEL 8
REMARK VINA RESULT:    -3.575      1.168      2.520
REMARK INTER + INTRA:         -13.997
REMARK INTER:                 -10.116
REMARK INTRA:                  -3.880
REMARK UNBOUND:                -4.570
REMARK SMILES CCCCCCCCCCCCCCCCCCCCCCCCCCCCCC(=O)[O-]
REMARK SMILES IDX 16 1 17 2 18 3 19 4 20 5 21 6 22 7 23 8 24 9 25 10 26 11
REMARK SMILES IDX 27 12 28 13 29 14 30 15 31 16 32 17 15 18 14 19 13 20 12 21
REMARK SMILES IDX 11 22 10 23 9 24 8 25 7 26 6 27 5 28 4 29 3 30 2 31 1 32
REMARK H PARENT
REMARK Flexibility Score: inf
ROOT
ATOM      1  C   UNL     1      19.066  13.704  34.289  1.00  0.00     0.000 C 
ENDROOT
BRANCH   1   2
ATOM      2  C   UNL     1      18.136  13.213  33.167  1.00  0.00     0.000 C 
BRANCH   2   3
ATOM      3  C   UNL     1      17.879  14.283  32.092  1.00  0.00     0.000 C 
BRANCH   3   4
ATOM      4  C   UNL     1      18.750  14.159  30.827  1.00  0.00     0.000 C 
BRANCH   4   5
ATOM      5  C   UNL     1      18.833  12.743  30.226  1.00  0.00     0.000 C 
BRANCH   5   6
ATOM      6  C   UNL     1      20.274  12.220  30.117  1.00  0.00     0.000 C 
BRANCH   6   7
ATOM      7  C   UNL     1      20.580  11.213  31.238  1.00  0.00     0.000 C 
BRANCH   7   8
ATOM      8  C   UNL     1      20.578   9.756  30.749  1.00  0.00     0.000 C 
BRANCH   8   9
ATOM      9  C   UNL     1      19.170   9.251  30.388  1.00  0.00     0.000 C 
BRANCH   9  10
ATOM     10  C   UNL     1      18.208   9.255  31.590  1.00  0.00     0.000 C 
BRANCH  10  11
ATOM     11  C   UNL     1      18.790   8.682  32.898  1.00  0.00     0.000 C 
BRANCH  11  12
ATOM     12  C   UNL     1      18.643   9.591  34.132  1.00  0.00     0.000 C 
BRANCH  12  13
ATOM     13  C   UNL     1      19.349   9.024  35.375  1.00  0.00     0.006 C 
BRANCH  13  14
ATOM     14  C   UNL     1      18.462   8.038  36.147  1.00  0.00     0.053 C 
BRANCH  14  15
ATOM     15  C   UNL     1      19.221   7.327  37.225  1.00  0.00     0.041 C 
ATOM     16  O   UNL     1      19.692   7.972  38.200  1.00  0.00    -0.550 OA
ATOM     17  O   UNL     1      19.410   5.952  37.153  1.00  0.00    -0.550 OA
ENDBRANCH  14  15
ENDBRANCH  13  14
ENDBRANCH  12  13
ENDBRANCH  11  12
ENDBRANCH  10  11
ENDBRANCH   9  10
ENDBRANCH   8   9
ENDBRANCH   7   8
ENDBRANCH   6   7
ENDBRANCH   5   6
ENDBRANCH   4   5
ENDBRANCH   3   4
ENDBRANCH   2   3
ENDBRANCH   1   2
BRANCH   1  18
ATOM     18  C   UNL     1      20.417  14.205  33.740  1.00  0.00     0.000 C 
BRANCH  18  19
ATOM     19  C   UNL     1      21.617  13.318  34.119  1.00  0.00     0.000 C 
BRANCH  19  20
ATOM     20  C   UNL     1      21.234  11.985  34.799  1.00  0.00     0.000 C 
BRANCH  20  21
ATOM     21  C   UNL     1      22.296  11.403  35.757  1.00  0.00     0.000 C 
BRANCH  21  22
ATOM     22  C   UNL     1      23.659  11.060  35.125  1.00  0.00     0.000 C 
BRANCH  22  23
ATOM     23  C   UNL     1      24.854  11.438  36.016  1.00  0.00     0.000 C 
BRANCH  23  24
ATOM     24  C   UNL     1      25.422  12.828  35.686  1.00  0.00    -0.000 C 
BRANCH  24  25
ATOM     25  C   UNL     1      26.247  12.843  34.387  1.00  0.00    -0.000 C 
BRANCH  25  26
ATOM     26  C   UNL     1      26.976  11.513  34.139  1.00  0.00    -0.000 C 
BRANCH  26  27
ATOM     27  C   UNL     1      27.943  11.581  32.945  1.00  0.00    -0.000 C 
BRANCH  27  28
ATOM     28  C   UNL     1      27.689  12.802  32.042  1.00  0.00    -0.000 C 
BRANCH  28  29
ATOM     29  C   UNL     1      26.988  12.485  30.707  1.00  0.00    -0.000 C 
BRANCH  29  30
ATOM     30  C   UNL     1      26.130  13.629  30.129  1.00  0.00    -0.000 C 
BRANCH  30  31
ATOM     31  C   UNL     1      24.614  13.369  30.140  1.00  0.00    -0.003 C 
ATOM     32  C   UNL     1      24.250  11.989  30.685  1.00  0.00     0.004 C 
ENDBRANCH  30  31
ENDBRANCH  29  30
ENDBRANCH  28  29
ENDBRANCH  27  28
ENDBRANCH  26  27
ENDBRANCH  25  26
ENDBRANCH  24  25
ENDBRANCH  23  24
ENDBRANCH  22  23
ENDBRANCH  21  22
ENDBRANCH  20  21
ENDBRANCH  19  20
ENDBRANCH  18  19
ENDBRANCH   1  18
TORSDOF 28
ENDMDL
MODEL 9
REMARK VINA RESULT:    -3.497     17.077     20.831
REMARK INTER + INTRA:         -13.792
REMARK INTER:                  -9.171
REMARK INTRA:                  -4.620
REMARK UNBOUND:                -4.570
REMARK SMILES CCCCCCCCCCCCCCCCCCCCCCCCCCCCCC(=O)[O-]
REMARK SMILES IDX 16 1 17 2 18 3 19 4 20 5 21 6 22 7 23 8 24 9 25 10 26 11
REMARK SMILES IDX 27 12 28 13 29 14 30 15 31 16 32 17 15 18 14 19 13 20 12 21
REMARK SMILES IDX 11 22 10 23 9 24 8 25 7 26 6 27 5 28 4 29 3 30 2 31 1 32
REMARK H PARENT
REMARK Flexibility Score: inf
ROOT
ATOM      1  C   UNL     1      37.009  11.948  46.003  1.00  0.00     0.000 C 
ENDROOT
BRANCH   1   2
ATOM      2  C   UNL     1      37.553  12.525  47.321  1.00  0.00     0.000 C 
BRANCH   2   3
ATOM      3  C   UNL     1      37.344  11.581  48.518  1.00  0.00     0.000 C 
BRANCH   3   4
ATOM      4  C   UNL     1      36.295  12.053  49.545  1.00  0.00     0.000 C 
BRANCH   4   5
ATOM      5  C   UNL     1      36.096  13.578  49.623  1.00  0.00     0.000 C 
BRANCH   5   6
ATOM      6  C   UNL     1      34.703  14.027  49.155  1.00  0.00     0.000 C 
BRANCH   6   7
ATOM      7  C   UNL     1      34.117  15.084  50.105  1.00  0.00     0.000 C 
BRANCH   7   8
ATOM      8  C   UNL     1      33.079  15.990  49.424  1.00  0.00     0.000 C 
BRANCH   8   9
ATOM      9  C   UNL     1      33.717  17.010  48.465  1.00  0.00     0.000 C 
BRANCH   9  10
ATOM     10  C   UNL     1      34.479  18.127  49.202  1.00  0.00     0.000 C 
BRANCH  10  11
ATOM     11  C   UNL     1      35.938  18.335  48.751  1.00  0.00     0.000 C 
BRANCH  11  12
ATOM     12  C   UNL     1      36.916  17.222  49.169  1.00  0.00     0.000 C 
BRANCH  12  13
ATOM     13  C   UNL     1      37.609  16.557  47.967  1.00  0.00     0.006 C 
BRANCH  13  14
ATOM     14  C   UNL     1      36.993  16.991  46.630  1.00  0.00     0.053 C 
BRANCH  14  15
ATOM     15  C   UNL     1      36.669  15.818  45.755  1.00  0.00     0.041 C 
ATOM     16  O   UNL     1      37.465  15.468  44.843  1.00  0.00    -0.550 OA
ATOM     17  O   UNL     1      35.487  15.112  45.947  1.00  0.00    -0.550 OA
ENDBRANCH  14  15
ENDBRANCH  13  14
ENDBRANCH  12  13
ENDBRANCH  11  12
ENDBRANCH  10  11
ENDBRANCH   9  10
ENDBRANCH   8   9
ENDBRANCH   7   8
ENDBRANCH   6   7
ENDBRANCH   5   6
ENDBRANCH   4   5
ENDBRANCH   3   4
ENDBRANCH   2   3
ENDBRANCH   1   2
BRANCH   1  18
ATOM     18  C   UNL     1      35.482  11.742  46.052  1.00  0.00     0.000 C 
BRANCH  18  19
ATOM     19  C   UNL     1      35.027  10.325  45.657  1.00  0.00     0.000 C 
BRANCH  19  20
ATOM     20  C   UNL     1      34.268  10.251  44.314  1.00  0.00     0.000 C 
BRANCH  20  21
ATOM     21  C   UNL     1      33.990   8.825  43.791  1.00  0.00     0.000 C 
BRANCH  21  22
ATOM     22  C   UNL     1      34.363   7.672  44.743  1.00  0.00     0.000 C 
BRANCH  22  23
ATOM     23  C   UNL     1      33.201   7.230  45.648  1.00  0.00     0.000 C 
BRANCH  23  24
ATOM     24  C   UNL     1      33.679   6.462  46.891  1.00  0.00    -0.000 C 
BRANCH  24  25
ATOM     25  C   UNL     1      32.520   5.836  47.687  1.00  0.00    -0.000 C 
BRANCH  25  26
ATOM     26  C   UNL     1      31.144   6.267  47.158  1.00  0.00    -0.000 C 
BRANCH  26  27
ATOM     27  C   UNL     1      30.214   6.781  48.270  1.00  0.00    -0.000 C 
BRANCH  27  28
ATOM     28  C   UNL     1      30.968   7.103  49.574  1.00  0.00    -0.000 C 
BRANCH  28  29
ATOM     29  C   UNL     1      31.144   8.606  49.866  1.00  0.00    -0.000 C 
BRANCH  29  30
ATOM     30  C   UNL     1      31.345   9.497  48.624  1.00  0.00    -0.000 C 
BRANCH  30  31
ATOM     31  C   UNL     1      32.769  10.050  48.448  1.00  0.00    -0.003 C 
ATOM     32  C   UNL     1      33.809   9.289  49.269  1.00  0.00     0.004 C 
ENDBRANCH  30  31
ENDBRANCH  29  30
ENDBRANCH  28  29
ENDBRANCH  27  28
ENDBRANCH  26  27
ENDBRANCH  25  26
ENDBRANCH  24  25
ENDBRANCH  23  24
ENDBRANCH  22  23
ENDBRANCH  21  22
ENDBRANCH  20  21
ENDBRANCH  19  20
ENDBRANCH  18  19
ENDBRANCH   1  18
TORSDOF 28
ENDMDL
