MODEL 1
REMARK VINA RESULT:    -4.611      0.000      0.000
REMARK INTER + INTRA:          -7.230
REMARK INTER:                  -6.094
REMARK INTRA:                  -1.137
REMARK UNBOUND:                -1.137
REMARK SMILES CC[C@H](C=C[C@H](C)[C@@H]1CC[C@H]2C3=CC[C@@H]4C[C@H](O)CC[C@]4(C)[C@H]3CC[C@]21C)C(C)C
REMARK SMILES IDX 6 1 7 2 5 3 4 4 3 5 2 6 1 7 28 8 29 9 30 10 8 11 9 12 26 13
REMARK SMILES IDX 10 14 11 15 25 16 27 17 12 18 24 19 23 20 13 21 21 22 14 23
REMARK SMILES IDX 15 24 20 25 22 26 16 27 19 28 17 29 18 30
REMARK H PARENT 18 31
REMARK Flexibility Score: inf
ROOT
ATOM      1  C   UNL     1       9.463  10.087  -7.008  1.00  0.00     0.012 C 
ATOM      2  C   UNL     1       9.122  10.007  -5.501  1.00  0.00     0.012 C 
ENDROOT
BRANCH   1   3
ATOM      3  C   UNL     1      10.665  10.979  -7.294  1.00  0.00    -0.028 C 
ATOM      4  C   UNL     1      11.477  11.467  -6.315  1.00  0.00    -0.027 C 
BRANCH   4   5
ATOM      5  C   UNL     1      12.874  12.070  -6.484  1.00  0.00     0.014 C 
BRANCH   5   6
ATOM      6  C   UNL     1      13.279  12.186  -7.966  1.00  0.00     0.004 C 
ATOM      7  C   UNL     1      14.648  11.548  -8.251  1.00  0.00     0.004 C 
ENDBRANCH   5   6
BRANCH   5   8
ATOM      8  C   UNL     1      12.990  13.454  -5.736  1.00  0.00    -0.011 C 
ATOM      9  C   UNL     1      14.390  13.727  -5.169  1.00  0.00     0.008 C 
ATOM     10  C   UNL     1      11.917  13.574  -4.623  1.00  0.00     0.008 C 
ENDBRANCH   5   8
ENDBRANCH   4   5
ENDBRANCH   1   3
BRANCH   1  11
ATOM     11  C   UNL     1       9.589   8.662  -7.625  1.00  0.00     0.002 C 
ATOM     12  C   UNL     1      10.979   8.290  -8.154  1.00  0.00     0.005 C 
ATOM     13  C   UNL     1       8.634   8.304  -8.800  1.00  0.00    -0.023 C 
ATOM     14  C   UNL     1      10.767   6.998  -8.900  1.00  0.00     0.009 C 
ATOM     15  C   UNL     1       9.337   7.091  -9.491  1.00  0.00     0.021 C 
ATOM     16  C   UNL     1       7.187   7.952  -8.318  1.00  0.00     0.008 C 
ATOM     17  C   UNL     1       8.525   9.457  -9.832  1.00  0.00     0.012 C 
ATOM     18  C   UNL     1       8.648   5.736  -9.376  1.00  0.00    -0.067 C 
ATOM     19  C   UNL     1       7.117   6.634  -7.540  1.00  0.00     0.009 C 
ATOM     20  C   UNL     1       7.492   5.438  -8.427  1.00  0.00     0.021 C 
ATOM     21  C   UNL     1       9.105   4.724 -10.129  1.00  0.00    -0.027 C 
ATOM     22  C   UNL     1       7.761   4.053  -7.680  1.00  0.00    -0.023 C 
ATOM     23  C   UNL     1       8.402   3.371 -10.162  1.00  0.00     0.031 C 
ATOM     24  C   UNL     1       7.729   2.947  -8.817  1.00  0.00     0.002 C 
ATOM     25  C   UNL     1       6.737   3.767  -6.502  1.00  0.00     0.010 C 
ATOM     26  C   UNL     1       9.184   4.024  -7.014  1.00  0.00     0.012 C 
ATOM     27  C   UNL     1       6.300   2.437  -9.132  1.00  0.00     0.036 C 
ATOM     28  C   UNL     1       5.373   3.200  -6.944  1.00  0.00     0.032 C 
ATOM     29  C   UNL     1       5.577   1.985  -7.860  1.00  0.00     0.114 C 
BRANCH  29  30
ATOM     30  O   UNL     1       4.326   1.399  -8.164  1.00  0.00    -0.393 OA
ATOM     31  H   UNL     1       4.217   1.460  -9.161  1.00  0.00     0.210 HD
ENDBRANCH  29  30
ENDBRANCH   1  11
TORSDOF 6
ENDMDL
MODEL 2
REMARK VINA RESULT:    -4.416      3.143      5.136
REMARK INTER + INTRA:          -6.972
REMARK INTER:                  -5.693
REMARK INTRA:                  -1.280
REMARK UNBOUND:                -1.137
REMARK SMILES CC[C@H](C=C[C@H](C)[C@@H]1CC[C@H]2C3=CC[C@@H]4C[C@H](O)CC[C@]4(C)[C@H]3CC[C@]21C)C(C)C
REMARK SMILES IDX 6 1 7 2 5 3 4 4 3 5 2 6 1 7 28 8 29 9 30 10 8 11 9 12 26 13
REMARK SMILES IDX 10 14 11 15 25 16 27 17 12 18 24 19 23 20 13 21 21 22 14 23
REMARK SMILES IDX 15 24 20 25 22 26 16 27 19 28 17 29 18 30
REMARK H PARENT 18 31
REMARK Flexibility Score: inf
ROOT
ATOM      1  C   UNL     1       5.991   9.717  -4.114  1.00  0.00     0.012 C 
ATOM      2  C   UNL     1       6.112   8.450  -3.235  1.00  0.00     0.012 C 
ENDROOT
BRANCH   1   3
ATOM      3  C   UNL     1       6.279  11.000  -3.345  1.00  0.00    -0.028 C 
ATOM      4  C   UNL     1       6.918  11.014  -2.142  1.00  0.00    -0.027 C 
BRANCH   4   5
ATOM      5  C   UNL     1       7.558  12.220  -1.447  1.00  0.00     0.014 C 
BRANCH   5   6
ATOM      6  C   UNL     1       7.100  12.355   0.017  1.00  0.00     0.004 C 
ATOM      7  C   UNL     1       6.458  11.065   0.552  1.00  0.00     0.004 C 
ENDBRANCH   5   6
BRANCH   5   8
ATOM      8  C   UNL     1       9.130  12.178  -1.568  1.00  0.00    -0.011 C 
ATOM      9  C   UNL     1       9.847  13.042  -0.522  1.00  0.00     0.008 C 
ATOM     10  C   UNL     1       9.587  12.561  -3.000  1.00  0.00     0.008 C 
ENDBRANCH   5   8
ENDBRANCH   4   5
ENDBRANCH   1   3
BRANCH   1  11
ATOM     11  C   UNL     1       6.837   9.572  -5.415  1.00  0.00     0.002 C 
ATOM     12  C   UNL     1       7.681  10.793  -5.795  1.00  0.00     0.005 C 
ATOM     13  C   UNL     1       6.078   9.221  -6.727  1.00  0.00    -0.023 C 
ATOM     14  C   UNL     1       8.188  10.488  -7.181  1.00  0.00     0.009 C 
ATOM     15  C   UNL     1       7.070   9.653  -7.855  1.00  0.00     0.021 C 
ATOM     16  C   UNL     1       5.701   7.704  -6.820  1.00  0.00     0.008 C 
ATOM     17  C   UNL     1       4.774  10.046  -6.883  1.00  0.00     0.012 C 
ATOM     18  C   UNL     1       7.697   8.540  -8.687  1.00  0.00    -0.067 C 
ATOM     19  C   UNL     1       6.919   6.792  -6.995  1.00  0.00     0.009 C 
ATOM     20  C   UNL     1       7.634   7.059  -8.328  1.00  0.00     0.021 C 
ATOM     21  C   UNL     1       8.380   8.879  -9.792  1.00  0.00    -0.027 C 
ATOM     22  C   UNL     1       9.081   6.409  -8.504  1.00  0.00    -0.023 C 
ATOM     23  C   UNL     1       8.937   7.824 -10.742  1.00  0.00     0.031 C 
ATOM     24  C   UNL     1       9.400   6.500 -10.056  1.00  0.00     0.002 C 
ATOM     25  C   UNL     1       9.178   4.931  -7.933  1.00  0.00     0.010 C 
ATOM     26  C   UNL     1      10.180   7.227  -7.734  1.00  0.00     0.012 C 
ATOM     27  C   UNL     1       8.826   5.310 -10.867  1.00  0.00     0.036 C 
ATOM     28  C   UNL     1       8.632   3.832  -8.865  1.00  0.00     0.032 C 
ATOM     29  C   UNL     1       9.250   3.968 -10.263  1.00  0.00     0.114 C 
BRANCH  29  30
ATOM     30  O   UNL     1       8.837   2.888 -11.078  1.00  0.00    -0.393 OA
ATOM     31  H   UNL     1       9.081   3.132 -12.021  1.00  0.00     0.210 HD
ENDBRANCH  29  30
ENDBRANCH   1  11
TORSDOF 6
ENDMDL
MODEL 3
REMARK VINA RESULT:    -4.345      2.554      3.772
REMARK INTER + INTRA:          -6.879
REMARK INTER:                  -5.731
REMARK INTRA:                  -1.147
REMARK UNBOUND:                -1.137
REMARK SMILES CC[C@H](C=C[C@H](C)[C@@H]1CC[C@H]2C3=CC[C@@H]4C[C@H](O)CC[C@]4(C)[C@H]3CC[C@]21C)C(C)C
REMARK SMILES IDX 6 1 7 2 5 3 4 4 3 5 2 6 1 7 28 8 29 9 30 10 8 11 9 12 26 13
REMARK SMILES IDX 10 14 11 15 25 16 27 17 12 18 24 19 23 20 13 21 21 22 14 23
REMARK SMILES IDX 15 24 20 25 22 26 16 27 19 28 17 29 18 30
REMARK H PARENT 18 31
REMARK Flexibility Score: inf
ROOT
ATOM      1  C   UNL     1       6.889   9.523  -5.027  1.00  0.00     0.012 C 
ATOM      2  C   UNL     1       6.292   8.556  -3.977  1.00  0.00     0.012 C 
ENDROOT
BRANCH   1   3
ATOM      3  C   UNL     1       7.618  10.703  -4.396  1.00  0.00    -0.028 C 
ATOM      4  C   UNL     1       7.957  10.745  -3.077  1.00  0.00    -0.027 C 
BRANCH   4   5
ATOM      5  C   UNL     1       8.963  11.686  -2.409  1.00  0.00     0.014 C 
BRANCH   5   6
ATOM      6  C   UNL     1       9.510  12.741  -3.390  1.00  0.00     0.004 C 
ATOM      7  C   UNL     1       8.661  14.022  -3.407  1.00  0.00     0.004 C 
ENDBRANCH   5   6
BRANCH   5   8
ATOM      8  C   UNL     1       8.348  12.351  -1.117  1.00  0.00    -0.011 C 
ATOM      9  C   UNL     1       9.403  12.781  -0.089  1.00  0.00     0.008 C 
ATOM     10  C   UNL     1       7.294  11.421  -0.463  1.00  0.00     0.008 C 
ENDBRANCH   5   8
ENDBRANCH   4   5
ENDBRANCH   1   3
BRANCH   1  11
ATOM     11  C   UNL     1       7.752   8.748  -6.068  1.00  0.00     0.002 C 
ATOM     12  C   UNL     1       9.189   9.252  -6.244  1.00  0.00     0.005 C 
ATOM     13  C   UNL     1       7.207   8.658  -7.523  1.00  0.00    -0.023 C 
ATOM     14  C   UNL     1       9.705   8.512  -7.451  1.00  0.00     0.009 C 
ATOM     15  C   UNL     1       8.474   8.311  -8.370  1.00  0.00     0.021 C 
ATOM     16  C   UNL     1       6.079   7.586  -7.682  1.00  0.00     0.008 C 
ATOM     17  C   UNL     1       6.647  10.017  -8.019  1.00  0.00     0.012 C 
ATOM     18  C   UNL     1       8.527   6.922  -8.997  1.00  0.00    -0.067 C 
ATOM     19  C   UNL     1       6.588   6.150  -7.526  1.00  0.00     0.009 C 
ATOM     20  C   UNL     1       7.580   5.782  -8.638  1.00  0.00     0.021 C 
ATOM     21  C   UNL     1       9.488   6.666  -9.898  1.00  0.00    -0.027 C 
ATOM     22  C   UNL     1       8.419   4.440  -8.430  1.00  0.00    -0.023 C 
ATOM     23  C   UNL     1       9.541   5.345 -10.657  1.00  0.00     0.031 C 
ATOM     24  C   UNL     1       9.038   4.104  -9.853  1.00  0.00     0.002 C 
ATOM     25  C   UNL     1       7.560   3.250  -7.827  1.00  0.00     0.010 C 
ATOM     26  C   UNL     1       9.606   4.652  -7.422  1.00  0.00     0.012 C 
ATOM     27  C   UNL     1       8.076   3.297 -10.761  1.00  0.00     0.036 C 
ATOM     28  C   UNL     1       6.695   2.485  -8.847  1.00  0.00     0.032 C 
ATOM     29  C   UNL     1       7.550   2.049 -10.045  1.00  0.00     0.114 C 
BRANCH  29  30
ATOM     30  O   UNL     1       6.779   1.247 -10.918  1.00  0.00    -0.393 OA
ATOM     31  H   UNL     1       7.387   0.519 -11.248  1.00  0.00     0.210 HD
ENDBRANCH  29  30
ENDBRANCH   1  11
TORSDOF 6
ENDMDL
MODEL 4
REMARK VINA RESULT:    -4.337      3.724      8.491
REMARK INTER + INTRA:          -6.868
REMARK INTER:                  -5.462
REMARK INTRA:                  -1.406
REMARK UNBOUND:                -1.137
REMARK SMILES CC[C@H](C=C[C@H](C)[C@@H]1CC[C@H]2C3=CC[C@@H]4C[C@H](O)CC[C@]4(C)[C@H]3CC[C@]21C)C(C)C
REMARK SMILES IDX 6 1 7 2 5 3 4 4 3 5 2 6 1 7 28 8 29 9 30 10 8 11 9 12 26 13
REMARK SMILES IDX 10 14 11 15 25 16 27 17 12 18 24 19 23 20 13 21 21 22 14 23
REMARK SMILES IDX 15 24 20 25 22 26 16 27 19 28 17 29 18 30
REMARK H PARENT 18 31
REMARK Flexibility Score: inf
ROOT
ATOM      1  C   UNL     1       9.632   7.901  -8.863  1.00  0.00     0.012 C 
ATOM      2  C   UNL     1      11.014   7.953  -8.171  1.00  0.00     0.012 C 
ENDROOT
BRANCH   1   3
ATOM      3  C   UNL     1       9.336   6.545  -9.491  1.00  0.00    -0.028 C 
ATOM      4  C   UNL     1       9.715   5.367  -8.922  1.00  0.00    -0.027 C 
BRANCH   4   5
ATOM      5  C   UNL     1       9.197   3.966  -9.260  1.00  0.00     0.014 C 
BRANCH   5   6
ATOM      6  C   UNL     1       9.181   3.041  -8.028  1.00  0.00     0.004 C 
ATOM      7  C   UNL     1       9.743   3.727  -6.773  1.00  0.00     0.004 C 
ENDBRANCH   5   6
BRANCH   5   8
ATOM      8  C   UNL     1       7.783   4.035  -9.959  1.00  0.00    -0.011 C 
ATOM      9  C   UNL     1       6.612   4.053  -8.968  1.00  0.00     0.008 C 
ATOM     10  C   UNL     1       7.615   2.884 -10.984  1.00  0.00     0.008 C 
ENDBRANCH   5   8
ENDBRANCH   4   5
ENDBRANCH   1   3
BRANCH   1  11
ATOM     11  C   UNL     1       8.510   8.396  -7.901  1.00  0.00     0.002 C 
ATOM     12  C   UNL     1       7.173   7.654  -8.006  1.00  0.00     0.005 C 
ATOM     13  C   UNL     1       8.111   9.898  -7.979  1.00  0.00    -0.023 C 
ATOM     14  C   UNL     1       6.220   8.471  -7.172  1.00  0.00     0.009 C 
ATOM     15  C   UNL     1       6.695   9.938  -7.318  1.00  0.00     0.021 C 
ATOM     16  C   UNL     1       9.131  10.833  -7.248  1.00  0.00     0.008 C 
ATOM     17  C   UNL     1       7.980  10.389  -9.444  1.00  0.00     0.012 C 
ATOM     18  C   UNL     1       6.580  10.648  -5.974  1.00  0.00    -0.067 C 
ATOM     19  C   UNL     1       9.121  10.660  -5.726  1.00  0.00     0.009 C 
ATOM     20  C   UNL     1       7.771  11.073  -5.122  1.00  0.00     0.021 C 
ATOM     21  C   UNL     1       5.354  10.888  -5.484  1.00  0.00    -0.027 C 
ATOM     22  C   UNL     1       7.513  10.658  -3.603  1.00  0.00    -0.023 C 
ATOM     23  C   UNL     1       5.147  11.695  -4.207  1.00  0.00     0.031 C 
ATOM     24  C   UNL     1       6.269  11.526  -3.133  1.00  0.00     0.002 C 
ATOM     25  C   UNL     1       8.787  10.843  -2.677  1.00  0.00     0.010 C 
ATOM     26  C   UNL     1       7.121   9.141  -3.478  1.00  0.00     0.012 C 
ATOM     27  C   UNL     1       6.667  12.935  -2.624  1.00  0.00     0.036 C 
ATOM     28  C   UNL     1       9.035  12.282  -2.183  1.00  0.00     0.032 C 
ATOM     29  C   UNL     1       7.757  12.852  -1.552  1.00  0.00     0.114 C 
BRANCH  29  30
ATOM     30  O   UNL     1       8.024  14.124  -0.995  1.00  0.00    -0.393 OA
ATOM     31  H   UNL     1       7.293  14.304  -0.330  1.00  0.00     0.210 HD
ENDBRANCH  29  30
ENDBRANCH   1  11
TORSDOF 6
ENDMDL
MODEL 5
REMARK VINA RESULT:    -4.305      3.366      9.728
REMARK INTER + INTRA:          -6.826
REMARK INTER:                  -5.800
REMARK INTRA:                  -1.026
REMARK UNBOUND:                -1.137
REMARK SMILES CC[C@H](C=C[C@H](C)[C@@H]1CC[C@H]2C3=CC[C@@H]4C[C@H](O)CC[C@]4(C)[C@H]3CC[C@]21C)C(C)C
REMARK SMILES IDX 6 1 7 2 5 3 4 4 3 5 2 6 1 7 28 8 29 9 30 10 8 11 9 12 26 13
REMARK SMILES IDX 10 14 11 15 25 16 27 17 12 18 24 19 23 20 13 21 21 22 14 23
REMARK SMILES IDX 15 24 20 25 22 26 16 27 19 28 17 29 18 30
REMARK H PARENT 18 31
REMARK Flexibility Score: inf
ROOT
ATOM      1  C   UNL     1       6.759   2.028  -8.945  1.00  0.00     0.012 C 
ATOM      2  C   UNL     1       5.236   2.281  -9.058  1.00  0.00     0.012 C 
ENDROOT
BRANCH   1   3
ATOM      3  C   UNL     1       7.230   0.866  -9.809  1.00  0.00    -0.028 C 
ATOM      4  C   UNL     1       7.567  -0.350  -9.295  1.00  0.00    -0.027 C 
BRANCH   4   5
ATOM      5  C   UNL     1       7.721  -1.669 -10.059  1.00  0.00     0.014 C 
BRANCH   5   6
ATOM      6  C   UNL     1       8.778  -2.589  -9.419  1.00  0.00     0.004 C 
ATOM      7  C   UNL     1       9.995  -2.808 -10.332  1.00  0.00     0.004 C 
ENDBRANCH   5   6
BRANCH   5   8
ATOM      8  C   UNL     1       6.331  -2.398 -10.221  1.00  0.00    -0.011 C 
ATOM      9  C   UNL     1       5.419  -2.254  -8.996  1.00  0.00     0.008 C 
ATOM     10  C   UNL     1       6.529  -3.892 -10.584  1.00  0.00     0.008 C 
ENDBRANCH   5   8
ENDBRANCH   4   5
ENDBRANCH   1   3
BRANCH   1  11
ATOM     11  C   UNL     1       7.559   3.343  -9.187  1.00  0.00     0.002 C 
ATOM     12  C   UNL     1       8.284   3.439 -10.534  1.00  0.00     0.005 C 
ATOM     13  C   UNL     1       8.653   3.717  -8.146  1.00  0.00    -0.023 C 
ATOM     14  C   UNL     1       9.156   4.662 -10.409  1.00  0.00     0.009 C 
ATOM     15  C   UNL     1       9.565   4.727  -8.915  1.00  0.00     0.021 C 
ATOM     16  C   UNL     1       8.058   4.336  -6.838  1.00  0.00     0.008 C 
ATOM     17  C   UNL     1       9.515   2.491  -7.744  1.00  0.00     0.012 C 
ATOM     18  C   UNL     1       9.542   6.176  -8.443  1.00  0.00    -0.067 C 
ATOM     19  C   UNL     1       7.448   5.725  -7.054  1.00  0.00     0.009 C 
ATOM     20  C   UNL     1       8.513   6.748  -7.473  1.00  0.00     0.021 C 
ATOM     21  C   UNL     1      10.463   7.020  -8.935  1.00  0.00    -0.027 C 
ATOM     22  C   UNL     1       7.980   8.146  -8.028  1.00  0.00    -0.023 C 
ATOM     23  C   UNL     1      10.584   8.454  -8.429  1.00  0.00     0.031 C 
ATOM     24  C   UNL     1       9.235   9.117  -8.003  1.00  0.00     0.002 C 
ATOM     25  C   UNL     1       6.739   8.710  -7.216  1.00  0.00     0.010 C 
ATOM     26  C   UNL     1       7.488   8.027  -9.516  1.00  0.00     0.012 C 
ATOM     27  C   UNL     1       9.448   9.804  -6.630  1.00  0.00     0.036 C 
ATOM     28  C   UNL     1       7.091   9.430  -5.899  1.00  0.00     0.032 C 
ATOM     29  C   UNL     1       8.168  10.494  -6.149  1.00  0.00     0.114 C 
BRANCH  29  30
ATOM     30  O   UNL     1       8.399  11.230  -4.964  1.00  0.00    -0.393 OA
ATOM     31  H   UNL     1       9.347  11.559  -5.012  1.00  0.00     0.210 HD
ENDBRANCH  29  30
ENDBRANCH   1  11
TORSDOF 6
ENDMDL
MODEL 6
REMARK VINA RESULT:    -4.251      1.973      3.816
REMARK INTER + INTRA:          -6.754
REMARK INTER:                  -6.279
REMARK INTRA:                  -0.475
REMARK UNBOUND:                -1.137
REMARK SMILES CC[C@H](C=C[C@H](C)[C@@H]1CC[C@H]2C3=CC[C@@H]4C[C@H](O)CC[C@]4(C)[C@H]3CC[C@]21C)C(C)C
REMARK SMILES IDX 6 1 7 2 5 3 4 4 3 5 2 6 1 7 28 8 29 9 30 10 8 11 9 12 26 13
REMARK SMILES IDX 10 14 11 15 25 16 27 17 12 18 24 19 23 20 13 21 21 22 14 23
REMARK SMILES IDX 15 24 20 25 22 26 16 27 19 28 17 29 18 30
REMARK H PARENT 18 31
REMARK Flexibility Score: inf
ROOT
ATOM      1  C   UNL     1       9.876  10.065  -6.525  1.00  0.00     0.012 C 
ATOM      2  C   UNL     1      10.084  11.249  -7.499  1.00  0.00     0.012 C 
ENDROOT
BRANCH   1   3
ATOM      3  C   UNL     1       8.724  10.294  -5.555  1.00  0.00    -0.028 C 
ATOM      4  C   UNL     1       8.619   9.643  -4.363  1.00  0.00    -0.027 C 
BRANCH   4   5
ATOM      5  C   UNL     1       7.726  10.019  -3.177  1.00  0.00     0.014 C 
BRANCH   5   6
ATOM      6  C   UNL     1       7.867  11.505  -2.795  1.00  0.00     0.004 C 
ATOM      7  C   UNL     1       9.209  11.811  -2.112  1.00  0.00     0.004 C 
ENDBRANCH   5   6
BRANCH   5   8
ATOM      8  C   UNL     1       6.223   9.624  -3.449  1.00  0.00    -0.011 C 
ATOM      9  C   UNL     1       5.262  10.077  -2.342  1.00  0.00     0.008 C 
ATOM     10  C   UNL     1       6.088   8.100  -3.700  1.00  0.00     0.008 C 
ENDBRANCH   5   8
ENDBRANCH   4   5
ENDBRANCH   1   3
BRANCH   1  11
ATOM     11  C   UNL     1       9.772   8.719  -7.303  1.00  0.00     0.002 C 
ATOM     12  C   UNL     1      11.009   8.328  -8.119  1.00  0.00     0.005 C 
ATOM     13  C   UNL     1       8.596   8.562  -8.309  1.00  0.00    -0.023 C 
ATOM     14  C   UNL     1      10.562   7.149  -8.944  1.00  0.00     0.009 C 
ATOM     15  C   UNL     1       9.063   7.399  -9.244  1.00  0.00     0.021 C 
ATOM     16  C   UNL     1       7.235   8.244  -7.605  1.00  0.00     0.008 C 
ATOM     17  C   UNL     1       8.399   9.834  -9.175  1.00  0.00     0.012 C 
ATOM     18  C   UNL     1       8.297   6.085  -9.146  1.00  0.00    -0.067 C 
ATOM     19  C   UNL     1       7.198   6.850  -6.971  1.00  0.00     0.009 C 
ATOM     20  C   UNL     1       7.309   5.747  -8.034  1.00  0.00     0.021 C 
ATOM     21  C   UNL     1       8.527   5.143 -10.074  1.00  0.00    -0.027 C 
ATOM     22  C   UNL     1       7.593   4.270  -7.502  1.00  0.00    -0.023 C 
ATOM     23  C   UNL     1       7.721   3.850 -10.118  1.00  0.00     0.031 C 
ATOM     24  C   UNL     1       7.267   3.310  -8.724  1.00  0.00     0.002 C 
ATOM     25  C   UNL     1       6.776   3.908  -6.191  1.00  0.00     0.010 C 
ATOM     26  C   UNL     1       9.105   4.074  -7.121  1.00  0.00     0.012 C 
ATOM     27  C   UNL     1       5.768   2.930  -8.818  1.00  0.00     0.036 C 
ATOM     28  C   UNL     1       5.314   3.482  -6.427  1.00  0.00     0.032 C 
ATOM     29  C   UNL     1       5.250   2.375  -7.488  1.00  0.00     0.114 C 
BRANCH  29  30
ATOM     30  O   UNL     1       3.921   1.906  -7.613  1.00  0.00    -0.393 OA
ATOM     31  H   UNL     1       3.978   0.994  -8.029  1.00  0.00     0.210 HD
ENDBRANCH  29  30
ENDBRANCH   1  11
TORSDOF 6
ENDMDL
MODEL 7
REMARK VINA RESULT:    -4.080      3.222      9.420
REMARK INTER + INTRA:          -6.529
REMARK INTER:                  -5.316
REMARK INTRA:                  -1.213
REMARK UNBOUND:                -1.137
REMARK SMILES CC[C@H](C=C[C@H](C)[C@@H]1CC[C@H]2C3=CC[C@@H]4C[C@H](O)CC[C@]4(C)[C@H]3CC[C@]21C)C(C)C
REMARK SMILES IDX 6 1 7 2 5 3 4 4 3 5 2 6 1 7 28 8 29 9 30 10 8 11 9 12 26 13
REMARK SMILES IDX 10 14 11 15 25 16 27 17 12 18 24 19 23 20 13 21 21 22 14 23
REMARK SMILES IDX 15 24 20 25 22 26 16 27 19 28 17 29 18 30
REMARK H PARENT 18 31
REMARK Flexibility Score: inf
ROOT
ATOM      1  C   UNL     1       9.018   3.423  -8.300  1.00  0.00     0.012 C 
ATOM      2  C   UNL     1       9.975   3.353  -7.087  1.00  0.00     0.012 C 
ENDROOT
BRANCH   1   3
ATOM      3  C   UNL     1       7.924   2.363  -8.251  1.00  0.00    -0.028 C 
ATOM      4  C   UNL     1       7.566   1.617  -9.334  1.00  0.00    -0.027 C 
BRANCH   4   5
ATOM      5  C   UNL     1       6.749   0.322  -9.337  1.00  0.00     0.014 C 
BRANCH   5   6
ATOM      6  C   UNL     1       5.342   0.526  -9.930  1.00  0.00     0.004 C 
ATOM      7  C   UNL     1       5.197   1.879 -10.644  1.00  0.00     0.004 C 
ENDBRANCH   5   6
BRANCH   5   8
ATOM      8  C   UNL     1       7.529  -0.840 -10.066  1.00  0.00    -0.011 C 
ATOM      9  C   UNL     1       6.622  -1.755 -10.899  1.00  0.00     0.008 C 
ATOM     10  C   UNL     1       8.360  -1.669  -9.053  1.00  0.00     0.008 C 
ENDBRANCH   5   8
ENDBRANCH   4   5
ENDBRANCH   1   3
BRANCH   1  11
ATOM     11  C   UNL     1       8.471   4.869  -8.493  1.00  0.00     0.002 C 
ATOM     12  C   UNL     1       6.944   5.002  -8.513  1.00  0.00     0.005 C 
ATOM     13  C   UNL     1       8.929   5.644  -9.762  1.00  0.00    -0.023 C 
ATOM     14  C   UNL     1       6.693   6.422  -8.950  1.00  0.00     0.009 C 
ATOM     15  C   UNL     1       7.854   6.769  -9.916  1.00  0.00     0.021 C 
ATOM     16  C   UNL     1      10.376   6.225  -9.626  1.00  0.00     0.008 C 
ATOM     17  C   UNL     1       8.890   4.755 -11.032  1.00  0.00     0.012 C 
ATOM     18  C   UNL     1       8.313   8.201  -9.669  1.00  0.00    -0.067 C 
ATOM     19  C   UNL     1      10.475   7.360  -8.602  1.00  0.00     0.009 C 
ATOM     20  C   UNL     1       9.646   8.579  -9.033  1.00  0.00     0.021 C 
ATOM     21  C   UNL     1       7.480   9.201  -9.998  1.00  0.00    -0.027 C 
ATOM     22  C   UNL     1       9.407   9.705  -7.927  1.00  0.00    -0.023 C 
ATOM     23  C   UNL     1       7.906  10.662  -9.893  1.00  0.00     0.031 C 
ATOM     24  C   UNL     1       8.893  10.978  -8.725  1.00  0.00     0.002 C 
ATOM     25  C   UNL     1      10.692  10.000  -7.044  1.00  0.00     0.010 C 
ATOM     26  C   UNL     1       8.287   9.285  -6.909  1.00  0.00     0.012 C 
ATOM     27  C   UNL     1      10.044  11.850  -9.287  1.00  0.00     0.036 C 
ATOM     28  C   UNL     1      11.731  10.935  -7.692  1.00  0.00     0.032 C 
ATOM     29  C   UNL     1      11.051  12.216  -8.193  1.00  0.00     0.114 C 
BRANCH  29  30
ATOM     30  O   UNL     1      12.026  13.119  -8.678  1.00  0.00    -0.393 OA
ATOM     31  H   UNL     1      12.919  12.694  -8.507  1.00  0.00     0.210 HD
ENDBRANCH  29  30
ENDBRANCH   1  11
TORSDOF 6
ENDMDL
MODEL 8
REMARK VINA RESULT:    -3.886      3.098      8.037
REMARK INTER + INTRA:          -6.272
REMARK INTER:                  -5.517
REMARK INTRA:                  -0.756
REMARK UNBOUND:                -1.137
REMARK SMILES CC[C@H](C=C[C@H](C)[C@@H]1CC[C@H]2C3=CC[C@@H]4C[C@H](O)CC[C@]4(C)[C@H]3CC[C@]21C)C(C)C
REMARK SMILES IDX 6 1 7 2 5 3 4 4 3 5 2 6 1 7 28 8 29 9 30 10 8 11 9 12 26 13
REMARK SMILES IDX 10 14 11 15 25 16 27 17 12 18 24 19 23 20 13 21 21 22 14 23
REMARK SMILES IDX 15 24 20 25 22 26 16 27 19 28 17 29 18 30
REMARK H PARENT 18 31
REMARK Flexibility Score: inf
ROOT
ATOM      1  C   UNL     1       7.959   7.983  -9.987  1.00  0.00     0.012 C 
ATOM      2  C   UNL     1       9.124   7.780 -10.985  1.00  0.00     0.012 C 
ENDROOT
BRANCH   1   3
ATOM      3  C   UNL     1       7.562   6.697  -9.274  1.00  0.00    -0.028 C 
ATOM      4  C   UNL     1       8.307   5.559  -9.328  1.00  0.00    -0.027 C 
BRANCH   4   5
ATOM      5  C   UNL     1       8.206   4.340  -8.407  1.00  0.00     0.014 C 
BRANCH   5   6
ATOM      6  C   UNL     1       9.360   4.286  -7.388  1.00  0.00     0.004 C 
ATOM      7  C   UNL     1      10.060   2.918  -7.366  1.00  0.00     0.004 C 
ENDBRANCH   5   6
BRANCH   5   8
ATOM      8  C   UNL     1       6.797   4.277  -7.700  1.00  0.00    -0.011 C 
ATOM      9  C   UNL     1       6.819   4.773  -6.248  1.00  0.00     0.008 C 
ATOM     10  C   UNL     1       6.200   2.848  -7.780  1.00  0.00     0.008 C 
ENDBRANCH   5   8
ENDBRANCH   4   5
ENDBRANCH   1   3
BRANCH   1  11
ATOM     11  C   UNL     1       8.261   9.163  -9.015  1.00  0.00     0.002 C 
ATOM     12  C   UNL     1       8.744  10.459  -9.675  1.00  0.00     0.005 C 
ATOM     13  C   UNL     1       9.300   8.910  -7.884  1.00  0.00    -0.023 C 
ATOM     14  C   UNL     1       9.188  11.327  -8.527  1.00  0.00     0.009 C 
ATOM     15  C   UNL     1       9.737  10.349  -7.457  1.00  0.00     0.021 C 
ATOM     16  C   UNL     1       8.706   8.094  -6.688  1.00  0.00     0.008 C 
ATOM     17  C   UNL     1      10.551   8.154  -8.403  1.00  0.00     0.012 C 
ATOM     18  C   UNL     1       9.312  10.818  -6.071  1.00  0.00    -0.067 C 
ATOM     19  C   UNL     1       7.662   8.878  -5.886  1.00  0.00     0.009 C 
ATOM     20  C   UNL     1       8.284  10.103  -5.200  1.00  0.00     0.021 C 
ATOM     21  C   UNL     1       9.846  11.952  -5.591  1.00  0.00    -0.027 C 
ATOM     22  C   UNL     1       7.267  11.173  -4.592  1.00  0.00    -0.023 C 
ATOM     23  C   UNL     1       9.565  12.428  -4.170  1.00  0.00     0.031 C 
ATOM     24  C   UNL     1       8.140  12.086  -3.631  1.00  0.00     0.002 C 
ATOM     25  C   UNL     1       6.023  10.511  -3.864  1.00  0.00     0.010 C 
ATOM     26  C   UNL     1       6.657  12.091  -5.712  1.00  0.00     0.012 C 
ATOM     27  C   UNL     1       8.291  11.499  -2.204  1.00  0.00     0.036 C 
ATOM     28  C   UNL     1       6.287  10.027  -2.425  1.00  0.00     0.032 C 
ATOM     29  C   UNL     1       6.928  11.151  -1.598  1.00  0.00     0.114 C 
BRANCH  29  30
ATOM     30  O   UNL     1       7.058  10.740  -0.251  1.00  0.00    -0.393 OA
ATOM     31  H   UNL     1       6.155  10.859   0.172  1.00  0.00     0.210 HD
ENDBRANCH  29  30
ENDBRANCH   1  11
TORSDOF 6
ENDMDL
MODEL 9
REMARK VINA RESULT:    -3.870      2.025      3.434
REMARK INTER + INTRA:          -6.250
REMARK INTER:                  -4.767
REMARK INTRA:                  -1.483
REMARK UNBOUND:                -1.137
REMARK SMILES CC[C@H](C=C[C@H](C)[C@@H]1CC[C@H]2C3=CC[C@@H]4C[C@H](O)CC[C@]4(C)[C@H]3CC[C@]21C)C(C)C
REMARK SMILES IDX 6 1 7 2 5 3 4 4 3 5 2 6 1 7 28 8 29 9 30 10 8 11 9 12 26 13
REMARK SMILES IDX 10 14 11 15 25 16 27 17 12 18 24 19 23 20 13 21 21 22 14 23
REMARK SMILES IDX 15 24 20 25 22 26 16 27 19 28 17 29 18 30
REMARK H PARENT 18 31
REMARK Flexibility Score: inf
ROOT
ATOM      1  C   UNL     1       7.373  10.583  -5.057  1.00  0.00     0.012 C 
ATOM      2  C   UNL     1       7.744   9.628  -3.897  1.00  0.00     0.012 C 
ENDROOT
BRANCH   1   3
ATOM      3  C   UNL     1       8.002  11.962  -4.911  1.00  0.00    -0.028 C 
ATOM      4  C   UNL     1       9.262  12.154  -4.429  1.00  0.00    -0.027 C 
BRANCH   4   5
ATOM      5  C   UNL     1      10.118  13.419  -4.550  1.00  0.00     0.014 C 
BRANCH   5   6
ATOM      6  C   UNL     1      11.008  13.636  -3.312  1.00  0.00     0.004 C 
ATOM      7  C   UNL     1      10.448  12.946  -2.058  1.00  0.00     0.004 C 
ENDBRANCH   5   6
BRANCH   5   8
ATOM      8  C   UNL     1      10.962  13.410  -5.883  1.00  0.00    -0.011 C 
ATOM      9  C   UNL     1      10.214  14.002  -7.084  1.00  0.00     0.008 C 
ATOM     10  C   UNL     1      11.471  11.981  -6.207  1.00  0.00     0.008 C 
ENDBRANCH   5   8
ENDBRANCH   4   5
ENDBRANCH   1   3
BRANCH   1  11
ATOM     11  C   UNL     1       7.655   9.917  -6.437  1.00  0.00     0.002 C 
ATOM     12  C   UNL     1       8.135  10.862  -7.543  1.00  0.00     0.005 C 
ATOM     13  C   UNL     1       6.491   9.125  -7.101  1.00  0.00    -0.023 C 
ATOM     14  C   UNL     1       8.093  10.030  -8.799  1.00  0.00     0.009 C 
ATOM     15  C   UNL     1       6.908   9.051  -8.606  1.00  0.00     0.021 C 
ATOM     16  C   UNL     1       6.289   7.706  -6.473  1.00  0.00     0.008 C 
ATOM     17  C   UNL     1       5.143   9.886  -7.006  1.00  0.00     0.012 C 
ATOM     18  C   UNL     1       7.286   7.679  -9.151  1.00  0.00    -0.067 C 
ATOM     19  C   UNL     1       7.440   6.744  -6.780  1.00  0.00     0.009 C 
ATOM     20  C   UNL     1       7.542   6.451  -8.284  1.00  0.00     0.021 C 
ATOM     21  C   UNL     1       7.440   7.541 -10.477  1.00  0.00    -0.027 C 
ATOM     22  C   UNL     1       8.872   5.719  -8.779  1.00  0.00    -0.023 C 
ATOM     23  C   UNL     1       7.702   6.180 -11.114  1.00  0.00     0.031 C 
ATOM     24  C   UNL     1       8.547   5.198 -10.243  1.00  0.00     0.002 C 
ATOM     25  C   UNL     1       9.356   4.568  -7.800  1.00  0.00     0.010 C 
ATOM     26  C   UNL     1      10.079   6.720  -8.877  1.00  0.00     0.012 C 
ATOM     27  C   UNL     1       7.846   3.815 -10.256  1.00  0.00     0.036 C 
ATOM     28  C   UNL     1       8.622   3.222  -7.959  1.00  0.00     0.032 C 
ATOM     29  C   UNL     1       8.626   2.788  -9.431  1.00  0.00     0.114 C 
BRANCH  29  30
ATOM     30  O   UNL     1       8.058   1.498  -9.553  1.00  0.00    -0.393 OA
ATOM     31  H   UNL     1       8.165   1.053  -8.659  1.00  0.00     0.210 HD
ENDBRANCH  29  30
ENDBRANCH   1  11
TORSDOF 6
ENDMDL
