MODEL 1
REMARK VINA RESULT:    -2.973      0.000      0.000
REMARK INTER + INTRA:          -3.504
REMARK INTER:                  -3.407
REMARK INTRA:                  -0.097
REMARK UNBOUND:                -0.097
REMARK SMILES C=Cc1ccc(O)c(OC)c1
REMARK SMILES IDX 8 1 6 2 5 3 4 4 3 5 11 6 9 7 10 8 7 9 2 11 1 12
REMARK H PARENT 7 10
REMARK Flexibility Score: inf
ROOT
ATOM      1  C   UNL     1     128.746 124.413 116.992  1.00  0.00     0.161 A 
ATOM      2  C   UNL     1     128.679 124.380 115.593  1.00  0.00     0.157 A 
ATOM      3  C   UNL     1     128.228 125.501 114.885  1.00  0.00     0.051 A 
ATOM      4  C   UNL     1     127.846 126.658 115.565  1.00  0.00     0.012 A 
ATOM      5  C   UNL     1     127.918 126.716 116.970  1.00  0.00    -0.022 A 
ATOM      6  C   UNL     1     128.359 125.584 117.675  1.00  0.00     0.058 A 
ENDROOT
BRANCH   1   7
ATOM      7  O   UNL     1     129.200 123.269 117.666  1.00  0.00    -0.493 OA
ATOM      8  C   UNL     1     128.352 122.313 118.295  1.00  0.00     0.278 C 
ENDBRANCH   1   7
BRANCH   2   9
ATOM      9  O   UNL     1     129.061 123.226 114.911  1.00  0.00    -0.504 OA
ATOM     10  H   UNL     1     129.131 123.205 113.901  1.00  0.00     0.293 HD
ENDBRANCH   2   9
BRANCH   5  11
ATOM     11  C   UNL     1     127.514 127.919 117.742  1.00  0.00     0.000 C 
ATOM     12  C   UNL     1     126.254 128.213 118.067  1.00  0.00     0.009 C 
ENDBRANCH   5  11
TORSDOF 3
ENDMDL
MODEL 2
REMARK VINA RESULT:    -2.924     13.413     14.988
REMARK INTER + INTRA:          -3.449
REMARK INTER:                  -3.351
REMARK INTRA:                  -0.098
REMARK UNBOUND:                -0.097
REMARK SMILES C=Cc1ccc(O)c(OC)c1
REMARK SMILES IDX 8 1 6 2 5 3 4 4 3 5 11 6 9 7 10 8 7 9 2 11 1 12
REMARK H PARENT 7 10
REMARK Flexibility Score: inf
ROOT
ATOM      1  C   UNL     1     114.677 128.991 116.959  1.00  0.00     0.161 A 
ATOM      2  C   UNL     1     114.744 128.830 115.569  1.00  0.00     0.157 A 
ATOM      3  C   UNL     1     113.668 128.264 114.875  1.00  0.00     0.051 A 
ATOM      4  C   UNL     1     112.520 127.860 115.560  1.00  0.00     0.012 A 
ATOM      5  C   UNL     1     112.429 128.025 116.955  1.00  0.00    -0.022 A 
ATOM      6  C   UNL     1     113.517 128.582 117.647  1.00  0.00     0.058 A 
ENDROOT
BRANCH   1   7
ATOM      7  O   UNL     1     115.778 129.560 117.618  1.00  0.00    -0.493 OA
ATOM      8  C   UNL     1     116.670 128.843 118.465  1.00  0.00     0.278 C 
ENDBRANCH   1   7
BRANCH   2   9
ATOM      9  O   UNL     1     115.887 129.234 114.881  1.00  0.00    -0.504 OA
ATOM     10  H   UNL     1     116.644 128.590 114.685  1.00  0.00     0.293 HD
ENDBRANCH   2   9
BRANCH   5  11
ATOM     11  C   UNL     1     111.236 127.604 117.734  1.00  0.00     0.000 C 
ATOM     12  C   UNL     1     110.956 126.338 118.050  1.00  0.00     0.009 C 
ENDBRANCH   5  11
TORSDOF 3
ENDMDL
MODEL 3
REMARK VINA RESULT:    -2.776      4.127      6.154
REMARK INTER + INTRA:          -3.279
REMARK INTER:                  -3.185
REMARK INTRA:                  -0.094
REMARK UNBOUND:                -0.097
REMARK SMILES C=Cc1ccc(O)c(OC)c1
REMARK SMILES IDX 8 1 6 2 5 3 4 4 3 5 11 6 9 7 10 8 7 9 2 11 1 12
REMARK H PARENT 7 10
REMARK Flexibility Score: inf
ROOT
ATOM      1  C   UNL     1     127.210 121.330 116.936  1.00  0.00     0.161 A 
ATOM      2  C   UNL     1     127.410 121.164 115.559  1.00  0.00     0.157 A 
ATOM      3  C   UNL     1     126.767 120.125 114.875  1.00  0.00     0.051 A 
ATOM      4  C   UNL     1     125.919 119.250 115.557  1.00  0.00     0.012 A 
ATOM      5  C   UNL     1     125.694 119.408 116.938  1.00  0.00    -0.022 A 
ATOM      6  C   UNL     1     126.353 120.444 117.620  1.00  0.00     0.058 A 
ENDROOT
BRANCH   1   7
ATOM      7  O   UNL     1     127.875 122.381 117.586  1.00  0.00    -0.493 OA
ATOM      8  C   UNL     1     129.048 122.226 118.378  1.00  0.00     0.278 C 
ENDBRANCH   1   7
BRANCH   2   9
ATOM      9  O   UNL     1     128.255 122.037 114.875  1.00  0.00    -0.504 OA
ATOM     10  H   UNL     1     127.913 122.633 114.131  1.00  0.00     0.293 HD
ENDBRANCH   2   9
BRANCH   5  11
ATOM     11  C   UNL     1     124.811 118.500 117.713  1.00  0.00     0.000 C 
ATOM     12  C   UNL     1     125.244 117.637 118.634  1.00  0.00     0.009 C 
ENDBRANCH   5  11
TORSDOF 3
ENDMDL
MODEL 4
REMARK VINA RESULT:    -2.761      8.965     10.323
REMARK INTER + INTRA:          -3.261
REMARK INTER:                  -3.169
REMARK INTRA:                  -0.093
REMARK UNBOUND:                -0.097
REMARK SMILES C=Cc1ccc(O)c(OC)c1
REMARK SMILES IDX 8 1 6 2 5 3 4 4 3 5 11 6 9 7 10 8 7 9 2 11 1 12
REMARK H PARENT 7 10
REMARK Flexibility Score: inf
ROOT
ATOM      1  C   UNL     1     117.805 127.185 116.939  1.00  0.00     0.161 A 
ATOM      2  C   UNL     1     117.977 127.388 115.564  1.00  0.00     0.157 A 
ATOM      3  C   UNL     1     119.026 126.756 114.886  1.00  0.00     0.051 A 
ATOM      4  C   UNL     1     119.905 125.916 115.573  1.00  0.00     0.012 A 
ATOM      5  C   UNL     1     119.742 125.689 116.953  1.00  0.00    -0.022 A 
ATOM      6  C   UNL     1     118.695 126.337 117.629  1.00  0.00     0.058 A 
ENDROOT
BRANCH   1   7
ATOM      7  O   UNL     1     116.743 127.840 117.583  1.00  0.00    -0.493 OA
ATOM      8  C   UNL     1     116.875 129.037 118.343  1.00  0.00     0.278 C 
ENDBRANCH   1   7
BRANCH   2   9
ATOM      9  O   UNL     1     117.100 128.225 114.875  1.00  0.00    -0.504 OA
ATOM     10  H   UNL     1     116.179 127.912 114.592  1.00  0.00     0.293 HD
ENDBRANCH   2   9
BRANCH   5  11
ATOM     11  C   UNL     1     120.653 124.814 117.733  1.00  0.00     0.000 C 
ATOM     12  C   UNL     1     121.492 125.253 118.673  1.00  0.00     0.009 C 
ENDBRANCH   5  11
TORSDOF 3
ENDMDL
MODEL 5
REMARK VINA RESULT:    -2.723     16.973     17.463
REMARK INTER + INTRA:          -3.218
REMARK INTER:                  -3.126
REMARK INTRA:                  -0.093
REMARK UNBOUND:                -0.097
REMARK SMILES C=Cc1ccc(O)c(OC)c1
REMARK SMILES IDX 8 1 6 2 5 3 4 4 3 5 11 6 9 7 10 8 7 9 2 11 1 12
REMARK H PARENT 7 10
REMARK Flexibility Score: inf
ROOT
ATOM      1  C   UNL     1     111.710 117.745 116.955  1.00  0.00     0.161 A 
ATOM      2  C   UNL     1     111.492 117.981 115.591  1.00  0.00     0.157 A 
ATOM      3  C   UNL     1     112.127 119.053 114.954  1.00  0.00     0.051 A 
ATOM      4  C   UNL     1     112.986 119.891 115.668  1.00  0.00     0.012 A 
ATOM      5  C   UNL     1     113.229 119.663 117.036  1.00  0.00    -0.022 A 
ATOM      6  C   UNL     1     112.577 118.593 117.673  1.00  0.00     0.058 A 
ENDROOT
BRANCH   1   7
ATOM      7  O   UNL     1     111.052 116.662 117.559  1.00  0.00    -0.493 OA
ATOM      8  C   UNL     1     110.030 116.787 118.543  1.00  0.00     0.278 C 
ENDBRANCH   1   7
BRANCH   2   9
ATOM      9  O   UNL     1     110.636 117.146 114.875  1.00  0.00    -0.504 OA
ATOM     10  H   UNL     1     109.869 116.660 115.324  1.00  0.00     0.293 HD
ENDBRANCH   2   9
BRANCH   5  11
ATOM     11  C   UNL     1     114.124 120.528 117.845  1.00  0.00     0.000 C 
ATOM     12  C   UNL     1     113.698 121.500 118.654  1.00  0.00     0.009 C 
ENDBRANCH   5  11
TORSDOF 3
ENDMDL
MODEL 6
REMARK VINA RESULT:    -2.720     14.874     15.236
REMARK INTER + INTRA:          -3.215
REMARK INTER:                  -3.121
REMARK INTRA:                  -0.094
REMARK UNBOUND:                -0.097
REMARK SMILES C=Cc1ccc(O)c(OC)c1
REMARK SMILES IDX 8 1 6 2 5 3 4 4 3 5 11 6 9 7 10 8 7 9 2 11 1 12
REMARK H PARENT 7 10
REMARK Flexibility Score: inf
ROOT
ATOM      1  C   UNL     1     121.198 111.893 116.991  1.00  0.00     0.161 A 
ATOM      2  C   UNL     1     120.933 111.706 115.628  1.00  0.00     0.157 A 
ATOM      3  C   UNL     1     119.851 112.359 115.026  1.00  0.00     0.051 A 
ATOM      4  C   UNL     1     119.030 113.203 115.777  1.00  0.00     0.012 A 
ATOM      5  C   UNL     1     119.287 113.415 117.145  1.00  0.00    -0.022 A 
ATOM      6  C   UNL     1     120.367 112.746 117.745  1.00  0.00     0.058 A 
ENDROOT
BRANCH   1   7
ATOM      7  O   UNL     1     122.291 111.218 117.557  1.00  0.00    -0.493 OA
ATOM      8  C   UNL     1     122.182 110.135 118.476  1.00  0.00     0.278 C 
ENDBRANCH   1   7
BRANCH   2   9
ATOM      9  O   UNL     1     121.751 110.864 114.875  1.00  0.00    -0.504 OA
ATOM     10  H   UNL     1     122.294 110.126 115.307  1.00  0.00     0.293 HD
ENDBRANCH   2   9
BRANCH   5  11
ATOM     11  C   UNL     1     118.441 114.294 117.991  1.00  0.00     0.000 C 
ATOM     12  C   UNL     1     117.488 113.852 118.813  1.00  0.00     0.009 C 
ENDBRANCH   5  11
TORSDOF 3
ENDMDL
MODEL 7
REMARK VINA RESULT:    -2.693      2.745      4.641
REMARK INTER + INTRA:          -3.184
REMARK INTER:                  -3.096
REMARK INTRA:                  -0.088
REMARK UNBOUND:                -0.097
REMARK SMILES C=Cc1ccc(O)c(OC)c1
REMARK SMILES IDX 8 1 6 2 5 3 4 4 3 5 11 6 9 7 10 8 7 9 2 11 1 12
REMARK H PARENT 7 10
REMARK Flexibility Score: inf
ROOT
ATOM      1  C   UNL     1     127.854 127.987 117.736  1.00  0.00     0.161 A 
ATOM      2  C   UNL     1     128.327 129.231 118.175  1.00  0.00     0.157 A 
ATOM      3  C   UNL     1     127.459 130.125 118.815  1.00  0.00     0.051 A 
ATOM      4  C   UNL     1     126.122 129.784 119.023  1.00  0.00     0.012 A 
ATOM      5  C   UNL     1     125.631 128.534 118.600  1.00  0.00    -0.022 A 
ATOM      6  C   UNL     1     126.503 127.647 117.947  1.00  0.00     0.058 A 
ENDROOT
BRANCH   1   7
ATOM      7  O   UNL     1     128.754 127.120 117.096  1.00  0.00    -0.493 OA
ATOM      8  C   UNL     1     128.616 126.659 115.755  1.00  0.00     0.278 C 
ENDBRANCH   1   7
BRANCH   2   9
ATOM      9  O   UNL     1     129.662 129.573 117.970  1.00  0.00    -0.504 OA
ATOM     10  H   UNL     1     130.301 129.707 118.745  1.00  0.00     0.293 HD
ENDBRANCH   2   9
BRANCH   5  11
ATOM     11  C   UNL     1     124.216 128.126 118.788  1.00  0.00     0.000 C 
ATOM     12  C   UNL     1     123.825 126.879 119.060  1.00  0.00     0.009 C 
ENDBRANCH   5  11
TORSDOF 3
ENDMDL
MODEL 8
REMARK VINA RESULT:    -2.600     11.257     13.067
REMARK INTER + INTRA:          -3.078
REMARK INTER:                  -3.005
REMARK INTRA:                  -0.073
REMARK UNBOUND:                -0.097
REMARK SMILES C=Cc1ccc(O)c(OC)c1
REMARK SMILES IDX 8 1 6 2 5 3 4 4 3 5 11 6 9 7 10 8 7 9 2 11 1 12
REMARK H PARENT 7 10
REMARK Flexibility Score: inf
ROOT
ATOM      1  C   UNL     1     128.193 111.637 117.757  1.00  0.00     0.161 A 
ATOM      2  C   UNL     1     129.365 111.267 118.429  1.00  0.00     0.157 A 
ATOM      3  C   UNL     1     130.013 112.182 119.268  1.00  0.00     0.051 A 
ATOM      4  C   UNL     1     129.496 113.466 119.444  1.00  0.00     0.012 A 
ATOM      5  C   UNL     1     128.312 113.854 118.788  1.00  0.00    -0.022 A 
ATOM      6  C   UNL     1     127.674 112.935 117.938  1.00  0.00     0.058 A 
ENDROOT
BRANCH   1   7
ATOM      7  O   UNL     1     127.575 110.693 116.922  1.00  0.00    -0.493 OA
ATOM      8  C   UNL     1     126.707 111.017 115.841  1.00  0.00     0.278 C 
ENDBRANCH   1   7
BRANCH   2   9
ATOM      9  O   UNL     1     129.884 109.984 118.256  1.00  0.00    -0.504 OA
ATOM     10  H   UNL     1     130.421 109.736 117.434  1.00  0.00     0.293 HD
ENDBRANCH   2   9
BRANCH   5  11
ATOM     11  C   UNL     1     127.724 115.210 118.933  1.00  0.00     0.000 C 
ATOM     12  C   UNL     1     126.480 115.447 119.352  1.00  0.00     0.009 C 
ENDBRANCH   5  11
TORSDOF 3
ENDMDL
MODEL 9
REMARK VINA RESULT:    -2.545     10.105     11.684
REMARK INTER + INTRA:          -3.014
REMARK INTER:                  -2.926
REMARK INTRA:                  -0.088
REMARK UNBOUND:                -0.097
REMARK SMILES C=Cc1ccc(O)c(OC)c1
REMARK SMILES IDX 8 1 6 2 5 3 4 4 3 5 11 6 9 7 10 8 7 9 2 11 1 12
REMARK H PARENT 7 10
REMARK Flexibility Score: inf
ROOT
ATOM      1  C   UNL     1     117.899 126.885 116.393  1.00  0.00     0.161 A 
ATOM      2  C   UNL     1     117.753 126.981 117.783  1.00  0.00     0.157 A 
ATOM      3  C   UNL     1     116.796 127.844 118.331  1.00  0.00     0.051 A 
ATOM      4  C   UNL     1     115.980 128.613 117.499  1.00  0.00     0.012 A 
ATOM      5  C   UNL     1     116.102 128.521 116.099  1.00  0.00    -0.022 A 
ATOM      6  C   UNL     1     117.073 127.663 115.557  1.00  0.00     0.058 A 
ENDROOT
BRANCH   1   7
ATOM      7  O   UNL     1     118.871 126.011 115.883  1.00  0.00    -0.493 OA
ATOM      8  C   UNL     1     119.836 126.364 114.896  1.00  0.00     0.278 C 
ENDBRANCH   1   7
BRANCH   2   9
ATOM      9  O   UNL     1     118.566 126.214 118.617  1.00  0.00    -0.504 OA
ATOM     10  H   UNL     1     118.276 125.302 118.948  1.00  0.00     0.293 HD
ENDBRANCH   2   9
BRANCH   5  11
ATOM     11  C   UNL     1     115.266 129.323 115.170  1.00  0.00     0.000 C 
ATOM     12  C   UNL     1     113.993 129.049 114.881  1.00  0.00     0.009 C 
ENDBRANCH   5  11
TORSDOF 3
ENDMDL
