MODEL 1
REMARK VINA RESULT:    -6.370      0.000      0.000
REMARK INTER + INTRA:         -11.022
REMARK INTER:                  -9.348
REMARK INTRA:                  -1.674
REMARK UNBOUND:                -1.674
REMARK SMILES O=c1c(O[C@@H]2O[C@@H](CO)[C@@H](O)[C@H](O)[C@@H]2O)c(-c2ccc(O)c(O)c2)oc2cc(O)cc(O)c12
REMARK SMILES IDX 4 1 3 2 16 3 25 4 2 5 26 6 1 7 33 8 27 9 31 10 28 11 30 12
REMARK SMILES IDX 17 13 18 14 19 15 20 16 24 17 22 18 21 19 23 21 32 23 29 25
REMARK SMILES IDX 5 27 14 28 6 29 12 30 7 31 10 32 15 33 13 35 8 37 9 38 11 40
REMARK H PARENT 21 20 23 22 32 24 29 26 15 34 13 36 9 39 11 41
REMARK Flexibility Score: inf
ROOT
ATOM      1  O   UNL     1     -14.085  38.425  -3.155  1.00  0.00    -0.454 OA
ENDROOT
BRANCH   1   2
ATOM      2  C   UNL     1     -14.917  38.051  -2.077  1.00  0.00     0.214 A 
ATOM      3  C   UNL     1     -14.650  36.831  -1.424  1.00  0.00     0.180 A 
ATOM      4  O   UNL     1     -15.345  36.472  -0.352  1.00  0.00    -0.452 OA
ATOM      5  C   UNL     1     -15.986  38.842  -1.590  1.00  0.00     0.239 A 
ATOM      6  C   UNL     1     -16.336  37.196   0.149  1.00  0.00     0.146 A 
ATOM      7  O   UNL     1     -16.295  39.921  -2.162  1.00  0.00    -0.285 OA
ATOM      8  C   UNL     1     -16.710  38.416  -0.456  1.00  0.00     0.111 A 
ATOM      9  C   UNL     1     -17.010  36.731   1.283  1.00  0.00     0.094 A 
ATOM     10  C   UNL     1     -17.784  39.157   0.101  1.00  0.00     0.134 A 
ATOM     11  C   UNL     1     -18.067  37.467   1.827  1.00  0.00     0.123 A 
ATOM     12  C   UNL     1     -18.450  38.673   1.236  1.00  0.00     0.093 A 
BRANCH   3  13
ATOM     13  C   UNL     1     -13.590  35.922  -1.898  1.00  0.00     0.025 A 
ATOM     14  C   UNL     1     -13.850  34.988  -2.911  1.00  0.00     0.016 A 
ATOM     15  C   UNL     1     -12.846  34.118  -3.342  1.00  0.00     0.051 A 
ATOM     16  C   UNL     1     -11.578  34.157  -2.753  1.00  0.00     0.157 A 
ATOM     17  C   UNL     1     -12.327  35.945  -1.290  1.00  0.00     0.062 A 
ATOM     18  C   UNL     1     -11.316  35.071  -1.719  1.00  0.00     0.158 A 
BRANCH  16  19
ATOM     19  O   UNL     1     -10.594  33.278  -3.205  1.00  0.00    -0.504 OA
ATOM     20  H   UNL     1      -9.628  33.353  -2.908  1.00  0.00     0.293 HD
ENDBRANCH  16  19
BRANCH  18  21
ATOM     21  O   UNL     1     -10.057  35.110  -1.122  1.00  0.00    -0.504 OA
ATOM     22  H   UNL     1      -9.315  34.482  -1.407  1.00  0.00     0.293 HD
ENDBRANCH  18  21
ENDBRANCH   3  13
BRANCH  10  23
ATOM     23  O   UNL     1     -18.192  40.367  -0.463  1.00  0.00    -0.507 OA
ATOM     24  H   UNL     1     -18.665  40.406  -1.358  1.00  0.00     0.293 HD
ENDBRANCH  10  23
BRANCH  11  25
ATOM     25  O   UNL     1     -18.744  37.008   2.955  1.00  0.00    -0.508 OA
ATOM     26  H   UNL     1     -18.461  37.278   3.889  1.00  0.00     0.293 HD
ENDBRANCH  11  25
ENDBRANCH   1   2
BRANCH   1  27
ATOM     27  C   UNL     1     -12.863  39.170  -3.075  1.00  0.00     0.339 C 
ATOM     28  C   UNL     1     -11.917  38.839  -4.255  1.00  0.00     0.214 C 
ATOM     29  O   UNL     1     -13.110  40.564  -2.980  1.00  0.00    -0.332 OA
ATOM     30  C   UNL     1     -12.350  39.506  -5.580  1.00  0.00     0.180 C 
ATOM     31  C   UNL     1     -13.752  41.058  -4.143  1.00  0.00     0.179 C 
ATOM     32  C   UNL     1     -12.802  40.964  -5.361  1.00  0.00     0.177 C 
BRANCH  28  33
ATOM     33  O   UNL     1     -11.816  37.450  -4.430  1.00  0.00    -0.384 OA
ATOM     34  H   UNL     1     -10.875  37.259  -4.680  1.00  0.00     0.211 HD
ENDBRANCH  28  33
BRANCH  30  35
ATOM     35  O   UNL     1     -13.332  38.755  -6.252  1.00  0.00    -0.387 OA
ATOM     36  H   UNL     1     -13.770  39.344  -6.912  1.00  0.00     0.211 HD
ENDBRANCH  30  35
BRANCH  31  37
ATOM     37  C   UNL     1     -14.197  42.504  -3.874  1.00  0.00     0.191 C 
BRANCH  37  38
ATOM     38  O   UNL     1     -14.220  43.252  -5.060  1.00  0.00    -0.394 OA
ATOM     39  H   UNL     1     -13.275  43.421  -5.309  1.00  0.00     0.210 HD
ENDBRANCH  37  38
ENDBRANCH  31  37
BRANCH  32  40
ATOM     40  O   UNL     1     -11.662  41.762  -5.148  1.00  0.00    -0.387 OA
ATOM     41  H   UNL     1     -11.413  42.157  -6.023  1.00  0.00     0.211 HD
ENDBRANCH  32  40
ENDBRANCH   1  27
TORSDOF 12
ENDMDL
MODEL 2
REMARK VINA RESULT:    -6.252      2.617      8.052
REMARK INTER + INTRA:         -10.850
REMARK INTER:                  -9.118
REMARK INTRA:                  -1.732
REMARK UNBOUND:                -1.674
REMARK SMILES O=c1c(O[C@@H]2O[C@@H](CO)[C@@H](O)[C@H](O)[C@@H]2O)c(-c2ccc(O)c(O)c2)oc2cc(O)cc(O)c12
REMARK SMILES IDX 4 1 3 2 16 3 25 4 2 5 26 6 1 7 33 8 27 9 31 10 28 11 30 12
REMARK SMILES IDX 17 13 18 14 19 15 20 16 24 17 22 18 21 19 23 21 32 23 29 25
REMARK SMILES IDX 5 27 14 28 6 29 12 30 7 31 10 32 15 33 13 35 8 37 9 38 11 40
REMARK H PARENT 21 20 23 22 32 24 29 26 15 34 13 36 9 39 11 41
REMARK Flexibility Score: inf
ROOT
ATOM      1  O   UNL     1     -14.457  35.855   0.001  1.00  0.00    -0.454 OA
ENDROOT
BRANCH   1   2
ATOM      2  C   UNL     1     -13.534  35.882  -1.067  1.00  0.00     0.214 A 
ATOM      3  C   UNL     1     -13.736  36.823  -2.096  1.00  0.00     0.180 A 
ATOM      4  O   UNL     1     -12.853  36.951  -3.080  1.00  0.00    -0.452 OA
ATOM      5  C   UNL     1     -12.397  35.042  -1.153  1.00  0.00     0.239 A 
ATOM      6  C   UNL     1     -11.765  36.201  -3.182  1.00  0.00     0.146 A 
ATOM      7  O   UNL     1     -12.191  34.155  -0.283  1.00  0.00    -0.285 OA
ATOM      8  C   UNL     1     -11.490  35.200  -2.223  1.00  0.00     0.111 A 
ATOM      9  C   UNL     1     -10.895  36.411  -4.256  1.00  0.00     0.094 A 
ATOM     10  C   UNL     1     -10.323  34.409  -2.373  1.00  0.00     0.134 A 
ATOM     11  C   UNL     1      -9.745  35.628  -4.397  1.00  0.00     0.123 A 
ATOM     12  C   UNL     1      -9.465  34.632  -3.459  1.00  0.00     0.093 A 
BRANCH   3  13
ATOM     13  C   UNL     1     -14.921  37.701  -2.113  1.00  0.00     0.025 A 
ATOM     14  C   UNL     1     -15.065  38.724  -1.165  1.00  0.00     0.016 A 
ATOM     15  C   UNL     1     -16.199  39.540  -1.176  1.00  0.00     0.051 A 
ATOM     16  C   UNL     1     -17.210  39.331  -2.120  1.00  0.00     0.157 A 
ATOM     17  C   UNL     1     -15.945  37.475  -3.044  1.00  0.00     0.062 A 
ATOM     18  C   UNL     1     -17.086  38.291  -3.057  1.00  0.00     0.158 A 
BRANCH  16  19
ATOM     19  O   UNL     1     -18.329  40.163  -2.109  1.00  0.00    -0.504 OA
ATOM     20  H   UNL     1     -18.913  40.290  -2.928  1.00  0.00     0.293 HD
ENDBRANCH  16  19
BRANCH  18  21
ATOM     21  O   UNL     1     -18.093  38.072  -3.996  1.00  0.00    -0.504 OA
ATOM     22  H   UNL     1     -18.287  37.147  -4.361  1.00  0.00     0.293 HD
ENDBRANCH  18  21
ENDBRANCH   3  13
BRANCH  10  23
ATOM     23  O   UNL     1     -10.010  33.406  -1.454  1.00  0.00    -0.507 OA
ATOM     24  H   UNL     1     -10.726  32.820  -1.039  1.00  0.00     0.293 HD
ENDBRANCH  10  23
BRANCH  11  25
ATOM     25  O   UNL     1      -8.876  35.830  -5.467  1.00  0.00    -0.508 OA
ATOM     26  H   UNL     1      -9.220  36.017  -6.401  1.00  0.00     0.293 HD
ENDBRANCH  11  25
ENDBRANCH   1   2
BRANCH   1  27
ATOM     27  C   UNL     1     -15.657  35.075   0.075  1.00  0.00     0.339 C 
ATOM     28  C   UNL     1     -15.575  34.011   1.198  1.00  0.00     0.214 C 
ATOM     29  O   UNL     1     -16.804  35.898   0.219  1.00  0.00    -0.332 OA
ATOM     30  C   UNL     1     -15.762  34.611   2.609  1.00  0.00     0.180 C 
ATOM     31  C   UNL     1     -16.774  36.621   1.437  1.00  0.00     0.179 C 
ATOM     32  C   UNL     1     -16.898  35.654   2.639  1.00  0.00     0.177 C 
BRANCH  28  33
ATOM     33  O   UNL     1     -14.357  33.318   1.131  1.00  0.00    -0.384 OA
ATOM     34  H   UNL     1     -14.484  32.575   0.485  1.00  0.00     0.211 HD
ENDBRANCH  28  33
BRANCH  30  35
ATOM     35  O   UNL     1     -14.562  35.139   3.122  1.00  0.00    -0.387 OA
ATOM     36  H   UNL     1     -14.414  36.022   2.707  1.00  0.00     0.211 HD
ENDBRANCH  30  35
BRANCH  31  37
ATOM     37  C   UNL     1     -17.911  37.655   1.414  1.00  0.00     0.191 C 
BRANCH  37  38
ATOM     38  O   UNL     1     -18.404  37.889   2.707  1.00  0.00    -0.394 OA
ATOM     39  H   UNL     1     -18.449  37.007   3.158  1.00  0.00     0.210 HD
ENDBRANCH  37  38
ENDBRANCH  31  37
BRANCH  32  40
ATOM     40  O   UNL     1     -18.132  34.977   2.590  1.00  0.00    -0.387 OA
ATOM     41  H   UNL     1     -17.983  34.068   2.958  1.00  0.00     0.211 HD
ENDBRANCH  32  40
ENDBRANCH   1  27
TORSDOF 12
ENDMDL
MODEL 3
REMARK VINA RESULT:    -6.133      1.387      2.529
REMARK INTER + INTRA:         -10.675
REMARK INTER:                  -8.678
REMARK INTRA:                  -1.998
REMARK UNBOUND:                -1.674
REMARK SMILES O=c1c(O[C@@H]2O[C@@H](CO)[C@@H](O)[C@H](O)[C@@H]2O)c(-c2ccc(O)c(O)c2)oc2cc(O)cc(O)c12
REMARK SMILES IDX 4 1 3 2 16 3 25 4 2 5 26 6 1 7 33 8 27 9 31 10 28 11 30 12
REMARK SMILES IDX 17 13 18 14 19 15 20 16 24 17 22 18 21 19 23 21 32 23 29 25
REMARK SMILES IDX 5 27 14 28 6 29 12 30 7 31 10 32 15 33 13 35 8 37 9 38 11 40
REMARK H PARENT 21 20 23 22 32 24 29 26 15 34 13 36 9 39 11 41
REMARK Flexibility Score: inf
ROOT
ATOM      1  O   UNL     1     -14.139  38.211  -1.861  1.00  0.00    -0.454 OA
ENDROOT
BRANCH   1   2
ATOM      2  C   UNL     1     -15.077  37.575  -1.019  1.00  0.00     0.214 A 
ATOM      3  C   UNL     1     -14.897  36.205  -0.740  1.00  0.00     0.180 A 
ATOM      4  O   UNL     1     -15.698  35.577   0.112  1.00  0.00    -0.452 OA
ATOM      5  C   UNL     1     -16.171  38.235  -0.410  1.00  0.00     0.239 A 
ATOM      6  C   UNL     1     -16.718  36.166   0.720  1.00  0.00     0.146 A 
ATOM      7  O   UNL     1     -16.404  39.448  -0.658  1.00  0.00    -0.285 OA
ATOM      8  C   UNL     1     -17.009  37.527   0.478  1.00  0.00     0.111 A 
ATOM      9  C   UNL     1     -17.506  35.418   1.601  1.00  0.00     0.094 A 
ATOM     10  C   UNL     1     -18.116  38.119   1.137  1.00  0.00     0.134 A 
ATOM     11  C   UNL     1     -18.595  36.009   2.248  1.00  0.00     0.123 A 
ATOM     12  C   UNL     1     -18.897  37.353   2.014  1.00  0.00     0.093 A 
BRANCH   3  13
ATOM     13  C   UNL     1     -13.814  35.428  -1.372  1.00  0.00     0.025 A 
ATOM     14  C   UNL     1     -14.071  34.624  -2.492  1.00  0.00     0.016 A 
ATOM     15  C   UNL     1     -13.045  33.877  -3.073  1.00  0.00     0.051 A 
ATOM     16  C   UNL     1     -11.755  33.909  -2.533  1.00  0.00     0.157 A 
ATOM     17  C   UNL     1     -12.528  35.441  -0.814  1.00  0.00     0.062 A 
ATOM     18  C   UNL     1     -11.494  34.691  -1.395  1.00  0.00     0.158 A 
BRANCH  16  19
ATOM     19  O   UNL     1     -10.749  33.155  -3.136  1.00  0.00    -0.504 OA
ATOM     20  H   UNL     1     -10.274  32.404  -2.649  1.00  0.00     0.293 HD
ENDBRANCH  16  19
BRANCH  18  21
ATOM     21  O   UNL     1     -10.214  34.721  -0.846  1.00  0.00    -0.504 OA
ATOM     22  H   UNL     1      -9.386  34.635  -1.424  1.00  0.00     0.293 HD
ENDBRANCH  18  21
ENDBRANCH   3  13
BRANCH  10  23
ATOM     23  O   UNL     1     -18.445  39.459   0.929  1.00  0.00    -0.507 OA
ATOM     24  H   UNL     1     -17.765  40.201   1.049  1.00  0.00     0.293 HD
ENDBRANCH  10  23
BRANCH  11  25
ATOM     25  O   UNL     1     -19.386  35.270   3.125  1.00  0.00    -0.508 OA
ATOM     26  H   UNL     1     -19.258  35.325   4.128  1.00  0.00     0.293 HD
ENDBRANCH  11  25
ENDBRANCH   1   2
BRANCH   1  27
ATOM     27  C   UNL     1     -14.254  38.409  -3.276  1.00  0.00     0.339 C 
ATOM     28  C   UNL     1     -14.194  39.911  -3.647  1.00  0.00     0.214 C 
ATOM     29  O   UNL     1     -13.283  37.657  -3.986  1.00  0.00    -0.332 OA
ATOM     30  C   UNL     1     -12.762  40.489  -3.585  1.00  0.00     0.180 C 
ATOM     31  C   UNL     1     -11.968  38.081  -3.674  1.00  0.00     0.179 C 
ATOM     32  C   UNL     1     -11.730  39.519  -4.194  1.00  0.00     0.177 C 
BRANCH  28  33
ATOM     33  O   UNL     1     -15.047  40.657  -2.819  1.00  0.00    -0.384 OA
ATOM     34  H   UNL     1     -14.608  40.712  -1.929  1.00  0.00     0.211 HD
ENDBRANCH  28  33
BRANCH  30  35
ATOM     35  O   UNL     1     -12.404  40.872  -2.279  1.00  0.00    -0.387 OA
ATOM     36  H   UNL     1     -13.222  40.877  -1.726  1.00  0.00     0.211 HD
ENDBRANCH  30  35
BRANCH  31  37
ATOM     37  C   UNL     1     -10.977  37.079  -4.287  1.00  0.00     0.191 C 
BRANCH  37  38
ATOM     38  O   UNL     1      -9.821  37.730  -4.744  1.00  0.00    -0.394 OA
ATOM     39  H   UNL     1      -9.060  37.122  -4.556  1.00  0.00     0.210 HD
ENDBRANCH  37  38
ENDBRANCH  31  37
BRANCH  32  40
ATOM     40  O   UNL     1     -11.853  39.553  -5.596  1.00  0.00    -0.387 OA
ATOM     41  H   UNL     1     -11.966  38.616  -5.903  1.00  0.00     0.211 HD
ENDBRANCH  32  40
ENDBRANCH   1  27
TORSDOF 12
ENDMDL
MODEL 4
REMARK VINA RESULT:    -6.061      1.985      5.655
REMARK INTER + INTRA:         -10.570
REMARK INTER:                  -9.089
REMARK INTRA:                  -1.481
REMARK UNBOUND:                -1.674
REMARK SMILES O=c1c(O[C@@H]2O[C@@H](CO)[C@@H](O)[C@H](O)[C@@H]2O)c(-c2ccc(O)c(O)c2)oc2cc(O)cc(O)c12
REMARK SMILES IDX 4 1 3 2 16 3 25 4 2 5 26 6 1 7 33 8 27 9 31 10 28 11 30 12
REMARK SMILES IDX 17 13 18 14 19 15 20 16 24 17 22 18 21 19 23 21 32 23 29 25
REMARK SMILES IDX 5 27 14 28 6 29 12 30 7 31 10 32 15 33 13 35 8 37 9 38 11 40
REMARK H PARENT 21 20 23 22 32 24 29 26 15 34 13 36 9 39 11 41
REMARK Flexibility Score: inf
ROOT
ATOM      1  O   UNL     1     -13.810  38.609  -2.054  1.00  0.00    -0.454 OA
ENDROOT
BRANCH   1   2
ATOM      2  C   UNL     1     -13.988  37.412  -1.326  1.00  0.00     0.214 A 
ATOM      3  C   UNL     1     -15.297  37.057  -0.942  1.00  0.00     0.180 A 
ATOM      4  O   UNL     1     -15.533  35.901  -0.333  1.00  0.00    -0.452 OA
ATOM      5  C   UNL     1     -12.936  36.528  -0.986  1.00  0.00     0.239 A 
ATOM      6  C   UNL     1     -14.579  35.036  -0.019  1.00  0.00     0.146 A 
ATOM      7  O   UNL     1     -11.743  36.817  -1.267  1.00  0.00    -0.285 OA
ATOM      8  C   UNL     1     -13.228  35.315  -0.324  1.00  0.00     0.111 A 
ATOM      9  C   UNL     1     -14.928  33.845   0.625  1.00  0.00     0.094 A 
ATOM     10  C   UNL     1     -12.234  34.372   0.040  1.00  0.00     0.134 A 
ATOM     11  C   UNL     1     -13.942  32.918   0.979  1.00  0.00     0.123 A 
ATOM     12  C   UNL     1     -12.603  33.185   0.687  1.00  0.00     0.093 A 
BRANCH   3  13
ATOM     13  C   UNL     1     -16.444  37.943  -1.211  1.00  0.00     0.025 A 
ATOM     14  C   UNL     1     -17.102  37.905  -2.448  1.00  0.00     0.016 A 
ATOM     15  C   UNL     1     -18.176  38.761  -2.701  1.00  0.00     0.051 A 
ATOM     16  C   UNL     1     -18.593  39.677  -1.730  1.00  0.00     0.157 A 
ATOM     17  C   UNL     1     -16.845  38.879  -0.246  1.00  0.00     0.062 A 
ATOM     18  C   UNL     1     -17.922  39.741  -0.497  1.00  0.00     0.158 A 
BRANCH  16  19
ATOM     19  O   UNL     1     -19.670  40.518  -2.010  1.00  0.00    -0.504 OA
ATOM     20  H   UNL     1     -19.557  41.386  -2.519  1.00  0.00     0.293 HD
ENDBRANCH  16  19
BRANCH  18  21
ATOM     21  O   UNL     1     -18.327  40.657   0.472  1.00  0.00    -0.504 OA
ATOM     22  H   UNL     1     -19.262  41.048   0.476  1.00  0.00     0.293 HD
ENDBRANCH  18  21
ENDBRANCH   3  13
BRANCH  10  23
ATOM     23  O   UNL     1     -10.885  34.604  -0.238  1.00  0.00    -0.507 OA
ATOM     24  H   UNL     1     -10.593  35.245  -0.967  1.00  0.00     0.293 HD
ENDBRANCH  10  23
BRANCH  11  25
ATOM     25  O   UNL     1     -14.283  31.731   1.622  1.00  0.00    -0.508 OA
ATOM     26  H   UNL     1     -14.638  31.725   2.571  1.00  0.00     0.293 HD
ENDBRANCH  11  25
ENDBRANCH   1   2
BRANCH   1  27
ATOM     27  C   UNL     1     -14.030  38.799  -3.457  1.00  0.00     0.339 C 
ATOM     28  C   UNL     1     -14.295  40.286  -3.795  1.00  0.00     0.214 C 
ATOM     29  O   UNL     1     -12.960  38.271  -4.227  1.00  0.00    -0.332 OA
ATOM     30  C   UNL     1     -13.010  41.144  -3.782  1.00  0.00     0.180 C 
ATOM     31  C   UNL     1     -11.746  38.951  -3.962  1.00  0.00     0.179 C 
ATOM     32  C   UNL     1     -11.832  40.415  -4.458  1.00  0.00     0.177 C 
BRANCH  28  33
ATOM     33  O   UNL     1     -15.242  40.830  -2.914  1.00  0.00    -0.384 OA
ATOM     34  H   UNL     1     -14.973  41.771  -2.748  1.00  0.00     0.211 HD
ENDBRANCH  28  33
BRANCH  30  35
ATOM     35  O   UNL     1     -12.677  41.574  -2.484  1.00  0.00    -0.387 OA
ATOM     36  H   UNL     1     -13.258  41.097  -1.844  1.00  0.00     0.211 HD
ENDBRANCH  30  35
BRANCH  31  37
ATOM     37  C   UNL     1     -10.602  38.182  -4.640  1.00  0.00     0.191 C 
BRANCH  37  38
ATOM     38  O   UNL     1     -10.440  36.912  -4.068  1.00  0.00    -0.394 OA
ATOM     39  H   UNL     1     -10.849  36.953  -3.165  1.00  0.00     0.210 HD
ENDBRANCH  37  38
ENDBRANCH  31  37
BRANCH  32  40
ATOM     40  O   UNL     1     -12.025  40.442  -5.852  1.00  0.00    -0.387 OA
ATOM     41  H   UNL     1     -11.305  39.895  -6.259  1.00  0.00     0.211 HD
ENDBRANCH  32  40
ENDBRANCH   1  27
TORSDOF 12
ENDMDL
MODEL 5
REMARK VINA RESULT:    -5.983      1.884      5.176
REMARK INTER + INTRA:         -10.456
REMARK INTER:                  -9.635
REMARK INTRA:                  -0.821
REMARK UNBOUND:                -1.674
REMARK SMILES O=c1c(O[C@@H]2O[C@@H](CO)[C@@H](O)[C@H](O)[C@@H]2O)c(-c2ccc(O)c(O)c2)oc2cc(O)cc(O)c12
REMARK SMILES IDX 4 1 3 2 16 3 25 4 2 5 26 6 1 7 33 8 27 9 31 10 28 11 30 12
REMARK SMILES IDX 17 13 18 14 19 15 20 16 24 17 22 18 21 19 23 21 32 23 29 25
REMARK SMILES IDX 5 27 14 28 6 29 12 30 7 31 10 32 15 33 13 35 8 37 9 38 11 40
REMARK H PARENT 21 20 23 22 32 24 29 26 15 34 13 36 9 39 11 41
REMARK Flexibility Score: inf
ROOT
ATOM      1  O   UNL     1     -13.799  38.302  -2.405  1.00  0.00    -0.454 OA
ENDROOT
BRANCH   1   2
ATOM      2  C   UNL     1     -13.965  37.186  -1.555  1.00  0.00     0.214 A 
ATOM      3  C   UNL     1     -15.249  36.935  -1.031  1.00  0.00     0.180 A 
ATOM      4  O   UNL     1     -15.480  35.852  -0.297  1.00  0.00    -0.452 OA
ATOM      5  C   UNL     1     -12.926  36.284  -1.222  1.00  0.00     0.239 A 
ATOM      6  C   UNL     1     -14.540  34.972   0.016  1.00  0.00     0.146 A 
ATOM      7  O   UNL     1     -11.751  36.484  -1.628  1.00  0.00    -0.285 OA
ATOM      8  C   UNL     1     -13.210  35.153  -0.426  1.00  0.00     0.111 A 
ATOM      9  C   UNL     1     -14.883  33.863   0.796  1.00  0.00     0.094 A 
ATOM     10  C   UNL     1     -12.230  34.197  -0.059  1.00  0.00     0.134 A 
ATOM     11  C   UNL     1     -13.910  32.923   1.153  1.00  0.00     0.123 A 
ATOM     12  C   UNL     1     -12.592  33.093   0.726  1.00  0.00     0.093 A 
BRANCH   3  13
ATOM     13  C   UNL     1     -16.375  37.851  -1.285  1.00  0.00     0.025 A 
ATOM     14  C   UNL     1     -16.991  37.894  -2.544  1.00  0.00     0.016 A 
ATOM     15  C   UNL     1     -18.046  38.778  -2.783  1.00  0.00     0.051 A 
ATOM     16  C   UNL     1     -18.485  39.642  -1.774  1.00  0.00     0.157 A 
ATOM     17  C   UNL     1     -16.798  38.735  -0.281  1.00  0.00     0.062 A 
ATOM     18  C   UNL     1     -17.856  39.625  -0.518  1.00  0.00     0.158 A 
BRANCH  16  19
ATOM     19  O   UNL     1     -19.542  40.512  -2.040  1.00  0.00    -0.504 OA
ATOM     20  H   UNL     1     -19.391  41.486  -2.275  1.00  0.00     0.293 HD
ENDBRANCH  16  19
BRANCH  18  21
ATOM     21  O   UNL     1     -18.283  40.488   0.489  1.00  0.00    -0.504 OA
ATOM     22  H   UNL     1     -17.736  40.636   1.329  1.00  0.00     0.293 HD
ENDBRANCH  18  21
ENDBRANCH   3  13
BRANCH  10  23
ATOM     23  O   UNL     1     -10.903  34.333  -0.469  1.00  0.00    -0.507 OA
ATOM     24  H   UNL     1     -10.326  33.529  -0.689  1.00  0.00     0.293 HD
ENDBRANCH  10  23
BRANCH  11  25
ATOM     25  O   UNL     1     -14.245  31.818   1.932  1.00  0.00    -0.508 OA
ATOM     26  H   UNL     1     -14.142  31.830   2.940  1.00  0.00     0.293 HD
ENDBRANCH  11  25
ENDBRANCH   1   2
BRANCH   1  27
ATOM     27  C   UNL     1     -12.563  38.941  -2.748  1.00  0.00     0.339 C 
ATOM     28  C   UNL     1     -12.115  38.578  -4.185  1.00  0.00     0.214 C 
ATOM     29  O   UNL     1     -12.636  40.346  -2.563  1.00  0.00    -0.332 OA
ATOM     30  C   UNL     1     -12.917  39.328  -5.272  1.00  0.00     0.180 C 
ATOM     31  C   UNL     1     -13.592  40.934  -3.427  1.00  0.00     0.179 C 
ATOM     32  C   UNL     1     -13.133  40.809  -4.900  1.00  0.00     0.177 C 
BRANCH  28  33
ATOM     33  O   UNL     1     -12.206  37.193  -4.394  1.00  0.00    -0.384 OA
ATOM     34  H   UNL     1     -13.069  36.899  -4.000  1.00  0.00     0.211 HD
ENDBRANCH  28  33
BRANCH  30  35
ATOM     35  O   UNL     1     -14.133  38.686  -5.568  1.00  0.00    -0.387 OA
ATOM     36  H   UNL     1     -14.774  39.370  -5.876  1.00  0.00     0.211 HD
ENDBRANCH  30  35
BRANCH  31  37
ATOM     37  C   UNL     1     -13.785  42.400  -3.010  1.00  0.00     0.191 C 
BRANCH  37  38
ATOM     38  O   UNL     1     -14.415  43.134  -4.026  1.00  0.00    -0.394 OA
ATOM     39  H   UNL     1     -15.218  42.617  -4.295  1.00  0.00     0.210 HD
ENDBRANCH  37  38
ENDBRANCH  31  37
BRANCH  32  40
ATOM     40  O   UNL     1     -11.922  41.502  -5.090  1.00  0.00    -0.387 OA
ATOM     41  H   UNL     1     -11.737  41.509  -6.064  1.00  0.00     0.211 HD
ENDBRANCH  32  40
ENDBRANCH   1  27
TORSDOF 12
ENDMDL
MODEL 6
REMARK VINA RESULT:    -5.895      2.164      7.471
REMARK INTER + INTRA:         -10.327
REMARK INTER:                  -8.353
REMARK INTRA:                  -1.974
REMARK UNBOUND:                -1.674
REMARK SMILES O=c1c(O[C@@H]2O[C@@H](CO)[C@@H](O)[C@H](O)[C@@H]2O)c(-c2ccc(O)c(O)c2)oc2cc(O)cc(O)c12
REMARK SMILES IDX 4 1 3 2 16 3 25 4 2 5 26 6 1 7 33 8 27 9 31 10 28 11 30 12
REMARK SMILES IDX 17 13 18 14 19 15 20 16 24 17 22 18 21 19 23 21 32 23 29 25
REMARK SMILES IDX 5 27 14 28 6 29 12 30 7 31 10 32 15 33 13 35 8 37 9 38 11 40
REMARK H PARENT 21 20 23 22 32 24 29 26 15 34 13 36 9 39 11 41
REMARK Flexibility Score: inf
ROOT
ATOM      1  O   UNL     1     -11.756  36.842  -3.450  1.00  0.00    -0.454 OA
ENDROOT
BRANCH   1   2
ATOM      2  C   UNL     1     -11.943  38.103  -4.056  1.00  0.00     0.214 A 
ATOM      3  C   UNL     1     -13.111  38.825  -3.740  1.00  0.00     0.180 A 
ATOM      4  O   UNL     1     -13.297  40.052  -4.212  1.00  0.00    -0.452 OA
ATOM      5  C   UNL     1     -11.013  38.704  -4.938  1.00  0.00     0.239 A 
ATOM      6  C   UNL     1     -12.439  40.658  -5.021  1.00  0.00     0.146 A 
ATOM      7  O   UNL     1      -9.973  38.085  -5.288  1.00  0.00    -0.285 OA
ATOM      8  C   UNL     1     -11.255  40.004  -5.431  1.00  0.00     0.111 A 
ATOM      9  C   UNL     1     -12.725  41.952  -5.467  1.00  0.00     0.094 A 
ATOM     10  C   UNL     1     -10.368  40.679  -6.307  1.00  0.00     0.134 A 
ATOM     11  C   UNL     1     -11.845  42.612  -6.330  1.00  0.00     0.123 A 
ATOM     12  C   UNL     1     -10.673  41.975  -6.746  1.00  0.00     0.093 A 
BRANCH   3  13
ATOM     13  C   UNL     1     -14.156  38.254  -2.871  1.00  0.00     0.025 A 
ATOM     14  C   UNL     1     -14.026  38.292  -1.475  1.00  0.00     0.016 A 
ATOM     15  C   UNL     1     -15.011  37.732  -0.659  1.00  0.00     0.051 A 
ATOM     16  C   UNL     1     -16.128  37.111  -1.226  1.00  0.00     0.157 A 
ATOM     17  C   UNL     1     -15.264  37.609  -3.441  1.00  0.00     0.062 A 
ATOM     18  C   UNL     1     -16.255  37.044  -2.624  1.00  0.00     0.158 A 
BRANCH  16  19
ATOM     19  O   UNL     1     -17.098  36.563  -0.387  1.00  0.00    -0.504 OA
ATOM     20  H   UNL     1     -17.734  35.840  -0.701  1.00  0.00     0.293 HD
ENDBRANCH  16  19
BRANCH  18  21
ATOM     21  O   UNL     1     -17.361  36.419  -3.197  1.00  0.00    -0.504 OA
ATOM     22  H   UNL     1     -17.290  35.904  -4.066  1.00  0.00     0.293 HD
ENDBRANCH  18  21
ENDBRANCH   3  13
BRANCH  10  23
ATOM     23  O   UNL     1      -9.188  40.074  -6.742  1.00  0.00    -0.507 OA
ATOM     24  H   UNL     1      -8.334  40.118  -6.198  1.00  0.00     0.293 HD
ENDBRANCH  10  23
BRANCH  11  25
ATOM     25  O   UNL     1     -12.125  43.900  -6.780  1.00  0.00    -0.508 OA
ATOM     26  H   UNL     1     -12.545  44.594  -6.173  1.00  0.00     0.293 HD
ENDBRANCH  11  25
ENDBRANCH   1   2
BRANCH   1  27
ATOM     27  C   UNL     1     -12.059  35.563  -4.023  1.00  0.00     0.339 C 
ATOM     28  C   UNL     1     -10.805  34.657  -4.086  1.00  0.00     0.214 C 
ATOM     29  O   UNL     1     -13.129  34.928  -3.341  1.00  0.00    -0.332 OA
ATOM     30  C   UNL     1     -10.425  34.059  -2.713  1.00  0.00     0.180 C 
ATOM     31  C   UNL     1     -12.788  34.642  -1.996  1.00  0.00     0.179 C 
ATOM     32  C   UNL     1     -11.669  33.575  -1.940  1.00  0.00     0.177 C 
BRANCH  28  33
ATOM     33  O   UNL     1      -9.714  35.362  -4.619  1.00  0.00    -0.384 OA
ATOM     34  H   UNL     1      -9.022  35.401  -3.908  1.00  0.00     0.211 HD
ENDBRANCH  28  33
BRANCH  30  35
ATOM     35  O   UNL     1      -9.653  34.950  -1.945  1.00  0.00    -0.387 OA
ATOM     36  H   UNL     1      -9.937  35.870  -2.165  1.00  0.00     0.211 HD
ENDBRANCH  30  35
BRANCH  31  37
ATOM     37  C   UNL     1     -14.057  34.179  -1.263  1.00  0.00     0.191 C 
BRANCH  37  38
ATOM     38  O   UNL     1     -13.774  33.125  -0.382  1.00  0.00    -0.394 OA
ATOM     39  H   UNL     1     -13.529  33.537   0.486  1.00  0.00     0.210 HD
ENDBRANCH  37  38
ENDBRANCH  31  37
BRANCH  32  40
ATOM     40  O   UNL     1     -12.118  32.372  -2.517  1.00  0.00    -0.387 OA
ATOM     41  H   UNL     1     -12.628  31.885  -1.820  1.00  0.00     0.211 HD
ENDBRANCH  32  40
ENDBRANCH   1  27
TORSDOF 12
ENDMDL
MODEL 7
REMARK VINA RESULT:    -5.864      1.936      5.121
REMARK INTER + INTRA:         -10.280
REMARK INTER:                  -8.308
REMARK INTRA:                  -1.972
REMARK UNBOUND:                -1.674
REMARK SMILES O=c1c(O[C@@H]2O[C@@H](CO)[C@@H](O)[C@H](O)[C@@H]2O)c(-c2ccc(O)c(O)c2)oc2cc(O)cc(O)c12
REMARK SMILES IDX 4 1 3 2 16 3 25 4 2 5 26 6 1 7 33 8 27 9 31 10 28 11 30 12
REMARK SMILES IDX 17 13 18 14 19 15 20 16 24 17 22 18 21 19 23 21 32 23 29 25
REMARK SMILES IDX 5 27 14 28 6 29 12 30 7 31 10 32 15 33 13 35 8 37 9 38 11 40
REMARK H PARENT 21 20 23 22 32 24 29 26 15 34 13 36 9 39 11 41
REMARK Flexibility Score: inf
ROOT
ATOM      1  O   UNL     1     -13.638  35.581  -1.244  1.00  0.00    -0.454 OA
ENDROOT
BRANCH   1   2
ATOM      2  C   UNL     1     -14.607  36.386  -0.606  1.00  0.00     0.214 A 
ATOM      3  C   UNL     1     -14.933  37.624  -1.194  1.00  0.00     0.180 A 
ATOM      4  O   UNL     1     -15.897  38.382  -0.685  1.00  0.00    -0.452 OA
ATOM      5  C   UNL     1     -15.295  36.012   0.574  1.00  0.00     0.239 A 
ATOM      6  C   UNL     1     -16.581  38.056   0.402  1.00  0.00     0.146 A 
ATOM      7  O   UNL     1     -15.012  34.936   1.164  1.00  0.00    -0.285 OA
ATOM      8  C   UNL     1     -16.303  36.854   1.092  1.00  0.00     0.111 A 
ATOM      9  C   UNL     1     -17.578  38.922   0.862  1.00  0.00     0.094 A 
ATOM     10  C   UNL     1     -17.046  36.545   2.259  1.00  0.00     0.134 A 
ATOM     11  C   UNL     1     -18.308  38.610   2.014  1.00  0.00     0.123 A 
ATOM     12  C   UNL     1     -18.040  37.427   2.706  1.00  0.00     0.093 A 
BRANCH   3  13
ATOM     13  C   UNL     1     -14.229  38.114  -2.393  1.00  0.00     0.025 A 
ATOM     14  C   UNL     1     -14.642  37.722  -3.675  1.00  0.00     0.016 A 
ATOM     15  C   UNL     1     -13.959  38.176  -4.805  1.00  0.00     0.051 A 
ATOM     16  C   UNL     1     -12.845  39.011  -4.669  1.00  0.00     0.157 A 
ATOM     17  C   UNL     1     -13.097  38.931  -2.255  1.00  0.00     0.062 A 
ATOM     18  C   UNL     1     -12.408  39.388  -3.388  1.00  0.00     0.158 A 
BRANCH  16  19
ATOM     19  O   UNL     1     -12.184  39.451  -5.815  1.00  0.00    -0.504 OA
ATOM     20  H   UNL     1     -12.546  40.203  -6.389  1.00  0.00     0.293 HD
ENDBRANCH  16  19
BRANCH  18  21
ATOM     21  O   UNL     1     -11.294  40.213  -3.244  1.00  0.00    -0.504 OA
ATOM     22  H   UNL     1     -10.896  40.414  -2.334  1.00  0.00     0.293 HD
ENDBRANCH  18  21
ENDBRANCH   3  13
BRANCH  10  23
ATOM     23  O   UNL     1     -16.807  35.371   2.975  1.00  0.00    -0.507 OA
ATOM     24  H   UNL     1     -17.452  35.035   3.680  1.00  0.00     0.293 HD
ENDBRANCH  10  23
BRANCH  11  25
ATOM     25  O   UNL     1     -19.300  39.470   2.479  1.00  0.00    -0.508 OA
ATOM     26  H   UNL     1     -20.281  39.294   2.297  1.00  0.00     0.293 HD
ENDBRANCH  11  25
ENDBRANCH   1   2
BRANCH   1  27
ATOM     27  C   UNL     1     -12.269  35.417  -0.853  1.00  0.00     0.339 C 
ATOM     28  C   UNL     1     -11.939  33.937  -0.543  1.00  0.00     0.214 C 
ATOM     29  O   UNL     1     -11.384  35.957  -1.822  1.00  0.00    -0.332 OA
ATOM     30  C   UNL     1     -11.779  33.076  -1.817  1.00  0.00     0.180 C 
ATOM     31  C   UNL     1     -11.486  35.270  -3.057  1.00  0.00     0.179 C 
ATOM     32  C   UNL     1     -10.977  33.816  -2.906  1.00  0.00     0.177 C 
BRANCH  28  33
ATOM     33  O   UNL     1     -12.920  33.378   0.291  1.00  0.00    -0.384 OA
ATOM     34  H   UNL     1     -13.177  32.507  -0.111  1.00  0.00     0.211 HD
ENDBRANCH  28  33
BRANCH  30  35
ATOM     35  O   UNL     1     -13.018  32.622  -2.305  1.00  0.00    -0.387 OA
ATOM     36  H   UNL     1     -13.604  33.406  -2.433  1.00  0.00     0.211 HD
ENDBRANCH  30  35
BRANCH  31  37
ATOM     37  C   UNL     1     -10.686  36.050  -4.112  1.00  0.00     0.191 C 
BRANCH  37  38
ATOM     38  O   UNL     1      -9.952  35.180  -4.932  1.00  0.00    -0.394 OA
ATOM     39  H   UNL     1      -9.361  35.747  -5.492  1.00  0.00     0.210 HD
ENDBRANCH  37  38
ENDBRANCH  31  37
BRANCH  32  40
ATOM     40  O   UNL     1      -9.617  33.815  -2.543  1.00  0.00    -0.387 OA
ATOM     41  H   UNL     1      -9.089  33.877  -3.381  1.00  0.00     0.211 HD
ENDBRANCH  32  40
ENDBRANCH   1  27
TORSDOF 12
ENDMDL
MODEL 8
REMARK VINA RESULT:    -5.840      1.688      6.731
REMARK INTER + INTRA:         -10.246
REMARK INTER:                  -8.339
REMARK INTRA:                  -1.907
REMARK UNBOUND:                -1.674
REMARK SMILES O=c1c(O[C@@H]2O[C@@H](CO)[C@@H](O)[C@H](O)[C@@H]2O)c(-c2ccc(O)c(O)c2)oc2cc(O)cc(O)c12
REMARK SMILES IDX 4 1 3 2 16 3 25 4 2 5 26 6 1 7 33 8 27 9 31 10 28 11 30 12
REMARK SMILES IDX 17 13 18 14 19 15 20 16 24 17 22 18 21 19 23 21 32 23 29 25
REMARK SMILES IDX 5 27 14 28 6 29 12 30 7 31 10 32 15 33 13 35 8 37 9 38 11 40
REMARK H PARENT 21 20 23 22 32 24 29 26 15 34 13 36 9 39 11 41
REMARK Flexibility Score: inf
ROOT
ATOM      1  O   UNL     1     -14.135  38.475  -3.132  1.00  0.00    -0.454 OA
ENDROOT
BRANCH   1   2
ATOM      2  C   UNL     1     -13.106  38.942  -3.978  1.00  0.00     0.214 A 
ATOM      3  C   UNL     1     -12.071  38.048  -4.320  1.00  0.00     0.180 A 
ATOM      4  O   UNL     1     -11.125  38.406  -5.180  1.00  0.00    -0.452 OA
ATOM      5  C   UNL     1     -13.065  40.244  -4.531  1.00  0.00     0.239 A 
ATOM      6  C   UNL     1     -11.066  39.607  -5.738  1.00  0.00     0.146 A 
ATOM      7  O   UNL     1     -13.941  41.096  -4.225  1.00  0.00    -0.285 OA
ATOM      8  C   UNL     1     -12.033  40.590  -5.430  1.00  0.00     0.111 A 
ATOM      9  C   UNL     1     -10.028  39.890  -6.631  1.00  0.00     0.094 A 
ATOM     10  C   UNL     1     -11.928  41.868  -6.036  1.00  0.00     0.134 A 
ATOM     11  C   UNL     1      -9.933  41.152  -7.226  1.00  0.00     0.123 A 
ATOM     12  C   UNL     1     -10.879  42.133  -6.927  1.00  0.00     0.093 A 
BRANCH   3  13
ATOM     13  C   UNL     1     -12.008  36.690  -3.749  1.00  0.00     0.025 A 
ATOM     14  C   UNL     1     -12.912  35.700  -4.159  1.00  0.00     0.016 A 
ATOM     15  C   UNL     1     -12.858  34.421  -3.600  1.00  0.00     0.051 A 
ATOM     16  C   UNL     1     -11.914  34.122  -2.613  1.00  0.00     0.157 A 
ATOM     17  C   UNL     1     -11.077  36.398  -2.741  1.00  0.00     0.062 A 
ATOM     18  C   UNL     1     -11.021  35.116  -2.176  1.00  0.00     0.158 A 
BRANCH  16  19
ATOM     19  O   UNL     1     -11.881  32.836  -2.074  1.00  0.00    -0.504 OA
ATOM     20  H   UNL     1     -11.227  32.134  -2.399  1.00  0.00     0.293 HD
ENDBRANCH  16  19
BRANCH  18  21
ATOM     21  O   UNL     1     -10.083  34.827  -1.187  1.00  0.00    -0.504 OA
ATOM     22  H   UNL     1      -9.893  35.473  -0.430  1.00  0.00     0.293 HD
ENDBRANCH  18  21
ENDBRANCH   3  13
BRANCH  10  23
ATOM     23  O   UNL     1     -12.858  42.873  -5.761  1.00  0.00    -0.507 OA
ATOM     24  H   UNL     1     -12.574  43.783  -5.418  1.00  0.00     0.293 HD
ENDBRANCH  10  23
BRANCH  11  25
ATOM     25  O   UNL     1      -8.900  41.440  -8.115  1.00  0.00    -0.508 OA
ATOM     26  H   UNL     1      -7.934  41.231  -7.892  1.00  0.00     0.293 HD
ENDBRANCH  11  25
ENDBRANCH   1   2
BRANCH   1  27
ATOM     27  C   UNL     1     -14.358  38.851  -1.767  1.00  0.00     0.339 C 
ATOM     28  C   UNL     1     -15.817  39.316  -1.535  1.00  0.00     0.214 C 
ATOM     29  O   UNL     1     -13.994  37.809  -0.874  1.00  0.00    -0.332 OA
ATOM     30  C   UNL     1     -16.820  38.142  -1.477  1.00  0.00     0.180 C 
ATOM     31  C   UNL     1     -14.802  36.660  -1.063  1.00  0.00     0.179 C 
ATOM     32  C   UNL     1     -16.265  36.960  -0.657  1.00  0.00     0.177 C 
BRANCH  28  33
ATOM     33  O   UNL     1     -16.206  40.228  -2.529  1.00  0.00    -0.384 OA
ATOM     34  H   UNL     1     -16.325  39.707  -3.366  1.00  0.00     0.211 HD
ENDBRANCH  28  33
BRANCH  30  35
ATOM     35  O   UNL     1     -17.230  37.734  -2.760  1.00  0.00    -0.387 OA
ATOM     36  H   UNL     1     -18.014  37.144  -2.657  1.00  0.00     0.211 HD
ENDBRANCH  30  35
BRANCH  31  37
ATOM     37  C   UNL     1     -14.204  35.508  -0.241  1.00  0.00     0.191 C 
BRANCH  37  38
ATOM     38  O   UNL     1     -15.203  34.618   0.180  1.00  0.00    -0.394 OA
ATOM     39  H   UNL     1     -15.040  34.442   1.143  1.00  0.00     0.210 HD
ENDBRANCH  37  38
ENDBRANCH  31  37
BRANCH  32  40
ATOM     40  O   UNL     1     -16.329  37.291   0.710  1.00  0.00    -0.387 OA
ATOM     41  H   UNL     1     -17.154  36.877   1.074  1.00  0.00     0.211 HD
ENDBRANCH  32  40
ENDBRANCH   1  27
TORSDOF 12
ENDMDL
MODEL 9
REMARK VINA RESULT:    -5.716      2.367      4.210
REMARK INTER + INTRA:         -10.063
REMARK INTER:                  -8.073
REMARK INTRA:                  -1.990
REMARK UNBOUND:                -1.674
REMARK SMILES O=c1c(O[C@@H]2O[C@@H](CO)[C@@H](O)[C@H](O)[C@@H]2O)c(-c2ccc(O)c(O)c2)oc2cc(O)cc(O)c12
REMARK SMILES IDX 4 1 3 2 16 3 25 4 2 5 26 6 1 7 33 8 27 9 31 10 28 11 30 12
REMARK SMILES IDX 17 13 18 14 19 15 20 16 24 17 22 18 21 19 23 21 32 23 29 25
REMARK SMILES IDX 5 27 14 28 6 29 12 30 7 31 10 32 15 33 13 35 8 37 9 38 11 40
REMARK H PARENT 21 20 23 22 32 24 29 26 15 34 13 36 9 39 11 41
REMARK Flexibility Score: inf
ROOT
ATOM      1  O   UNL     1     -13.054  36.980  -1.961  1.00  0.00    -0.454 OA
ENDROOT
BRANCH   1   2
ATOM      2  C   UNL     1     -14.164  37.313  -1.154  1.00  0.00     0.214 A 
ATOM      3  C   UNL     1     -14.219  36.783   0.151  1.00  0.00     0.180 A 
ATOM      4  O   UNL     1     -15.194  37.131   0.982  1.00  0.00    -0.452 OA
ATOM      5  C   UNL     1     -15.211  38.173  -1.563  1.00  0.00     0.239 A 
ATOM      6  C   UNL     1     -16.178  37.952   0.645  1.00  0.00     0.146 A 
ATOM      7  O   UNL     1     -15.234  38.640  -2.732  1.00  0.00    -0.285 OA
ATOM      8  C   UNL     1     -16.238  38.506  -0.654  1.00  0.00     0.111 A 
ATOM      9  C   UNL     1     -17.162  38.257   1.591  1.00  0.00     0.094 A 
ATOM     10  C   UNL     1     -17.314  39.370  -0.982  1.00  0.00     0.134 A 
ATOM     11  C   UNL     1     -18.219  39.110   1.261  1.00  0.00     0.123 A 
ATOM     12  C   UNL     1     -18.292  39.661  -0.020  1.00  0.00     0.093 A 
BRANCH   3  13
ATOM     13  C   UNL     1     -13.198  35.839   0.640  1.00  0.00     0.025 A 
ATOM     14  C   UNL     1     -13.422  34.455   0.593  1.00  0.00     0.016 A 
ATOM     15  C   UNL     1     -12.458  33.568   1.076  1.00  0.00     0.051 A 
ATOM     16  C   UNL     1     -11.267  34.051   1.628  1.00  0.00     0.157 A 
ATOM     17  C   UNL     1     -12.015  36.325   1.216  1.00  0.00     0.062 A 
ATOM     18  C   UNL     1     -11.045  35.437   1.704  1.00  0.00     0.158 A 
BRANCH  16  19
ATOM     19  O   UNL     1     -10.321  33.142   2.099  1.00  0.00    -0.504 OA
ATOM     20  H   UNL     1      -9.496  33.438   2.608  1.00  0.00     0.293 HD
ENDBRANCH  16  19
BRANCH  18  21
ATOM     21  O   UNL     1      -9.864  35.925   2.260  1.00  0.00    -0.504 OA
ATOM     22  H   UNL     1      -9.739  35.997   3.263  1.00  0.00     0.293 HD
ENDBRANCH  18  21
ENDBRANCH   3  13
BRANCH  10  23
ATOM     23  O   UNL     1     -17.418  39.940  -2.252  1.00  0.00    -0.507 OA
ATOM     24  H   UNL     1     -18.140  39.660  -2.905  1.00  0.00     0.293 HD
ENDBRANCH  10  23
BRANCH  11  25
ATOM     25  O   UNL     1     -19.203  39.416   2.198  1.00  0.00    -0.508 OA
ATOM     26  H   UNL     1     -19.156  40.258   2.760  1.00  0.00     0.293 HD
ENDBRANCH  11  25
ENDBRANCH   1   2
BRANCH   1  27
ATOM     27  C   UNL     1     -13.049  36.092  -3.086  1.00  0.00     0.339 C 
ATOM     28  C   UNL     1     -12.487  36.782  -4.353  1.00  0.00     0.214 C 
ATOM     29  O   UNL     1     -12.354  34.889  -2.795  1.00  0.00    -0.332 OA
ATOM     30  C   UNL     1     -10.949  36.920  -4.331  1.00  0.00     0.180 C 
ATOM     31  C   UNL     1     -10.984  35.134  -2.529  1.00  0.00     0.179 C 
ATOM     32  C   UNL     1     -10.270  35.638  -3.806  1.00  0.00     0.177 C 
BRANCH  28  33
ATOM     33  O   UNL     1     -13.077  38.044  -4.529  1.00  0.00    -0.384 OA
ATOM     34  H   UNL     1     -12.374  38.641  -4.895  1.00  0.00     0.211 HD
ENDBRANCH  28  33
BRANCH  30  35
ATOM     35  O   UNL     1     -10.530  38.057  -3.616  1.00  0.00    -0.387 OA
ATOM     36  H   UNL     1      -9.607  38.269  -3.891  1.00  0.00     0.211 HD
ENDBRANCH  30  35
BRANCH  31  37
ATOM     37  C   UNL     1     -10.355  33.837  -1.996  1.00  0.00     0.191 C 
BRANCH  37  38
ATOM     38  O   UNL     1     -10.623  32.759  -2.852  1.00  0.00    -0.394 OA
ATOM     39  H   UNL     1     -10.628  33.123  -3.775  1.00  0.00     0.210 HD
ENDBRANCH  37  38
ENDBRANCH  31  37
BRANCH  32  40
ATOM     40  O   UNL     1     -10.327  34.654  -4.812  1.00  0.00    -0.387 OA
ATOM     41  H   UNL     1      -9.758  33.898  -4.515  1.00  0.00     0.211 HD
ENDBRANCH  32  40
ENDBRANCH   1  27
TORSDOF 12
ENDMDL
