MODEL 1
REMARK VINA RESULT:    -5.623      0.000      0.000
REMARK INTER + INTRA:          -7.082
REMARK INTER:                  -6.774
REMARK INTRA:                  -0.307
REMARK UNBOUND:                -0.307
REMARK SMILES O=c1c(O)c(-c2ccc(O)c(O)c2)oc2cc(O)cc(O)c12
REMARK SMILES IDX 5 1 3 2 2 3 1 4 22 5 20 6 19 7 17 8 16 9 15 10 14 11 6 12
REMARK SMILES IDX 7 13 8 14 9 15 13 16 11 17 10 18 12 20 4 22 21 24 18 26
REMARK H PARENT 10 19 12 21 4 23 21 25 18 27
REMARK Flexibility Score: inf
ROOT
ATOM      1  C   UNL     1      36.352 184.861  32.481  1.00  0.00     0.180 A 
ATOM      2  C   UNL     1      35.639 185.497  33.511  1.00  0.00     0.208 A 
ATOM      3  C   UNL     1      34.348 185.045  33.826  1.00  0.00     0.238 A 
ATOM      4  O   UNL     1      33.694 185.654  34.711  1.00  0.00    -0.285 OA
ATOM      5  C   UNL     1      33.792 183.952  33.117  1.00  0.00     0.111 A 
ATOM      6  C   UNL     1      32.509 183.385  33.379  1.00  0.00     0.134 A 
ATOM      7  C   UNL     1      32.007 182.390  32.531  1.00  0.00     0.093 A 
ATOM      8  C   UNL     1      32.770 181.897  31.469  1.00  0.00     0.123 A 
ATOM      9  C   UNL     1      34.047 182.402  31.242  1.00  0.00     0.094 A 
ATOM     10  C   UNL     1      34.561 183.421  32.049  1.00  0.00     0.146 A 
ATOM     11  O   UNL     1      35.779 183.882  31.791  1.00  0.00    -0.452 OA
ENDROOT
BRANCH   1  12
ATOM     12  C   UNL     1      37.728 185.265  32.108  1.00  0.00     0.025 A 
ATOM     13  C   UNL     1      38.840 184.856  32.864  1.00  0.00     0.016 A 
ATOM     14  C   UNL     1      40.131 185.229  32.480  1.00  0.00     0.051 A 
ATOM     15  C   UNL     1      40.330 186.003  31.330  1.00  0.00     0.157 A 
ATOM     16  C   UNL     1      37.935 186.022  30.944  1.00  0.00     0.062 A 
ATOM     17  C   UNL     1      39.226 186.398  30.556  1.00  0.00     0.158 A 
BRANCH  15  18
ATOM     18  O   UNL     1      41.619 186.375  30.950  1.00  0.00    -0.504 OA
ATOM     19  H   UNL     1      42.308 185.688  30.666  1.00  0.00     0.293 HD
ENDBRANCH  15  18
BRANCH  17  20
ATOM     20  O   UNL     1      39.391 187.162  29.401  1.00  0.00    -0.504 OA
ATOM     21  H   UNL     1      39.511 188.167  29.434  1.00  0.00     0.293 HD
ENDBRANCH  17  20
ENDBRANCH   1  12
BRANCH   2  22
ATOM     22  O   UNL     1      36.198 186.589  34.182  1.00  0.00    -0.502 OA
ATOM     23  H   UNL     1      36.266 186.630  35.192  1.00  0.00     0.293 HD
ENDBRANCH   2  22
BRANCH   6  24
ATOM     24  O   UNL     1      31.706 183.741  34.467  1.00  0.00    -0.507 OA
ATOM     25  H   UNL     1      31.916 183.527  35.430  1.00  0.00     0.293 HD
ENDBRANCH   6  24
BRANCH   8  26
ATOM     26  O   UNL     1      32.270 180.896  30.640  1.00  0.00    -0.508 OA
ATOM     27  H   UNL     1      32.885 180.296  30.103  1.00  0.00     0.293 HD
ENDBRANCH   8  26
TORSDOF 6
ENDMDL
MODEL 2
REMARK VINA RESULT:    -5.485      1.608      6.658
REMARK INTER + INTRA:          -6.915
REMARK INTER:                  -6.615
REMARK INTRA:                  -0.300
REMARK UNBOUND:                -0.307
REMARK SMILES O=c1c(O)c(-c2ccc(O)c(O)c2)oc2cc(O)cc(O)c12
REMARK SMILES IDX 5 1 3 2 2 3 1 4 22 5 20 6 19 7 17 8 16 9 15 10 14 11 6 12
REMARK SMILES IDX 7 13 8 14 9 15 13 16 11 17 10 18 12 20 4 22 21 24 18 26
REMARK H PARENT 10 19 12 21 4 23 21 25 18 27
REMARK Flexibility Score: inf
ROOT
ATOM      1  C   UNL     1      35.975 184.870  32.035  1.00  0.00     0.180 A 
ATOM      2  C   UNL     1      35.563 185.894  32.905  1.00  0.00     0.208 A 
ATOM      3  C   UNL     1      36.466 186.920  33.225  1.00  0.00     0.238 A 
ATOM      4  O   UNL     1      36.110 187.803  34.048  1.00  0.00    -0.285 OA
ATOM      5  C   UNL     1      37.765 186.917  32.660  1.00  0.00     0.111 A 
ATOM      6  C   UNL     1      38.748 187.927  32.884  1.00  0.00     0.134 A 
ATOM      7  C   UNL     1      40.042 187.756  32.378  1.00  0.00     0.093 A 
ATOM      8  C   UNL     1      40.370 186.642  31.602  1.00  0.00     0.123 A 
ATOM      9  C   UNL     1      39.401 185.680  31.328  1.00  0.00     0.094 A 
ATOM     10  C   UNL     1      38.110 185.805  31.850  1.00  0.00     0.146 A 
ATOM     11  O   UNL     1      37.220 184.861  31.573  1.00  0.00    -0.452 OA
ENDROOT
BRANCH   1  12
ATOM     12  C   UNL     1      35.072 183.768  31.630  1.00  0.00     0.025 A 
ATOM     13  C   UNL     1      34.416 183.781  30.386  1.00  0.00     0.016 A 
ATOM     14  C   UNL     1      33.586 182.719  30.015  1.00  0.00     0.051 A 
ATOM     15  C   UNL     1      33.411 181.625  30.873  1.00  0.00     0.157 A 
ATOM     16  C   UNL     1      34.909 182.660  32.477  1.00  0.00     0.062 A 
ATOM     17  C   UNL     1      34.079 181.596  32.109  1.00  0.00     0.158 A 
BRANCH  15  18
ATOM     18  O   UNL     1      32.581 180.569  30.501  1.00  0.00    -0.504 OA
ATOM     19  H   UNL     1      32.881 179.869  29.832  1.00  0.00     0.293 HD
ENDBRANCH  15  18
BRANCH  17  20
ATOM     20  O   UNL     1      33.931 180.518  32.982  1.00  0.00    -0.504 OA
ATOM     21  H   UNL     1      33.117 179.916  32.961  1.00  0.00     0.293 HD
ENDBRANCH  17  20
ENDBRANCH   1  12
BRANCH   2  22
ATOM     22  O   UNL     1      34.284 185.865  33.469  1.00  0.00    -0.502 OA
ATOM     23  H   UNL     1      34.041 185.246  34.233  1.00  0.00     0.293 HD
ENDBRANCH   2  22
BRANCH   6  24
ATOM     24  O   UNL     1      38.498 189.121  33.567  1.00  0.00    -0.507 OA
ATOM     25  H   UNL     1      38.616 190.043  33.176  1.00  0.00     0.293 HD
ENDBRANCH   6  24
BRANCH   8  26
ATOM     26  O   UNL     1      41.656 186.487  31.088  1.00  0.00    -0.508 OA
ATOM     27  H   UNL     1      42.420 186.154  31.665  1.00  0.00     0.293 HD
ENDBRANCH   8  26
TORSDOF 6
ENDMDL
MODEL 3
REMARK VINA RESULT:    -5.447      5.180      7.706
REMARK INTER + INTRA:          -6.869
REMARK INTER:                  -6.603
REMARK INTRA:                  -0.266
REMARK UNBOUND:                -0.307
REMARK SMILES O=c1c(O)c(-c2ccc(O)c(O)c2)oc2cc(O)cc(O)c12
REMARK SMILES IDX 5 1 3 2 2 3 1 4 22 5 20 6 19 7 17 8 16 9 15 10 14 11 6 12
REMARK SMILES IDX 7 13 8 14 9 15 13 16 11 17 10 18 12 20 4 22 21 24 18 26
REMARK H PARENT 10 19 12 21 4 23 21 25 18 27
REMARK Flexibility Score: inf
ROOT
ATOM      1  C   UNL     1      41.484 184.028  33.453  1.00  0.00     0.180 A 
ATOM      2  C   UNL     1      42.700 184.333  34.087  1.00  0.00     0.208 A 
ATOM      3  C   UNL     1      43.531 183.284  34.508  1.00  0.00     0.238 A 
ATOM      4  O   UNL     1      44.592 183.563  35.125  1.00  0.00    -0.285 OA
ATOM      5  C   UNL     1      43.144 181.942  34.275  1.00  0.00     0.111 A 
ATOM      6  C   UNL     1      43.927 180.800  34.623  1.00  0.00     0.134 A 
ATOM      7  C   UNL     1      43.387 179.517  34.464  1.00  0.00     0.093 A 
ATOM      8  C   UNL     1      42.118 179.334  33.909  1.00  0.00     0.123 A 
ATOM      9  C   UNL     1      41.371 180.440  33.511  1.00  0.00     0.094 A 
ATOM     10  C   UNL     1      41.868 181.734  33.691  1.00  0.00     0.146 A 
ATOM     11  O   UNL     1      41.118 182.760  33.307  1.00  0.00    -0.452 OA
ENDROOT
BRANCH   1  12
ATOM     12  C   UNL     1      40.566 185.080  32.958  1.00  0.00     0.025 A 
ATOM     13  C   UNL     1      39.762 185.823  33.841  1.00  0.00     0.016 A 
ATOM     14  C   UNL     1      38.921 186.827  33.353  1.00  0.00     0.051 A 
ATOM     15  C   UNL     1      38.881 187.113  31.983  1.00  0.00     0.157 A 
ATOM     16  C   UNL     1      40.537 185.385  31.588  1.00  0.00     0.062 A 
ATOM     17  C   UNL     1      39.696 186.389  31.096  1.00  0.00     0.158 A 
BRANCH  15  18
ATOM     18  O   UNL     1      38.039 188.114  31.500  1.00  0.00    -0.504 OA
ATOM     19  H   UNL     1      38.407 188.971  31.104  1.00  0.00     0.293 HD
ENDBRANCH  15  18
BRANCH  17  20
ATOM     20  O   UNL     1      39.685 186.654  29.727  1.00  0.00    -0.504 OA
ATOM     21  H   UNL     1      40.437 187.156  29.270  1.00  0.00     0.293 HD
ENDBRANCH  17  20
ENDBRANCH   1  12
BRANCH   2  22
ATOM     22  O   UNL     1      43.052 185.665  34.327  1.00  0.00    -0.502 OA
ATOM     23  H   UNL     1      43.674 185.936  35.080  1.00  0.00     0.293 HD
ENDBRANCH   2  22
BRANCH   6  24
ATOM     24  O   UNL     1      45.239 180.870  35.099  1.00  0.00    -0.507 OA
ATOM     25  H   UNL     1      45.883 180.094  35.128  1.00  0.00     0.293 HD
ENDBRANCH   6  24
BRANCH   8  26
ATOM     26  O   UNL     1      41.596 178.055  33.738  1.00  0.00    -0.508 OA
ATOM     27  H   UNL     1      42.163 177.293  33.384  1.00  0.00     0.293 HD
ENDBRANCH   8  26
TORSDOF 6
ENDMDL
MODEL 4
REMARK VINA RESULT:    -5.328      3.035      5.262
REMARK INTER + INTRA:          -6.725
REMARK INTER:                  -6.416
REMARK INTRA:                  -0.309
REMARK UNBOUND:                -0.307
REMARK SMILES O=c1c(O)c(-c2ccc(O)c(O)c2)oc2cc(O)cc(O)c12
REMARK SMILES IDX 5 1 3 2 2 3 1 4 22 5 20 6 19 7 17 8 16 9 15 10 14 11 6 12
REMARK SMILES IDX 7 13 8 14 9 15 13 16 11 17 10 18 12 20 4 22 21 24 18 26
REMARK H PARENT 10 19 12 21 4 23 21 25 18 27
REMARK Flexibility Score: inf
ROOT
ATOM      1  C   UNL     1      40.655 185.539  33.415  1.00  0.00     0.180 A 
ATOM      2  C   UNL     1      40.499 186.919  33.198  1.00  0.00     0.208 A 
ATOM      3  C   UNL     1      39.208 187.438  33.016  1.00  0.00     0.238 A 
ATOM      4  O   UNL     1      39.079 188.665  32.767  1.00  0.00    -0.285 OA
ATOM      5  C   UNL     1      38.087 186.573  33.070  1.00  0.00     0.111 A 
ATOM      6  C   UNL     1      36.730 186.996  32.939  1.00  0.00     0.134 A 
ATOM      7  C   UNL     1      35.710 186.039  32.878  1.00  0.00     0.093 A 
ATOM      8  C   UNL     1      35.994 184.676  33.007  1.00  0.00     0.123 A 
ATOM      9  C   UNL     1      37.308 184.258  33.195  1.00  0.00     0.094 A 
ATOM     10  C   UNL     1      38.352 185.188  33.224  1.00  0.00     0.146 A 
ATOM     11  O   UNL     1      39.591 184.746  33.395  1.00  0.00    -0.452 OA
ENDROOT
BRANCH   1  12
ATOM     12  C   UNL     1      41.983 184.922  33.641  1.00  0.00     0.025 A 
ATOM     13  C   UNL     1      42.448 184.641  34.938  1.00  0.00     0.016 A 
ATOM     14  C   UNL     1      43.694 184.036  35.125  1.00  0.00     0.051 A 
ATOM     15  C   UNL     1      44.485 183.691  34.022  1.00  0.00     0.157 A 
ATOM     16  C   UNL     1      42.771 184.555  32.538  1.00  0.00     0.062 A 
ATOM     17  C   UNL     1      44.019 183.950  32.722  1.00  0.00     0.158 A 
BRANCH  15  18
ATOM     18  O   UNL     1      45.729 183.090  34.213  1.00  0.00    -0.504 OA
ATOM     19  H   UNL     1      45.859 182.342  34.883  1.00  0.00     0.293 HD
ENDBRANCH  15  18
BRANCH  17  20
ATOM     20  O   UNL     1      44.780 183.612  31.603  1.00  0.00    -0.504 OA
ATOM     21  H   UNL     1      45.774 183.428  31.664  1.00  0.00     0.293 HD
ENDBRANCH  17  20
ENDBRANCH   1  12
BRANCH   2  22
ATOM     22  O   UNL     1      41.621 187.751  33.127  1.00  0.00    -0.502 OA
ATOM     23  H   UNL     1      42.388 187.687  33.785  1.00  0.00     0.293 HD
ENDBRANCH   2  22
BRANCH   6  24
ATOM     24  O   UNL     1      36.332 188.336  32.894  1.00  0.00    -0.507 OA
ATOM     25  H   UNL     1      35.708 188.773  33.555  1.00  0.00     0.293 HD
ENDBRANCH   6  24
BRANCH   8  26
ATOM     26  O   UNL     1      34.972 183.731  32.962  1.00  0.00    -0.508 OA
ATOM     27  H   UNL     1      35.164 182.738  33.028  1.00  0.00     0.293 HD
ENDBRANCH   8  26
TORSDOF 6
ENDMDL
MODEL 5
REMARK VINA RESULT:    -5.243      2.429      7.060
REMARK INTER + INTRA:          -6.624
REMARK INTER:                  -6.300
REMARK INTRA:                  -0.324
REMARK UNBOUND:                -0.307
REMARK SMILES O=c1c(O)c(-c2ccc(O)c(O)c2)oc2cc(O)cc(O)c12
REMARK SMILES IDX 5 1 3 2 2 3 1 4 22 5 20 6 19 7 17 8 16 9 15 10 14 11 6 12
REMARK SMILES IDX 7 13 8 14 9 15 13 16 11 17 10 18 12 20 4 22 21 24 18 26
REMARK H PARENT 10 19 12 21 4 23 21 25 18 27
REMARK Flexibility Score: inf
ROOT
ATOM      1  C   UNL     1      38.094 184.729  33.291  1.00  0.00     0.180 A 
ATOM      2  C   UNL     1      38.430 186.041  33.665  1.00  0.00     0.208 A 
ATOM      3  C   UNL     1      39.781 186.367  33.865  1.00  0.00     0.238 A 
ATOM      4  O   UNL     1      40.071 187.529  34.253  1.00  0.00    -0.285 OA
ATOM      5  C   UNL     1      40.780 185.382  33.674  1.00  0.00     0.111 A 
ATOM      6  C   UNL     1      42.182 185.612  33.810  1.00  0.00     0.134 A 
ATOM      7  C   UNL     1      43.070 184.533  33.724  1.00  0.00     0.093 A 
ATOM      8  C   UNL     1      42.612 183.243  33.444  1.00  0.00     0.123 A 
ATOM      9  C   UNL     1      41.251 183.020  33.250  1.00  0.00     0.094 A 
ATOM     10  C   UNL     1      40.336 184.070  33.365  1.00  0.00     0.146 A 
ATOM     11  O   UNL     1      39.047 183.811  33.183  1.00  0.00    -0.452 OA
ENDROOT
BRANCH   1  12
ATOM     12  C   UNL     1      36.695 184.315  33.037  1.00  0.00     0.025 A 
ATOM     13  C   UNL     1      35.877 183.828  34.073  1.00  0.00     0.016 A 
ATOM     14  C   UNL     1      34.552 183.466  33.814  1.00  0.00     0.051 A 
ATOM     15  C   UNL     1      34.022 183.597  32.525  1.00  0.00     0.157 A 
ATOM     16  C   UNL     1      36.152 184.463  31.751  1.00  0.00     0.062 A 
ATOM     17  C   UNL     1      34.826 184.101  31.489  1.00  0.00     0.158 A 
BRANCH  15  18
ATOM     18  O   UNL     1      32.700 183.233  32.270  1.00  0.00    -0.504 OA
ATOM     19  H   UNL     1      31.989 183.278  32.990  1.00  0.00     0.293 HD
ENDBRANCH  15  18
BRANCH  17  20
ATOM     20  O   UNL     1      34.326 184.250  30.195  1.00  0.00    -0.504 OA
ATOM     21  H   UNL     1      34.913 184.149  29.377  1.00  0.00     0.293 HD
ENDBRANCH  17  20
ENDBRANCH   1  12
BRANCH   2  22
ATOM     22  O   UNL     1      37.427 186.992  33.870  1.00  0.00    -0.502 OA
ATOM     23  H   UNL     1      37.620 187.917  34.235  1.00  0.00     0.293 HD
ENDBRANCH   2  22
BRANCH   6  24
ATOM     24  O   UNL     1      42.750 186.875  34.000  1.00  0.00    -0.507 OA
ATOM     25  H   UNL     1      43.113 187.459  33.262  1.00  0.00     0.293 HD
ENDBRANCH   6  24
BRANCH   8  26
ATOM     26  O   UNL     1      43.504 182.178  33.344  1.00  0.00    -0.508 OA
ATOM     27  H   UNL     1      44.216 182.015  34.047  1.00  0.00     0.293 HD
ENDBRANCH   8  26
TORSDOF 6
ENDMDL
MODEL 6
REMARK VINA RESULT:    -5.143      5.022      6.696
REMARK INTER + INTRA:          -6.503
REMARK INTER:                  -6.182
REMARK INTRA:                  -0.320
REMARK UNBOUND:                -0.307
REMARK SMILES O=c1c(O)c(-c2ccc(O)c(O)c2)oc2cc(O)cc(O)c12
REMARK SMILES IDX 5 1 3 2 2 3 1 4 22 5 20 6 19 7 17 8 16 9 15 10 14 11 6 12
REMARK SMILES IDX 7 13 8 14 9 15 13 16 11 17 10 18 12 20 4 22 21 24 18 26
REMARK H PARENT 10 19 12 21 4 23 21 25 18 27
REMARK Flexibility Score: inf
ROOT
ATOM      1  C   UNL     1      40.633 185.261  32.923  1.00  0.00     0.180 A 
ATOM      2  C   UNL     1      40.504 185.521  31.549  1.00  0.00     0.208 A 
ATOM      3  C   UNL     1      39.619 186.525  31.126  1.00  0.00     0.238 A 
ATOM      4  O   UNL     1      39.466 186.715  29.891  1.00  0.00    -0.285 OA
ATOM      5  C   UNL     1      38.885 187.267  32.083  1.00  0.00     0.111 A 
ATOM      6  C   UNL     1      37.990 188.334  31.770  1.00  0.00     0.134 A 
ATOM      7  C   UNL     1      37.220 188.911  32.788  1.00  0.00     0.093 A 
ATOM      8  C   UNL     1      37.361 188.503  34.117  1.00  0.00     0.123 A 
ATOM      9  C   UNL     1      38.276 187.504  34.440  1.00  0.00     0.094 A 
ATOM     10  C   UNL     1      39.032 186.884  33.442  1.00  0.00     0.146 A 
ATOM     11  O   UNL     1      39.884 185.929  33.792  1.00  0.00    -0.452 OA
ENDROOT
BRANCH   1  12
ATOM     12  C   UNL     1      41.565 184.236  33.448  1.00  0.00     0.025 A 
ATOM     13  C   UNL     1      41.146 182.913  33.672  1.00  0.00     0.016 A 
ATOM     14  C   UNL     1      42.049 181.957  34.145  1.00  0.00     0.051 A 
ATOM     15  C   UNL     1      43.384 182.304  34.387  1.00  0.00     0.157 A 
ATOM     16  C   UNL     1      42.910 184.573  33.672  1.00  0.00     0.062 A 
ATOM     17  C   UNL     1      43.816 183.618  34.146  1.00  0.00     0.158 A 
BRANCH  15  18
ATOM     18  O   UNL     1      44.281 181.348  34.861  1.00  0.00    -0.504 OA
ATOM     19  H   UNL     1      43.964 180.514  35.340  1.00  0.00     0.293 HD
ENDBRANCH  15  18
BRANCH  17  20
ATOM     20  O   UNL     1      45.141 183.994  34.370  1.00  0.00    -0.504 OA
ATOM     21  H   UNL     1      45.907 183.611  33.830  1.00  0.00     0.293 HD
ENDBRANCH  17  20
ENDBRANCH   1  12
BRANCH   2  22
ATOM     22  O   UNL     1      41.220 184.762  30.619  1.00  0.00    -0.502 OA
ATOM     23  H   UNL     1      41.001 183.792  30.424  1.00  0.00     0.293 HD
ENDBRANCH   2  22
BRANCH   6  24
ATOM     24  O   UNL     1      37.842 188.877  30.491  1.00  0.00    -0.507 OA
ATOM     25  H   UNL     1      37.278 188.476  29.757  1.00  0.00     0.293 HD
ENDBRANCH   6  24
BRANCH   8  26
ATOM     26  O   UNL     1      36.604 189.094  35.125  1.00  0.00    -0.508 OA
ATOM     27  H   UNL     1      35.621 189.307  34.995  1.00  0.00     0.293 HD
ENDBRANCH   8  26
TORSDOF 6
ENDMDL
MODEL 7
REMARK VINA RESULT:    -5.026      2.004      2.309
REMARK INTER + INTRA:          -6.361
REMARK INTER:                  -6.165
REMARK INTRA:                  -0.197
REMARK UNBOUND:                -0.307
REMARK SMILES O=c1c(O)c(-c2ccc(O)c(O)c2)oc2cc(O)cc(O)c12
REMARK SMILES IDX 5 1 3 2 2 3 1 4 22 5 20 6 19 7 17 8 16 9 15 10 14 11 6 12
REMARK SMILES IDX 7 13 8 14 9 15 13 16 11 17 10 18 12 20 4 22 21 24 18 26
REMARK H PARENT 10 19 12 21 4 23 21 25 18 27
REMARK Flexibility Score: inf
ROOT
ATOM      1  C   UNL     1      37.229 184.739  32.865  1.00  0.00     0.180 A 
ATOM      2  C   UNL     1      37.058 183.929  34.000  1.00  0.00     0.208 A 
ATOM      3  C   UNL     1      36.041 182.963  34.000  1.00  0.00     0.238 A 
ATOM      4  O   UNL     1      35.856 182.279  35.041  1.00  0.00    -0.285 OA
ATOM      5  C   UNL     1      35.217 182.807  32.859  1.00  0.00     0.111 A 
ATOM      6  C   UNL     1      34.181 181.833  32.734  1.00  0.00     0.134 A 
ATOM      7  C   UNL     1      33.344 181.854  31.611  1.00  0.00     0.093 A 
ATOM      8  C   UNL     1      33.547 182.775  30.580  1.00  0.00     0.123 A 
ATOM      9  C   UNL     1      34.592 183.691  30.666  1.00  0.00     0.094 A 
ATOM     10  C   UNL     1      35.422 183.717  31.790  1.00  0.00     0.146 A 
ATOM     11  O   UNL     1      36.400 184.613  31.836  1.00  0.00    -0.452 OA
ENDROOT
BRANCH   1  12
ATOM     12  C   UNL     1      38.297 185.763  32.780  1.00  0.00     0.025 A 
ATOM     13  C   UNL     1      38.268 186.917  33.583  1.00  0.00     0.016 A 
ATOM     14  C   UNL     1      39.298 187.858  33.503  1.00  0.00     0.051 A 
ATOM     15  C   UNL     1      40.376 187.655  32.632  1.00  0.00     0.157 A 
ATOM     16  C   UNL     1      39.389 185.554  31.924  1.00  0.00     0.062 A 
ATOM     17  C   UNL     1      40.422 186.495  31.840  1.00  0.00     0.158 A 
BRANCH  15  18
ATOM     18  O   UNL     1      41.401 188.596  32.553  1.00  0.00    -0.504 OA
ATOM     19  H   UNL     1      41.979 188.683  31.726  1.00  0.00     0.293 HD
ENDBRANCH  15  18
BRANCH  17  20
ATOM     20  O   UNL     1      41.484 186.259  30.968  1.00  0.00    -0.504 OA
ATOM     21  H   UNL     1      41.392 185.659  30.157  1.00  0.00     0.293 HD
ENDBRANCH  17  20
ENDBRANCH   1  12
BRANCH   2  22
ATOM     22  O   UNL     1      37.868 184.115  35.125  1.00  0.00    -0.502 OA
ATOM     23  H   UNL     1      37.863 183.476  35.911  1.00  0.00     0.293 HD
ENDBRANCH   2  22
BRANCH   6  24
ATOM     24  O   UNL     1      33.953 180.813  33.663  1.00  0.00    -0.507 OA
ATOM     25  H   UNL     1      34.250 179.856  33.550  1.00  0.00     0.293 HD
ENDBRANCH   6  24
BRANCH   8  26
ATOM     26  O   UNL     1      32.720 182.779  29.459  1.00  0.00    -0.508 OA
ATOM     27  H   UNL     1      32.331 183.640  29.090  1.00  0.00     0.293 HD
ENDBRANCH   8  26
TORSDOF 6
ENDMDL
MODEL 8
REMARK VINA RESULT:    -5.002      1.945      2.941
REMARK INTER + INTRA:          -6.334
REMARK INTER:                  -6.238
REMARK INTRA:                  -0.096
REMARK UNBOUND:                -0.307
REMARK SMILES O=c1c(O)c(-c2ccc(O)c(O)c2)oc2cc(O)cc(O)c12
REMARK SMILES IDX 5 1 3 2 2 3 1 4 22 5 20 6 19 7 17 8 16 9 15 10 14 11 6 12
REMARK SMILES IDX 7 13 8 14 9 15 13 16 11 17 10 18 12 20 4 22 21 24 18 26
REMARK H PARENT 10 19 12 21 4 23 21 25 18 27
REMARK Flexibility Score: inf
ROOT
ATOM      1  C   UNL     1      36.613 184.795  31.977  1.00  0.00     0.180 A 
ATOM      2  C   UNL     1      36.001 184.628  30.723  1.00  0.00     0.208 A 
ATOM      3  C   UNL     1      34.978 183.677  30.585  1.00  0.00     0.238 A 
ATOM      4  O   UNL     1      34.472 183.494  29.447  1.00  0.00    -0.285 OA
ATOM      5  C   UNL     1      34.568 182.915  31.707  1.00  0.00     0.111 A 
ATOM      6  C   UNL     1      33.515 181.952  31.692  1.00  0.00     0.134 A 
ATOM      7  C   UNL     1      33.283 181.165  32.826  1.00  0.00     0.093 A 
ATOM      8  C   UNL     1      34.024 181.351  33.996  1.00  0.00     0.123 A 
ATOM      9  C   UNL     1      35.013 182.329  34.039  1.00  0.00     0.094 A 
ATOM     10  C   UNL     1      35.293 183.106  32.912  1.00  0.00     0.146 A 
ATOM     11  O   UNL     1      36.252 184.020  32.993  1.00  0.00    -0.452 OA
ENDROOT
BRANCH   1  12
ATOM     12  C   UNL     1      37.681 185.795  32.206  1.00  0.00     0.025 A 
ATOM     13  C   UNL     1      37.540 186.807  33.172  1.00  0.00     0.016 A 
ATOM     14  C   UNL     1      38.571 187.726  33.388  1.00  0.00     0.051 A 
ATOM     15  C   UNL     1      39.760 187.639  32.654  1.00  0.00     0.157 A 
ATOM     16  C   UNL     1      38.884 185.701  31.488  1.00  0.00     0.062 A 
ATOM     17  C   UNL     1      39.918 186.619  31.701  1.00  0.00     0.158 A 
BRANCH  15  18
ATOM     18  O   UNL     1      40.786 188.558  32.870  1.00  0.00    -0.504 OA
ATOM     19  H   UNL     1      40.739 189.239  33.619  1.00  0.00     0.293 HD
ENDBRANCH  15  18
BRANCH  17  20
ATOM     20  O   UNL     1      41.093 186.501  30.958  1.00  0.00    -0.504 OA
ATOM     21  H   UNL     1      41.084 186.397  29.951  1.00  0.00     0.293 HD
ENDBRANCH  17  20
ENDBRANCH   1  12
BRANCH   2  22
ATOM     22  O   UNL     1      36.436 185.375  29.624  1.00  0.00    -0.502 OA
ATOM     23  H   UNL     1      36.884 184.951  28.821  1.00  0.00     0.293 HD
ENDBRANCH   2  22
BRANCH   6  24
ATOM     24  O   UNL     1      32.657 181.752  30.606  1.00  0.00    -0.507 OA
ATOM     25  H   UNL     1      31.973 182.418  30.284  1.00  0.00     0.293 HD
ENDBRANCH   6  24
BRANCH   8  26
ATOM     26  O   UNL     1      33.775 180.575  35.125  1.00  0.00    -0.508 OA
ATOM     27  H   UNL     1      34.472 179.938  35.495  1.00  0.00     0.293 HD
ENDBRANCH   8  26
TORSDOF 6
ENDMDL
MODEL 9
REMARK VINA RESULT:    -4.954      2.697      7.318
REMARK INTER + INTRA:          -6.275
REMARK INTER:                  -5.970
REMARK INTRA:                  -0.305
REMARK UNBOUND:                -0.307
REMARK SMILES O=c1c(O)c(-c2ccc(O)c(O)c2)oc2cc(O)cc(O)c12
REMARK SMILES IDX 5 1 3 2 2 3 1 4 22 5 20 6 19 7 17 8 16 9 15 10 14 11 6 12
REMARK SMILES IDX 7 13 8 14 9 15 13 16 11 17 10 18 12 20 4 22 21 24 18 26
REMARK H PARENT 10 19 12 21 4 23 21 25 18 27
REMARK Flexibility Score: inf
ROOT
ATOM      1  C   UNL     1      38.798 184.978  33.208  1.00  0.00     0.180 A 
ATOM      2  C   UNL     1      39.605 185.751  32.357  1.00  0.00     0.208 A 
ATOM      3  C   UNL     1      40.945 185.380  32.167  1.00  0.00     0.238 A 
ATOM      4  O   UNL     1      41.678 186.108  31.447  1.00  0.00    -0.285 OA
ATOM      5  C   UNL     1      41.458 184.232  32.818  1.00  0.00     0.111 A 
ATOM      6  C   UNL     1      42.789 183.741  32.667  1.00  0.00     0.134 A 
ATOM      7  C   UNL     1      43.226 182.672  33.460  1.00  0.00     0.093 A 
ATOM      8  C   UNL     1      42.358 182.036  34.352  1.00  0.00     0.123 A 
ATOM      9  C   UNL     1      41.040 182.471  34.463  1.00  0.00     0.094 A 
ATOM     10  C   UNL     1      40.585 183.558  33.711  1.00  0.00     0.146 A 
ATOM     11  O   UNL     1      39.324 183.946  33.855  1.00  0.00    -0.452 OA
ENDROOT
BRANCH   1  12
ATOM     12  C   UNL     1      37.368 185.292  33.438  1.00  0.00     0.025 A 
ATOM     13  C   UNL     1      36.975 186.268  34.371  1.00  0.00     0.016 A 
ATOM     14  C   UNL     1      35.621 186.563  34.555  1.00  0.00     0.051 A 
ATOM     15  C   UNL     1      34.644 185.899  33.802  1.00  0.00     0.157 A 
ATOM     16  C   UNL     1      36.386 184.644  32.672  1.00  0.00     0.062 A 
ATOM     17  C   UNL     1      35.030 184.937  32.854  1.00  0.00     0.158 A 
BRANCH  15  18
ATOM     18  O   UNL     1      33.294 186.195  33.989  1.00  0.00    -0.504 OA
ATOM     19  H   UNL     1      32.978 186.760  34.768  1.00  0.00     0.293 HD
ENDBRANCH  15  18
BRANCH  17  20
ATOM     20  O   UNL     1      34.082 184.264  32.083  1.00  0.00    -0.504 OA
ATOM     21  H   UNL     1      34.340 183.713  31.274  1.00  0.00     0.293 HD
ENDBRANCH  17  20
ENDBRANCH   1  12
BRANCH   2  22
ATOM     22  O   UNL     1      39.085 186.894  31.741  1.00  0.00    -0.502 OA
ATOM     23  H   UNL     1      39.100 187.805  32.184  1.00  0.00     0.293 HD
ENDBRANCH   2  22
BRANCH   6  24
ATOM     24  O   UNL     1      43.706 184.245  31.740  1.00  0.00    -0.507 OA
ATOM     25  H   UNL     1      43.472 184.549  30.807  1.00  0.00     0.293 HD
ENDBRANCH   6  24
BRANCH   8  26
ATOM     26  O   UNL     1      42.795 180.964  35.125  1.00  0.00    -0.508 OA
ATOM     27  H   UNL     1      42.172 180.207  35.383  1.00  0.00     0.293 HD
ENDBRANCH   8  26
TORSDOF 6
ENDMDL
