MODEL 1
REMARK VINA RESULT:    -3.748      0.000      0.000
REMARK INTER + INTRA:          -4.517
REMARK INTER:                  -4.515
REMARK INTRA:                  -0.002
REMARK UNBOUND:                -0.002
REMARK SMILES OCC(O)CO
REMARK SMILES IDX 3 1 5 2 6 3 2 5 1 6 4 8
REMARK H PARENT 6 4 1 7 4 9
REMARK Flexibility Score: inf
ROOT
ATOM      1  C   UNL     1      97.136 129.377  44.491  1.00  0.00     0.165 C 
ENDROOT
BRANCH   1   2
ATOM      2  C   UNL     1      98.198 130.486  44.395  1.00  0.00     0.190 C 
BRANCH   2   3
ATOM      3  O   UNL     1      99.131 130.188  43.391  1.00  0.00    -0.394 OA
ATOM      4  H   UNL     1      99.137 129.199  43.295  1.00  0.00     0.210 HD
ENDBRANCH   2   3
ENDBRANCH   1   2
BRANCH   1   5
ATOM      5  C   UNL     1      97.072 128.784  45.904  1.00  0.00     0.190 C 
BRANCH   5   6
ATOM      6  O   UNL     1      96.093 129.427  46.678  1.00  0.00    -0.394 OA
ATOM      7  H   UNL     1      96.471 129.535  47.589  1.00  0.00     0.210 HD
ENDBRANCH   5   6
ENDBRANCH   1   5
BRANCH   1   8
ATOM      8  O   UNL     1      95.873 129.886  44.145  1.00  0.00    -0.388 OA
ATOM      9  H   UNL     1      95.698 130.659  44.744  1.00  0.00     0.211 HD
ENDBRANCH   1   8
TORSDOF 5
ENDMDL
MODEL 2
REMARK VINA RESULT:    -3.623      1.044      2.871
REMARK INTER + INTRA:          -4.367
REMARK INTER:                  -4.360
REMARK INTRA:                  -0.007
REMARK UNBOUND:                -0.002
REMARK SMILES OCC(O)CO
REMARK SMILES IDX 3 1 5 2 6 3 2 5 1 6 4 8
REMARK H PARENT 6 4 1 7 4 9
REMARK Flexibility Score: inf
ROOT
ATOM      1  C   UNL     1      96.916 129.906  45.155  1.00  0.00     0.165 C 
ENDROOT
BRANCH   1   2
ATOM      2  C   UNL     1      96.459 129.118  46.395  1.00  0.00     0.190 C 
BRANCH   2   3
ATOM      3  O   UNL     1      96.857 127.777  46.299  1.00  0.00    -0.394 OA
ATOM      4  H   UNL     1      97.323 127.558  47.148  1.00  0.00     0.210 HD
ENDBRANCH   2   3
ENDBRANCH   1   2
BRANCH   1   5
ATOM      5  C   UNL     1      98.199 129.316  44.557  1.00  0.00     0.190 C 
BRANCH   5   6
ATOM      6  O   UNL     1      98.821 130.232  43.694  1.00  0.00    -0.394 OA
ATOM      7  H   UNL     1      98.249 131.043  43.673  1.00  0.00     0.210 HD
ENDBRANCH   5   6
ENDBRANCH   1   5
BRANCH   1   8
ATOM      8  O   UNL     1      95.905 129.902  44.179  1.00  0.00    -0.388 OA
ATOM      9  H   UNL     1      96.216 129.310  43.444  1.00  0.00     0.211 HD
ENDBRANCH   1   8
TORSDOF 5
ENDMDL
MODEL 3
REMARK VINA RESULT:    -3.588      1.432      2.706
REMARK INTER + INTRA:          -4.324
REMARK INTER:                  -4.120
REMARK INTRA:                  -0.204
REMARK UNBOUND:                -0.002
REMARK SMILES OCC(O)CO
REMARK SMILES IDX 3 1 5 2 6 3 2 5 1 6 4 8
REMARK H PARENT 6 4 1 7 4 9
REMARK Flexibility Score: inf
ROOT
ATOM      1  C   UNL     1      97.384 129.472  46.204  1.00  0.00     0.165 C 
ENDROOT
BRANCH   1   2
ATOM      2  C   UNL     1      97.890 128.020  46.154  1.00  0.00     0.190 C 
BRANCH   2   3
ATOM      3  O   UNL     1      97.199 127.292  45.175  1.00  0.00    -0.394 OA
ATOM      4  H   UNL     1      97.052 126.383  45.549  1.00  0.00     0.210 HD
ENDBRANCH   2   3
ENDBRANCH   1   2
BRANCH   1   5
ATOM      5  C   UNL     1      97.377 130.111  44.809  1.00  0.00     0.190 C 
BRANCH   5   6
ATOM      6  O   UNL     1      96.106 130.022  44.220  1.00  0.00    -0.394 OA
ATOM      7  H   UNL     1      96.173 130.445  43.324  1.00  0.00     0.210 HD
ENDBRANCH   5   6
ENDBRANCH   1   5
BRANCH   1   8
ATOM      8  O   UNL     1      96.085 129.515  46.739  1.00  0.00    -0.388 OA
ATOM      9  H   UNL     1      95.549 130.108  46.150  1.00  0.00     0.211 HD
ENDBRANCH   1   8
TORSDOF 5
ENDMDL
MODEL 4
REMARK VINA RESULT:    -3.552      1.205      2.216
REMARK INTER + INTRA:          -4.282
REMARK INTER:                  -4.087
REMARK INTRA:                  -0.195
REMARK UNBOUND:                -0.002
REMARK SMILES OCC(O)CO
REMARK SMILES IDX 3 1 5 2 6 3 2 5 1 6 4 8
REMARK H PARENT 6 4 1 7 4 9
REMARK Flexibility Score: inf
ROOT
ATOM      1  C   UNL     1      97.425 130.017  44.431  1.00  0.00     0.165 C 
ENDROOT
BRANCH   1   2
ATOM      2  C   UNL     1      96.511 128.945  43.812  1.00  0.00     0.190 C 
BRANCH   2   3
ATOM      3  O   UNL     1      96.581 127.754  44.549  1.00  0.00    -0.394 OA
ATOM      4  H   UNL     1      97.296 127.881  45.226  1.00  0.00     0.210 HD
ENDBRANCH   2   3
ENDBRANCH   1   2
BRANCH   1   5
ATOM      5  C   UNL     1      97.503 129.873  45.957  1.00  0.00     0.190 C 
BRANCH   5   6
ATOM      6  O   UNL     1      96.233 129.643  46.507  1.00  0.00    -0.394 OA
ATOM      7  H   UNL     1      96.168 128.669  46.688  1.00  0.00     0.210 HD
ENDBRANCH   5   6
ENDBRANCH   1   5
BRANCH   1   8
ATOM      8  O   UNL     1      98.718 129.922  43.890  1.00  0.00    -0.388 OA
ATOM      9  H   UNL     1      99.338 130.331  44.550  1.00  0.00     0.211 HD
ENDBRANCH   1   8
TORSDOF 5
ENDMDL
MODEL 5
REMARK VINA RESULT:    -3.546      1.201      2.659
REMARK INTER + INTRA:          -4.274
REMARK INTER:                  -4.051
REMARK INTRA:                  -0.224
REMARK UNBOUND:                -0.002
REMARK SMILES OCC(O)CO
REMARK SMILES IDX 3 1 5 2 6 3 2 5 1 6 4 8
REMARK H PARENT 6 4 1 7 4 9
REMARK Flexibility Score: inf
ROOT
ATOM      1  C   UNL     1      97.937 129.446  44.509  1.00  0.00     0.165 C 
ENDROOT
BRANCH   1   2
ATOM      2  C   UNL     1      97.633 130.156  45.839  1.00  0.00     0.190 C 
BRANCH   2   3
ATOM      3  O   UNL     1      96.338 129.844  46.278  1.00  0.00    -0.394 OA
ATOM      4  H   UNL     1      95.744 129.920  45.486  1.00  0.00     0.210 HD
ENDBRANCH   2   3
ENDBRANCH   1   2
BRANCH   1   5
ATOM      5  C   UNL     1      96.652 129.152  43.724  1.00  0.00     0.190 C 
BRANCH   5   6
ATOM      6  O   UNL     1      96.125 127.899  44.072  1.00  0.00    -0.394 OA
ATOM      7  H   UNL     1      95.316 127.761  43.513  1.00  0.00     0.210 HD
ENDBRANCH   5   6
ENDBRANCH   1   5
BRANCH   1   8
ATOM      8  O   UNL     1      98.790 130.237  43.721  1.00  0.00    -0.388 OA
ATOM      9  H   UNL     1      98.549 131.185  43.897  1.00  0.00     0.211 HD
ENDBRANCH   1   8
TORSDOF 5
ENDMDL
MODEL 6
REMARK VINA RESULT:    -3.415      1.242      1.932
REMARK INTER + INTRA:          -4.116
REMARK INTER:                  -3.894
REMARK INTRA:                  -0.222
REMARK UNBOUND:                -0.002
REMARK SMILES OCC(O)CO
REMARK SMILES IDX 3 1 5 2 6 3 2 5 1 6 4 8
REMARK H PARENT 6 4 1 7 4 9
REMARK Flexibility Score: inf
ROOT
ATOM      1  C   UNL     1      97.505 129.716  45.815  1.00  0.00     0.165 C 
ENDROOT
BRANCH   1   2
ATOM      2  C   UNL     1      98.181 130.604  44.757  1.00  0.00     0.190 C 
BRANCH   2   3
ATOM      3  O   UNL     1      98.742 129.818  43.741  1.00  0.00    -0.394 OA
ATOM      4  H   UNL     1      97.984 129.451  43.215  1.00  0.00     0.210 HD
ENDBRANCH   2   3
ENDBRANCH   1   2
BRANCH   1   5
ATOM      5  C   UNL     1      96.165 129.165  45.312  1.00  0.00     0.190 C 
BRANCH   5   6
ATOM      6  O   UNL     1      95.782 129.787  44.113  1.00  0.00    -0.394 OA
ATOM      7  H   UNL     1      96.603 129.887  43.565  1.00  0.00     0.210 HD
ENDBRANCH   5   6
ENDBRANCH   1   5
BRANCH   1   8
ATOM      8  O   UNL     1      98.347 128.644  46.157  1.00  0.00    -0.388 OA
ATOM      9  H   UNL     1      97.910 127.816  45.824  1.00  0.00     0.211 HD
ENDBRANCH   1   8
TORSDOF 5
ENDMDL
MODEL 7
REMARK VINA RESULT:    -3.355      1.745      2.354
REMARK INTER + INTRA:          -4.043
REMARK INTER:                  -3.825
REMARK INTRA:                  -0.219
REMARK UNBOUND:                -0.002
REMARK SMILES OCC(O)CO
REMARK SMILES IDX 3 1 5 2 6 3 2 5 1 6 4 8
REMARK H PARENT 6 4 1 7 4 9
REMARK Flexibility Score: inf
ROOT
ATOM      1  C   UNL     1      96.907 129.739  45.840  1.00  0.00     0.165 C 
ENDROOT
BRANCH   1   2
ATOM      2  C   UNL     1      97.028 129.677  44.308  1.00  0.00     0.190 C 
BRANCH   2   3
ATOM      3  O   UNL     1      95.799 129.326  43.731  1.00  0.00    -0.394 OA
ATOM      4  H   UNL     1      95.270 130.163  43.660  1.00  0.00     0.210 HD
ENDBRANCH   2   3
ENDBRANCH   1   2
BRANCH   1   5
ATOM      5  C   UNL     1      96.878 128.335  46.457  1.00  0.00     0.190 C 
BRANCH   5   6
ATOM      6  O   UNL     1      97.233 127.361  45.511  1.00  0.00    -0.394 OA
ATOM      7  H   UNL     1      96.395 126.902  45.241  1.00  0.00     0.210 HD
ENDBRANCH   5   6
ENDBRANCH   1   5
BRANCH   1   8
ATOM      8  O   UNL     1      97.983 130.462  46.383  1.00  0.00    -0.388 OA
ATOM      9  H   UNL     1      97.979 130.294  47.362  1.00  0.00     0.211 HD
ENDBRANCH   1   8
TORSDOF 5
ENDMDL
MODEL 8
REMARK VINA RESULT:    -3.223      7.633      7.978
REMARK INTER + INTRA:          -3.885
REMARK INTER:                  -3.661
REMARK INTRA:                  -0.224
REMARK UNBOUND:                -0.002
REMARK SMILES OCC(O)CO
REMARK SMILES IDX 3 1 5 2 6 3 2 5 1 6 4 8
REMARK H PARENT 6 4 1 7 4 9
REMARK Flexibility Score: inf
ROOT
ATOM      1  C   UNL     1     100.924 134.154  50.938  1.00  0.00     0.165 C 
ENDROOT
BRANCH   1   2
ATOM      2  C   UNL     1     100.456 135.021  49.756  1.00  0.00     0.190 C 
BRANCH   2   3
ATOM      3  O   UNL     1      99.173 134.637  49.342  1.00  0.00    -0.394 OA
ATOM      4  H   UNL     1      99.196 134.594  48.350  1.00  0.00     0.210 HD
ENDBRANCH   2   3
ENDBRANCH   1   2
BRANCH   1   5
ATOM      5  C   UNL     1      99.782 133.894  51.928  1.00  0.00     0.190 C 
BRANCH   5   6
ATOM      6  O   UNL     1      99.061 132.742  51.575  1.00  0.00    -0.394 OA
ATOM      7  H   UNL     1      99.661 132.186  51.013  1.00  0.00     0.210 HD
ENDBRANCH   5   6
ENDBRANCH   1   5
BRANCH   1   8
ATOM      8  O   UNL     1     101.421 132.926  50.471  1.00  0.00    -0.388 OA
ATOM      9  H   UNL     1     100.782 132.225  50.765  1.00  0.00     0.211 HD
ENDBRANCH   1   8
TORSDOF 5
ENDMDL
MODEL 9
REMARK VINA RESULT:    -3.118      7.686      8.189
REMARK INTER + INTRA:          -3.758
REMARK INTER:                  -3.549
REMARK INTRA:                  -0.209
REMARK UNBOUND:                -0.002
REMARK SMILES OCC(O)CO
REMARK SMILES IDX 3 1 5 2 6 3 2 5 1 6 4 8
REMARK H PARENT 6 4 1 7 4 9
REMARK Flexibility Score: inf
ROOT
ATOM      1  C   UNL     1     100.569 134.743  50.510  1.00  0.00     0.165 C 
ENDROOT
BRANCH   1   2
ATOM      2  C   UNL     1      99.537 133.881  51.257  1.00  0.00     0.190 C 
BRANCH   2   3
ATOM      3  O   UNL     1      99.624 132.543  50.845  1.00  0.00    -0.394 OA
ATOM      4  H   UNL     1     100.421 132.159  51.295  1.00  0.00     0.210 HD
ENDBRANCH   2   3
ENDBRANCH   1   2
BRANCH   1   5
ATOM      5  C   UNL     1     101.984 134.165  50.644  1.00  0.00     0.190 C 
BRANCH   5   6
ATOM      6  O   UNL     1     102.162 133.064  49.792  1.00  0.00    -0.394 OA
ATOM      7  H   UNL     1     101.869 132.259  50.295  1.00  0.00     0.210 HD
ENDBRANCH   5   6
ENDBRANCH   1   5
BRANCH   1   8
ATOM      8  O   UNL     1     100.232 134.832  49.149  1.00  0.00    -0.388 OA
ATOM      9  H   UNL     1      99.272 134.590  49.073  1.00  0.00     0.211 HD
ENDBRANCH   1   8
TORSDOF 5
ENDMDL
