MODEL 1
REMARK VINA RESULT:    -7.918      0.000      0.000
REMARK INTER + INTRA:         -11.952
REMARK INTER:                 -10.695
REMARK INTRA:                  -1.257
REMARK UNBOUND:                -1.257
REMARK SMILES CC[C@H](CC[C@@H](C)[C@H]1CC[C@H]2[C@H]3CC(=O)C4=CC(=O)CC[C@]4(C)[C@@H]3CC[C@@]12C)C(C)C
REMARK SMILES IDX 4 1 3 2 2 3 1 4 29 5 30 6 31 7 5 8 6 9 7 10 8 11 9 12 27 13
REMARK SMILES IDX 10 14 11 15 26 16 28 17 12 18 25 19 24 20 13 21 22 22 14 23
REMARK SMILES IDX 16 24 21 25 23 26 15 27 17 28 20 29 18 30 19 31
REMARK H PARENT
REMARK Flexibility Score: inf
ROOT
ATOM      1  C   UNL     1     -25.324  -0.187  -3.628  1.00  0.00     0.004 C 
ENDROOT
BRANCH   1   2
ATOM      2  C   UNL     1     -26.679  -0.954  -3.652  1.00  0.00    -0.009 C 
BRANCH   2   3
ATOM      3  C   UNL     1     -27.720  -0.165  -2.808  1.00  0.00     0.000 C 
ATOM      4  C   UNL     1     -28.979   0.204  -3.598  1.00  0.00     0.004 C 
ENDBRANCH   2   3
BRANCH   2   5
ATOM      5  C   UNL     1     -27.249  -1.267  -5.084  1.00  0.00    -0.014 C 
ATOM      6  C   UNL     1     -27.281  -2.774  -5.391  1.00  0.00     0.007 C 
ATOM      7  C   UNL     1     -26.578  -0.481  -6.224  1.00  0.00     0.007 C 
ENDBRANCH   2   5
ENDBRANCH   1   2
BRANCH   1   8
ATOM      8  C   UNL     1     -24.889   0.313  -2.237  1.00  0.00     0.004 C 
BRANCH   8   9
ATOM      9  C   UNL     1     -24.480   1.826  -2.269  1.00  0.00    -0.011 C 
ATOM     10  C   UNL     1     -25.189   2.513  -3.452  1.00  0.00     0.008 C 
BRANCH   9  11
ATOM     11  C   UNL     1     -24.766   2.537  -0.896  1.00  0.00    -0.002 C 
ATOM     12  C   UNL     1     -24.976   1.516   0.242  1.00  0.00     0.005 C 
ATOM     13  C   UNL     1     -23.694   3.535  -0.337  1.00  0.00    -0.026 C 
ATOM     14  C   UNL     1     -24.426   2.131   1.522  1.00  0.00     0.005 C 
ATOM     15  C   UNL     1     -24.028   3.568   1.174  1.00  0.00    -0.001 C 
ATOM     16  C   UNL     1     -22.250   2.993  -0.544  1.00  0.00     0.007 C 
ATOM     17  C   UNL     1     -23.860   4.957  -0.938  1.00  0.00     0.012 C 
ATOM     18  C   UNL     1     -22.928   4.195   2.095  1.00  0.00     0.004 C 
ATOM     19  C   UNL     1     -21.209   3.757   0.270  1.00  0.00     0.005 C 
ATOM     20  C   UNL     1     -21.494   3.692   1.789  1.00  0.00     0.003 C 
ATOM     21  C   UNL     1     -23.263   3.945   3.581  1.00  0.00     0.085 C 
ATOM     22  C   UNL     1     -20.372   4.399   2.684  1.00  0.00    -0.000 C 
ATOM     23  C   UNL     1     -22.264   4.580   4.486  1.00  0.00     0.159 C 
ATOM     24  C   UNL     1     -20.948   5.016   3.971  1.00  0.00     0.005 C 
ATOM     25  C   UNL     1     -19.620   5.532   1.909  1.00  0.00     0.020 C 
ATOM     26  C   UNL     1     -19.356   3.307   3.104  1.00  0.00     0.017 C 
ATOM     27  O   UNL     1     -22.562   4.738   5.704  1.00  0.00    -0.295 OA
ATOM     28  C   UNL     1     -20.272   5.966   4.648  1.00  0.00     0.055 C 
ATOM     29  C   UNL     1     -18.543   6.239   2.747  1.00  0.00     0.081 C 
ATOM     30  C   UNL     1     -19.045   6.577   4.117  1.00  0.00     0.156 C 
ATOM     31  O   UNL     1     -18.406   7.399   4.826  1.00  0.00    -0.295 OA
ENDBRANCH   9  11
ENDBRANCH   8   9
ENDBRANCH   1   8
TORSDOF 6
ENDMDL
MODEL 2
REMARK VINA RESULT:    -7.888      3.367      8.270
REMARK INTER + INTRA:         -11.911
REMARK INTER:                  -9.692
REMARK INTRA:                  -2.220
REMARK UNBOUND:                -1.257
REMARK SMILES CC[C@H](CC[C@@H](C)[C@H]1CC[C@H]2[C@H]3CC(=O)C4=CC(=O)CC[C@]4(C)[C@@H]3CC[C@@]12C)C(C)C
REMARK SMILES IDX 4 1 3 2 2 3 1 4 29 5 30 6 31 7 5 8 6 9 7 10 8 11 9 12 27 13
REMARK SMILES IDX 10 14 11 15 26 16 28 17 12 18 25 19 24 20 13 21 22 22 14 23
REMARK SMILES IDX 16 24 21 25 23 26 15 27 17 28 20 29 18 30 19 31
REMARK H PARENT
REMARK Flexibility Score: inf
ROOT
ATOM      1  C   UNL     1     -22.043   7.012   1.023  1.00  0.00     0.004 C 
ENDROOT
BRANCH   1   2
ATOM      2  C   UNL     1     -23.592   7.078   0.882  1.00  0.00    -0.009 C 
BRANCH   2   3
ATOM      3  C   UNL     1     -24.071   8.510   1.259  1.00  0.00     0.000 C 
ATOM      4  C   UNL     1     -24.849   8.555   2.577  1.00  0.00     0.004 C 
ENDBRANCH   2   3
BRANCH   2   5
ATOM      5  C   UNL     1     -24.158   6.656  -0.523  1.00  0.00    -0.014 C 
ATOM      6  C   UNL     1     -24.432   7.862  -1.438  1.00  0.00     0.007 C 
ATOM      7  C   UNL     1     -25.373   5.714  -0.465  1.00  0.00     0.007 C 
ENDBRANCH   2   5
ENDBRANCH   1   2
BRANCH   1   8
ATOM      8  C   UNL     1     -21.538   6.257   2.267  1.00  0.00     0.004 C 
BRANCH   8   9
ATOM      9  C   UNL     1     -20.809   4.925   1.879  1.00  0.00    -0.011 C 
ATOM     10  C   UNL     1     -19.481   4.836   2.654  1.00  0.00     0.008 C 
BRANCH   9  11
ATOM     11  C   UNL     1     -21.728   3.669   2.104  1.00  0.00    -0.002 C 
ATOM     12  C   UNL     1     -23.100   4.065   2.689  1.00  0.00     0.005 C 
ATOM     13  C   UNL     1     -22.072   2.768   0.868  1.00  0.00    -0.026 C 
ATOM     14  C   UNL     1     -24.137   3.101   2.128  1.00  0.00     0.005 C 
ATOM     15  C   UNL     1     -23.361   2.048   1.331  1.00  0.00    -0.001 C 
ATOM     16  C   UNL     1     -22.374   3.627  -0.395  1.00  0.00     0.007 C 
ATOM     17  C   UNL     1     -20.960   1.720   0.591  1.00  0.00     0.012 C 
ATOM     18  C   UNL     1     -24.178   1.332   0.203  1.00  0.00     0.004 C 
ATOM     19  C   UNL     1     -23.031   2.821  -1.514  1.00  0.00     0.005 C 
ATOM     20  C   UNL     1     -24.373   2.194  -1.071  1.00  0.00     0.003 C 
ATOM     21  C   UNL     1     -25.550   0.874   0.740  1.00  0.00     0.085 C 
ATOM     22  C   UNL     1     -25.141   1.423  -2.244  1.00  0.00    -0.000 C 
ATOM     23  C   UNL     1     -26.329   0.137  -0.295  1.00  0.00     0.159 C 
ATOM     24  C   UNL     1     -25.960   0.228  -1.724  1.00  0.00     0.005 C 
ATOM     25  C   UNL     1     -24.163   0.888  -3.342  1.00  0.00     0.020 C 
ATOM     26  C   UNL     1     -26.133   2.425  -2.888  1.00  0.00     0.017 C 
ATOM     27  O   UNL     1     -27.314  -0.565   0.071  1.00  0.00    -0.295 OA
ATOM     28  C   UNL     1     -26.351  -0.759  -2.556  1.00  0.00     0.055 C 
ATOM     29  C   UNL     1     -24.869   0.131  -4.478  1.00  0.00     0.081 C 
ATOM     30  C   UNL     1     -25.883  -0.836  -3.948  1.00  0.00     0.156 C 
ATOM     31  O   UNL     1     -26.344  -1.730  -4.707  1.00  0.00    -0.295 OA
ENDBRANCH   9  11
ENDBRANCH   8   9
ENDBRANCH   1   8
TORSDOF 6
ENDMDL
MODEL 3
REMARK VINA RESULT:    -7.857      1.714      3.353
REMARK INTER + INTRA:         -11.869
REMARK INTER:                 -10.807
REMARK INTRA:                  -1.062
REMARK UNBOUND:                -1.257
REMARK SMILES CC[C@H](CC[C@@H](C)[C@H]1CC[C@H]2[C@H]3CC(=O)C4=CC(=O)CC[C@]4(C)[C@@H]3CC[C@@]12C)C(C)C
REMARK SMILES IDX 4 1 3 2 2 3 1 4 29 5 30 6 31 7 5 8 6 9 7 10 8 11 9 12 27 13
REMARK SMILES IDX 10 14 11 15 26 16 28 17 12 18 25 19 24 20 13 21 22 22 14 23
REMARK SMILES IDX 16 24 21 25 23 26 15 27 17 28 20 29 18 30 19 31
REMARK H PARENT
REMARK Flexibility Score: inf
ROOT
ATOM      1  C   UNL     1     -26.367  -1.734  -4.385  1.00  0.00     0.004 C 
ENDROOT
BRANCH   1   2
ATOM      2  C   UNL     1     -26.848  -2.104  -5.819  1.00  0.00    -0.009 C 
BRANCH   2   3
ATOM      3  C   UNL     1     -27.481  -3.524  -5.786  1.00  0.00     0.000 C 
ATOM      4  C   UNL     1     -27.073  -4.336  -4.554  1.00  0.00     0.004 C 
ENDBRANCH   2   3
BRANCH   2   5
ATOM      5  C   UNL     1     -27.831  -1.073  -6.486  1.00  0.00    -0.014 C 
ATOM      6  C   UNL     1     -29.269  -1.610  -6.591  1.00  0.00     0.007 C 
ATOM      7  C   UNL     1     -27.347  -0.510  -7.833  1.00  0.00     0.007 C 
ENDBRANCH   2   5
ENDBRANCH   1   2
BRANCH   1   8
ATOM      8  C   UNL     1     -25.805  -0.307  -4.239  1.00  0.00     0.004 C 
BRANCH   8   9
ATOM      9  C   UNL     1     -26.156   0.312  -2.842  1.00  0.00    -0.011 C 
ATOM     10  C   UNL     1     -27.518  -0.237  -2.378  1.00  0.00     0.008 C 
BRANCH   9  11
ATOM     11  C   UNL     1     -25.013   0.067  -1.791  1.00  0.00    -0.002 C 
ATOM     12  C   UNL     1     -23.617   0.093  -2.449  1.00  0.00     0.005 C 
ATOM     13  C   UNL     1     -24.895   1.051  -0.576  1.00  0.00    -0.026 C 
ATOM     14  C   UNL     1     -22.640   0.677  -1.437  1.00  0.00     0.005 C 
ATOM     15  C   UNL     1     -23.424   0.858  -0.134  1.00  0.00    -0.001 C 
ATOM     16  C   UNL     1     -25.120   2.527  -1.018  1.00  0.00     0.007 C 
ATOM     17  C   UNL     1     -25.845   0.653   0.584  1.00  0.00     0.012 C 
ATOM     18  C   UNL     1     -22.861   1.950   0.836  1.00  0.00     0.004 C 
ATOM     19  C   UNL     1     -24.689   3.535   0.046  1.00  0.00     0.005 C 
ATOM     20  C   UNL     1     -23.190   3.401   0.402  1.00  0.00     0.003 C 
ATOM     21  C   UNL     1     -21.335   1.787   1.001  1.00  0.00     0.085 C 
ATOM     22  C   UNL     1     -22.676   4.503   1.442  1.00  0.00    -0.000 C 
ATOM     23  C   UNL     1     -20.776   2.778   1.965  1.00  0.00     0.159 C 
ATOM     24  C   UNL     1     -21.553   3.975   2.352  1.00  0.00     0.005 C 
ATOM     25  C   UNL     1     -23.826   5.032   2.364  1.00  0.00     0.020 C 
ATOM     26  C   UNL     1     -22.097   5.683   0.621  1.00  0.00     0.017 C 
ATOM     27  O   UNL     1     -19.624   2.576   2.443  1.00  0.00    -0.295 OA
ATOM     28  C   UNL     1     -21.259   4.586   3.518  1.00  0.00     0.055 C 
ATOM     29  C   UNL     1     -23.361   6.084   3.383  1.00  0.00     0.081 C 
ATOM     30  C   UNL     1     -22.089   5.671   4.059  1.00  0.00     0.156 C 
ATOM     31  O   UNL     1     -21.724   6.265   5.108  1.00  0.00    -0.295 OA
ENDBRANCH   9  11
ENDBRANCH   8   9
ENDBRANCH   1   8
TORSDOF 6
ENDMDL
MODEL 4
REMARK VINA RESULT:    -7.756      1.288      1.566
REMARK INTER + INTRA:         -11.732
REMARK INTER:                 -10.359
REMARK INTRA:                  -1.374
REMARK UNBOUND:                -1.257
REMARK SMILES CC[C@H](CC[C@@H](C)[C@H]1CC[C@H]2[C@H]3CC(=O)C4=CC(=O)CC[C@]4(C)[C@@H]3CC[C@@]12C)C(C)C
REMARK SMILES IDX 4 1 3 2 2 3 1 4 29 5 30 6 31 7 5 8 6 9 7 10 8 11 9 12 27 13
REMARK SMILES IDX 10 14 11 15 26 16 28 17 12 18 25 19 24 20 13 21 22 22 14 23
REMARK SMILES IDX 16 24 21 25 23 26 15 27 17 28 20 29 18 30 19 31
REMARK H PARENT
REMARK Flexibility Score: inf
ROOT
ATOM      1  C   UNL     1     -25.321   0.696  -3.770  1.00  0.00     0.004 C 
ENDROOT
BRANCH   1   2
ATOM      2  C   UNL     1     -26.137  -0.577  -3.397  1.00  0.00    -0.009 C 
BRANCH   2   3
ATOM      3  C   UNL     1     -27.375  -0.152  -2.556  1.00  0.00     0.000 C 
ATOM      4  C   UNL     1     -27.222  -0.461  -1.064  1.00  0.00     0.004 C 
ENDBRANCH   2   3
BRANCH   2   5
ATOM      5  C   UNL     1     -26.573  -1.476  -4.612  1.00  0.00    -0.014 C 
ATOM      6  C   UNL     1     -27.992  -1.149  -5.110  1.00  0.00     0.007 C 
ATOM      7  C   UNL     1     -26.398  -2.987  -4.383  1.00  0.00     0.007 C 
ENDBRANCH   2   5
ENDBRANCH   1   2
BRANCH   1   8
ATOM      8  C   UNL     1     -24.389   1.215  -2.659  1.00  0.00     0.004 C 
BRANCH   8   9
ATOM      9  C   UNL     1     -24.635   2.735  -2.362  1.00  0.00    -0.011 C 
ATOM     10  C   UNL     1     -25.763   3.249  -3.277  1.00  0.00     0.008 C 
BRANCH   9  11
ATOM     11  C   UNL     1     -24.925   2.992  -0.838  1.00  0.00    -0.002 C 
ATOM     12  C   UNL     1     -24.480   1.802   0.037  1.00  0.00     0.005 C 
ATOM     13  C   UNL     1     -24.275   4.246  -0.158  1.00  0.00    -0.026 C 
ATOM     14  C   UNL     1     -24.003   2.361   1.370  1.00  0.00     0.005 C 
ATOM     15  C   UNL     1     -24.303   3.863   1.341  1.00  0.00    -0.001 C 
ATOM     16  C   UNL     1     -22.802   4.444  -0.622  1.00  0.00     0.007 C 
ATOM     17  C   UNL     1     -25.120   5.529  -0.384  1.00  0.00     0.012 C 
ATOM     18  C   UNL     1     -23.407   4.739   2.280  1.00  0.00     0.004 C 
ATOM     19  C   UNL     1     -22.035   5.434   0.252  1.00  0.00     0.005 C 
ATOM     20  C   UNL     1     -21.979   4.984   1.731  1.00  0.00     0.003 C 
ATOM     21  C   UNL     1     -23.326   4.110   3.687  1.00  0.00     0.085 C 
ATOM     22  C   UNL     1     -21.101   5.945   2.662  1.00  0.00    -0.000 C 
ATOM     23  C   UNL     1     -22.526   4.951   4.622  1.00  0.00     0.159 C 
ATOM     24  C   UNL     1     -21.628   6.007   4.106  1.00  0.00     0.005 C 
ATOM     25  C   UNL     1     -21.041   7.410   2.114  1.00  0.00     0.020 C 
ATOM     26  C   UNL     1     -19.666   5.360   2.712  1.00  0.00     0.017 C 
ATOM     27  O   UNL     1     -22.628   4.744   5.864  1.00  0.00    -0.295 OA
ATOM     28  C   UNL     1     -21.288   7.022   4.926  1.00  0.00     0.055 C 
ATOM     29  C   UNL     1     -20.214   8.361   2.993  1.00  0.00     0.081 C 
ATOM     30  C   UNL     1     -20.545   8.196   4.445  1.00  0.00     0.156 C 
ATOM     31  O   UNL     1     -20.179   9.077   5.268  1.00  0.00    -0.295 OA
ENDBRANCH   9  11
ENDBRANCH   8   9
ENDBRANCH   1   8
TORSDOF 6
ENDMDL
MODEL 5
REMARK VINA RESULT:    -7.512      3.432      6.201
REMARK INTER + INTRA:         -11.404
REMARK INTER:                 -10.134
REMARK INTRA:                  -1.270
REMARK UNBOUND:                -1.257
REMARK SMILES CC[C@H](CC[C@@H](C)[C@H]1CC[C@H]2[C@H]3CC(=O)C4=CC(=O)CC[C@]4(C)[C@@H]3CC[C@@]12C)C(C)C
REMARK SMILES IDX 4 1 3 2 2 3 1 4 29 5 30 6 31 7 5 8 6 9 7 10 8 11 9 12 27 13
REMARK SMILES IDX 10 14 11 15 26 16 28 17 12 18 25 19 24 20 13 21 22 22 14 23
REMARK SMILES IDX 16 24 21 25 23 26 15 27 17 28 20 29 18 30 19 31
REMARK H PARENT
REMARK Flexibility Score: inf
ROOT
ATOM      1  C   UNL     1     -28.554  -3.812  -6.929  1.00  0.00     0.004 C 
ENDROOT
BRANCH   1   2
ATOM      2  C   UNL     1     -28.746  -5.293  -6.489  1.00  0.00    -0.009 C 
BRANCH   2   3
ATOM      3  C   UNL     1     -28.895  -6.179  -7.759  1.00  0.00     0.000 C 
ATOM      4  C   UNL     1     -28.734  -5.393  -9.063  1.00  0.00     0.004 C 
ENDBRANCH   2   3
BRANCH   2   5
ATOM      5  C   UNL     1     -27.628  -5.864  -5.542  1.00  0.00    -0.014 C 
ATOM      6  C   UNL     1     -27.097  -7.229  -6.009  1.00  0.00     0.007 C 
ATOM      7  C   UNL     1     -28.010  -5.895  -4.051  1.00  0.00     0.007 C 
ENDBRANCH   2   5
ENDBRANCH   1   2
BRANCH   1   8
ATOM      8  C   UNL     1     -27.202  -3.189  -6.532  1.00  0.00     0.004 C 
BRANCH   8   9
ATOM      9  C   UNL     1     -27.375  -1.727  -5.992  1.00  0.00    -0.011 C 
ATOM     10  C   UNL     1     -28.645  -1.111  -6.611  1.00  0.00     0.008 C 
BRANCH   9  11
ATOM     11  C   UNL     1     -27.384  -1.682  -4.420  1.00  0.00    -0.002 C 
ATOM     12  C   UNL     1     -26.294  -2.593  -3.818  1.00  0.00     0.005 C 
ATOM     13  C   UNL     1     -27.174  -0.298  -3.715  1.00  0.00    -0.026 C 
ATOM     14  C   UNL     1     -25.796  -1.935  -2.538  1.00  0.00     0.005 C 
ATOM     15  C   UNL     1     -26.691  -0.714  -2.305  1.00  0.00    -0.001 C 
ATOM     16  C   UNL     1     -26.068   0.539  -4.423  1.00  0.00     0.007 C 
ATOM     17  C   UNL     1     -28.502   0.497  -3.597  1.00  0.00     0.012 C 
ATOM     18  C   UNL     1     -26.049   0.427  -1.446  1.00  0.00     0.004 C 
ATOM     19  C   UNL     1     -25.602   1.729  -3.587  1.00  0.00     0.005 C 
ATOM     20  C   UNL     1     -25.022   1.291  -2.222  1.00  0.00     0.003 C 
ATOM     21  C   UNL     1     -25.389  -0.159  -0.180  1.00  0.00     0.085 C 
ATOM     22  C   UNL     1     -24.432   2.500  -1.356  1.00  0.00    -0.000 C 
ATOM     23  C   UNL     1     -24.817   0.909   0.689  1.00  0.00     0.159 C 
ATOM     24  C   UNL     1     -24.585   2.270   0.158  1.00  0.00     0.005 C 
ATOM     25  C   UNL     1     -25.115   3.866  -1.701  1.00  0.00     0.020 C 
ATOM     26  C   UNL     1     -22.915   2.596  -1.663  1.00  0.00     0.017 C 
ATOM     27  O   UNL     1     -24.533   0.630   1.888  1.00  0.00    -0.295 OA
ATOM     28  C   UNL     1     -24.518   3.299   1.027  1.00  0.00     0.055 C 
ATOM     29  C   UNL     1     -24.578   5.047  -0.877  1.00  0.00     0.081 C 
ATOM     30  C   UNL     1     -24.463   4.697   0.575  1.00  0.00     0.156 C 
ATOM     31  O   UNL     1     -24.315   5.616   1.424  1.00  0.00    -0.295 OA
ENDBRANCH   9  11
ENDBRANCH   8   9
ENDBRANCH   1   8
TORSDOF 6
ENDMDL
MODEL 6
REMARK VINA RESULT:    -7.386      1.378      2.350
REMARK INTER + INTRA:         -11.233
REMARK INTER:                 -10.800
REMARK INTRA:                  -0.433
REMARK UNBOUND:                -1.257
REMARK SMILES CC[C@H](CC[C@@H](C)[C@H]1CC[C@H]2[C@H]3CC(=O)C4=CC(=O)CC[C@]4(C)[C@@H]3CC[C@@]12C)C(C)C
REMARK SMILES IDX 4 1 3 2 2 3 1 4 29 5 30 6 31 7 5 8 6 9 7 10 8 11 9 12 27 13
REMARK SMILES IDX 10 14 11 15 26 16 28 17 12 18 25 19 24 20 13 21 22 22 14 23
REMARK SMILES IDX 16 24 21 25 23 26 15 27 17 28 20 29 18 30 19 31
REMARK H PARENT
REMARK Flexibility Score: inf
ROOT
ATOM      1  C   UNL     1     -27.086  -0.764  -4.737  1.00  0.00     0.004 C 
ENDROOT
BRANCH   1   2
ATOM      2  C   UNL     1     -26.886  -2.000  -5.663  1.00  0.00    -0.009 C 
BRANCH   2   3
ATOM      3  C   UNL     1     -27.112  -3.294  -4.832  1.00  0.00     0.000 C 
ATOM      4  C   UNL     1     -27.094  -4.566  -5.684  1.00  0.00     0.004 C 
ENDBRANCH   2   3
BRANCH   2   5
ATOM      5  C   UNL     1     -27.768  -2.015  -6.965  1.00  0.00    -0.014 C 
ATOM      6  C   UNL     1     -27.366  -0.917  -7.965  1.00  0.00     0.007 C 
ATOM      7  C   UNL     1     -29.285  -2.005  -6.707  1.00  0.00     0.007 C 
ENDBRANCH   2   5
ENDBRANCH   1   2
BRANCH   1   8
ATOM      8  C   UNL     1     -26.582  -0.949  -3.293  1.00  0.00     0.004 C 
BRANCH   8   9
ATOM      9  C   UNL     1     -25.385   0.011  -2.972  1.00  0.00    -0.011 C 
ATOM     10  C   UNL     1     -25.034   0.817  -4.237  1.00  0.00     0.008 C 
BRANCH   9  11
ATOM     11  C   UNL     1     -25.690   0.929  -1.732  1.00  0.00    -0.002 C 
ATOM     12  C   UNL     1     -25.810   0.109  -0.431  1.00  0.00     0.005 C 
ATOM     13  C   UNL     1     -24.674   2.072  -1.386  1.00  0.00    -0.026 C 
ATOM     14  C   UNL     1     -25.276   0.968   0.708  1.00  0.00     0.005 C 
ATOM     15  C   UNL     1     -24.979   2.345   0.107  1.00  0.00    -0.001 C 
ATOM     16  C   UNL     1     -23.202   1.590  -1.541  1.00  0.00     0.007 C 
ATOM     17  C   UNL     1     -24.944   3.355  -2.216  1.00  0.00     0.012 C 
ATOM     18  C   UNL     1     -23.904   3.188   0.873  1.00  0.00     0.004 C 
ATOM     19  C   UNL     1     -22.196   2.546  -0.902  1.00  0.00     0.005 C 
ATOM     20  C   UNL     1     -22.447   2.727   0.613  1.00  0.00     0.003 C 
ATOM     21  C   UNL     1     -24.193   3.178   2.389  1.00  0.00     0.085 C 
ATOM     22  C   UNL     1     -21.356   3.645   1.340  1.00  0.00    -0.000 C 
ATOM     23  C   UNL     1     -23.220   4.019   3.141  1.00  0.00     0.159 C 
ATOM     24  C   UNL     1     -21.946   4.438   2.519  1.00  0.00     0.005 C 
ATOM     25  C   UNL     1     -20.694   4.670   0.359  1.00  0.00     0.020 C 
ATOM     26  C   UNL     1     -20.263   2.705   1.909  1.00  0.00     0.017 C 
ATOM     27  O   UNL     1     -23.503   4.367   4.323  1.00  0.00    -0.295 OA
ATOM     28  C   UNL     1     -21.319   5.530   3.003  1.00  0.00     0.055 C 
ATOM     29  C   UNL     1     -19.649   5.575   1.030  1.00  0.00     0.081 C 
ATOM     30  C   UNL     1     -20.146   6.114   2.337  1.00  0.00     0.156 C 
ATOM     31  O   UNL     1     -19.547   7.082   2.876  1.00  0.00    -0.295 OA
ENDBRANCH   9  11
ENDBRANCH   8   9
ENDBRANCH   1   8
TORSDOF 6
ENDMDL
MODEL 7
REMARK VINA RESULT:    -7.197      3.133      9.369
REMARK INTER + INTRA:         -10.978
REMARK INTER:                  -9.604
REMARK INTRA:                  -1.375
REMARK UNBOUND:                -1.257
REMARK SMILES CC[C@H](CC[C@@H](C)[C@H]1CC[C@H]2[C@H]3CC(=O)C4=CC(=O)CC[C@]4(C)[C@@H]3CC[C@@]12C)C(C)C
REMARK SMILES IDX 4 1 3 2 2 3 1 4 29 5 30 6 31 7 5 8 6 9 7 10 8 11 9 12 27 13
REMARK SMILES IDX 10 14 11 15 26 16 28 17 12 18 25 19 24 20 13 21 22 22 14 23
REMARK SMILES IDX 16 24 21 25 23 26 15 27 17 28 20 29 18 30 19 31
REMARK H PARENT
REMARK Flexibility Score: inf
ROOT
ATOM      1  C   UNL     1     -19.033   5.873   3.261  1.00  0.00     0.004 C 
ENDROOT
BRANCH   1   2
ATOM      2  C   UNL     1     -18.973   5.349   4.726  1.00  0.00    -0.009 C 
BRANCH   2   3
ATOM      3  C   UNL     1     -20.409   4.959   5.180  1.00  0.00     0.000 C 
ATOM      4  C   UNL     1     -20.483   3.561   5.801  1.00  0.00     0.004 C 
ENDBRANCH   2   3
BRANCH   2   5
ATOM      5  C   UNL     1     -17.970   4.163   4.975  1.00  0.00    -0.014 C 
ATOM      6  C   UNL     1     -16.864   4.525   5.981  1.00  0.00     0.007 C 
ATOM      7  C   UNL     1     -17.379   3.548   3.695  1.00  0.00     0.007 C 
ENDBRANCH   2   5
ENDBRANCH   1   2
BRANCH   1   8
ATOM      8  C   UNL     1     -20.452   5.992   2.674  1.00  0.00     0.004 C 
BRANCH   8   9
ATOM      9  C   UNL     1     -20.649   5.044   1.441  1.00  0.00    -0.011 C 
ATOM     10  C   UNL     1     -19.267   4.622   0.907  1.00  0.00     0.008 C 
BRANCH   9  11
ATOM     11  C   UNL     1     -21.566   3.816   1.790  1.00  0.00    -0.002 C 
ATOM     12  C   UNL     1     -22.910   4.263   2.404  1.00  0.00     0.005 C 
ATOM     13  C   UNL     1     -21.968   2.835   0.635  1.00  0.00    -0.026 C 
ATOM     14  C   UNL     1     -23.975   3.272   1.954  1.00  0.00     0.005 C 
ATOM     15  C   UNL     1     -23.241   2.160   1.199  1.00  0.00    -0.001 C 
ATOM     16  C   UNL     1     -22.318   3.608  -0.670  1.00  0.00     0.007 C 
ATOM     17  C   UNL     1     -20.876   1.761   0.384  1.00  0.00     0.012 C 
ATOM     18  C   UNL     1     -24.109   1.376   0.158  1.00  0.00     0.004 C 
ATOM     19  C   UNL     1     -23.027   2.734  -1.703  1.00  0.00     0.005 C 
ATOM     20  C   UNL     1     -24.354   2.151  -1.161  1.00  0.00     0.003 C 
ATOM     21  C   UNL     1     -25.460   0.968   0.783  1.00  0.00     0.085 C 
ATOM     22  C   UNL     1     -25.175   1.309  -2.246  1.00  0.00    -0.000 C 
ATOM     23  C   UNL     1     -26.287   0.170  -0.165  1.00  0.00     0.159 C 
ATOM     24  C   UNL     1     -25.979   0.160  -1.611  1.00  0.00     0.005 C 
ATOM     25  C   UNL     1     -24.248   0.691  -3.345  1.00  0.00     0.020 C 
ATOM     26  C   UNL     1     -26.188   2.273  -2.914  1.00  0.00     0.017 C 
ATOM     27  O   UNL     1     -27.260  -0.497   0.290  1.00  0.00    -0.295 OA
ATOM     28  C   UNL     1     -26.411  -0.879  -2.356  1.00  0.00     0.055 C 
ATOM     29  C   UNL     1     -25.007  -0.135  -4.395  1.00  0.00     0.081 C 
ATOM     30  C   UNL     1     -26.003  -1.055  -3.758  1.00  0.00     0.156 C 
ATOM     31  O   UNL     1     -26.501  -1.993  -4.434  1.00  0.00    -0.295 OA
ENDBRANCH   9  11
ENDBRANCH   8   9
ENDBRANCH   1   8
TORSDOF 6
ENDMDL
MODEL 8
REMARK VINA RESULT:    -7.153      7.467     14.609
REMARK INTER + INTRA:         -10.918
REMARK INTER:                  -9.891
REMARK INTRA:                  -1.027
REMARK UNBOUND:                -1.257
REMARK SMILES CC[C@H](CC[C@@H](C)[C@H]1CC[C@H]2[C@H]3CC(=O)C4=CC(=O)CC[C@]4(C)[C@@H]3CC[C@@]12C)C(C)C
REMARK SMILES IDX 4 1 3 2 2 3 1 4 29 5 30 6 31 7 5 8 6 9 7 10 8 11 9 12 27 13
REMARK SMILES IDX 10 14 11 15 26 16 28 17 12 18 25 19 24 20 13 21 22 22 14 23
REMARK SMILES IDX 16 24 21 25 23 26 15 27 17 28 20 29 18 30 19 31
REMARK H PARENT
REMARK Flexibility Score: inf
ROOT
ATOM      1  C   UNL     1     -26.639  -0.389  -3.316  1.00  0.00     0.004 C 
ENDROOT
BRANCH   1   2
ATOM      2  C   UNL     1     -25.362   0.370  -2.849  1.00  0.00    -0.009 C 
BRANCH   2   3
ATOM      3  C   UNL     1     -25.640   1.900  -2.901  1.00  0.00     0.000 C 
ATOM      4  C   UNL     1     -24.753   2.637  -3.908  1.00  0.00     0.004 C 
ENDBRANCH   2   3
BRANCH   2   5
ATOM      5  C   UNL     1     -24.811  -0.047  -1.436  1.00  0.00    -0.014 C 
ATOM      6  C   UNL     1     -25.219   0.939  -0.328  1.00  0.00     0.007 C 
ATOM      7  C   UNL     1     -23.299  -0.332  -1.400  1.00  0.00     0.007 C 
ENDBRANCH   2   5
ENDBRANCH   1   2
BRANCH   1   8
ATOM      8  C   UNL     1     -26.603  -0.880  -4.776  1.00  0.00     0.004 C 
BRANCH   8   9
ATOM      9  C   UNL     1     -26.533  -2.444  -4.858  1.00  0.00    -0.011 C 
ATOM     10  C   UNL     1     -26.110  -3.000  -3.485  1.00  0.00     0.008 C 
BRANCH   9  11
ATOM     11  C   UNL     1     -27.883  -3.062  -5.374  1.00  0.00    -0.002 C 
ATOM     12  C   UNL     1     -28.832  -1.979  -5.929  1.00  0.00     0.005 C 
ATOM     13  C   UNL     1     -27.821  -4.148  -6.503  1.00  0.00    -0.026 C 
ATOM     14  C   UNL     1     -29.619  -2.598  -7.077  1.00  0.00     0.005 C 
ATOM     15  C   UNL     1     -29.246  -4.083  -7.105  1.00  0.00    -0.001 C 
ATOM     16  C   UNL     1     -26.773  -3.775  -7.592  1.00  0.00     0.007 C 
ATOM     17  C   UNL     1     -27.563  -5.566  -5.927  1.00  0.00     0.012 C 
ATOM     18  C   UNL     1     -29.427  -4.788  -8.491  1.00  0.00     0.004 C 
ATOM     19  C   UNL     1     -26.914  -4.616  -8.860  1.00  0.00     0.005 C 
ATOM     20  C   UNL     1     -28.308  -4.458  -9.512  1.00  0.00     0.003 C 
ATOM     21  C   UNL     1     -30.804  -4.443  -9.095  1.00  0.00     0.085 C 
ATOM     22  C   UNL     1     -28.463  -5.246 -10.896  1.00  0.00    -0.000 C 
ATOM     23  C   UNL     1     -31.031  -5.146 -10.389  1.00  0.00     0.159 C 
ATOM     24  C   UNL     1     -29.901  -5.743 -11.132  1.00  0.00     0.005 C 
ATOM     25  C   UNL     1     -27.511  -6.485 -10.983  1.00  0.00     0.020 C 
ATOM     26  C   UNL     1     -28.118  -4.255 -12.037  1.00  0.00     0.017 C 
ATOM     27  O   UNL     1     -32.208  -5.220 -10.842  1.00  0.00    -0.295 OA
ATOM     28  C   UNL     1     -30.157  -6.733 -12.011  1.00  0.00     0.055 C 
ATOM     29  C   UNL     1     -27.645  -7.271 -12.298  1.00  0.00     0.081 C 
ATOM     30  C   UNL     1     -29.081  -7.496 -12.660  1.00  0.00     0.156 C 
ATOM     31  O   UNL     1     -29.371  -8.352 -13.537  1.00  0.00    -0.295 OA
ENDBRANCH   9  11
ENDBRANCH   8   9
ENDBRANCH   1   8
TORSDOF 6
ENDMDL
MODEL 9
REMARK VINA RESULT:    -7.044      4.783      8.342
REMARK INTER + INTRA:         -10.771
REMARK INTER:                  -8.578
REMARK INTRA:                  -2.193
REMARK UNBOUND:                -1.257
REMARK SMILES CC[C@H](CC[C@@H](C)[C@H]1CC[C@H]2[C@H]3CC(=O)C4=CC(=O)CC[C@]4(C)[C@@H]3CC[C@@]12C)C(C)C
REMARK SMILES IDX 4 1 3 2 2 3 1 4 29 5 30 6 31 7 5 8 6 9 7 10 8 11 9 12 27 13
REMARK SMILES IDX 10 14 11 15 26 16 28 17 12 18 25 19 24 20 13 21 22 22 14 23
REMARK SMILES IDX 16 24 21 25 23 26 15 27 17 28 20 29 18 30 19 31
REMARK H PARENT
REMARK Flexibility Score: inf
ROOT
ATOM      1  C   UNL     1     -21.278   4.084   2.508  1.00  0.00     0.004 C 
ENDROOT
BRANCH   1   2
ATOM      2  C   UNL     1     -21.540   3.513   1.083  1.00  0.00    -0.009 C 
BRANCH   2   3
ATOM      3  C   UNL     1     -20.809   2.147   0.946  1.00  0.00     0.000 C 
ATOM      4  C   UNL     1     -21.763   0.978   0.686  1.00  0.00     0.004 C 
ENDBRANCH   2   3
BRANCH   2   5
ATOM      5  C   UNL     1     -23.055   3.373   0.682  1.00  0.00    -0.014 C 
ATOM      6  C   UNL     1     -23.413   4.192  -0.569  1.00  0.00     0.007 C 
ATOM      7  C   UNL     1     -24.045   3.645   1.828  1.00  0.00     0.007 C 
ENDBRANCH   2   5
ENDBRANCH   1   2
BRANCH   1   8
ATOM      8  C   UNL     1     -20.053   5.011   2.618  1.00  0.00     0.004 C 
BRANCH   8   9
ATOM      9  C   UNL     1     -20.456   6.444   3.109  1.00  0.00    -0.011 C 
ATOM     10  C   UNL     1     -19.392   6.952   4.101  1.00  0.00     0.008 C 
BRANCH   9  11
ATOM     11  C   UNL     1     -20.683   7.431   1.906  1.00  0.00    -0.002 C 
ATOM     12  C   UNL     1     -20.325   6.775   0.555  1.00  0.00     0.005 C 
ATOM     13  C   UNL     1     -22.119   8.022   1.689  1.00  0.00    -0.026 C 
ATOM     14  C   UNL     1     -21.270   7.339  -0.497  1.00  0.00     0.005 C 
ATOM     15  C   UNL     1     -22.086   8.434   0.198  1.00  0.00    -0.001 C 
ATOM     16  C   UNL     1     -23.217   6.941   1.911  1.00  0.00     0.007 C 
ATOM     17  C   UNL     1     -22.366   9.275   2.571  1.00  0.00     0.012 C 
ATOM     18  C   UNL     1     -23.479   8.738  -0.450  1.00  0.00     0.004 C 
ATOM     19  C   UNL     1     -24.586   7.375   1.392  1.00  0.00     0.005 C 
ATOM     20  C   UNL     1     -24.564   7.681  -0.124  1.00  0.00     0.003 C 
ATOM     21  C   UNL     1     -23.339   8.889  -1.980  1.00  0.00     0.085 C 
ATOM     22  C   UNL     1     -26.001   8.044  -0.727  1.00  0.00    -0.000 C 
ATOM     23  C   UNL     1     -24.639   9.237  -2.620  1.00  0.00     0.159 C 
ATOM     24  C   UNL     1     -25.913   9.042  -1.896  1.00  0.00     0.005 C 
ATOM     25  C   UNL     1     -26.960   8.655   0.349  1.00  0.00     0.020 C 
ATOM     26  C   UNL     1     -26.620   6.734  -1.277  1.00  0.00     0.017 C 
ATOM     27  O   UNL     1     -24.633   9.699  -3.796  1.00  0.00    -0.295 OA
ATOM     28  C   UNL     1     -26.989   9.760  -2.277  1.00  0.00     0.055 C 
ATOM     29  C   UNL     1     -28.345   9.026  -0.202  1.00  0.00     0.081 C 
ATOM     30  C   UNL     1     -28.241   9.757  -1.506  1.00  0.00     0.156 C 
ATOM     31  O   UNL     1     -29.243  10.377  -1.950  1.00  0.00    -0.295 OA
ENDBRANCH   9  11
ENDBRANCH   8   9
ENDBRANCH   1   8
TORSDOF 6
ENDMDL
