MODEL 1
REMARK VINA RESULT:    -3.874      0.000      0.000
REMARK INTER + INTRA:          -1.185
REMARK INTER:                  -5.233
REMARK INTRA:                   4.048
REMARK UNBOUND:                 4.048
REMARK SMILES O=c1c(-c2ccc(O)cc2)coc2c([C@@H]3O[C@H](CO)[C@H](O)[C@@H](O)[C@H]3O)c(O)ccc12
REMARK SMILES IDX 3 1 11 2 12 3 13 4 30 5 2 6 1 7 29 8 28 9 26 10 14 11 4 12
REMARK SMILES IDX 5 13 6 14 7 15 10 16 9 17 8 18 15 20 24 21 16 22 22 23 17 24
REMARK SMILES IDX 20 25 25 26 23 28 18 30 19 31 21 33 27 35
REMARK H PARENT 8 19 25 27 23 29 19 32 21 34 27 36
REMARK Flexibility Score: inf
ROOT
ATOM      1  C   UNL     1       3.826  48.629 282.439  1.00  0.00     0.065 A 
ATOM      2  C   UNL     1       3.783  49.975 282.822  1.00  0.00     0.208 A 
ATOM      3  O   UNL     1       3.913  50.944 281.925  1.00  0.00    -0.463 OA
ATOM      4  C   UNL     1       4.091  50.718 280.624  1.00  0.00     0.147 A 
ATOM      5  C   UNL     1       4.159  49.386 280.155  1.00  0.00     0.066 A 
ATOM      6  C   UNL     1       4.029  48.334 281.080  1.00  0.00     0.200 A 
ATOM      7  O   UNL     1       4.112  47.134 280.697  1.00  0.00    -0.288 OA
ATOM      8  C   UNL     1       4.363  49.143 278.791  1.00  0.00     0.020 A 
ATOM      9  C   UNL     1       4.504  50.206 277.907  1.00  0.00     0.047 A 
ATOM     10  C   UNL     1       4.438  51.532 278.351  1.00  0.00     0.125 A 
ATOM     11  C   UNL     1       4.208  51.815 279.729  1.00  0.00     0.069 A 
ENDROOT
BRANCH   1  12
ATOM     12  C   UNL     1       3.667  47.563 283.461  1.00  0.00    -0.011 A 
ATOM     13  C   UNL     1       3.310  46.256 283.084  1.00  0.00     0.013 A 
ATOM     14  C   UNL     1       3.153  45.259 284.051  1.00  0.00     0.047 A 
ATOM     15  C   UNL     1       3.345  45.553 285.403  1.00  0.00     0.115 A 
ATOM     16  C   UNL     1       3.852  47.854 284.824  1.00  0.00     0.013 A 
ATOM     17  C   UNL     1       3.694  46.854 285.788  1.00  0.00     0.047 A 
BRANCH  15  18
ATOM     18  O   UNL     1       3.185  44.549 286.355  1.00  0.00    -0.508 OA
ATOM     19  H   UNL     1       3.648  44.594 287.256  1.00  0.00     0.293 HD
ENDBRANCH  15  18
ENDBRANCH   1  12
BRANCH  11  20
ATOM     20  C   UNL     1       4.095  53.224 280.342  1.00  0.00     0.188 C 
ATOM     21  C   UNL     1       5.303  54.208 280.308  1.00  0.00     0.179 C 
ATOM     22  O   UNL     1       2.875  53.860 279.967  1.00  0.00    -0.362 OA
ATOM     23  C   UNL     1       5.387  54.973 278.970  1.00  0.00     0.177 C 
ATOM     24  C   UNL     1       2.906  54.503 278.698  1.00  0.00     0.176 C 
ATOM     25  C   UNL     1       4.023  55.570 278.606  1.00  0.00     0.177 C 
BRANCH  21  26
ATOM     26  O   UNL     1       5.231  55.117 281.383  1.00  0.00    -0.387 OA
ATOM     27  H   UNL     1       5.379  56.033 281.032  1.00  0.00     0.211 HD
ENDBRANCH  21  26
BRANCH  23  28
ATOM     28  O   UNL     1       6.338  56.002 279.062  1.00  0.00    -0.387 OA
ATOM     29  H   UNL     1       7.031  55.695 279.705  1.00  0.00     0.211 HD
ENDBRANCH  23  28
BRANCH  24  30
ATOM     30  C   UNL     1       2.875  53.496 277.527  1.00  0.00     0.191 C 
BRANCH  30  31
ATOM     31  O   UNL     1       2.879  54.178 276.302  1.00  0.00    -0.394 OA
ATOM     32  H   UNL     1       3.832  54.292 276.052  1.00  0.00     0.210 HD
ENDBRANCH  30  31
ENDBRANCH  24  30
BRANCH  25  33
ATOM     33  O   UNL     1       4.062  56.120 277.314  1.00  0.00    -0.388 OA
ATOM     34  H   UNL     1       4.974  56.487 277.181  1.00  0.00     0.211 HD
ENDBRANCH  25  33
ENDBRANCH  11  20
BRANCH  10  35
ATOM     35  O   UNL     1       4.604  52.541 277.409  1.00  0.00    -0.507 OA
ATOM     36  H   UNL     1       3.933  53.294 277.301  1.00  0.00     0.293 HD
ENDBRANCH  10  35
TORSDOF 9
ENDMDL
MODEL 2
REMARK VINA RESULT:    -3.300      2.571      5.030
REMARK INTER + INTRA:          -0.410
REMARK INTER:                  -1.507
REMARK INTRA:                   1.097
REMARK UNBOUND:                 4.048
REMARK SMILES O=c1c(-c2ccc(O)cc2)coc2c([C@@H]3O[C@H](CO)[C@H](O)[C@@H](O)[C@H]3O)c(O)ccc12
REMARK SMILES IDX 3 1 11 2 12 3 13 4 30 5 2 6 1 7 29 8 28 9 26 10 14 11 4 12
REMARK SMILES IDX 5 13 6 14 7 15 10 16 9 17 8 18 15 20 24 21 16 22 22 23 17 24
REMARK SMILES IDX 20 25 25 26 23 28 18 30 19 31 21 33 27 35
REMARK H PARENT 8 19 25 27 23 29 19 32 21 34 27 36
REMARK Flexibility Score: inf
ROOT
ATOM      1  C   UNL     1       3.123  47.343 285.614  1.00  0.00     0.065 A 
ATOM      2  C   UNL     1       3.194  47.484 284.223  1.00  0.00     0.208 A 
ATOM      3  O   UNL     1       3.177  48.685 283.658  1.00  0.00    -0.463 OA
ATOM      4  C   UNL     1       3.093  49.820 284.353  1.00  0.00     0.147 A 
ATOM      5  C   UNL     1       3.005  49.765 285.762  1.00  0.00     0.066 A 
ATOM      6  C   UNL     1       3.016  48.507 286.394  1.00  0.00     0.200 A 
ATOM      7  O   UNL     1       2.912  48.424 287.649  1.00  0.00    -0.288 OA
ATOM      8  C   UNL     1       2.900  50.953 286.494  1.00  0.00     0.020 A 
ATOM      9  C   UNL     1       2.875  52.178 285.838  1.00  0.00     0.047 A 
ATOM     10  C   UNL     1       2.963  52.253 284.442  1.00  0.00     0.125 A 
ATOM     11  C   UNL     1       3.095  51.065 283.668  1.00  0.00     0.069 A 
ENDROOT
BRANCH   1  12
ATOM     12  C   UNL     1       3.155  45.988 286.223  1.00  0.00    -0.011 A 
ATOM     13  C   UNL     1       2.898  44.846 285.443  1.00  0.00     0.013 A 
ATOM     14  C   UNL     1       2.920  43.574 286.022  1.00  0.00     0.047 A 
ATOM     15  C   UNL     1       3.193  43.427 287.385  1.00  0.00     0.115 A 
ATOM     16  C   UNL     1       3.422  45.833 287.594  1.00  0.00     0.013 A 
ATOM     17  C   UNL     1       3.444  44.559 288.170  1.00  0.00     0.047 A 
BRANCH  15  18
ATOM     18  O   UNL     1       3.212  42.152 287.949  1.00  0.00    -0.508 OA
ATOM     19  H   UNL     1       3.905  41.889 288.640  1.00  0.00     0.293 HD
ENDBRANCH  15  18
ENDBRANCH   1  12
BRANCH  11  20
ATOM     20  C   UNL     1       3.219  51.011 282.133  1.00  0.00     0.188 C 
ATOM     21  C   UNL     1       3.379  52.317 281.299  1.00  0.00     0.179 C 
ATOM     22  O   UNL     1       4.132  49.996 281.719  1.00  0.00    -0.362 OA
ATOM     23  C   UNL     1       4.847  52.790 281.240  1.00  0.00     0.177 C 
ATOM     24  C   UNL     1       5.501  50.386 281.736  1.00  0.00     0.176 C 
ATOM     25  C   UNL     1       5.770  51.628 280.853  1.00  0.00     0.177 C 
BRANCH  21  26
ATOM     26  O   UNL     1       2.875  52.136 279.995  1.00  0.00    -0.387 OA
ATOM     27  H   UNL     1       2.589  53.018 279.642  1.00  0.00     0.211 HD
ENDBRANCH  21  26
BRANCH  23  28
ATOM     28  O   UNL     1       4.983  53.826 280.303  1.00  0.00    -0.387 OA
ATOM     29  H   UNL     1       5.475  54.560 280.756  1.00  0.00     0.211 HD
ENDBRANCH  23  28
BRANCH  24  30
ATOM     30  C   UNL     1       6.070  50.475 283.169  1.00  0.00     0.191 C 
BRANCH  30  31
ATOM     31  O   UNL     1       7.466  50.599 283.128  1.00  0.00    -0.394 OA
ATOM     32  H   UNL     1       7.830  49.731 283.444  1.00  0.00     0.210 HD
ENDBRANCH  30  31
ENDBRANCH  24  30
BRANCH  25  33
ATOM     33  O   UNL     1       7.115  52.018 280.963  1.00  0.00    -0.388 OA
ATOM     34  H   UNL     1       7.281  52.224 281.920  1.00  0.00     0.211 HD
ENDBRANCH  25  33
ENDBRANCH  11  20
BRANCH  10  35
ATOM     35  O   UNL     1       2.916  53.514 283.857  1.00  0.00    -0.507 OA
ATOM     36  H   UNL     1       3.623  53.831 283.203  1.00  0.00     0.293 HD
ENDBRANCH  10  35
TORSDOF 9
ENDMDL
MODEL 3
REMARK VINA RESULT:    -3.100      1.469      2.338
REMARK INTER + INTRA:          -0.140
REMARK INTER:                  -1.751
REMARK INTRA:                   1.611
REMARK UNBOUND:                 4.048
REMARK SMILES O=c1c(-c2ccc(O)cc2)coc2c([C@@H]3O[C@H](CO)[C@H](O)[C@@H](O)[C@H]3O)c(O)ccc12
REMARK SMILES IDX 3 1 11 2 12 3 13 4 30 5 2 6 1 7 29 8 28 9 26 10 14 11 4 12
REMARK SMILES IDX 5 13 6 14 7 15 10 16 9 17 8 18 15 20 24 21 16 22 22 23 17 24
REMARK SMILES IDX 20 25 25 26 23 28 18 30 19 31 21 33 27 35
REMARK H PARENT 8 19 25 27 23 29 19 32 21 34 27 36
REMARK Flexibility Score: inf
ROOT
ATOM      1  C   UNL     1       3.284  50.280 281.772  1.00  0.00     0.065 A 
ATOM      2  C   UNL     1       3.253  51.672 281.917  1.00  0.00     0.208 A 
ATOM      3  O   UNL     1       3.159  52.466 280.857  1.00  0.00    -0.463 OA
ATOM      4  C   UNL     1       3.090  52.011 279.606  1.00  0.00     0.147 A 
ATOM      5  C   UNL     1       3.128  50.618 279.371  1.00  0.00     0.066 A 
ATOM      6  C   UNL     1       3.231  49.748 280.472  1.00  0.00     0.200 A 
ATOM      7  O   UNL     1       3.294  48.499 280.295  1.00  0.00    -0.288 OA
ATOM      8  C   UNL     1       3.073  50.137 278.058  1.00  0.00     0.020 A 
ATOM      9  C   UNL     1       2.988  51.024 276.993  1.00  0.00     0.047 A 
ATOM     10  C   UNL     1       2.947  52.408 277.204  1.00  0.00     0.125 A 
ATOM     11  C   UNL     1       2.978  52.932 278.529  1.00  0.00     0.069 A 
ENDROOT
BRANCH   1  12
ATOM     12  C   UNL     1       3.378  49.413 282.975  1.00  0.00    -0.011 A 
ATOM     13  C   UNL     1       3.417  49.976 284.263  1.00  0.00     0.013 A 
ATOM     14  C   UNL     1       3.515  49.157 285.391  1.00  0.00     0.047 A 
ATOM     15  C   UNL     1       3.579  47.768 285.248  1.00  0.00     0.115 A 
ATOM     16  C   UNL     1       3.449  48.016 282.838  1.00  0.00     0.013 A 
ATOM     17  C   UNL     1       3.546  47.199 283.969  1.00  0.00     0.047 A 
BRANCH  15  18
ATOM     18  O   UNL     1       3.676  46.963 286.381  1.00  0.00    -0.508 OA
ATOM     19  H   UNL     1       2.913  46.363 286.672  1.00  0.00     0.293 HD
ENDBRANCH  15  18
ENDBRANCH   1  12
BRANCH  11  20
ATOM     20  C   UNL     1       2.920  54.426 278.899  1.00  0.00     0.188 C 
ATOM     21  C   UNL     1       3.541  54.942 280.231  1.00  0.00     0.179 C 
ATOM     22  O   UNL     1       3.271  55.251 277.790  1.00  0.00    -0.362 OA
ATOM     23  C   UNL     1       5.057  55.198 280.103  1.00  0.00     0.177 C 
ATOM     24  C   UNL     1       4.670  55.433 277.604  1.00  0.00     0.176 C 
ATOM     25  C   UNL     1       5.357  56.035 278.853  1.00  0.00     0.177 C 
BRANCH  21  26
ATOM     26  O   UNL     1       2.886  56.115 280.660  1.00  0.00    -0.387 OA
ATOM     27  H   UNL     1       3.496  56.886 280.523  1.00  0.00     0.211 HD
ENDBRANCH  21  26
BRANCH  23  28
ATOM     28  O   UNL     1       5.531  55.871 281.240  1.00  0.00    -0.387 OA
ATOM     29  H   UNL     1       5.736  55.176 281.920  1.00  0.00     0.211 HD
ENDBRANCH  23  28
BRANCH  24  30
ATOM     30  C   UNL     1       5.356  54.174 277.031  1.00  0.00     0.191 C 
BRANCH  30  31
ATOM     31  O   UNL     1       6.332  54.539 276.092  1.00  0.00    -0.394 OA
ATOM     32  H   UNL     1       7.085  54.923 276.612  1.00  0.00     0.210 HD
ENDBRANCH  30  31
ENDBRANCH  24  30
BRANCH  25  33
ATOM     33  O   UNL     1       6.743  56.123 278.648  1.00  0.00    -0.388 OA
ATOM     34  H   UNL     1       6.880  56.505 277.742  1.00  0.00     0.211 HD
ENDBRANCH  25  33
ENDBRANCH  11  20
BRANCH  10  35
ATOM     35  O   UNL     1       2.878  53.234 276.087  1.00  0.00    -0.507 OA
ATOM     36  H   UNL     1       2.441  52.935 275.222  1.00  0.00     0.293 HD
ENDBRANCH  10  35
TORSDOF 9
ENDMDL
MODEL 4
REMARK VINA RESULT:    -2.956      1.423      3.357
REMARK INTER + INTRA:           0.055
REMARK INTER:                  -1.514
REMARK INTRA:                   1.570
REMARK UNBOUND:                 4.048
REMARK SMILES O=c1c(-c2ccc(O)cc2)coc2c([C@@H]3O[C@H](CO)[C@H](O)[C@@H](O)[C@H]3O)c(O)ccc12
REMARK SMILES IDX 3 1 11 2 12 3 13 4 30 5 2 6 1 7 29 8 28 9 26 10 14 11 4 12
REMARK SMILES IDX 5 13 6 14 7 15 10 16 9 17 8 18 15 20 24 21 16 22 22 23 17 24
REMARK SMILES IDX 20 25 25 26 23 28 18 30 19 31 21 33 27 35
REMARK H PARENT 8 19 25 27 23 29 19 32 21 34 27 36
REMARK Flexibility Score: inf
ROOT
ATOM      1  C   UNL     1       3.438  49.363 282.877  1.00  0.00     0.065 A 
ATOM      2  C   UNL     1       3.664  49.365 281.495  1.00  0.00     0.208 A 
ATOM      3  O   UNL     1       3.643  50.496 280.802  1.00  0.00    -0.463 OA
ATOM      4  C   UNL     1       3.409  51.687 281.352  1.00  0.00     0.147 A 
ATOM      5  C   UNL     1       3.159  51.773 282.740  1.00  0.00     0.066 A 
ATOM      6  C   UNL     1       3.171  50.592 283.505  1.00  0.00     0.200 A 
ATOM      7  O   UNL     1       2.924  50.632 284.743  1.00  0.00    -0.288 OA
ATOM      8  C   UNL     1       2.897  53.020 283.319  1.00  0.00     0.020 A 
ATOM      9  C   UNL     1       2.877  54.165 282.532  1.00  0.00     0.047 A 
ATOM     10  C   UNL     1       3.124  54.101 281.155  1.00  0.00     0.125 A 
ATOM     11  C   UNL     1       3.418  52.852 280.537  1.00  0.00     0.069 A 
ENDROOT
BRANCH   1  12
ATOM     12  C   UNL     1       3.479  48.085 283.632  1.00  0.00    -0.011 A 
ATOM     13  C   UNL     1       3.531  48.085 285.037  1.00  0.00     0.013 A 
ATOM     14  C   UNL     1       3.578  46.879 285.743  1.00  0.00     0.047 A 
ATOM     15  C   UNL     1       3.578  45.661 285.057  1.00  0.00     0.115 A 
ATOM     16  C   UNL     1       3.486  46.857 282.948  1.00  0.00     0.013 A 
ATOM     17  C   UNL     1       3.532  45.653 283.657  1.00  0.00     0.047 A 
BRANCH  15  18
ATOM     18  O   UNL     1       3.625  44.468 285.774  1.00  0.00    -0.508 OA
ATOM     19  H   UNL     1       4.060  43.636 285.391  1.00  0.00     0.293 HD
ENDBRANCH  15  18
ENDBRANCH   1  12
BRANCH  11  20
ATOM     20  C   UNL     1       3.725  52.648 279.041  1.00  0.00     0.188 C 
ATOM     21  C   UNL     1       2.922  53.416 277.950  1.00  0.00     0.179 C 
ATOM     22  O   UNL     1       5.129  52.672 278.790  1.00  0.00    -0.362 OA
ATOM     23  C   UNL     1       3.484  54.832 277.707  1.00  0.00     0.177 C 
ATOM     24  C   UNL     1       5.684  53.974 278.644  1.00  0.00     0.176 C 
ATOM     25  C   UNL     1       5.005  54.780 277.511  1.00  0.00     0.177 C 
BRANCH  21  26
ATOM     26  O   UNL     1       2.905  52.687 276.743  1.00  0.00    -0.387 OA
ATOM     27  H   UNL     1       1.970  52.640 276.415  1.00  0.00     0.211 HD
ENDBRANCH  21  26
BRANCH  23  28
ATOM     28  O   UNL     1       2.886  55.401 276.571  1.00  0.00    -0.387 OA
ATOM     29  H   UNL     1       2.686  54.653 275.948  1.00  0.00     0.211 HD
ENDBRANCH  23  28
BRANCH  24  30
ATOM     30  C   UNL     1       5.796  54.720 279.991  1.00  0.00     0.191 C 
BRANCH  30  31
ATOM     31  O   UNL     1       6.628  55.841 279.856  1.00  0.00    -0.394 OA
ATOM     32  H   UNL     1       7.360  55.569 279.243  1.00  0.00     0.210 HD
ENDBRANCH  30  31
ENDBRANCH  24  30
BRANCH  25  33
ATOM     33  O   UNL     1       5.533  56.080 277.457  1.00  0.00    -0.388 OA
ATOM     34  H   UNL     1       5.041  56.566 276.745  1.00  0.00     0.211 HD
ENDBRANCH  25  33
ENDBRANCH  11  20
BRANCH  10  35
ATOM     35  O   UNL     1       3.071  55.288 280.431  1.00  0.00    -0.507 OA
ATOM     36  H   UNL     1       2.563  55.363 279.557  1.00  0.00     0.293 HD
ENDBRANCH  10  35
TORSDOF 9
ENDMDL
MODEL 5
REMARK VINA RESULT:    -1.110      2.230      8.060
REMARK INTER + INTRA:           2.549
REMARK INTER:                  -0.023
REMARK INTRA:                   2.572
REMARK UNBOUND:                 4.048
REMARK SMILES O=c1c(-c2ccc(O)cc2)coc2c([C@@H]3O[C@H](CO)[C@H](O)[C@@H](O)[C@H]3O)c(O)ccc12
REMARK SMILES IDX 3 1 11 2 12 3 13 4 30 5 2 6 1 7 29 8 28 9 26 10 14 11 4 12
REMARK SMILES IDX 5 13 6 14 7 15 10 16 9 17 8 18 15 20 24 21 16 22 22 23 17 24
REMARK SMILES IDX 20 25 25 26 23 28 18 30 19 31 21 33 27 35
REMARK H PARENT 8 19 25 27 23 29 19 32 21 34 27 36
REMARK Flexibility Score: inf
ROOT
ATOM      1  C   UNL     1       3.595  51.475 280.876  1.00  0.00     0.065 A 
ATOM      2  C   UNL     1       3.315  51.586 282.244  1.00  0.00     0.208 A 
ATOM      3  O   UNL     1       3.296  50.513 283.025  1.00  0.00    -0.463 OA
ATOM      4  C   UNL     1       3.535  49.279 282.581  1.00  0.00     0.147 A 
ATOM      5  C   UNL     1       3.813  49.078 281.210  1.00  0.00     0.066 A 
ATOM      6  C   UNL     1       3.838  50.193 280.352  1.00  0.00     0.200 A 
ATOM      7  O   UNL     1       4.057  50.043 279.118  1.00  0.00    -0.288 OA
ATOM      8  C   UNL     1       4.048  47.782 280.736  1.00  0.00     0.020 A 
ATOM      9  C   UNL     1       4.000  46.701 281.607  1.00  0.00     0.047 A 
ATOM     10  C   UNL     1       3.727  46.879 282.969  1.00  0.00     0.125 A 
ATOM     11  C   UNL     1       3.507  48.187 283.490  1.00  0.00     0.069 A 
ENDROOT
BRANCH   1  12
ATOM     12  C   UNL     1       3.622  52.691 280.025  1.00  0.00    -0.011 A 
ATOM     13  C   UNL     1       2.953  52.715 278.789  1.00  0.00     0.013 A 
ATOM     14  C   UNL     1       2.988  53.860 277.987  1.00  0.00     0.047 A 
ATOM     15  C   UNL     1       3.694  54.991 278.406  1.00  0.00     0.115 A 
ATOM     16  C   UNL     1       4.335  53.830 280.438  1.00  0.00     0.013 A 
ATOM     17  C   UNL     1       4.368  54.974 279.634  1.00  0.00     0.047 A 
BRANCH  15  18
ATOM     18  O   UNL     1       3.720  56.125 277.597  1.00  0.00    -0.508 OA
ATOM     19  H   UNL     1       3.203  56.962 277.840  1.00  0.00     0.293 HD
ENDBRANCH  15  18
ENDBRANCH   1  12
BRANCH  11  20
ATOM     20  C   UNL     1       3.217  48.522 284.966  1.00  0.00     0.188 C 
ATOM     21  C   UNL     1       3.710  47.584 286.108  1.00  0.00     0.179 C 
ATOM     22  O   UNL     1       3.478  49.895 285.250  1.00  0.00    -0.362 OA
ATOM     23  C   UNL     1       5.175  47.869 286.499  1.00  0.00     0.177 C 
ATOM     24  C   UNL     1       4.840  50.194 285.533  1.00  0.00     0.176 C 
ATOM     25  C   UNL     1       5.389  49.371 286.723  1.00  0.00     0.177 C 
BRANCH  21  26
ATOM     26  O   UNL     1       2.875  47.699 287.238  1.00  0.00    -0.387 OA
ATOM     27  H   UNL     1       1.957  47.920 286.932  1.00  0.00     0.211 HD
ENDBRANCH  21  26
BRANCH  23  28
ATOM     28  O   UNL     1       5.507  47.170 287.671  1.00  0.00    -0.387 OA
ATOM     29  H   UNL     1       4.661  46.788 288.025  1.00  0.00     0.211 HD
ENDBRANCH  23  28
BRANCH  24  30
ATOM     30  C   UNL     1       5.724  50.170 284.267  1.00  0.00     0.191 C 
BRANCH  30  31
ATOM     31  O   UNL     1       7.011  50.637 284.566  1.00  0.00    -0.394 OA
ATOM     32  H   UNL     1       7.120  50.539 285.548  1.00  0.00     0.210 HD
ENDBRANCH  30  31
ENDBRANCH  24  30
BRANCH  25  33
ATOM     33  O   UNL     1       6.753  49.646 286.913  1.00  0.00    -0.388 OA
ATOM     34  H   UNL     1       7.179  49.637 286.017  1.00  0.00     0.211 HD
ENDBRANCH  25  33
ENDBRANCH  11  20
BRANCH  10  35
ATOM     35  O   UNL     1       3.680  45.747 283.776  1.00  0.00    -0.507 OA
ATOM     36  H   UNL     1       4.076  44.861 283.483  1.00  0.00     0.293 HD
ENDBRANCH  10  35
TORSDOF 9
ENDMDL
