MODEL 1
REMARK VINA RESULT:    -5.168      0.000      0.000
REMARK INTER + INTRA:          -6.373
REMARK INTER:                  -6.074
REMARK INTRA:                  -0.299
REMARK UNBOUND:                -0.299
REMARK SMILES O=c1c(O)c(-c2ccc(O)cc2)oc2cc(O)cc(O)c12
REMARK SMILES IDX 5 1 3 2 2 3 1 4 21 5 19 6 18 7 16 8 15 9 14 10 13 11 6 12
REMARK SMILES IDX 7 13 8 14 9 15 12 16 11 17 10 18 4 20 20 22 17 24
REMARK H PARENT 10 19 4 21 20 23 17 25
REMARK Flexibility Score: inf
ROOT
ATOM      1  C   UNL     1     130.622 158.766 150.028  1.00  0.00     0.180 A 
ATOM      2  C   UNL     1     131.845 158.443 150.643  1.00  0.00     0.208 A 
ATOM      3  C   UNL     1     131.959 158.565 152.037  1.00  0.00     0.238 A 
ATOM      4  O   UNL     1     133.071 158.327 152.576  1.00  0.00    -0.285 OA
ATOM      5  C   UNL     1     130.845 158.993 152.800  1.00  0.00     0.111 A 
ATOM      6  C   UNL     1     130.836 159.114 154.222  1.00  0.00     0.134 A 
ATOM      7  C   UNL     1     129.721 159.671 154.861  1.00  0.00     0.093 A 
ATOM      8  C   UNL     1     128.590 160.051 154.134  1.00  0.00     0.123 A 
ATOM      9  C   UNL     1     128.567 159.881 152.752  1.00  0.00     0.094 A 
ATOM     10  C   UNL     1     129.678 159.362 152.083  1.00  0.00     0.146 A 
ATOM     11  O   UNL     1     129.618 159.227 150.764  1.00  0.00    -0.452 OA
ENDROOT
BRANCH   1  12
ATOM     12  C   UNL     1     130.418 158.639 148.567  1.00  0.00     0.021 A 
ATOM     13  C   UNL     1     130.002 157.425 147.988  1.00  0.00     0.016 A 
ATOM     14  C   UNL     1     129.792 157.336 146.608  1.00  0.00     0.047 A 
ATOM     15  C   UNL     1     129.980 158.460 145.794  1.00  0.00     0.115 A 
ATOM     16  C   UNL     1     130.583 159.766 147.744  1.00  0.00     0.016 A 
ATOM     17  C   UNL     1     130.373 159.673 146.365  1.00  0.00     0.047 A 
BRANCH  15  18
ATOM     18  O   UNL     1     129.775 158.381 144.417  1.00  0.00    -0.508 OA
ATOM     19  H   UNL     1     130.309 158.947 143.769  1.00  0.00     0.293 HD
ENDBRANCH  15  18
ENDBRANCH   1  12
BRANCH   2  20
ATOM     20  O   UNL     1     132.938 158.044 149.869  1.00  0.00    -0.502 OA
ATOM     21  H   UNL     1     132.969 158.175 148.865  1.00  0.00     0.293 HD
ENDBRANCH   2  20
BRANCH   6  22
ATOM     22  O   UNL     1     131.877 158.680 155.050  1.00  0.00    -0.507 OA
ATOM     23  H   UNL     1     131.968 158.911 156.027  1.00  0.00     0.293 HD
ENDBRANCH   6  22
BRANCH   8  24
ATOM     24  O   UNL     1     127.479 160.590 154.779  1.00  0.00    -0.508 OA
ATOM     25  H   UNL     1     126.987 160.079 155.503  1.00  0.00     0.293 HD
ENDBRANCH   8  24
TORSDOF 5
ENDMDL
MODEL 2
REMARK VINA RESULT:    -5.001      7.225      8.240
REMARK INTER + INTRA:          -6.177
REMARK INTER:                  -5.925
REMARK INTRA:                  -0.252
REMARK UNBOUND:                -0.299
REMARK SMILES O=c1c(O)c(-c2ccc(O)cc2)oc2cc(O)cc(O)c12
REMARK SMILES IDX 5 1 3 2 2 3 1 4 21 5 19 6 18 7 16 8 15 9 14 10 13 11 6 12
REMARK SMILES IDX 7 13 8 14 9 15 12 16 11 17 10 18 4 20 20 22 17 24
REMARK H PARENT 10 19 4 21 20 23 17 25
REMARK Flexibility Score: inf
ROOT
ATOM      1  C   UNL     1     131.164 151.830 147.944  1.00  0.00     0.180 A 
ATOM      2  C   UNL     1     130.002 152.151 148.669  1.00  0.00     0.208 A 
ATOM      3  C   UNL     1     129.981 151.929 150.055  1.00  0.00     0.238 A 
ATOM      4  O   UNL     1     128.920 152.167 150.689  1.00  0.00    -0.285 OA
ATOM      5  C   UNL     1     131.126 151.405 150.702  1.00  0.00     0.111 A 
ATOM      6  C   UNL     1     131.230 151.178 152.107  1.00  0.00     0.134 A 
ATOM      7  C   UNL     1     132.363 150.534 152.622  1.00  0.00     0.093 A 
ATOM      8  C   UNL     1     133.423 150.169 151.789  1.00  0.00     0.123 A 
ATOM      9  C   UNL     1     133.356 150.440 150.424  1.00  0.00     0.094 A 
ATOM     10  C   UNL     1     132.224 151.049 149.877  1.00  0.00     0.146 A 
ATOM     11  O   UNL     1     132.198 151.280 148.570  1.00  0.00    -0.452 OA
ENDROOT
BRANCH   1  12
ATOM     12  C   UNL     1     131.271 152.059 146.486  1.00  0.00     0.021 A 
ATOM     13  C   UNL     1     131.102 151.008 145.564  1.00  0.00     0.016 A 
ATOM     14  C   UNL     1     131.184 151.253 144.190  1.00  0.00     0.047 A 
ATOM     15  C   UNL     1     131.421 152.551 143.719  1.00  0.00     0.115 A 
ATOM     16  C   UNL     1     131.487 153.360 146.003  1.00  0.00     0.016 A 
ATOM     17  C   UNL     1     131.570 153.602 144.628  1.00  0.00     0.047 A 
BRANCH  15  18
ATOM     18  O   UNL     1     131.506 152.806 142.352  1.00  0.00    -0.508 OA
ATOM     19  H   UNL     1     131.454 152.059 141.670  1.00  0.00     0.293 HD
ENDBRANCH  15  18
ENDBRANCH   1  12
BRANCH   2  20
ATOM     20  O   UNL     1     128.876 152.646 148.007  1.00  0.00    -0.502 OA
ATOM     21  H   UNL     1     128.940 153.180 147.148  1.00  0.00     0.293 HD
ENDBRANCH   2  20
BRANCH   6  22
ATOM     22  O   UNL     1     130.269 151.587 153.037  1.00  0.00    -0.507 OA
ATOM     23  H   UNL     1     129.603 150.974 153.483  1.00  0.00     0.293 HD
ENDBRANCH   6  22
BRANCH   8  24
ATOM     24  O   UNL     1     134.553 149.543 152.310  1.00  0.00    -0.508 OA
ATOM     25  H   UNL     1     134.495 148.640 152.766  1.00  0.00     0.293 HD
ENDBRANCH   8  24
TORSDOF 5
ENDMDL
MODEL 3
REMARK VINA RESULT:    -4.989      1.988      6.579
REMARK INTER + INTRA:          -6.163
REMARK INTER:                  -5.872
REMARK INTRA:                  -0.291
REMARK UNBOUND:                -0.299
REMARK SMILES O=c1c(O)c(-c2ccc(O)cc2)oc2cc(O)cc(O)c12
REMARK SMILES IDX 5 1 3 2 2 3 1 4 21 5 19 6 18 7 16 8 15 9 14 10 13 11 6 12
REMARK SMILES IDX 7 13 8 14 9 15 12 16 11 17 10 18 4 20 20 22 17 24
REMARK H PARENT 10 19 4 21 20 23 17 25
REMARK Flexibility Score: inf
ROOT
ATOM      1  C   UNL     1     129.334 159.612 153.347  1.00  0.00     0.180 A 
ATOM      2  C   UNL     1     130.652 159.605 153.837  1.00  0.00     0.208 A 
ATOM      3  C   UNL     1     131.683 159.126 153.014  1.00  0.00     0.238 A 
ATOM      4  O   UNL     1     132.852 159.072 153.478  1.00  0.00    -0.285 OA
ATOM      5  C   UNL     1     131.386 158.673 151.706  1.00  0.00     0.111 A 
ATOM      6  C   UNL     1     132.358 158.204 150.771  1.00  0.00     0.134 A 
ATOM      7  C   UNL     1     131.937 157.659 149.552  1.00  0.00     0.093 A 
ATOM      8  C   UNL     1     130.583 157.627 149.207  1.00  0.00     0.123 A 
ATOM      9  C   UNL     1     129.633 158.137 150.088  1.00  0.00     0.094 A 
ATOM     10  C   UNL     1     130.019 158.654 151.326  1.00  0.00     0.146 A 
ATOM     11  O   UNL     1     129.079 159.121 152.140  1.00  0.00    -0.452 OA
ENDROOT
BRANCH   1  12
ATOM     12  C   UNL     1     128.198 160.125 154.146  1.00  0.00     0.021 A 
ATOM     13  C   UNL     1     127.766 161.460 154.032  1.00  0.00     0.016 A 
ATOM     14  C   UNL     1     126.675 161.916 154.780  1.00  0.00     0.047 A 
ATOM     15  C   UNL     1     125.995 161.042 155.637  1.00  0.00     0.115 A 
ATOM     16  C   UNL     1     127.496 159.251 154.992  1.00  0.00     0.016 A 
ATOM     17  C   UNL     1     126.406 159.710 155.739  1.00  0.00     0.047 A 
BRANCH  15  18
ATOM     18  O   UNL     1     124.908 161.486 156.387  1.00  0.00    -0.508 OA
ATOM     19  H   UNL     1     124.912 162.392 156.839  1.00  0.00     0.293 HD
ENDBRANCH  15  18
ENDBRANCH   1  12
BRANCH   2  20
ATOM     20  O   UNL     1     130.919 160.036 155.140  1.00  0.00    -0.502 OA
ATOM     21  H   UNL     1     131.861 160.188 155.481  1.00  0.00     0.293 HD
ENDBRANCH   2  20
BRANCH   6  22
ATOM     22  O   UNL     1     133.739 158.276 150.979  1.00  0.00    -0.507 OA
ATOM     23  H   UNL     1     134.346 158.971 150.572  1.00  0.00     0.293 HD
ENDBRANCH   6  22
BRANCH   8  24
ATOM     24  O   UNL     1     130.174 157.097 147.985  1.00  0.00    -0.508 OA
ATOM     25  H   UNL     1     130.643 157.338 147.120  1.00  0.00     0.293 HD
ENDBRANCH   8  24
TORSDOF 5
ENDMDL
MODEL 4
REMARK VINA RESULT:    -4.896      3.274      5.384
REMARK INTER + INTRA:          -6.053
REMARK INTER:                  -5.787
REMARK INTRA:                  -0.266
REMARK UNBOUND:                -0.299
REMARK SMILES O=c1c(O)c(-c2ccc(O)cc2)oc2cc(O)cc(O)c12
REMARK SMILES IDX 5 1 3 2 2 3 1 4 21 5 19 6 18 7 16 8 15 9 14 10 13 11 6 12
REMARK SMILES IDX 7 13 8 14 9 15 12 16 11 17 10 18 4 20 20 22 17 24
REMARK H PARENT 10 19 4 21 20 23 17 25
REMARK Flexibility Score: inf
ROOT
ATOM      1  C   UNL     1     129.680 159.504 153.672  1.00  0.00     0.180 A 
ATOM      2  C   UNL     1     129.042 160.744 153.488  1.00  0.00     0.208 A 
ATOM      3  C   UNL     1     127.865 161.017 154.202  1.00  0.00     0.238 A 
ATOM      4  O   UNL     1     127.269 162.105 153.992  1.00  0.00    -0.285 OA
ATOM      5  C   UNL     1     127.349 160.054 155.103  1.00  0.00     0.111 A 
ATOM      6  C   UNL     1     126.185 160.241 155.908  1.00  0.00     0.134 A 
ATOM      7  C   UNL     1     125.691 159.172 156.667  1.00  0.00     0.093 A 
ATOM      8  C   UNL     1     126.357 157.944 156.700  1.00  0.00     0.123 A 
ATOM      9  C   UNL     1     127.527 157.772 155.963  1.00  0.00     0.094 A 
ATOM     10  C   UNL     1     128.024 158.808 155.169  1.00  0.00     0.146 A 
ATOM     11  O   UNL     1     129.136 158.598 154.475  1.00  0.00    -0.452 OA
ENDROOT
BRANCH   1  12
ATOM     12  C   UNL     1     130.938 159.154 152.974  1.00  0.00     0.021 A 
ATOM     13  C   UNL     1     132.185 159.247 153.620  1.00  0.00     0.016 A 
ATOM     14  C   UNL     1     133.358 158.888 152.947  1.00  0.00     0.047 A 
ATOM     15  C   UNL     1     133.297 158.417 151.630  1.00  0.00     0.115 A 
ATOM     16  C   UNL     1     130.886 158.661 151.660  1.00  0.00     0.016 A 
ATOM     17  C   UNL     1     132.060 158.303 150.990  1.00  0.00     0.047 A 
BRANCH  15  18
ATOM     18  O   UNL     1     134.460 158.057 150.950  1.00  0.00    -0.508 OA
ATOM     19  H   UNL     1     135.231 157.604 151.425  1.00  0.00     0.293 HD
ENDBRANCH  15  18
ENDBRANCH   1  12
BRANCH   2  20
ATOM     20  O   UNL     1     129.557 161.670 152.577  1.00  0.00    -0.502 OA
ATOM     21  H   UNL     1     130.211 162.395 152.848  1.00  0.00     0.293 HD
ENDBRANCH   2  20
BRANCH   6  22
ATOM     22  O   UNL     1     125.498 161.454 156.019  1.00  0.00    -0.507 OA
ATOM     23  H   UNL     1     125.938 162.358 156.099  1.00  0.00     0.293 HD
ENDBRANCH   6  22
BRANCH   8  24
ATOM     24  O   UNL     1     125.868 156.891 157.469  1.00  0.00    -0.508 OA
ATOM     25  H   UNL     1     126.113 155.928 157.266  1.00  0.00     0.293 HD
ENDBRANCH   8  24
TORSDOF 5
ENDMDL
MODEL 5
REMARK VINA RESULT:    -4.795      4.678      8.758
REMARK INTER + INTRA:          -5.935
REMARK INTER:                  -5.692
REMARK INTRA:                  -0.242
REMARK UNBOUND:                -0.299
REMARK SMILES O=c1c(O)c(-c2ccc(O)cc2)oc2cc(O)cc(O)c12
REMARK SMILES IDX 5 1 3 2 2 3 1 4 21 5 19 6 18 7 16 8 15 9 14 10 13 11 6 12
REMARK SMILES IDX 7 13 8 14 9 15 12 16 11 17 10 18 4 20 20 22 17 24
REMARK H PARENT 10 19 4 21 20 23 17 25
REMARK Flexibility Score: inf
ROOT
ATOM      1  C   UNL     1     130.485 162.193 146.395  1.00  0.00     0.180 A 
ATOM      2  C   UNL     1     129.499 162.482 145.436  1.00  0.00     0.208 A 
ATOM      3  C   UNL     1     129.795 163.388 144.405  1.00  0.00     0.238 A 
ATOM      4  O   UNL     1     128.891 163.684 143.581  1.00  0.00    -0.285 OA
ATOM      5  C   UNL     1     131.079 163.983 144.338  1.00  0.00     0.111 A 
ATOM      6  C   UNL     1     131.501 164.884 143.315  1.00  0.00     0.134 A 
ATOM      7  C   UNL     1     132.748 165.513 143.420  1.00  0.00     0.093 A 
ATOM      8  C   UNL     1     133.614 165.222 144.477  1.00  0.00     0.123 A 
ATOM      9  C   UNL     1     133.235 164.298 145.448  1.00  0.00     0.094 A 
ATOM     10  C   UNL     1     131.982 163.682 145.390  1.00  0.00     0.146 A 
ATOM     11  O   UNL     1     131.656 162.816 146.342  1.00  0.00    -0.452 OA
ENDROOT
BRANCH   1  12
ATOM     12  C   UNL     1     130.256 161.230 147.496  1.00  0.00     0.021 A 
ATOM     13  C   UNL     1     129.487 161.573 148.623  1.00  0.00     0.016 A 
ATOM     14  C   UNL     1     129.264 160.637 149.639  1.00  0.00     0.047 A 
ATOM     15  C   UNL     1     129.794 159.345 149.534  1.00  0.00     0.115 A 
ATOM     16  C   UNL     1     130.766 159.924 147.390  1.00  0.00     0.016 A 
ATOM     17  C   UNL     1     130.542 158.992 148.407  1.00  0.00     0.047 A 
BRANCH  15  18
ATOM     18  O   UNL     1     129.579 158.406 150.540  1.00  0.00    -0.508 OA
ATOM     19  H   UNL     1     130.288 158.202 151.234  1.00  0.00     0.293 HD
ENDBRANCH  15  18
ENDBRANCH   1  12
BRANCH   2  20
ATOM     20  O   UNL     1     128.232 161.901 145.534  1.00  0.00    -0.502 OA
ATOM     21  H   UNL     1     128.040 160.957 145.220  1.00  0.00     0.293 HD
ENDBRANCH   2  20
BRANCH   6  22
ATOM     22  O   UNL     1     130.751 165.173 142.171  1.00  0.00    -0.507 OA
ATOM     23  H   UNL     1     130.274 166.046 142.001  1.00  0.00     0.293 HD
ENDBRANCH   6  22
BRANCH   8  24
ATOM     24  O   UNL     1     134.860 165.839 144.566  1.00  0.00    -0.508 OA
ATOM     25  H   UNL     1     135.308 166.247 143.754  1.00  0.00     0.293 HD
ENDBRANCH   8  24
TORSDOF 5
ENDMDL
MODEL 6
REMARK VINA RESULT:    -4.660      5.498      8.099
REMARK INTER + INTRA:          -5.776
REMARK INTER:                  -5.506
REMARK INTRA:                  -0.271
REMARK UNBOUND:                -0.299
REMARK SMILES O=c1c(O)c(-c2ccc(O)cc2)oc2cc(O)cc(O)c12
REMARK SMILES IDX 5 1 3 2 2 3 1 4 21 5 19 6 18 7 16 8 15 9 14 10 13 11 6 12
REMARK SMILES IDX 7 13 8 14 9 15 12 16 11 17 10 18 4 20 20 22 17 24
REMARK H PARENT 10 19 4 21 20 23 17 25
REMARK Flexibility Score: inf
ROOT
ATOM      1  C   UNL     1     129.909 155.489 146.402  1.00  0.00     0.180 A 
ATOM      2  C   UNL     1     129.982 154.873 147.664  1.00  0.00     0.208 A 
ATOM      3  C   UNL     1     130.578 153.607 147.771  1.00  0.00     0.238 A 
ATOM      4  O   UNL     1     130.591 153.038 148.893  1.00  0.00    -0.285 OA
ATOM      5  C   UNL     1     131.109 152.979 146.618  1.00  0.00     0.111 A 
ATOM      6  C   UNL     1     131.771 151.714 146.616  1.00  0.00     0.134 A 
ATOM      7  C   UNL     1     132.140 151.129 145.399  1.00  0.00     0.093 A 
ATOM      8  C   UNL     1     131.929 151.793 144.188  1.00  0.00     0.123 A 
ATOM      9  C   UNL     1     131.338 153.054 144.184  1.00  0.00     0.094 A 
ATOM     10  C   UNL     1     130.926 153.648 145.380  1.00  0.00     0.146 A 
ATOM     11  O   UNL     1     130.357 154.846 145.330  1.00  0.00    -0.452 OA
ENDROOT
BRANCH   1  12
ATOM     12  C   UNL     1     129.318 156.833 146.213  1.00  0.00     0.021 A 
ATOM     13  C   UNL     1     130.125 157.983 146.118  1.00  0.00     0.016 A 
ATOM     14  C   UNL     1     129.545 159.239 145.916  1.00  0.00     0.047 A 
ATOM     15  C   UNL     1     128.155 159.361 145.793  1.00  0.00     0.115 A 
ATOM     16  C   UNL     1     127.927 156.963 146.067  1.00  0.00     0.016 A 
ATOM     17  C   UNL     1     127.350 158.221 145.866  1.00  0.00     0.047 A 
BRANCH  15  18
ATOM     18  O   UNL     1     127.567 160.608 145.593  1.00  0.00    -0.508 OA
ATOM     19  H   UNL     1     127.504 161.289 146.339  1.00  0.00     0.293 HD
ENDBRANCH  15  18
ENDBRANCH   1  12
BRANCH   2  20
ATOM     20  O   UNL     1     129.432 155.501 148.785  1.00  0.00    -0.502 OA
ATOM     21  H   UNL     1     129.613 156.473 149.007  1.00  0.00     0.293 HD
ENDBRANCH   2  20
BRANCH   6  22
ATOM     22  O   UNL     1     132.111 151.010 147.776  1.00  0.00    -0.507 OA
ATOM     23  H   UNL     1     132.987 150.530 147.921  1.00  0.00     0.293 HD
ENDBRANCH   6  22
BRANCH   8  24
ATOM     24  O   UNL     1     132.313 151.211 142.982  1.00  0.00    -0.508 OA
ATOM     25  H   UNL     1     132.591 151.775 142.186  1.00  0.00     0.293 HD
ENDBRANCH   8  24
TORSDOF 5
ENDMDL
MODEL 7
REMARK VINA RESULT:    -4.609      7.518     10.732
REMARK INTER + INTRA:          -5.716
REMARK INTER:                  -5.500
REMARK INTRA:                  -0.217
REMARK UNBOUND:                -0.299
REMARK SMILES O=c1c(O)c(-c2ccc(O)cc2)oc2cc(O)cc(O)c12
REMARK SMILES IDX 5 1 3 2 2 3 1 4 21 5 19 6 18 7 16 8 15 9 14 10 13 11 6 12
REMARK SMILES IDX 7 13 8 14 9 15 12 16 11 17 10 18 4 20 20 22 17 24
REMARK H PARENT 10 19 4 21 20 23 17 25
REMARK Flexibility Score: inf
ROOT
ATOM      1  C   UNL     1     132.158 150.542 149.209  1.00  0.00     0.180 A 
ATOM      2  C   UNL     1     132.046 149.359 148.456  1.00  0.00     0.208 A 
ATOM      3  C   UNL     1     131.830 149.450 147.072  1.00  0.00     0.238 A 
ATOM      4  O   UNL     1     131.676 148.389 146.413  1.00  0.00    -0.285 OA
ATOM      5  C   UNL     1     131.744 150.721 146.455  1.00  0.00     0.111 A 
ATOM      6  C   UNL     1     131.566 150.932 145.054  1.00  0.00     0.134 A 
ATOM      7  C   UNL     1     131.365 152.230 144.571  1.00  0.00     0.093 A 
ATOM      8  C   UNL     1     131.399 153.332 145.429  1.00  0.00     0.123 A 
ATOM      9  C   UNL     1     131.631 153.141 146.790  1.00  0.00     0.094 A 
ATOM     10  C   UNL     1     131.800 151.855 147.307  1.00  0.00     0.146 A 
ATOM     11  O   UNL     1     132.008 151.718 148.611  1.00  0.00    -0.452 OA
ENDROOT
BRANCH   1  12
ATOM     12  C   UNL     1     132.412 150.527 150.667  1.00  0.00     0.021 A 
ATOM     13  C   UNL     1     133.660 150.140 151.191  1.00  0.00     0.016 A 
ATOM     14  C   UNL     1     133.883 150.157 152.571  1.00  0.00     0.047 A 
ATOM     15  C   UNL     1     132.869 150.574 153.443  1.00  0.00     0.115 A 
ATOM     16  C   UNL     1     131.408 150.963 151.548  1.00  0.00     0.016 A 
ATOM     17  C   UNL     1     131.635 150.978 152.928  1.00  0.00     0.047 A 
BRANCH  15  18
ATOM     18  O   UNL     1     133.081 150.594 154.820  1.00  0.00    -0.508 OA
ATOM     19  H   UNL     1     132.402 150.996 155.454  1.00  0.00     0.293 HD
ENDBRANCH  15  18
ENDBRANCH   1  12
BRANCH   2  20
ATOM     20  O   UNL     1     132.111 148.115 149.089  1.00  0.00    -0.502 OA
ATOM     21  H   UNL     1     132.990 147.660 149.307  1.00  0.00     0.293 HD
ENDBRANCH   2  20
BRANCH   6  22
ATOM     22  O   UNL     1     131.608 149.910 144.100  1.00  0.00    -0.507 OA
ATOM     23  H   UNL     1     131.855 150.039 143.130  1.00  0.00     0.293 HD
ENDBRANCH   6  22
BRANCH   8  24
ATOM     24  O   UNL     1     131.213 154.622 144.938  1.00  0.00    -0.508 OA
ATOM     25  H   UNL     1     130.378 154.877 144.424  1.00  0.00     0.293 HD
ENDBRANCH   8  24
TORSDOF 5
ENDMDL
MODEL 8
REMARK VINA RESULT:    -4.591      4.665      8.903
REMARK INTER + INTRA:          -5.695
REMARK INTER:                  -5.414
REMARK INTRA:                  -0.281
REMARK UNBOUND:                -0.299
REMARK SMILES O=c1c(O)c(-c2ccc(O)cc2)oc2cc(O)cc(O)c12
REMARK SMILES IDX 5 1 3 2 2 3 1 4 21 5 19 6 18 7 16 8 15 9 14 10 13 11 6 12
REMARK SMILES IDX 7 13 8 14 9 15 12 16 11 17 10 18 4 20 20 22 17 24
REMARK H PARENT 10 19 4 21 20 23 17 25
REMARK Flexibility Score: inf
ROOT
ATOM      1  C   UNL     1     130.266 162.312 146.076  1.00  0.00     0.180 A 
ATOM      2  C   UNL     1     131.363 163.173 145.895  1.00  0.00     0.208 A 
ATOM      3  C   UNL     1     131.406 163.991 144.755  1.00  0.00     0.238 A 
ATOM      4  O   UNL     1     132.416 164.720 144.571  1.00  0.00    -0.285 OA
ATOM      5  C   UNL     1     130.344 163.950 143.818  1.00  0.00     0.111 A 
ATOM      6  C   UNL     1     130.264 164.764 142.648  1.00  0.00     0.134 A 
ATOM      7  C   UNL     1     129.234 164.548 141.725  1.00  0.00     0.093 A 
ATOM      8  C   UNL     1     128.245 163.590 141.962  1.00  0.00     0.123 A 
ATOM      9  C   UNL     1     128.281 162.832 143.130  1.00  0.00     0.094 A 
ATOM     10  C   UNL     1     129.316 163.000 144.052  1.00  0.00     0.146 A 
ATOM     11  O   UNL     1     129.319 162.249 145.147  1.00  0.00    -0.452 OA
ENDROOT
BRANCH   1  12
ATOM     12  C   UNL     1     130.138 161.438 147.264  1.00  0.00     0.021 A 
ATOM     13  C   UNL     1     129.375 161.827 148.381  1.00  0.00     0.016 A 
ATOM     14  C   UNL     1     129.249 160.974 149.482  1.00  0.00     0.047 A 
ATOM     15  C   UNL     1     129.870 159.719 149.475  1.00  0.00     0.115 A 
ATOM     16  C   UNL     1     130.739 160.168 147.257  1.00  0.00     0.016 A 
ATOM     17  C   UNL     1     130.611 159.318 148.361  1.00  0.00     0.047 A 
BRANCH  15  18
ATOM     18  O   UNL     1     129.751 158.862 150.568  1.00  0.00    -0.508 OA
ATOM     19  H   UNL     1     130.431 158.865 151.318  1.00  0.00     0.293 HD
ENDBRANCH  15  18
ENDBRANCH   1  12
BRANCH   2  20
ATOM     20  O   UNL     1     132.410 163.181 146.820  1.00  0.00    -0.502 OA
ATOM     21  H   UNL     1     133.159 162.500 146.799  1.00  0.00     0.293 HD
ENDBRANCH   2  20
BRANCH   6  22
ATOM     22  O   UNL     1     131.148 165.810 142.363  1.00  0.00    -0.507 OA
ATOM     23  H   UNL     1     131.033 166.762 142.676  1.00  0.00     0.293 HD
ENDBRANCH   6  22
BRANCH   8  24
ATOM     24  O   UNL     1     127.214 163.391 141.046  1.00  0.00    -0.508 OA
ATOM     25  H   UNL     1     127.059 164.031 140.275  1.00  0.00     0.293 HD
ENDBRANCH   8  24
TORSDOF 5
ENDMDL
MODEL 9
REMARK VINA RESULT:    -4.554      1.596      3.103
REMARK INTER + INTRA:          -5.651
REMARK INTER:                  -5.568
REMARK INTRA:                  -0.083
REMARK UNBOUND:                -0.299
REMARK SMILES O=c1c(O)c(-c2ccc(O)cc2)oc2cc(O)cc(O)c12
REMARK SMILES IDX 5 1 3 2 2 3 1 4 21 5 19 6 18 7 16 8 15 9 14 10 13 11 6 12
REMARK SMILES IDX 7 13 8 14 9 15 12 16 11 17 10 18 4 20 20 22 17 24
REMARK H PARENT 10 19 4 21 20 23 17 25
REMARK Flexibility Score: inf
ROOT
ATOM      1  C   UNL     1     129.694 158.384 150.779  1.00  0.00     0.180 A 
ATOM      2  C   UNL     1     128.499 157.967 151.393  1.00  0.00     0.208 A 
ATOM      3  C   UNL     1     128.414 157.975 152.794  1.00  0.00     0.238 A 
ATOM      4  O   UNL     1     127.362 157.550 153.339  1.00  0.00    -0.285 OA
ATOM      5  C   UNL     1     129.519 158.415 153.564  1.00  0.00     0.111 A 
ATOM      6  C   UNL     1     129.530 158.502 154.988  1.00  0.00     0.134 A 
ATOM      7  C   UNL     1     130.720 158.826 155.652  1.00  0.00     0.093 A 
ATOM      8  C   UNL     1     131.882 159.129 154.938  1.00  0.00     0.123 A 
ATOM      9  C   UNL     1     131.865 159.104 153.546  1.00  0.00     0.094 A 
ATOM     10  C   UNL     1     130.703 158.750 152.857  1.00  0.00     0.146 A 
ATOM     11  O   UNL     1     130.733 158.729 151.530  1.00  0.00    -0.452 OA
ENDROOT
BRANCH   1  12
ATOM     12  C   UNL     1     129.850 158.428 149.307  1.00  0.00     0.021 A 
ATOM     13  C   UNL     1     130.137 159.631 148.635  1.00  0.00     0.016 A 
ATOM     14  C   UNL     1     130.304 159.643 147.247  1.00  0.00     0.047 A 
ATOM     15  C   UNL     1     130.201 158.452 146.516  1.00  0.00     0.115 A 
ATOM     16  C   UNL     1     129.770 157.236 148.567  1.00  0.00     0.016 A 
ATOM     17  C   UNL     1     129.937 157.251 147.179  1.00  0.00     0.047 A 
BRANCH  15  18
ATOM     18  O   UNL     1     130.365 158.453 145.132  1.00  0.00    -0.508 OA
ATOM     19  H   UNL     1     131.039 159.058 144.679  1.00  0.00     0.293 HD
ENDBRANCH  15  18
ENDBRANCH   1  12
BRANCH   2  20
ATOM     20  O   UNL     1     127.429 157.516 150.614  1.00  0.00    -0.502 OA
ATOM     21  H   UNL     1     127.555 156.894 149.825  1.00  0.00     0.293 HD
ENDBRANCH   2  20
BRANCH   6  22
ATOM     22  O   UNL     1     128.401 158.309 155.791  1.00  0.00    -0.507 OA
ATOM     23  H   UNL     1     127.642 157.680 155.575  1.00  0.00     0.293 HD
ENDBRANCH   6  22
BRANCH   8  24
ATOM     24  O   UNL     1     133.058 159.465 155.605  1.00  0.00    -0.508 OA
ATOM     25  H   UNL     1     133.090 159.547 156.614  1.00  0.00     0.293 HD
ENDBRANCH   8  24
TORSDOF 5
ENDMDL
