MODEL 1
REMARK VINA RESULT:    -4.180      0.000      0.000
REMARK INTER + INTRA:          -6.100
REMARK INTER:                  -5.646
REMARK INTRA:                  -0.454
REMARK UNBOUND:                -0.454
REMARK SMILES C[C@H](O)[C@H](O)[C@@H](O)[C@@H](O)C=O
REMARK SMILES IDX 4 1 2 2 1 3 3 4 6 6 8 7 10 8 11 9 9 10 7 12 5 14
REMARK H PARENT 3 5 9 11 7 13 5 15
REMARK Flexibility Score: inf
ROOT
ATOM      1  C   UNL     1      31.691  17.929   1.569  1.00  0.00     0.174 C 
ENDROOT
BRANCH   1   2
ATOM      2  C   UNL     1      32.390  17.173   0.400  1.00  0.00     0.142 C 
ATOM      3  C   UNL     1      33.903  16.996   0.573  1.00  0.00     0.041 C 
BRANCH   2   4
ATOM      4  O   UNL     1      32.152  17.847  -0.809  1.00  0.00    -0.391 OA
ATOM      5  H   UNL     1      31.209  17.663  -1.061  1.00  0.00     0.211 HD
ENDBRANCH   2   4
ENDBRANCH   1   2
BRANCH   1   6
ATOM      6  C   UNL     1      30.664  17.066   2.361  1.00  0.00     0.181 C 
BRANCH   6   7
ATOM      7  C   UNL     1      30.729  15.557   1.992  1.00  0.00     0.209 C 
BRANCH   7   8
ATOM      8  C   UNL     1      29.479  15.031   1.325  1.00  0.00     0.258 C 
ATOM      9  O   UNL     1      29.095  15.484   0.259  1.00  0.00    -0.300 OA
ENDBRANCH   7   8
BRANCH   7  10
ATOM     10  O   UNL     1      31.063  14.775   3.111  1.00  0.00    -0.383 OA
ATOM     11  H   UNL     1      30.444  13.999   3.137  1.00  0.00     0.211 HD
ENDBRANCH   7  10
ENDBRANCH   6   7
BRANCH   6  12
ATOM     12  O   UNL     1      29.354  17.576   2.271  1.00  0.00    -0.387 OA
ATOM     13  H   UNL     1      29.149  17.745   1.318  1.00  0.00     0.211 HD
ENDBRANCH   6  12
ENDBRANCH   1   6
BRANCH   1  14
ATOM     14  O   UNL     1      32.619  18.565   2.416  1.00  0.00    -0.388 OA
ATOM     15  H   UNL     1      32.590  18.121   3.301  1.00  0.00     0.211 HD
ENDBRANCH   1  14
TORSDOF 8
ENDMDL
MODEL 2
REMARK VINA RESULT:    -4.062      1.431      3.726
REMARK INTER + INTRA:          -5.941
REMARK INTER:                  -5.349
REMARK INTRA:                  -0.592
REMARK UNBOUND:                -0.454
REMARK SMILES C[C@H](O)[C@H](O)[C@@H](O)[C@@H](O)C=O
REMARK SMILES IDX 4 1 2 2 1 3 3 4 6 6 8 7 10 8 11 9 9 10 7 12 5 14
REMARK H PARENT 3 5 9 11 7 13 5 15
REMARK Flexibility Score: inf
ROOT
ATOM      1  C   UNL     1      30.668  16.715   1.910  1.00  0.00     0.174 C 
ENDROOT
BRANCH   1   2
ATOM      2  C   UNL     1      29.805  15.491   1.482  1.00  0.00     0.142 C 
ATOM      3  C   UNL     1      30.422  14.129   1.823  1.00  0.00     0.041 C 
BRANCH   2   4
ATOM      4  O   UNL     1      29.563  15.542   0.100  1.00  0.00    -0.391 OA
ATOM      5  H   UNL     1      28.578  15.539  -0.021  1.00  0.00     0.211 HD
ENDBRANCH   2   4
ENDBRANCH   1   2
BRANCH   1   6
ATOM      6  C   UNL     1      31.977  16.891   1.082  1.00  0.00     0.181 C 
BRANCH   6   7
ATOM      7  C   UNL     1      33.145  17.490   1.917  1.00  0.00     0.209 C 
BRANCH   7   8
ATOM      8  C   UNL     1      33.640  16.586   3.021  1.00  0.00     0.258 C 
ATOM      9  O   UNL     1      33.972  15.434   2.793  1.00  0.00    -0.300 OA
ENDBRANCH   7   8
BRANCH   7  10
ATOM     10  O   UNL     1      32.808  18.757   2.424  1.00  0.00    -0.383 OA
ATOM     11  H   UNL     1      33.266  18.869   3.297  1.00  0.00     0.211 HD
ENDBRANCH   7  10
ENDBRANCH   6   7
BRANCH   6  12
ATOM     12  O   UNL     1      31.762  17.603  -0.114  1.00  0.00    -0.387 OA
ATOM     13  H   UNL     1      31.245  17.028  -0.732  1.00  0.00     0.211 HD
ENDBRANCH   6  12
ENDBRANCH   1   6
BRANCH   1  14
ATOM     14  O   UNL     1      29.912  17.901   1.969  1.00  0.00    -0.388 OA
ATOM     15  H   UNL     1      30.533  18.662   2.098  1.00  0.00     0.211 HD
ENDBRANCH   1  14
TORSDOF 8
ENDMDL
MODEL 3
REMARK VINA RESULT:    -3.981      1.325      2.265
REMARK INTER + INTRA:          -5.832
REMARK INTER:                  -5.284
REMARK INTRA:                  -0.548
REMARK UNBOUND:                -0.454
REMARK SMILES C[C@H](O)[C@H](O)[C@@H](O)[C@@H](O)C=O
REMARK SMILES IDX 4 1 2 2 1 3 3 4 6 6 8 7 10 8 11 9 9 10 7 12 5 14
REMARK H PARENT 3 5 9 11 7 13 5 15
REMARK Flexibility Score: inf
ROOT
ATOM      1  C   UNL     1      31.936  16.697   1.114  1.00  0.00     0.174 C 
ENDROOT
BRANCH   1   2
ATOM      2  C   UNL     1      33.130  17.358   1.865  1.00  0.00     0.142 C 
ATOM      3  C   UNL     1      33.640  16.562   3.072  1.00  0.00     0.041 C 
BRANCH   2   4
ATOM      4  O   UNL     1      32.764  18.643   2.296  1.00  0.00    -0.391 OA
ATOM      5  H   UNL     1      33.161  19.287   1.654  1.00  0.00     0.211 HD
ENDBRANCH   2   4
ENDBRANCH   1   2
BRANCH   1   6
ATOM      6  C   UNL     1      30.626  16.609   1.954  1.00  0.00     0.181 C 
BRANCH   6   7
ATOM      7  C   UNL     1      29.699  15.441   1.510  1.00  0.00     0.209 C 
BRANCH   7   8
ATOM      8  C   UNL     1      30.223  14.070   1.866  1.00  0.00     0.258 C 
ATOM      9  O   UNL     1      29.491  13.217   2.341  1.00  0.00    -0.300 OA
ENDBRANCH   7   8
BRANCH   7  10
ATOM     10  O   UNL     1      29.403  15.522   0.139  1.00  0.00    -0.383 OA
ATOM     11  H   UNL     1      30.233  15.785  -0.338  1.00  0.00     0.211 HD
ENDBRANCH   7  10
ENDBRANCH   6   7
BRANCH   6  12
ATOM     12  O   UNL     1      29.940  17.838   2.005  1.00  0.00    -0.387 OA
ATOM     13  H   UNL     1      29.788  18.073   2.955  1.00  0.00     0.211 HD
ENDBRANCH   6  12
ENDBRANCH   1   6
BRANCH   1  14
ATOM     14  O   UNL     1      31.720  17.277  -0.151  1.00  0.00    -0.388 OA
ATOM     15  H   UNL     1      31.902  16.593  -0.844  1.00  0.00     0.211 HD
ENDBRANCH   1  14
TORSDOF 8
ENDMDL
MODEL 4
REMARK VINA RESULT:    -3.937     16.678     17.929
REMARK INTER + INTRA:          -5.773
REMARK INTER:                  -5.241
REMARK INTRA:                  -0.531
REMARK UNBOUND:                -0.454
REMARK SMILES C[C@H](O)[C@H](O)[C@@H](O)[C@@H](O)C=O
REMARK SMILES IDX 4 1 2 2 1 3 3 4 6 6 8 7 10 8 11 9 9 10 7 12 5 14
REMARK H PARENT 3 5 9 11 7 13 5 15
REMARK Flexibility Score: inf
ROOT
ATOM      1  C   UNL     1      29.834  14.238 -16.336  1.00  0.00     0.174 C 
ENDROOT
BRANCH   1   2
ATOM      2  C   UNL     1      30.474  12.857 -16.002  1.00  0.00     0.142 C 
ATOM      3  C   UNL     1      29.543  11.658 -16.217  1.00  0.00     0.041 C 
BRANCH   2   4
ATOM      4  O   UNL     1      30.916  12.850 -14.670  1.00  0.00    -0.391 OA
ATOM      5  H   UNL     1      30.106  12.802 -14.097  1.00  0.00     0.211 HD
ENDBRANCH   2   4
ENDBRANCH   1   2
BRANCH   1   6
ATOM      6  C   UNL     1      28.652  14.634 -15.401  1.00  0.00     0.181 C 
BRANCH   6   7
ATOM      7  C   UNL     1      27.648  15.612 -16.076  1.00  0.00     0.209 C 
BRANCH   7   8
ATOM      8  C   UNL     1      26.622  14.933 -16.954  1.00  0.00     0.258 C 
ATOM      9  O   UNL     1      25.427  15.066 -16.746  1.00  0.00    -0.300 OA
ENDBRANCH   7   8
BRANCH   7  10
ATOM     10  O   UNL     1      28.322  16.620 -16.787  1.00  0.00    -0.383 OA
ATOM     11  H   UNL     1      27.766  17.441 -16.752  1.00  0.00     0.211 HD
ENDBRANCH   7  10
ENDBRANCH   6   7
BRANCH   6  12
ATOM     12  O   UNL     1      29.094  15.110 -14.151  1.00  0.00    -0.387 OA
ATOM     13  H   UNL     1      28.343  15.585 -13.715  1.00  0.00     0.211 HD
ENDBRANCH   6  12
ENDBRANCH   1   6
BRANCH   1  14
ATOM     14  O   UNL     1      30.800  15.258 -16.435  1.00  0.00    -0.388 OA
ATOM     15  H   UNL     1      31.378  15.220 -15.631  1.00  0.00     0.211 HD
ENDBRANCH   1  14
TORSDOF 8
ENDMDL
MODEL 5
REMARK VINA RESULT:    -3.920     14.564     16.052
REMARK INTER + INTRA:          -5.749
REMARK INTER:                  -5.402
REMARK INTRA:                  -0.346
REMARK UNBOUND:                -0.454
REMARK SMILES C[C@H](O)[C@H](O)[C@@H](O)[C@@H](O)C=O
REMARK SMILES IDX 4 1 2 2 1 3 3 4 6 6 8 7 10 8 11 9 9 10 7 12 5 14
REMARK H PARENT 3 5 9 11 7 13 5 15
REMARK Flexibility Score: inf
ROOT
ATOM      1  C   UNL     1      32.290  10.558 -11.911  1.00  0.00     0.174 C 
ENDROOT
BRANCH   1   2
ATOM      2  C   UNL     1      31.142   9.506 -11.892  1.00  0.00     0.142 C 
ATOM      3  C   UNL     1      29.810  10.009 -12.460  1.00  0.00     0.041 C 
BRANCH   2   4
ATOM      4  O   UNL     1      30.930   9.060 -10.578  1.00  0.00    -0.391 OA
ATOM      5  H   UNL     1      31.811   9.079 -10.121  1.00  0.00     0.211 HD
ENDBRANCH   2   4
ENDBRANCH   1   2
BRANCH   1   6
ATOM      6  C   UNL     1      32.500  11.246 -13.293  1.00  0.00     0.181 C 
BRANCH   6   7
ATOM      7  C   UNL     1      33.901  10.958 -13.906  1.00  0.00     0.209 C 
BRANCH   7   8
ATOM      8  C   UNL     1      34.177  11.705 -15.190  1.00  0.00     0.258 C 
ATOM      9  O   UNL     1      34.291  12.920 -15.202  1.00  0.00    -0.300 OA
ENDBRANCH   7   8
BRANCH   7  10
ATOM     10  O   UNL     1      34.106   9.579 -14.078  1.00  0.00    -0.383 OA
ATOM     11  H   UNL     1      33.230   9.125 -13.975  1.00  0.00     0.211 HD
ENDBRANCH   7  10
ENDBRANCH   6   7
BRANCH   6  12
ATOM     12  O   UNL     1      32.213  12.624 -13.255  1.00  0.00    -0.387 OA
ATOM     13  H   UNL     1      31.240  12.745 -13.389  1.00  0.00     0.211 HD
ENDBRANCH   6  12
ENDBRANCH   1   6
BRANCH   1  14
ATOM     14  O   UNL     1      32.169  11.492 -10.864  1.00  0.00    -0.388 OA
ATOM     15  H   UNL     1      33.077  11.720 -10.541  1.00  0.00     0.211 HD
ENDBRANCH   1  14
TORSDOF 8
ENDMDL
MODEL 6
REMARK VINA RESULT:    -3.900      1.083      3.619
REMARK INTER + INTRA:          -5.722
REMARK INTER:                  -5.214
REMARK INTRA:                  -0.508
REMARK UNBOUND:                -0.454
REMARK SMILES C[C@H](O)[C@H](O)[C@@H](O)[C@@H](O)C=O
REMARK SMILES IDX 4 1 2 2 1 3 3 4 6 6 8 7 10 8 11 9 9 10 7 12 5 14
REMARK H PARENT 3 5 9 11 7 13 5 15
REMARK Flexibility Score: inf
ROOT
ATOM      1  C   UNL     1      30.214  16.379   2.163  1.00  0.00     0.174 C 
ENDROOT
BRANCH   1   2
ATOM      2  C   UNL     1      29.381  15.332   1.365  1.00  0.00     0.142 C 
ATOM      3  C   UNL     1      29.486  13.898   1.899  1.00  0.00     0.041 C 
BRANCH   2   4
ATOM      4  O   UNL     1      29.776  15.340   0.018  1.00  0.00    -0.391 OA
ATOM      5  H   UNL     1      29.835  14.392  -0.271  1.00  0.00     0.211 HD
ENDBRANCH   2   4
ENDBRANCH   1   2
BRANCH   1   6
ATOM      6  C   UNL     1      31.743  16.335   1.868  1.00  0.00     0.181 C 
BRANCH   6   7
ATOM      7  C   UNL     1      32.233  17.551   1.030  1.00  0.00     0.209 C 
BRANCH   7   8
ATOM      8  C   UNL     1      32.721  17.190  -0.353  1.00  0.00     0.258 C 
ATOM      9  O   UNL     1      31.952  16.772  -1.205  1.00  0.00    -0.300 OA
ENDBRANCH   7   8
BRANCH   7  10
ATOM     10  O   UNL     1      33.208  18.286   1.726  1.00  0.00    -0.383 OA
ATOM     11  H   UNL     1      33.615  17.687   2.405  1.00  0.00     0.211 HD
ENDBRANCH   7  10
ENDBRANCH   6   7
BRANCH   6  12
ATOM     12  O   UNL     1      32.144  15.109   1.302  1.00  0.00    -0.387 OA
ATOM     13  H   UNL     1      32.800  14.684   1.910  1.00  0.00     0.211 HD
ENDBRANCH   6  12
ENDBRANCH   1   6
BRANCH   1  14
ATOM     14  O   UNL     1      29.685  17.678   2.042  1.00  0.00    -0.388 OA
ATOM     15  H   UNL     1      29.647  17.912   1.080  1.00  0.00     0.211 HD
ENDBRANCH   1  14
TORSDOF 8
ENDMDL
MODEL 7
REMARK VINA RESULT:    -3.800      1.372      3.462
REMARK INTER + INTRA:          -5.588
REMARK INTER:                  -5.138
REMARK INTRA:                  -0.450
REMARK UNBOUND:                -0.454
REMARK SMILES C[C@H](O)[C@H](O)[C@@H](O)[C@@H](O)C=O
REMARK SMILES IDX 4 1 2 2 1 3 3 4 6 6 8 7 10 8 11 9 9 10 7 12 5 14
REMARK H PARENT 3 5 9 11 7 13 5 15
REMARK Flexibility Score: inf
ROOT
ATOM      1  C   UNL     1      31.692  16.256   1.984  1.00  0.00     0.174 C 
ENDROOT
BRANCH   1   2
ATOM      2  C   UNL     1      30.178  16.087   2.311  1.00  0.00     0.142 C 
ATOM      3  C   UNL     1      29.499  14.918   1.587  1.00  0.00     0.041 C 
BRANCH   2   4
ATOM      4  O   UNL     1      29.491  17.271   1.996  1.00  0.00    -0.391 OA
ATOM      5  H   UNL     1      28.648  17.004   1.545  1.00  0.00     0.211 HD
ENDBRANCH   2   4
ENDBRANCH   1   2
BRANCH   1   6
ATOM      6  C   UNL     1      32.032  17.559   1.200  1.00  0.00     0.181 C 
BRANCH   6   7
ATOM      7  C   UNL     1      33.098  17.336   0.089  1.00  0.00     0.209 C 
BRANCH   7   8
ATOM      8  C   UNL     1      32.557  16.679  -1.160  1.00  0.00     0.258 C 
ATOM      9  O   UNL     1      31.380  16.370  -1.252  1.00  0.00    -0.300 OA
ENDBRANCH   7   8
BRANCH   7  10
ATOM     10  O   UNL     1      34.206  16.629   0.584  1.00  0.00    -0.383 OA
ATOM     11  H   UNL     1      34.514  17.083   1.411  1.00  0.00     0.211 HD
ENDBRANCH   7  10
ENDBRANCH   6   7
BRANCH   6  12
ATOM     12  O   UNL     1      32.376  18.624   2.056  1.00  0.00    -0.387 OA
ATOM     13  H   UNL     1      33.292  18.923   1.830  1.00  0.00     0.211 HD
ENDBRANCH   6  12
ENDBRANCH   1   6
BRANCH   1  14
ATOM     14  O   UNL     1      32.500  16.094   3.125  1.00  0.00    -0.388 OA
ATOM     15  H   UNL     1      32.914  15.194   3.090  1.00  0.00     0.211 HD
ENDBRANCH   1  14
TORSDOF 8
ENDMDL
MODEL 8
REMARK VINA RESULT:    -3.798      1.814      3.304
REMARK INTER + INTRA:          -5.584
REMARK INTER:                  -5.067
REMARK INTRA:                  -0.517
REMARK UNBOUND:                -0.454
REMARK SMILES C[C@H](O)[C@H](O)[C@@H](O)[C@@H](O)C=O
REMARK SMILES IDX 4 1 2 2 1 3 3 4 6 6 8 7 10 8 11 9 9 10 7 12 5 14
REMARK H PARENT 3 5 9 11 7 13 5 15
REMARK Flexibility Score: inf
ROOT
ATOM      1  C   UNL     1      32.205  16.609   2.340  1.00  0.00     0.174 C 
ENDROOT
BRANCH   1   2
ATOM      2  C   UNL     1      31.290  17.863   2.470  1.00  0.00     0.142 C 
ATOM      3  C   UNL     1      29.863  17.561   2.943  1.00  0.00     0.041 C 
BRANCH   2   4
ATOM      4  O   UNL     1      31.223  18.529   1.236  1.00  0.00    -0.391 OA
ATOM      5  H   UNL     1      30.929  19.459   1.425  1.00  0.00     0.211 HD
ENDBRANCH   2   4
ENDBRANCH   1   2
BRANCH   1   6
ATOM      6  C   UNL     1      32.018  15.820   1.009  1.00  0.00     0.181 C 
BRANCH   6   7
ATOM      7  C   UNL     1      33.137  16.113  -0.031  1.00  0.00     0.209 C 
BRANCH   7   8
ATOM      8  C   UNL     1      32.634  16.704  -1.327  1.00  0.00     0.258 C 
ATOM      9  O   UNL     1      32.168  17.831  -1.369  1.00  0.00    -0.300 OA
ENDBRANCH   7   8
BRANCH   7  10
ATOM     10  O   UNL     1      33.916  14.969  -0.274  1.00  0.00    -0.383 OA
ATOM     11  H   UNL     1      33.585  14.546  -1.108  1.00  0.00     0.211 HD
ENDBRANCH   7  10
ENDBRANCH   6   7
BRANCH   6  12
ATOM     12  O   UNL     1      30.731  15.990   0.462  1.00  0.00    -0.387 OA
ATOM     13  H   UNL     1      30.768  15.763  -0.501  1.00  0.00     0.211 HD
ENDBRANCH   6  12
ENDBRANCH   1   6
BRANCH   1  14
ATOM     14  O   UNL     1      33.556  16.911   2.595  1.00  0.00    -0.388 OA
ATOM     15  H   UNL     1      34.080  16.072   2.545  1.00  0.00     0.211 HD
ENDBRANCH   1  14
TORSDOF 8
ENDMDL
