MODEL 1
REMARK VINA RESULT:    -3.269      0.000      0.000
REMARK INTER + INTRA:          -7.038
REMARK INTER:                  -5.754
REMARK INTRA:                  -1.285
REMARK UNBOUND:                -1.285
REMARK SMILES CCCCCCCCCCCCCCC(=O)[O-]
REMARK SMILES IDX 9 1 10 2 11 3 12 4 13 5 14 6 15 7 16 8 17 9 8 10 7 11 6 12
REMARK SMILES IDX 5 13 4 14 3 15 2 16 1 17
REMARK H PARENT
REMARK Flexibility Score: inf
ROOT
ATOM      1  C   UNL     1       8.209 -22.587 -18.860  1.00  0.00     0.000 C 
ENDROOT
BRANCH   1   2
ATOM      2  C   UNL     1       9.414 -22.633 -17.909  1.00  0.00     0.000 C 
BRANCH   2   3
ATOM      3  C   UNL     1      10.674 -21.996 -18.516  1.00  0.00     0.000 C 
BRANCH   3   4
ATOM      4  C   UNL     1      10.789 -22.236 -20.029  1.00  0.00     0.000 C 
BRANCH   4   5
ATOM      5  C   UNL     1      11.064 -20.921 -20.774  1.00  0.00     0.006 C 
BRANCH   5   6
ATOM      6  C   UNL     1       9.801 -20.348 -21.428  1.00  0.00     0.053 C 
BRANCH   6   7
ATOM      7  C   UNL     1       9.306 -21.218 -22.542  1.00  0.00     0.041 C 
ATOM      8  O   UNL     1       8.072 -21.433 -22.676  1.00  0.00    -0.550 OA
ATOM      9  O   UNL     1      10.207 -21.821 -23.410  1.00  0.00    -0.550 OA
ENDBRANCH   6   7
ENDBRANCH   5   6
ENDBRANCH   4   5
ENDBRANCH   3   4
ENDBRANCH   2   3
ENDBRANCH   1   2
BRANCH   1  10
ATOM     10  C   UNL     1       6.942 -23.107 -18.165  1.00  0.00     0.000 C 
BRANCH  10  11
ATOM     11  C   UNL     1       6.939 -22.825 -16.654  1.00  0.00    -0.000 C 
BRANCH  11  12
ATOM     12  C   UNL     1       5.828 -21.844 -16.238  1.00  0.00    -0.000 C 
BRANCH  12  13
ATOM     13  C   UNL     1       6.369 -20.637 -15.457  1.00  0.00    -0.000 C 
BRANCH  13  14
ATOM     14  C   UNL     1       7.888 -20.457 -15.626  1.00  0.00    -0.000 C 
BRANCH  14  15
ATOM     15  C   UNL     1       8.671 -20.900 -14.372  1.00  0.00    -0.000 C 
BRANCH  15  16
ATOM     16  C   UNL     1       9.993 -20.140 -14.171  1.00  0.00    -0.003 C 
ATOM     17  C   UNL     1      11.052 -20.494 -15.213  1.00  0.00     0.004 C 
ENDBRANCH  15  16
ENDBRANCH  14  15
ENDBRANCH  13  14
ENDBRANCH  12  13
ENDBRANCH  11  12
ENDBRANCH  10  11
ENDBRANCH   1  10
TORSDOF 13
ENDMDL
MODEL 2
REMARK VINA RESULT:    -2.784      2.996      6.490
REMARK INTER + INTRA:          -6.184
REMARK INTER:                  -4.877
REMARK INTRA:                  -1.308
REMARK UNBOUND:                -1.285
REMARK SMILES CCCCCCCCCCCCCCC(=O)[O-]
REMARK SMILES IDX 9 1 10 2 11 3 12 4 13 5 14 6 15 7 16 8 17 9 8 10 7 11 6 12
REMARK SMILES IDX 5 13 4 14 3 15 2 16 1 17
REMARK H PARENT
REMARK Flexibility Score: inf
ROOT
ATOM      1  C   UNL     1       7.409 -22.718 -18.703  1.00  0.00     0.000 C 
ENDROOT
BRANCH   1   2
ATOM      2  C   UNL     1       6.253 -23.117 -17.773  1.00  0.00     0.000 C 
BRANCH   2   3
ATOM      3  C   UNL     1       6.478 -22.668 -16.321  1.00  0.00     0.000 C 
BRANCH   3   4
ATOM      4  C   UNL     1       6.175 -21.177 -16.109  1.00  0.00     0.000 C 
BRANCH   4   5
ATOM      5  C   UNL     1       7.461 -20.394 -15.804  1.00  0.00     0.006 C 
BRANCH   5   6
ATOM      6  C   UNL     1       8.373 -21.134 -14.817  1.00  0.00     0.053 C 
BRANCH   6   7
ATOM      7  C   UNL     1       9.735 -20.514 -14.745  1.00  0.00     0.041 C 
ATOM      8  O   UNL     1      10.114 -19.942 -13.689  1.00  0.00    -0.550 OA
ATOM      9  O   UNL     1      10.572 -20.537 -15.854  1.00  0.00    -0.550 OA
ENDBRANCH   6   7
ENDBRANCH   5   6
ENDBRANCH   4   5
ENDBRANCH   3   4
ENDBRANCH   2   3
ENDBRANCH   1   2
BRANCH   1  10
ATOM     10  C   UNL     1       8.764 -23.095 -18.088  1.00  0.00     0.000 C 
BRANCH  10  11
ATOM     11  C   UNL     1       9.879 -22.105 -18.460  1.00  0.00    -0.000 C 
BRANCH  11  12
ATOM     12  C   UNL     1      10.889 -22.701 -19.457  1.00  0.00    -0.000 C 
BRANCH  12  13
ATOM     13  C   UNL     1      10.948 -21.916 -20.776  1.00  0.00    -0.000 C 
BRANCH  13  14
ATOM     14  C   UNL     1       9.895 -20.794 -20.844  1.00  0.00    -0.000 C 
BRANCH  14  15
ATOM     15  C   UNL     1       9.351 -20.592 -22.273  1.00  0.00    -0.000 C 
BRANCH  15  16
ATOM     16  C   UNL     1       8.172 -21.517 -22.620  1.00  0.00    -0.003 C 
ATOM     17  C   UNL     1       8.595 -22.760 -23.400  1.00  0.00     0.004 C 
ENDBRANCH  15  16
ENDBRANCH  14  15
ENDBRANCH  13  14
ENDBRANCH  12  13
ENDBRANCH  11  12
ENDBRANCH  10  11
ENDBRANCH   1  10
TORSDOF 13
ENDMDL
MODEL 3
REMARK VINA RESULT:    -2.089      2.866      6.094
REMARK INTER + INTRA:          -4.960
REMARK INTER:                  -3.776
REMARK INTRA:                  -1.185
REMARK UNBOUND:                -1.285
REMARK SMILES CCCCCCCCCCCCCCC(=O)[O-]
REMARK SMILES IDX 9 1 10 2 11 3 12 4 13 5 14 6 15 7 16 8 17 9 8 10 7 11 6 12
REMARK SMILES IDX 5 13 4 14 3 15 2 16 1 17
REMARK H PARENT
REMARK Flexibility Score: inf
ROOT
ATOM      1  C   UNL     1       4.936 -23.116 -16.393  1.00  0.00     0.000 C 
ENDROOT
BRANCH   1   2
ATOM      2  C   UNL     1       4.478 -21.678 -16.105  1.00  0.00     0.000 C 
BRANCH   2   3
ATOM      3  C   UNL     1       5.443 -20.922 -15.178  1.00  0.00     0.000 C 
BRANCH   3   4
ATOM      4  C   UNL     1       6.383 -19.979 -15.942  1.00  0.00     0.000 C 
BRANCH   4   5
ATOM      5  C   UNL     1       7.709 -19.795 -15.188  1.00  0.00     0.006 C 
BRANCH   5   6
ATOM      6  C   UNL     1       8.569 -21.065 -15.203  1.00  0.00     0.053 C 
BRANCH   6   7
ATOM      7  C   UNL     1      10.020 -20.753 -15.400  1.00  0.00     0.041 C 
ATOM      8  O   UNL     1      10.588 -21.045 -16.486  1.00  0.00    -0.550 OA
ATOM      9  O   UNL     1      10.755 -20.172 -14.374  1.00  0.00    -0.550 OA
ENDBRANCH   6   7
ENDBRANCH   5   6
ENDBRANCH   4   5
ENDBRANCH   3   4
ENDBRANCH   2   3
ENDBRANCH   1   2
BRANCH   1  10
ATOM     10  C   UNL     1       6.208 -23.124 -17.253  1.00  0.00     0.000 C 
BRANCH  10  11
ATOM     11  C   UNL     1       5.903 -23.125 -18.759  1.00  0.00    -0.000 C 
BRANCH  11  12
ATOM     12  C   UNL     1       7.177 -23.055 -19.620  1.00  0.00    -0.000 C 
BRANCH  12  13
ATOM     13  C   UNL     1       8.259 -22.157 -19.002  1.00  0.00    -0.000 C 
BRANCH  13  14
ATOM     14  C   UNL     1       9.472 -21.968 -19.930  1.00  0.00    -0.000 C 
BRANCH  14  15
ATOM     15  C   UNL     1       9.307 -20.752 -20.865  1.00  0.00    -0.000 C 
BRANCH  15  16
ATOM     16  C   UNL     1       9.869 -20.982 -22.278  1.00  0.00    -0.003 C 
ATOM     17  C   UNL     1       9.231 -22.172 -22.991  1.00  0.00     0.004 C 
ENDBRANCH  15  16
ENDBRANCH  14  15
ENDBRANCH  13  14
ENDBRANCH  12  13
ENDBRANCH  11  12
ENDBRANCH  10  11
ENDBRANCH   1  10
TORSDOF 13
ENDMDL
MODEL 4
REMARK VINA RESULT:    -1.721      1.786      3.683
REMARK INTER + INTRA:          -4.314
REMARK INTER:                  -3.759
REMARK INTRA:                  -0.555
REMARK UNBOUND:                -1.285
REMARK SMILES CCCCCCCCCCCCCCC(=O)[O-]
REMARK SMILES IDX 9 1 10 2 11 3 12 4 13 5 14 6 15 7 16 8 17 9 8 10 7 11 6 12
REMARK SMILES IDX 5 13 4 14 3 15 2 16 1 17
REMARK H PARENT
REMARK Flexibility Score: inf
ROOT
ATOM      1  C   UNL     1       7.632 -22.142 -18.176  1.00  0.00     0.000 C 
ENDROOT
BRANCH   1   2
ATOM      2  C   UNL     1       8.794 -22.682 -19.024  1.00  0.00     0.000 C 
BRANCH   2   3
ATOM      3  C   UNL     1       9.971 -21.698 -19.113  1.00  0.00     0.000 C 
BRANCH   3   4
ATOM      4  C   UNL     1      11.121 -22.228 -19.981  1.00  0.00     0.000 C 
BRANCH   4   5
ATOM      5  C   UNL     1      10.583 -22.980 -21.208  1.00  0.00     0.006 C 
BRANCH   5   6
ATOM      6  C   UNL     1      10.576 -22.106 -22.469  1.00  0.00     0.053 C 
BRANCH   6   7
ATOM      7  C   UNL     1       9.242 -21.463 -22.694  1.00  0.00     0.041 C 
ATOM      8  O   UNL     1       8.327 -22.095 -23.285  1.00  0.00    -0.550 OA
ATOM      9  O   UNL     1       9.019 -20.155 -22.282  1.00  0.00    -0.550 OA
ENDBRANCH   6   7
ENDBRANCH   5   6
ENDBRANCH   4   5
ENDBRANCH   3   4
ENDBRANCH   2   3
ENDBRANCH   1   2
BRANCH   1  10
ATOM     10  C   UNL     1       7.559 -22.866 -16.823  1.00  0.00     0.000 C 
BRANCH  10  11
ATOM     11  C   UNL     1       7.890 -21.942 -15.640  1.00  0.00    -0.000 C 
BRANCH  11  12
ATOM     12  C   UNL     1       7.283 -20.537 -15.799  1.00  0.00    -0.000 C 
BRANCH  12  13
ATOM     13  C   UNL     1       5.850 -20.449 -15.251  1.00  0.00    -0.000 C 
BRANCH  13  14
ATOM     14  C   UNL     1       4.876 -21.385 -15.988  1.00  0.00    -0.000 C 
BRANCH  14  15
ATOM     15  C   UNL     1       3.539 -21.544 -15.234  1.00  0.00    -0.000 C 
BRANCH  15  16
ATOM     16  C   UNL     1       2.622 -22.626 -15.830  1.00  0.00    -0.003 C 
ATOM     17  C   UNL     1       1.177 -22.161 -15.998  1.00  0.00     0.004 C 
ENDBRANCH  15  16
ENDBRANCH  14  15
ENDBRANCH  13  14
ENDBRANCH  12  13
ENDBRANCH  11  12
ENDBRANCH  10  11
ENDBRANCH   1  10
TORSDOF 13
ENDMDL
MODEL 5
REMARK VINA RESULT:    -1.588      3.317      7.012
REMARK INTER + INTRA:          -4.079
REMARK INTER:                  -3.242
REMARK INTRA:                  -0.837
REMARK UNBOUND:                -1.285
REMARK SMILES CCCCCCCCCCCCCCC(=O)[O-]
REMARK SMILES IDX 9 1 10 2 11 3 12 4 13 5 14 6 15 7 16 8 17 9 8 10 7 11 6 12
REMARK SMILES IDX 5 13 4 14 3 15 2 16 1 17
REMARK H PARENT
REMARK Flexibility Score: inf
ROOT
ATOM      1  C   UNL     1       8.607 -22.302 -18.228  1.00  0.00     0.000 C 
ENDROOT
BRANCH   1   2
ATOM      2  C   UNL     1       7.608 -22.183 -17.067  1.00  0.00     0.000 C 
BRANCH   2   3
ATOM      3  C   UNL     1       7.856 -20.942 -16.195  1.00  0.00     0.000 C 
BRANCH   3   4
ATOM      4  C   UNL     1       6.560 -20.197 -15.842  1.00  0.00     0.000 C 
BRANCH   4   5
ATOM      5  C   UNL     1       5.634 -21.080 -14.990  1.00  0.00     0.006 C 
BRANCH   5   6
ATOM      6  C   UNL     1       4.163 -20.660 -15.104  1.00  0.00     0.053 C 
BRANCH   6   7
ATOM      7  C   UNL     1       3.326 -21.732 -15.731  1.00  0.00     0.041 C 
ATOM      8  O   UNL     1       2.071 -21.621 -15.756  1.00  0.00    -0.550 OA
ATOM      9  O   UNL     1       3.926 -22.868 -16.257  1.00  0.00    -0.550 OA
ENDBRANCH   6   7
ENDBRANCH   5   6
ENDBRANCH   4   5
ENDBRANCH   3   4
ENDBRANCH   2   3
ENDBRANCH   1   2
BRANCH   1  10
ATOM     10  C   UNL     1      10.024 -22.580 -17.705  1.00  0.00     0.000 C 
BRANCH  10  11
ATOM     11  C   UNL     1      11.109 -21.875 -18.534  1.00  0.00    -0.000 C 
BRANCH  11  12
ATOM     12  C   UNL     1      10.942 -22.108 -20.046  1.00  0.00    -0.000 C 
BRANCH  12  13
ATOM     13  C   UNL     1      10.563 -20.826 -20.802  1.00  0.00    -0.000 C 
BRANCH  13  14
ATOM     14  C   UNL     1      10.861 -20.918 -22.309  1.00  0.00    -0.000 C 
BRANCH  14  15
ATOM     15  C   UNL     1       9.806 -21.756 -23.061  1.00  0.00    -0.000 C 
BRANCH  15  16
ATOM     16  C   UNL     1       8.373 -21.554 -22.539  1.00  0.00    -0.003 C 
ATOM     17  C   UNL     1       7.814 -22.785 -21.830  1.00  0.00     0.004 C 
ENDBRANCH  15  16
ENDBRANCH  14  15
ENDBRANCH  13  14
ENDBRANCH  12  13
ENDBRANCH  11  12
ENDBRANCH  10  11
ENDBRANCH   1  10
TORSDOF 13
ENDMDL
MODEL 6
REMARK VINA RESULT:    -1.541      9.654     12.425
REMARK INTER + INTRA:          -3.997
REMARK INTER:                  -3.561
REMARK INTRA:                  -0.436
REMARK UNBOUND:                -1.285
REMARK SMILES CCCCCCCCCCCCCCC(=O)[O-]
REMARK SMILES IDX 9 1 10 2 11 3 12 4 13 5 14 6 15 7 16 8 17 9 8 10 7 11 6 12
REMARK SMILES IDX 5 13 4 14 3 15 2 16 1 17
REMARK H PARENT
REMARK Flexibility Score: inf
ROOT
ATOM      1  C   UNL     1      -1.893 -22.311 -15.507  1.00  0.00     0.000 C 
ENDROOT
BRANCH   1   2
ATOM      2  C   UNL     1      -2.941 -23.029 -14.643  1.00  0.00     0.000 C 
BRANCH   2   3
ATOM      3  C   UNL     1      -4.363 -22.910 -15.214  1.00  0.00     0.000 C 
BRANCH   3   4
ATOM      4  C   UNL     1      -4.486 -21.804 -16.273  1.00  0.00     0.000 C 
BRANCH   4   5
ATOM      5  C   UNL     1      -5.774 -21.970 -17.093  1.00  0.00     0.006 C 
BRANCH   5   6
ATOM      6  C   UNL     1      -6.869 -20.985 -16.663  1.00  0.00     0.053 C 
BRANCH   6   7
ATOM      7  C   UNL     1      -7.881 -21.634 -15.770  1.00  0.00     0.041 C 
ATOM      8  O   UNL     1      -7.653 -21.753 -14.537  1.00  0.00    -0.550 OA
ATOM      9  O   UNL     1      -9.061 -22.137 -16.303  1.00  0.00    -0.550 OA
ENDBRANCH   6   7
ENDBRANCH   5   6
ENDBRANCH   4   5
ENDBRANCH   3   4
ENDBRANCH   2   3
ENDBRANCH   1   2
BRANCH   1  10
ATOM     10  C   UNL     1      -0.491 -22.883 -15.255  1.00  0.00     0.000 C 
BRANCH  10  11
ATOM     11  C   UNL     1       0.609 -22.098 -15.987  1.00  0.00    -0.000 C 
BRANCH  11  12
ATOM     12  C   UNL     1       1.963 -22.829 -15.979  1.00  0.00    -0.000 C 
BRANCH  12  13
ATOM     13  C   UNL     1       3.133 -21.900 -15.625  1.00  0.00    -0.000 C 
BRANCH  13  14
ATOM     14  C   UNL     1       4.463 -22.358 -16.252  1.00  0.00    -0.000 C 
BRANCH  14  15
ATOM     15  C   UNL     1       5.606 -21.356 -15.989  1.00  0.00    -0.000 C 
BRANCH  15  16
ATOM     16  C   UNL     1       7.008 -21.976 -16.112  1.00  0.00    -0.003 C 
ATOM     17  C   UNL     1       8.117 -21.057 -15.604  1.00  0.00     0.004 C 
ENDBRANCH  15  16
ENDBRANCH  14  15
ENDBRANCH  13  14
ENDBRANCH  12  13
ENDBRANCH  11  12
ENDBRANCH  10  11
ENDBRANCH   1  10
TORSDOF 13
ENDMDL
MODEL 7
REMARK VINA RESULT:    -1.481      5.700      8.947
REMARK INTER + INTRA:          -3.891
REMARK INTER:                  -3.334
REMARK INTRA:                  -0.556
REMARK UNBOUND:                -1.285
REMARK SMILES CCCCCCCCCCCCCCC(=O)[O-]
REMARK SMILES IDX 9 1 10 2 11 3 12 4 13 5 14 6 15 7 16 8 17 9 8 10 7 11 6 12
REMARK SMILES IDX 5 13 4 14 3 15 2 16 1 17
REMARK H PARENT
REMARK Flexibility Score: inf
ROOT
ATOM      1  C   UNL     1       4.375 -21.581 -15.650  1.00  0.00     0.000 C 
ENDROOT
BRANCH   1   2
ATOM      2  C   UNL     1       3.837 -22.817 -16.387  1.00  0.00     0.000 C 
BRANCH   2   3
ATOM      3  C   UNL     1       2.373 -23.125 -16.040  1.00  0.00     0.000 C 
BRANCH   3   4
ATOM      4  C   UNL     1       1.551 -21.858 -15.762  1.00  0.00     0.000 C 
BRANCH   4   5
ATOM      5  C   UNL     1       0.079 -22.060 -16.156  1.00  0.00     0.006 C 
BRANCH   5   6
ATOM      6  C   UNL     1      -0.638 -23.057 -15.237  1.00  0.00     0.053 C 
BRANCH   6   7
ATOM      7  C   UNL     1      -2.000 -22.574 -14.847  1.00  0.00     0.041 C 
ATOM      8  O   UNL     1      -2.956 -22.646 -15.664  1.00  0.00    -0.550 OA
ATOM      9  O   UNL     1      -2.208 -22.011 -13.594  1.00  0.00    -0.550 OA
ENDBRANCH   6   7
ENDBRANCH   5   6
ENDBRANCH   4   5
ENDBRANCH   3   4
ENDBRANCH   2   3
ENDBRANCH   1   2
BRANCH   1  10
ATOM     10  C   UNL     1       5.835 -21.304 -16.036  1.00  0.00     0.000 C 
BRANCH  10  11
ATOM     11  C   UNL     1       6.597 -22.582 -16.424  1.00  0.00    -0.000 C 
BRANCH  11  12
ATOM     12  C   UNL     1       8.118 -22.363 -16.498  1.00  0.00    -0.000 C 
BRANCH  12  13
ATOM     13  C   UNL     1       8.731 -22.915 -17.794  1.00  0.00    -0.000 C 
BRANCH  13  14
ATOM     14  C   UNL     1       8.023 -22.385 -19.055  1.00  0.00    -0.000 C 
BRANCH  14  15
ATOM     15  C   UNL     1       8.910 -22.498 -20.312  1.00  0.00    -0.000 C 
BRANCH  15  16
ATOM     16  C   UNL     1       8.111 -22.616 -21.621  1.00  0.00    -0.003 C 
ATOM     17  C   UNL     1       8.294 -21.414 -22.545  1.00  0.00     0.004 C 
ENDBRANCH  15  16
ENDBRANCH  14  15
ENDBRANCH  13  14
ENDBRANCH  12  13
ENDBRANCH  11  12
ENDBRANCH  10  11
ENDBRANCH   1  10
TORSDOF 13
ENDMDL
