MODEL 1
REMARK VINA RESULT:    -3.908      0.000      0.000
REMARK INTER + INTRA:          -4.981
REMARK INTER:                  -4.821
REMARK INTRA:                  -0.160
REMARK UNBOUND:                -0.160
REMARK SMILES C=CC[C@@H](C)C(=O)CC
REMARK SMILES IDX 4 1 5 2 6 3 7 4 8 5 9 6 3 7 2 8 1 9
REMARK H PARENT
REMARK Flexibility Score: inf
ROOT
ATOM      1  C   UNL     1      15.570  30.459  30.220  1.00  0.00     0.057 C 
ATOM      2  C   UNL     1      16.320  29.198  29.769  1.00  0.00     0.016 C 
ENDROOT
BRANCH   1   3
ATOM      3  C   UNL     1      16.411  31.685  29.935  1.00  0.00     0.135 C 
ATOM      4  O   UNL     1      17.161  31.693  28.969  1.00  0.00    -0.299 OA
BRANCH   3   5
ATOM      5  C   UNL     1      16.333  32.905  30.814  1.00  0.00     0.072 C 
ATOM      6  C   UNL     1      17.729  33.382  31.201  1.00  0.00     0.012 C 
ENDBRANCH   3   5
ENDBRANCH   1   3
BRANCH   1   7
ATOM      7  C   UNL     1      14.199  30.586  29.529  1.00  0.00     0.038 C 
BRANCH   7   8
ATOM      8  C   UNL     1      13.069  30.537  30.524  1.00  0.00    -0.034 C 
ATOM      9  C   UNL     1      11.831  30.179  30.172  1.00  0.00     0.004 C 
ENDBRANCH   7   8
ENDBRANCH   1   7
TORSDOF 4
ENDMDL
MODEL 2
REMARK VINA RESULT:    -3.758      1.510      4.099
REMARK INTER + INTRA:          -4.797
REMARK INTER:                  -4.546
REMARK INTRA:                  -0.251
REMARK UNBOUND:                -0.160
REMARK SMILES C=CC[C@@H](C)C(=O)CC
REMARK SMILES IDX 4 1 5 2 6 3 7 4 8 5 9 6 3 7 2 8 1 9
REMARK H PARENT
REMARK Flexibility Score: inf
ROOT
ATOM      1  C   UNL     1      15.409  30.640  29.528  1.00  0.00     0.057 C 
ATOM      2  C   UNL     1      15.822  29.185  29.796  1.00  0.00     0.016 C 
ENDROOT
BRANCH   1   3
ATOM      3  C   UNL     1      13.900  30.736  29.443  1.00  0.00     0.135 C 
ATOM      4  O   UNL     1      13.377  31.160  28.421  1.00  0.00    -0.299 OA
BRANCH   3   5
ATOM      5  C   UNL     1      13.026  30.309  30.591  1.00  0.00     0.072 C 
ATOM      6  C   UNL     1      11.561  30.264  30.169  1.00  0.00     0.012 C 
ENDBRANCH   3   5
ENDBRANCH   1   3
BRANCH   1   7
ATOM      7  C   UNL     1      15.939  31.594  30.616  1.00  0.00     0.038 C 
BRANCH   7   8
ATOM      8  C   UNL     1      16.849  32.644  30.036  1.00  0.00    -0.034 C 
ATOM      9  C   UNL     1      17.261  32.600  28.766  1.00  0.00     0.004 C 
ENDBRANCH   7   8
ENDBRANCH   1   7
TORSDOF 4
ENDMDL
MODEL 3
REMARK VINA RESULT:    -3.406      2.144      2.934
REMARK INTER + INTRA:          -4.362
REMARK INTER:                  -4.105
REMARK INTRA:                  -0.257
REMARK UNBOUND:                -0.160
REMARK SMILES C=CC[C@@H](C)C(=O)CC
REMARK SMILES IDX 4 1 5 2 6 3 7 4 8 5 9 6 3 7 2 8 1 9
REMARK H PARENT
REMARK Flexibility Score: inf
ROOT
ATOM      1  C   UNL     1      13.247  31.146  29.553  1.00  0.00     0.057 C 
ATOM      2  C   UNL     1      12.247  30.246  30.293  1.00  0.00     0.016 C 
ENDROOT
BRANCH   1   3
ATOM      3  C   UNL     1      14.661  30.687  29.842  1.00  0.00     0.135 C 
ATOM      4  O   UNL     1      14.993  29.542  29.567  1.00  0.00    -0.299 OA
BRANCH   3   5
ATOM      5  C   UNL     1      15.674  31.619  30.451  1.00  0.00     0.072 C 
ATOM      6  C   UNL     1      16.596  32.192  29.379  1.00  0.00     0.012 C 
ENDBRANCH   3   5
ENDBRANCH   1   3
BRANCH   1   7
ATOM      7  C   UNL     1      12.993  31.153  28.034  1.00  0.00     0.038 C 
BRANCH   7   8
ATOM      8  C   UNL     1      12.547  32.509  27.552  1.00  0.00    -0.034 C 
ATOM      9  C   UNL     1      11.273  32.903  27.631  1.00  0.00     0.004 C 
ENDBRANCH   7   8
ENDBRANCH   1   7
TORSDOF 4
ENDMDL
MODEL 4
REMARK VINA RESULT:    -3.188     13.781     15.526
REMARK INTER + INTRA:          -4.093
REMARK INTER:                  -3.642
REMARK INTRA:                  -0.451
REMARK UNBOUND:                -0.160
REMARK SMILES C=CC[C@@H](C)C(=O)CC
REMARK SMILES IDX 4 1 5 2 6 3 7 4 8 5 9 6 3 7 2 8 1 9
REMARK H PARENT
REMARK Flexibility Score: inf
ROOT
ATOM      1  C   UNL     1      27.702  34.844  23.235  1.00  0.00     0.057 C 
ATOM      2  C   UNL     1      26.545  35.375  24.093  1.00  0.00     0.016 C 
ENDROOT
BRANCH   1   3
ATOM      3  C   UNL     1      27.993  35.815  22.110  1.00  0.00     0.135 C 
ATOM      4  O   UNL     1      27.581  36.965  22.182  1.00  0.00    -0.299 OA
BRANCH   3   5
ATOM      5  C   UNL     1      28.793  35.396  20.906  1.00  0.00     0.072 C 
ATOM      6  C   UNL     1      28.376  34.007  20.435  1.00  0.00     0.012 C 
ENDBRANCH   3   5
ENDBRANCH   1   3
BRANCH   1   7
ATOM      7  C   UNL     1      28.974  34.609  24.073  1.00  0.00     0.038 C 
BRANCH   7   8
ATOM      8  C   UNL     1      29.125  33.161  24.457  1.00  0.00    -0.034 C 
ATOM      9  C   UNL     1      28.670  32.173  23.682  1.00  0.00     0.004 C 
ENDBRANCH   7   8
ENDBRANCH   1   7
TORSDOF 4
ENDMDL
MODEL 5
REMARK VINA RESULT:    -3.149     14.267     16.033
REMARK INTER + INTRA:          -4.045
REMARK INTER:                  -3.590
REMARK INTRA:                  -0.455
REMARK UNBOUND:                -0.160
REMARK SMILES C=CC[C@@H](C)C(=O)CC
REMARK SMILES IDX 4 1 5 2 6 3 7 4 8 5 9 6 3 7 2 8 1 9
REMARK H PARENT
REMARK Flexibility Score: inf
ROOT
ATOM      1  C   UNL     1      28.373  34.572  21.022  1.00  0.00     0.057 C 
ATOM      2  C   UNL     1      29.001  33.621  19.993  1.00  0.00     0.016 C 
ENDROOT
BRANCH   1   3
ATOM      3  C   UNL     1      28.499  33.980  22.410  1.00  0.00     0.135 C 
ATOM      4  O   UNL     1      28.746  32.788  22.540  1.00  0.00    -0.299 OA
BRANCH   3   5
ATOM      5  C   UNL     1      28.338  34.833  23.640  1.00  0.00     0.072 C 
ATOM      6  C   UNL     1      26.865  35.131  23.902  1.00  0.00     0.012 C 
ENDBRANCH   3   5
ENDBRANCH   1   3
BRANCH   1   7
ATOM      7  C   UNL     1      29.024  35.968  20.982  1.00  0.00     0.038 C 
BRANCH   7   8
ATOM      8  C   UNL     1      28.069  37.010  20.462  1.00  0.00    -0.034 C 
ATOM      9  C   UNL     1      26.751  36.926  20.666  1.00  0.00     0.004 C 
ENDBRANCH   7   8
ENDBRANCH   1   7
TORSDOF 4
ENDMDL
MODEL 6
REMARK VINA RESULT:    -3.136     13.856     15.599
REMARK INTER + INTRA:          -4.029
REMARK INTER:                  -3.637
REMARK INTRA:                  -0.392
REMARK UNBOUND:                -0.160
REMARK SMILES C=CC[C@@H](C)C(=O)CC
REMARK SMILES IDX 4 1 5 2 6 3 7 4 8 5 9 6 3 7 2 8 1 9
REMARK H PARENT
REMARK Flexibility Score: inf
ROOT
ATOM      1  C   UNL     1      27.376  37.724  21.671  1.00  0.00     0.057 C 
ATOM      2  C   UNL     1      28.537  38.443  20.969  1.00  0.00     0.016 C 
ENDROOT
BRANCH   1   3
ATOM      3  C   UNL     1      26.078  38.022  20.951  1.00  0.00     0.135 C 
ATOM      4  O   UNL     1      25.786  39.180  20.683  1.00  0.00    -0.299 OA
BRANCH   3   5
ATOM      5  C   UNL     1      25.140  36.917  20.545  1.00  0.00     0.072 C 
ATOM      6  C   UNL     1      23.849  36.977  21.355  1.00  0.00     0.012 C 
ENDBRANCH   3   5
ENDBRANCH   1   3
BRANCH   1   7
ATOM      7  C   UNL     1      27.605  36.201  21.739  1.00  0.00     0.038 C 
BRANCH   7   8
ATOM      8  C   UNL     1      27.704  35.719  23.162  1.00  0.00    -0.034 C 
ATOM      9  C   UNL     1      26.622  35.399  23.878  1.00  0.00     0.004 C 
ENDBRANCH   7   8
ENDBRANCH   1   7
TORSDOF 4
ENDMDL
MODEL 7
REMARK VINA RESULT:    -3.127     14.039     15.332
REMARK INTER + INTRA:          -4.018
REMARK INTER:                  -3.858
REMARK INTRA:                  -0.160
REMARK UNBOUND:                -0.160
REMARK SMILES C=CC[C@@H](C)C(=O)CC
REMARK SMILES IDX 4 1 5 2 6 3 7 4 8 5 9 6 3 7 2 8 1 9
REMARK H PARENT
REMARK Flexibility Score: inf
ROOT
ATOM      1  C   UNL     1      28.174  35.069  23.185  1.00  0.00     0.057 C 
ATOM      2  C   UNL     1      26.861  35.211  23.970  1.00  0.00     0.016 C 
ENDROOT
BRANCH   1   3
ATOM      3  C   UNL     1      28.405  33.615  22.832  1.00  0.00     0.135 C 
ATOM      4  O   UNL     1      28.619  33.301  21.669  1.00  0.00    -0.299 OA
BRANCH   3   5
ATOM      5  C   UNL     1      28.388  32.544  23.890  1.00  0.00     0.072 C 
ATOM      6  C   UNL     1      29.110  31.292  23.403  1.00  0.00     0.012 C 
ENDBRANCH   3   5
ENDBRANCH   1   3
BRANCH   1   7
ATOM      7  C   UNL     1      28.171  35.930  21.907  1.00  0.00     0.038 C 
BRANCH   7   8
ATOM      8  C   UNL     1      27.015  36.895  21.891  1.00  0.00    -0.034 C 
ATOM      9  C   UNL     1      26.206  37.012  20.835  1.00  0.00     0.004 C 
ENDBRANCH   7   8
ENDBRANCH   1   7
TORSDOF 4
ENDMDL
MODEL 8
REMARK VINA RESULT:    -3.110     15.281     16.938
REMARK INTER + INTRA:          -3.997
REMARK INTER:                  -3.817
REMARK INTRA:                  -0.180
REMARK UNBOUND:                -0.160
REMARK SMILES C=CC[C@@H](C)C(=O)CC
REMARK SMILES IDX 4 1 5 2 6 3 7 4 8 5 9 6 3 7 2 8 1 9
REMARK H PARENT
REMARK Flexibility Score: inf
ROOT
ATOM      1  C   UNL     1      26.735  39.288  20.204  1.00  0.00     0.057 C 
ATOM      2  C   UNL     1      26.858  38.690  18.795  1.00  0.00     0.016 C 
ENDROOT
BRANCH   1   3
ATOM      3  C   UNL     1      26.854  40.795  20.133  1.00  0.00     0.135 C 
ATOM      4  O   UNL     1      27.301  41.320  19.122  1.00  0.00    -0.299 OA
BRANCH   3   5
ATOM      5  C   UNL     1      26.421  41.667  21.281  1.00  0.00     0.072 C 
ATOM      6  C   UNL     1      26.331  43.127  20.849  1.00  0.00     0.012 C 
ENDBRANCH   3   5
ENDBRANCH   1   3
BRANCH   1   7
ATOM      7  C   UNL     1      25.406  38.894  20.877  1.00  0.00     0.038 C 
BRANCH   7   8
ATOM      8  C   UNL     1      25.178  37.406  20.826  1.00  0.00    -0.034 C 
ATOM      9  C   UNL     1      24.008  36.858  21.165  1.00  0.00     0.004 C 
ENDBRANCH   7   8
ENDBRANCH   1   7
TORSDOF 4
ENDMDL
MODEL 9
REMARK VINA RESULT:    -3.097     14.412     15.351
REMARK INTER + INTRA:          -3.981
REMARK INTER:                  -3.802
REMARK INTRA:                  -0.179
REMARK UNBOUND:                -0.160
REMARK SMILES C=CC[C@@H](C)C(=O)CC
REMARK SMILES IDX 4 1 5 2 6 3 7 4 8 5 9 6 3 7 2 8 1 9
REMARK H PARENT
REMARK Flexibility Score: inf
ROOT
ATOM      1  C   UNL     1      28.599  34.521  22.351  1.00  0.00     0.057 C 
ATOM      2  C   UNL     1      28.602  33.686  21.062  1.00  0.00     0.016 C 
ENDROOT
BRANCH   1   3
ATOM      3  C   UNL     1      27.684  35.715  22.185  1.00  0.00     0.135 C 
ATOM      4  O   UNL     1      27.240  36.280  23.175  1.00  0.00    -0.299 OA
BRANCH   3   5
ATOM      5  C   UNL     1      27.316  36.232  20.819  1.00  0.00     0.072 C 
ATOM      6  C   UNL     1      25.963  36.935  20.852  1.00  0.00     0.012 C 
ENDBRANCH   3   5
ENDBRANCH   1   3
BRANCH   1   7
ATOM      7  C   UNL     1      28.162  33.686  23.570  1.00  0.00     0.038 C 
BRANCH   7   8
ATOM      8  C   UNL     1      28.780  32.313  23.552  1.00  0.00    -0.034 C 
ATOM      9  C   UNL     1      28.367  31.341  24.371  1.00  0.00     0.004 C 
ENDBRANCH   7   8
ENDBRANCH   1   7
TORSDOF 4
ENDMDL
