MODEL 1
REMARK VINA RESULT:    -3.812      0.000      0.000
REMARK INTER + INTRA:          -4.780
REMARK INTER:                  -4.703
REMARK INTRA:                  -0.076
REMARK UNBOUND:                -0.076
REMARK SMILES CCCCCC(=O)[O-]
REMARK SMILES IDX 4 1 5 2 6 3 7 4 8 5 3 6 2 7 1 8
REMARK H PARENT
REMARK Flexibility Score: inf
ROOT
ATOM      1  C   UNL     1      13.124   3.933  -4.949  1.00  0.00     0.006 C 
ENDROOT
BRANCH   1   2
ATOM      2  C   UNL     1      11.862   3.971  -5.816  1.00  0.00     0.053 C 
BRANCH   2   3
ATOM      3  C   UNL     1      12.221   4.158  -7.256  1.00  0.00     0.041 C 
ATOM      4  O   UNL     1      12.764   3.222  -7.900  1.00  0.00    -0.550 OA
ATOM      5  O   UNL     1      12.004   5.383  -7.873  1.00  0.00    -0.550 OA
ENDBRANCH   2   3
ENDBRANCH   1   2
BRANCH   1   6
ATOM      6  C   UNL     1      12.768   3.980  -3.457  1.00  0.00     0.000 C 
BRANCH   6   7
ATOM      7  C   UNL     1      13.125   5.342  -2.851  1.00  0.00    -0.003 C 
ATOM      8  C   UNL     1      12.025   5.834  -1.915  1.00  0.00     0.004 C 
ENDBRANCH   6   7
ENDBRANCH   1   6
TORSDOF 4
ENDMDL
MODEL 2
REMARK VINA RESULT:    -3.368     15.501     16.988
REMARK INTER + INTRA:          -4.232
REMARK INTER:                  -4.172
REMARK INTRA:                  -0.060
REMARK UNBOUND:                -0.076
REMARK SMILES CCCCCC(=O)[O-]
REMARK SMILES IDX 4 1 5 2 6 3 7 4 8 5 3 6 2 7 1 8
REMARK H PARENT
REMARK Flexibility Score: inf
ROOT
ATOM      1  C   UNL     1       3.172   2.930   8.906  1.00  0.00     0.006 C 
ENDROOT
BRANCH   1   2
ATOM      2  C   UNL     1       3.869   1.574   8.759  1.00  0.00     0.053 C 
BRANCH   2   3
ATOM      3  C   UNL     1       4.491   1.449   7.404  1.00  0.00     0.041 C 
ATOM      4  O   UNL     1       3.766   1.417   6.375  1.00  0.00    -0.550 OA
ATOM      5  O   UNL     1       5.867   1.316   7.281  1.00  0.00    -0.550 OA
ENDBRANCH   2   3
ENDBRANCH   1   2
BRANCH   1   6
ATOM      6  C   UNL     1       1.842   2.787   9.657  1.00  0.00     0.000 C 
BRANCH   6   7
ATOM      7  C   UNL     1       0.931   3.991   9.395  1.00  0.00    -0.003 C 
ATOM      8  C   UNL     1      -0.526   3.560   9.255  1.00  0.00     0.004 C 
ENDBRANCH   6   7
ENDBRANCH   1   6
TORSDOF 4
ENDMDL
MODEL 3
REMARK VINA RESULT:    -3.333     15.050     16.531
REMARK INTER + INTRA:          -4.189
REMARK INTER:                  -4.073
REMARK INTRA:                  -0.116
REMARK UNBOUND:                -0.076
REMARK SMILES CCCCCC(=O)[O-]
REMARK SMILES IDX 4 1 5 2 6 3 7 4 8 5 3 6 2 7 1 8
REMARK H PARENT
REMARK Flexibility Score: inf
ROOT
ATOM      1  C   UNL     1       3.801   3.293   8.228  1.00  0.00     0.006 C 
ENDROOT
BRANCH   1   2
ATOM      2  C   UNL     1       3.827   1.777   8.007  1.00  0.00     0.053 C 
BRANCH   2   3
ATOM      3  C   UNL     1       5.161   1.345   7.488  1.00  0.00     0.041 C 
ATOM      4  O   UNL     1       5.245   0.718   6.399  1.00  0.00    -0.550 OA
ATOM      5  O   UNL     1       6.309   1.591   8.231  1.00  0.00    -0.550 OA
ENDBRANCH   2   3
ENDBRANCH   1   2
BRANCH   1   6
ATOM      6  C   UNL     1       3.164   3.641   9.579  1.00  0.00     0.000 C 
BRANCH   6   7
ATOM      7  C   UNL     1       1.804   2.952   9.738  1.00  0.00    -0.003 C 
ATOM      8  C   UNL     1       0.660   3.914   9.430  1.00  0.00     0.004 C 
ENDBRANCH   6   7
ENDBRANCH   1   6
TORSDOF 4
ENDMDL
MODEL 4
REMARK VINA RESULT:    -3.327     14.843     15.366
REMARK INTER + INTRA:          -4.182
REMARK INTER:                  -4.124
REMARK INTRA:                  -0.058
REMARK UNBOUND:                -0.076
REMARK SMILES CCCCCC(=O)[O-]
REMARK SMILES IDX 4 1 5 2 6 3 7 4 8 5 3 6 2 7 1 8
REMARK H PARENT
REMARK Flexibility Score: inf
ROOT
ATOM      1  C   UNL     1       6.533   2.149   8.858  1.00  0.00     0.006 C 
ENDROOT
BRANCH   1   2
ATOM      2  C   UNL     1       5.086   1.653   8.778  1.00  0.00     0.053 C 
BRANCH   2   3
ATOM      3  C   UNL     1       4.646   1.549   7.352  1.00  0.00     0.041 C 
ATOM      4  O   UNL     1       3.636   2.185   6.952  1.00  0.00    -0.550 OA
ATOM      5  O   UNL     1       5.322   0.709   6.476  1.00  0.00    -0.550 OA
ENDBRANCH   2   3
ENDBRANCH   1   2
BRANCH   1   6
ATOM      6  C   UNL     1       6.598   3.563   9.447  1.00  0.00     0.000 C 
BRANCH   6   7
ATOM      7  C   UNL     1       8.028   3.916   9.871  1.00  0.00    -0.003 C 
ATOM      8  C   UNL     1       8.474   5.240   9.258  1.00  0.00     0.004 C 
ENDBRANCH   6   7
ENDBRANCH   1   6
TORSDOF 4
ENDMDL
MODEL 5
REMARK VINA RESULT:    -2.981     19.725     20.658
REMARK INTER + INTRA:          -3.755
REMARK INTER:                  -3.621
REMARK INTRA:                  -0.134
REMARK UNBOUND:                -0.076
REMARK SMILES CCCCCC(=O)[O-]
REMARK SMILES IDX 4 1 5 2 6 3 7 4 8 5 3 6 2 7 1 8
REMARK H PARENT
REMARK Flexibility Score: inf
ROOT
ATOM      1  C   UNL     1      -2.207   5.149   8.620  1.00  0.00     0.006 C 
ENDROOT
BRANCH   1   2
ATOM      2  C   UNL     1      -2.662   6.026   9.791  1.00  0.00     0.053 C 
BRANCH   2   3
ATOM      3  C   UNL     1      -1.850   7.280   9.852  1.00  0.00     0.041 C 
ATOM      4  O   UNL     1      -0.600   7.234   9.703  1.00  0.00    -0.550 OA
ATOM      5  O   UNL     1      -2.466   8.494  10.125  1.00  0.00    -0.550 OA
ENDBRANCH   2   3
ENDBRANCH   1   2
BRANCH   1   6
ATOM      6  C   UNL     1      -1.720   3.781   9.115  1.00  0.00     0.000 C 
BRANCH   6   7
ATOM      7  C   UNL     1      -0.212   3.800   9.386  1.00  0.00    -0.003 C 
ATOM      8  C   UNL     1       0.275   2.443   9.886  1.00  0.00     0.004 C 
ENDBRANCH   6   7
ENDBRANCH   1   6
TORSDOF 4
ENDMDL
MODEL 6
REMARK VINA RESULT:    -2.934     17.470     19.049
REMARK INTER + INTRA:          -3.696
REMARK INTER:                  -3.647
REMARK INTRA:                  -0.049
REMARK UNBOUND:                -0.076
REMARK SMILES CCCCCC(=O)[O-]
REMARK SMILES IDX 4 1 5 2 6 3 7 4 8 5 3 6 2 7 1 8
REMARK H PARENT
REMARK Flexibility Score: inf
ROOT
ATOM      1  C   UNL     1       0.434   3.649   9.373  1.00  0.00     0.006 C 
ENDROOT
BRANCH   1   2
ATOM      2  C   UNL     1      -0.477   4.829   9.725  1.00  0.00     0.053 C 
BRANCH   2   3
ATOM      3  C   UNL     1      -1.722   4.794   8.896  1.00  0.00     0.041 C 
ATOM      4  O   UNL     1      -2.313   3.703   8.687  1.00  0.00    -0.550 OA
ATOM      5  O   UNL     1      -2.202   5.960   8.313  1.00  0.00    -0.550 OA
ENDBRANCH   2   3
ENDBRANCH   1   2
BRANCH   1   6
ATOM      6  C   UNL     1       1.912   4.028   9.535  1.00  0.00     0.000 C 
BRANCH   6   7
ATOM      7  C   UNL     1       2.822   2.839   9.209  1.00  0.00    -0.003 C 
ATOM      8  C   UNL     1       3.869   3.215   8.165  1.00  0.00     0.004 C 
ENDBRANCH   6   7
ENDBRANCH   1   6
TORSDOF 4
ENDMDL
MODEL 7
REMARK VINA RESULT:    -2.842      3.436      5.055
REMARK INTER + INTRA:          -3.583
REMARK INTER:                  -3.537
REMARK INTRA:                  -0.046
REMARK UNBOUND:                -0.076
REMARK SMILES CCCCCC(=O)[O-]
REMARK SMILES IDX 4 1 5 2 6 3 7 4 8 5 3 6 2 7 1 8
REMARK H PARENT
REMARK Flexibility Score: inf
ROOT
ATOM      1  C   UNL     1      12.015   4.939  -3.827  1.00  0.00     0.006 C 
ENDROOT
BRANCH   1   2
ATOM      2  C   UNL     1      12.804   4.971  -2.514  1.00  0.00     0.053 C 
BRANCH   2   3
ATOM      3  C   UNL     1      12.486   6.212  -1.742  1.00  0.00     0.041 C 
ATOM      4  O   UNL     1      13.125   7.275  -1.960  1.00  0.00    -0.550 OA
ATOM      5  O   UNL     1      11.519   6.182  -0.746  1.00  0.00    -0.550 OA
ENDBRANCH   2   3
ENDBRANCH   1   2
BRANCH   1   6
ATOM      6  C   UNL     1      12.673   3.995  -4.841  1.00  0.00     0.000 C 
BRANCH   6   7
ATOM      7  C   UNL     1      11.718   3.679  -5.997  1.00  0.00    -0.003 C 
ATOM      8  C   UNL     1      12.394   3.901  -7.347  1.00  0.00     0.004 C 
ENDBRANCH   6   7
ENDBRANCH   1   6
TORSDOF 4
ENDMDL
MODEL 8
REMARK VINA RESULT:    -2.770     13.773     14.713
REMARK INTER + INTRA:          -3.494
REMARK INTER:                  -3.344
REMARK INTRA:                  -0.151
REMARK UNBOUND:                -0.076
REMARK SMILES CCCCCC(=O)[O-]
REMARK SMILES IDX 4 1 5 2 6 3 7 4 8 5 3 6 2 7 1 8
REMARK H PARENT
REMARK Flexibility Score: inf
ROOT
ATOM      1  C   UNL     1       9.191   6.604   8.600  1.00  0.00     0.006 C 
ENDROOT
BRANCH   1   2
ATOM      2  C   UNL     1      10.385   7.102   7.779  1.00  0.00     0.053 C 
BRANCH   2   3
ATOM      3  C   UNL     1      11.671   6.731   8.446  1.00  0.00     0.041 C 
ATOM      4  O   UNL     1      12.400   7.622   8.956  1.00  0.00    -0.550 OA
ATOM      5  O   UNL     1      12.090   5.407   8.460  1.00  0.00    -0.550 OA
ENDBRANCH   2   3
ENDBRANCH   1   2
BRANCH   1   6
ATOM      6  C   UNL     1       8.436   7.777   9.239  1.00  0.00     0.000 C 
BRANCH   6   7
ATOM      7  C   UNL     1       8.705   9.081   8.480  1.00  0.00    -0.003 C 
ATOM      8  C   UNL     1       7.527  10.044   8.605  1.00  0.00     0.004 C 
ENDBRANCH   6   7
ENDBRANCH   1   6
TORSDOF 4
ENDMDL
MODEL 9
REMARK VINA RESULT:    -2.655     14.860     15.716
REMARK INTER + INTRA:          -3.352
REMARK INTER:                  -3.218
REMARK INTRA:                  -0.135
REMARK UNBOUND:                -0.076
REMARK SMILES CCCCCC(=O)[O-]
REMARK SMILES IDX 4 1 5 2 6 3 7 4 8 5 3 6 2 7 1 8
REMARK H PARENT
REMARK Flexibility Score: inf
ROOT
ATOM      1  C   UNL     1       5.742  -5.138   5.586  1.00  0.00     0.006 C 
ENDROOT
BRANCH   1   2
ATOM      2  C   UNL     1       6.902  -6.125   5.420  1.00  0.00     0.053 C 
BRANCH   2   3
ATOM      3  C   UNL     1       7.905  -5.595   4.445  1.00  0.00     0.041 C 
ATOM      4  O   UNL     1       7.649  -5.592   3.212  1.00  0.00    -0.550 OA
ATOM      5  O   UNL     1       9.142  -5.150   4.892  1.00  0.00    -0.550 OA
ENDBRANCH   2   3
ENDBRANCH   1   2
BRANCH   1   6
ATOM      6  C   UNL     1       4.421  -5.759   5.115  1.00  0.00     0.000 C 
BRANCH   6   7
ATOM      7  C   UNL     1       4.169  -5.455   3.634  1.00  0.00    -0.003 C 
ATOM      8  C   UNL     1       2.680  -5.269   3.356  1.00  0.00     0.004 C 
ENDBRANCH   6   7
ENDBRANCH   1   6
TORSDOF 4
ENDMDL
