MODEL 1
REMARK VINA RESULT:    -6.073      0.000      0.000
REMARK INTER + INTRA:          -9.724
REMARK INTER:                  -9.268
REMARK INTRA:                  -0.455
REMARK UNBOUND:                -0.455
REMARK SMILES CCCCCCCCCCC(=O)[O-]
REMARK SMILES IDX 7 1 8 2 9 3 10 4 11 5 12 6 13 7 6 8 5 9 4 10 3 11 2 12 1 13
REMARK H PARENT
REMARK Flexibility Score: inf
ROOT
ATOM      1  C   UNL     1      94.141 122.232 122.202  1.00  0.00     0.000 C 
ENDROOT
BRANCH   1   2
ATOM      2  C   UNL     1      95.668 122.062 122.144  1.00  0.00     0.000 C 
BRANCH   2   3
ATOM      3  C   UNL     1      96.365 122.503 123.443  1.00  0.00     0.006 C 
BRANCH   3   4
ATOM      4  C   UNL     1      95.728 123.764 124.042  1.00  0.00     0.053 C 
BRANCH   4   5
ATOM      5  C   UNL     1      96.649 124.448 125.007  1.00  0.00     0.041 C 
ATOM      6  O   UNL     1      96.990 123.874 126.074  1.00  0.00    -0.550 OA
ATOM      7  O   UNL     1      97.152 125.709 124.712  1.00  0.00    -0.550 OA
ENDBRANCH   4   5
ENDBRANCH   3   4
ENDBRANCH   2   3
ENDBRANCH   1   2
BRANCH   1   8
ATOM      8  C   UNL     1      93.420 121.489 121.065  1.00  0.00     0.000 C 
BRANCH   8   9
ATOM      9  C   UNL     1      94.392 120.961 119.997  1.00  0.00    -0.000 C 
BRANCH   9  10
ATOM     10  C   UNL     1      93.944 121.304 118.566  1.00  0.00    -0.000 C 
BRANCH  10  11
ATOM     11  C   UNL     1      92.488 121.793 118.504  1.00  0.00    -0.000 C 
BRANCH  11  12
ATOM     12  C   UNL     1      92.006 122.030 117.065  1.00  0.00    -0.003 C 
ATOM     13  C   UNL     1      92.591 120.993 116.112  1.00  0.00     0.004 C 
ENDBRANCH  11  12
ENDBRANCH  10  11
ENDBRANCH   9  10
ENDBRANCH   8   9
ENDBRANCH   1   8
TORSDOF 9
ENDMDL
MODEL 2
REMARK VINA RESULT:    -5.836      4.062      7.310
REMARK INTER + INTRA:          -9.363
REMARK INTER:                  -8.976
REMARK INTRA:                  -0.387
REMARK UNBOUND:                -0.455
REMARK SMILES CCCCCCCCCCC(=O)[O-]
REMARK SMILES IDX 7 1 8 2 9 3 10 4 11 5 12 6 13 7 6 8 5 9 4 10 3 11 2 12 1 13
REMARK H PARENT
REMARK Flexibility Score: inf
ROOT
ATOM      1  C   UNL     1      93.897 120.989 121.043  1.00  0.00     0.000 C 
ENDROOT
BRANCH   1   2
ATOM      2  C   UNL     1      94.955 121.236 119.956  1.00  0.00     0.000 C 
BRANCH   2   3
ATOM      3  C   UNL     1      94.408 121.021 118.533  1.00  0.00     0.006 C 
BRANCH   3   4
ATOM      4  C   UNL     1      92.933 121.427 118.414  1.00  0.00     0.053 C 
BRANCH   4   5
ATOM      5  C   UNL     1      92.621 122.000 117.065  1.00  0.00     0.041 C 
ATOM      6  O   UNL     1      92.468 123.242 116.923  1.00  0.00    -0.550 OA
ATOM      7  O   UNL     1      92.528 121.164 115.959  1.00  0.00    -0.550 OA
ENDBRANCH   4   5
ENDBRANCH   3   4
ENDBRANCH   2   3
ENDBRANCH   1   2
BRANCH   1   8
ATOM      8  C   UNL     1      94.357 121.460 122.433  1.00  0.00     0.000 C 
BRANCH   8   9
ATOM      9  C   UNL     1      93.641 122.743 122.887  1.00  0.00    -0.000 C 
BRANCH   9  10
ATOM     10  C   UNL     1      94.378 123.460 124.032  1.00  0.00    -0.000 C 
BRANCH  10  11
ATOM     11  C   UNL     1      95.865 123.694 123.721  1.00  0.00    -0.000 C 
BRANCH  11  12
ATOM     12  C   UNL     1      96.539 124.631 124.733  1.00  0.00    -0.003 C 
ATOM     13  C   UNL     1      97.223 123.840 125.844  1.00  0.00     0.004 C 
ENDBRANCH  11  12
ENDBRANCH  10  11
ENDBRANCH   9  10
ENDBRANCH   8   9
ENDBRANCH   1   8
TORSDOF 9
ENDMDL
MODEL 3
REMARK VINA RESULT:    -5.656      0.881      1.612
REMARK INTER + INTRA:          -9.088
REMARK INTER:                  -8.687
REMARK INTRA:                  -0.401
REMARK UNBOUND:                -0.455
REMARK SMILES CCCCCCCCCCC(=O)[O-]
REMARK SMILES IDX 7 1 8 2 9 3 10 4 11 5 12 6 13 7 6 8 5 9 4 10 3 11 2 12 1 13
REMARK H PARENT
REMARK Flexibility Score: inf
ROOT
ATOM      1  C   UNL     1      93.678 122.783 123.115  1.00  0.00     0.000 C 
ENDROOT
BRANCH   1   2
ATOM      2  C   UNL     1      94.396 123.480 124.282  1.00  0.00     0.000 C 
BRANCH   2   3
ATOM      3  C   UNL     1      95.896 123.699 124.010  1.00  0.00     0.006 C 
BRANCH   3   4
ATOM      4  C   UNL     1      96.732 123.625 125.294  1.00  0.00     0.053 C 
BRANCH   4   5
ATOM      5  C   UNL     1      97.362 124.944 125.624  1.00  0.00     0.041 C 
ATOM      6  O   UNL     1      97.998 125.092 126.701  1.00  0.00    -0.550 OA
ATOM      7  O   UNL     1      97.271 126.002 124.728  1.00  0.00    -0.550 OA
ENDBRANCH   4   5
ENDBRANCH   3   4
ENDBRANCH   2   3
ENDBRANCH   1   2
BRANCH   1   8
ATOM      8  C   UNL     1      94.638 121.966 122.234  1.00  0.00     0.000 C 
BRANCH   8   9
ATOM      9  C   UNL     1      93.931 121.328 121.027  1.00  0.00    -0.000 C 
BRANCH   9  10
ATOM     10  C   UNL     1      94.894 121.029 119.864  1.00  0.00    -0.000 C 
BRANCH  10  11
ATOM     11  C   UNL     1      94.179 120.974 118.505  1.00  0.00    -0.000 C 
BRANCH  11  12
ATOM     12  C   UNL     1      92.836 121.718 118.514  1.00  0.00    -0.003 C 
ATOM     13  C   UNL     1      92.331 121.956 117.094  1.00  0.00     0.004 C 
ENDBRANCH  11  12
ENDBRANCH  10  11
ENDBRANCH   9  10
ENDBRANCH   8   9
ENDBRANCH   1   8
TORSDOF 9
ENDMDL
MODEL 4
REMARK VINA RESULT:    -5.207      2.184      3.922
REMARK INTER + INTRA:          -8.402
REMARK INTER:                  -8.139
REMARK INTRA:                  -0.263
REMARK UNBOUND:                -0.455
REMARK SMILES CCCCCCCCCCC(=O)[O-]
REMARK SMILES IDX 7 1 8 2 9 3 10 4 11 5 12 6 13 7 6 8 5 9 4 10 3 11 2 12 1 13
REMARK H PARENT
REMARK Flexibility Score: inf
ROOT
ATOM      1  C   UNL     1      96.384 124.497 124.301  1.00  0.00     0.000 C 
ENDROOT
BRANCH   1   2
ATOM      2  C   UNL     1      96.906 124.295 125.732  1.00  0.00     0.000 C 
BRANCH   2   3
ATOM      3  C   UNL     1      98.075 125.236 126.076  1.00  0.00     0.006 C 
BRANCH   3   4
ATOM      4  C   UNL     1      97.944 126.598 125.382  1.00  0.00     0.053 C 
BRANCH   4   5
ATOM      5  C   UNL     1      99.176 127.433 125.558  1.00  0.00     0.041 C 
ATOM      6  O   UNL     1      99.202 128.353 126.418  1.00  0.00    -0.550 OA
ATOM      7  O   UNL     1     100.306 127.176 124.792  1.00  0.00    -0.550 OA
ENDBRANCH   4   5
ENDBRANCH   3   4
ENDBRANCH   2   3
ENDBRANCH   1   2
BRANCH   1   8
ATOM      8  C   UNL     1      95.241 123.530 123.947  1.00  0.00     0.000 C 
BRANCH   8   9
ATOM      9  C   UNL     1      95.588 122.622 122.755  1.00  0.00    -0.000 C 
BRANCH   9  10
ATOM     10  C   UNL     1      94.574 121.480 122.566  1.00  0.00    -0.000 C 
BRANCH  10  11
ATOM     11  C   UNL     1      93.939 121.480 121.166  1.00  0.00    -0.000 C 
BRANCH  11  12
ATOM     12  C   UNL     1      94.960 121.202 120.054  1.00  0.00    -0.003 C 
ATOM     13  C   UNL     1      94.275 121.085 118.696  1.00  0.00     0.004 C 
ENDBRANCH  11  12
ENDBRANCH  10  11
ENDBRANCH   9  10
ENDBRANCH   8   9
ENDBRANCH   1   8
TORSDOF 9
ENDMDL
MODEL 5
REMARK VINA RESULT:    -5.136      3.529      7.882
REMARK INTER + INTRA:          -8.293
REMARK INTER:                  -7.953
REMARK INTRA:                  -0.341
REMARK UNBOUND:                -0.455
REMARK SMILES CCCCCCCCCCC(=O)[O-]
REMARK SMILES IDX 7 1 8 2 9 3 10 4 11 5 12 6 13 7 6 8 5 9 4 10 3 11 2 12 1 13
REMARK H PARENT
REMARK Flexibility Score: inf
ROOT
ATOM      1  C   UNL     1      95.710 123.448 123.577  1.00  0.00     0.000 C 
ENDROOT
BRANCH   1   2
ATOM      2  C   UNL     1      94.250 123.218 123.998  1.00  0.00     0.000 C 
BRANCH   2   3
ATOM      3  C   UNL     1      93.453 122.408 122.960  1.00  0.00     0.006 C 
BRANCH   3   4
ATOM      4  C   UNL     1      94.328 121.380 122.233  1.00  0.00     0.053 C 
BRANCH   4   5
ATOM      5  C   UNL     1      94.044 121.349 120.761  1.00  0.00     0.041 C 
ATOM      6  O   UNL     1      94.933 120.976 119.951  1.00  0.00    -0.550 OA
ATOM      7  O   UNL     1      92.787 121.705 120.288  1.00  0.00    -0.550 OA
ENDBRANCH   4   5
ENDBRANCH   3   4
ENDBRANCH   2   3
ENDBRANCH   1   2
BRANCH   1   8
ATOM      8  C   UNL     1      96.385 124.576 124.375  1.00  0.00     0.000 C 
BRANCH   8   9
ATOM      9  C   UNL     1      97.017 124.075 125.684  1.00  0.00    -0.000 C 
BRANCH   9  10
ATOM     10  C   UNL     1      97.618 125.213 126.527  1.00  0.00    -0.000 C 
BRANCH  10  11
ATOM     11  C   UNL     1      98.307 126.284 125.668  1.00  0.00    -0.000 C 
BRANCH  11  12
ATOM     12  C   UNL     1      98.322 127.663 126.343  1.00  0.00    -0.003 C 
ATOM     13  C   UNL     1      99.612 128.415 126.029  1.00  0.00     0.004 C 
ENDBRANCH  11  12
ENDBRANCH  10  11
ENDBRANCH   9  10
ENDBRANCH   8   9
ENDBRANCH   1   8
TORSDOF 9
ENDMDL
MODEL 6
REMARK VINA RESULT:    -5.060      4.012      7.897
REMARK INTER + INTRA:          -8.178
REMARK INTER:                  -7.998
REMARK INTRA:                  -0.180
REMARK UNBOUND:                -0.455
REMARK SMILES CCCCCCCCCCC(=O)[O-]
REMARK SMILES IDX 7 1 8 2 9 3 10 4 11 5 12 6 13 7 6 8 5 9 4 10 3 11 2 12 1 13
REMARK H PARENT
REMARK Flexibility Score: inf
ROOT
ATOM      1  C   UNL     1      95.030 121.722 122.445  1.00  0.00     0.000 C 
ENDROOT
BRANCH   1   2
ATOM      2  C   UNL     1      95.252 121.571 120.931  1.00  0.00     0.000 C 
BRANCH   2   3
ATOM      3  C   UNL     1      93.958 121.218 120.174  1.00  0.00     0.006 C 
BRANCH   3   4
ATOM      4  C   UNL     1      94.225 120.876 118.702  1.00  0.00     0.053 C 
BRANCH   4   5
ATOM      5  C   UNL     1      93.119 121.354 117.811  1.00  0.00     0.041 C 
ATOM      6  O   UNL     1      92.274 122.185 118.237  1.00  0.00    -0.550 OA
ATOM      7  O   UNL     1      93.039 120.903 116.499  1.00  0.00    -0.550 OA
ENDBRANCH   4   5
ENDBRANCH   3   4
ENDBRANCH   2   3
ENDBRANCH   1   2
BRANCH   1   8
ATOM      8  C   UNL     1      96.199 122.437 123.144  1.00  0.00     0.000 C 
BRANCH   8   9
ATOM      9  C   UNL     1      95.770 123.757 123.806  1.00  0.00    -0.000 C 
BRANCH   9  10
ATOM     10  C   UNL     1      96.516 124.030 125.123  1.00  0.00    -0.000 C 
BRANCH  10  11
ATOM     11  C   UNL     1      97.267 125.371 125.109  1.00  0.00    -0.000 C 
BRANCH  11  12
ATOM     12  C   UNL     1      98.305 125.478 126.235  1.00  0.00    -0.003 C 
ATOM     13  C   UNL     1      99.296 126.606 125.963  1.00  0.00     0.004 C 
ENDBRANCH  11  12
ENDBRANCH  10  11
ENDBRANCH   9  10
ENDBRANCH   8   9
ENDBRANCH   1   8
TORSDOF 9
ENDMDL
MODEL 7
REMARK VINA RESULT:    -5.017      2.805      5.133
REMARK INTER + INTRA:          -8.112
REMARK INTER:                  -7.727
REMARK INTRA:                  -0.385
REMARK UNBOUND:                -0.455
REMARK SMILES CCCCCCCCCCC(=O)[O-]
REMARK SMILES IDX 7 1 8 2 9 3 10 4 11 5 12 6 13 7 6 8 5 9 4 10 3 11 2 12 1 13
REMARK H PARENT
REMARK Flexibility Score: inf
ROOT
ATOM      1  C   UNL     1      97.082 124.143 125.775  1.00  0.00     0.000 C 
ENDROOT
BRANCH   1   2
ATOM      2  C   UNL     1      97.919 125.280 126.382  1.00  0.00     0.000 C 
BRANCH   2   3
ATOM      3  C   UNL     1      98.002 126.512 125.464  1.00  0.00     0.006 C 
BRANCH   3   4
ATOM      4  C   UNL     1      98.466 127.765 126.218  1.00  0.00     0.053 C 
BRANCH   4   5
ATOM      5  C   UNL     1      99.797 128.250 125.728  1.00  0.00     0.041 C 
ATOM      6  O   UNL     1     100.436 127.587 124.868  1.00  0.00    -0.550 OA
ATOM      7  O   UNL     1     100.317 129.448 126.200  1.00  0.00    -0.550 OA
ENDBRANCH   4   5
ENDBRANCH   3   4
ENDBRANCH   2   3
ENDBRANCH   1   2
BRANCH   1   8
ATOM      8  C   UNL     1      96.378 124.559 124.472  1.00  0.00     0.000 C 
BRANCH   8   9
ATOM      9  C   UNL     1      95.423 123.474 123.946  1.00  0.00    -0.000 C 
BRANCH   9  10
ATOM     10  C   UNL     1      96.115 122.489 122.987  1.00  0.00    -0.000 C 
BRANCH  10  11
ATOM     11  C   UNL     1      95.118 121.564 122.272  1.00  0.00    -0.000 C 
BRANCH  11  12
ATOM     12  C   UNL     1      93.680 122.102 122.312  1.00  0.00    -0.003 C 
ATOM     13  C   UNL     1      92.940 121.789 121.015  1.00  0.00     0.004 C 
ENDBRANCH  11  12
ENDBRANCH  10  11
ENDBRANCH   9  10
ENDBRANCH   8   9
ENDBRANCH   1   8
TORSDOF 9
ENDMDL
MODEL 8
REMARK VINA RESULT:    -4.984      3.545      7.858
REMARK INTER + INTRA:          -8.062
REMARK INTER:                  -7.665
REMARK INTRA:                  -0.397
REMARK UNBOUND:                -0.455
REMARK SMILES CCCCCCCCCCC(=O)[O-]
REMARK SMILES IDX 7 1 8 2 9 3 10 4 11 5 12 6 13 7 6 8 5 9 4 10 3 11 2 12 1 13
REMARK H PARENT
REMARK Flexibility Score: inf
ROOT
ATOM      1  C   UNL     1      95.607 123.869 123.989  1.00  0.00     0.000 C 
ENDROOT
BRANCH   1   2
ATOM      2  C   UNL     1      96.330 122.577 123.579  1.00  0.00     0.000 C 
BRANCH   2   3
ATOM      3  C   UNL     1      95.902 122.072 122.189  1.00  0.00     0.006 C 
BRANCH   3   4
ATOM      4  C   UNL     1      94.449 121.580 122.175  1.00  0.00     0.053 C 
BRANCH   4   5
ATOM      5  C   UNL     1      93.934 121.406 120.778  1.00  0.00     0.041 C 
ATOM      6  O   UNL     1      92.724 121.637 120.515  1.00  0.00    -0.550 OA
ATOM      7  O   UNL     1      94.797 121.017 119.762  1.00  0.00    -0.550 OA
ENDBRANCH   4   5
ENDBRANCH   3   4
ENDBRANCH   2   3
ENDBRANCH   1   2
BRANCH   1   8
ATOM      8  C   UNL     1      96.571 124.943 124.522  1.00  0.00     0.000 C 
BRANCH   8   9
ATOM      9  C   UNL     1      97.264 124.517 125.827  1.00  0.00    -0.000 C 
BRANCH   9  10
ATOM     10  C   UNL     1      98.333 125.523 126.288  1.00  0.00    -0.000 C 
BRANCH  10  11
ATOM     11  C   UNL     1      98.026 126.959 125.834  1.00  0.00    -0.000 C 
BRANCH  11  12
ATOM     12  C   UNL     1      99.283 127.838 125.768  1.00  0.00    -0.003 C 
ATOM     13  C   UNL     1     100.453 127.079 125.147  1.00  0.00     0.004 C 
ENDBRANCH  11  12
ENDBRANCH  10  11
ENDBRANCH   9  10
ENDBRANCH   8   9
ENDBRANCH   1   8
TORSDOF 9
ENDMDL
MODEL 9
REMARK VINA RESULT:    -4.960      1.741      2.914
REMARK INTER + INTRA:          -8.025
REMARK INTER:                  -7.735
REMARK INTRA:                  -0.289
REMARK UNBOUND:                -0.455
REMARK SMILES CCCCCCCCCCC(=O)[O-]
REMARK SMILES IDX 7 1 8 2 9 3 10 4 11 5 12 6 13 7 6 8 5 9 4 10 3 11 2 12 1 13
REMARK H PARENT
REMARK Flexibility Score: inf
ROOT
ATOM      1  C   UNL     1      95.037 123.569 123.776  1.00  0.00     0.000 C 
ENDROOT
BRANCH   1   2
ATOM      2  C   UNL     1      96.146 124.477 124.334  1.00  0.00     0.000 C 
BRANCH   2   3
ATOM      3  C   UNL     1      96.982 123.789 125.428  1.00  0.00     0.006 C 
BRANCH   3   4
ATOM      4  C   UNL     1      97.899 124.777 126.162  1.00  0.00     0.053 C 
BRANCH   4   5
ATOM      5  C   UNL     1      98.342 124.243 127.490  1.00  0.00     0.041 C 
ATOM      6  O   UNL     1      99.299 123.427 127.559  1.00  0.00    -0.550 OA
ATOM      7  O   UNL     1      97.715 124.669 128.655  1.00  0.00    -0.550 OA
ENDBRANCH   4   5
ENDBRANCH   3   4
ENDBRANCH   2   3
ENDBRANCH   1   2
BRANCH   1   8
ATOM      8  C   UNL     1      95.584 122.472 122.847  1.00  0.00     0.000 C 
BRANCH   8   9
ATOM      9  C   UNL     1      94.515 121.433 122.471  1.00  0.00    -0.000 C 
BRANCH   9  10
ATOM     10  C   UNL     1      93.933 121.663 121.065  1.00  0.00    -0.000 C 
BRANCH  10  11
ATOM     11  C   UNL     1      94.853 121.137 119.952  1.00  0.00    -0.000 C 
BRANCH  11  12
ATOM     12  C   UNL     1      94.161 121.102 118.581  1.00  0.00    -0.003 C 
ATOM     13  C   UNL     1      92.786 121.760 118.643  1.00  0.00     0.004 C 
ENDBRANCH  11  12
ENDBRANCH  10  11
ENDBRANCH   9  10
ENDBRANCH   8   9
ENDBRANCH   1   8
TORSDOF 9
ENDMDL
