MODEL 1
REMARK VINA RESULT:    -5.156      0.000      0.000
REMARK INTER + INTRA:         -11.751
REMARK INTER:                  -9.676
REMARK INTRA:                  -2.075
REMARK UNBOUND:                -2.075
REMARK SMILES CCCCCCCCC=CCCCCCCCC(=O)[O-]
REMARK SMILES IDX 10 1 9 2 11 3 12 4 13 5 14 6 15 7 16 8 17 9 18 10 19 11
REMARK SMILES IDX 20 12 8 13 7 14 6 15 5 16 4 17 3 18 2 19 1 20
REMARK H PARENT
REMARK Flexibility Score: inf
ROOT
ATOM      1  C   UNL     1      23.847   6.977  13.477  1.00  0.00    -0.031 C 
ATOM      2  C   UNL     1      22.842   7.738  13.001  1.00  0.00    -0.031 C 
ENDROOT
BRANCH   1   3
ATOM      3  C   UNL     1      24.119   5.542  13.091  1.00  0.00     0.027 C 
BRANCH   3   4
ATOM      4  C   UNL     1      25.571   5.335  12.626  1.00  0.00     0.004 C 
BRANCH   4   5
ATOM      5  C   UNL     1      26.086   6.382  11.617  1.00  0.00     0.000 C 
BRANCH   5   6
ATOM      6  C   UNL     1      25.318   6.436  10.281  1.00  0.00     0.000 C 
BRANCH   6   7
ATOM      7  C   UNL     1      24.804   7.834   9.880  1.00  0.00     0.000 C 
BRANCH   7   8
ATOM      8  C   UNL     1      25.500   9.010  10.589  1.00  0.00     0.006 C 
BRANCH   8   9
ATOM      9  C   UNL     1      24.515  10.092  11.052  1.00  0.00     0.053 C 
BRANCH   9  10
ATOM     10  C   UNL     1      25.102  10.889  12.173  1.00  0.00     0.041 C 
ATOM     11  O   UNL     1      24.914  10.535  13.367  1.00  0.00    -0.550 OA
ATOM     12  O   UNL     1      25.825  12.045  11.904  1.00  0.00    -0.550 OA
ENDBRANCH   9  10
ENDBRANCH   8   9
ENDBRANCH   7   8
ENDBRANCH   6   7
ENDBRANCH   5   6
ENDBRANCH   4   5
ENDBRANCH   3   4
ENDBRANCH   1   3
BRANCH   2  13
ATOM     13  C   UNL     1      21.794   7.282  12.017  1.00  0.00     0.027 C 
BRANCH  13  14
ATOM     14  C   UNL     1      20.902   8.448  11.565  1.00  0.00     0.004 C 
BRANCH  14  15
ATOM     15  C   UNL     1      19.535   7.974  11.047  1.00  0.00     0.000 C 
BRANCH  15  16
ATOM     16  C   UNL     1      19.397   6.441  11.063  1.00  0.00     0.000 C 
BRANCH  16  17
ATOM     17  C   UNL     1      19.299   5.846   9.648  1.00  0.00    -0.000 C 
BRANCH  17  18
ATOM     18  C   UNL     1      20.066   6.677   8.605  1.00  0.00    -0.000 C 
BRANCH  18  19
ATOM     19  C   UNL     1      19.169   7.134   7.443  1.00  0.00    -0.003 C 
ATOM     20  C   UNL     1      19.605   8.476   6.855  1.00  0.00     0.004 C 
ENDBRANCH  18  19
ENDBRANCH  17  18
ENDBRANCH  16  17
ENDBRANCH  15  16
ENDBRANCH  14  15
ENDBRANCH  13  14
ENDBRANCH   2  13
TORSDOF 15
ENDMDL
MODEL 2
REMARK VINA RESULT:    -5.097      2.811      4.314
REMARK INTER + INTRA:         -11.641
REMARK INTER:                  -9.650
REMARK INTRA:                  -1.991
REMARK UNBOUND:                -2.075
REMARK SMILES CCCCCCCCC=CCCCCCCCC(=O)[O-]
REMARK SMILES IDX 10 1 9 2 11 3 12 4 13 5 14 6 15 7 16 8 17 9 18 10 19 11
REMARK SMILES IDX 20 12 8 13 7 14 6 15 5 16 4 17 3 18 2 19 1 20
REMARK H PARENT
REMARK Flexibility Score: inf
ROOT
ATOM      1  C   UNL     1      22.773   9.235   9.499  1.00  0.00    -0.031 C 
ATOM      2  C   UNL     1      21.634   9.185  10.217  1.00  0.00    -0.031 C 
ENDROOT
BRANCH   1   3
ATOM      3  C   UNL     1      24.134   8.791   9.981  1.00  0.00     0.027 C 
BRANCH   3   4
ATOM      4  C   UNL     1      24.343   7.276   9.804  1.00  0.00     0.004 C 
BRANCH   4   5
ATOM      5  C   UNL     1      25.350   6.641  10.784  1.00  0.00     0.000 C 
BRANCH   5   6
ATOM      6  C   UNL     1      25.259   7.149  12.237  1.00  0.00     0.000 C 
BRANCH   6   7
ATOM      7  C   UNL     1      24.108   6.547  13.068  1.00  0.00     0.000 C 
BRANCH   7   8
ATOM      8  C   UNL     1      24.533   5.465  14.077  1.00  0.00     0.006 C 
BRANCH   8   9
ATOM      9  C   UNL     1      23.870   4.107  13.808  1.00  0.00     0.053 C 
BRANCH   9  10
ATOM     10  C   UNL     1      24.898   3.086  13.437  1.00  0.00     0.041 C 
ATOM     11  O   UNL     1      24.977   2.006  14.078  1.00  0.00    -0.550 OA
ATOM     12  O   UNL     1      25.795   3.343  12.407  1.00  0.00    -0.550 OA
ENDBRANCH   9  10
ENDBRANCH   8   9
ENDBRANCH   7   8
ENDBRANCH   6   7
ENDBRANCH   5   6
ENDBRANCH   4   5
ENDBRANCH   3   4
ENDBRANCH   1   3
BRANCH   2  13
ATOM     13  C   UNL     1      21.521   8.699  11.640  1.00  0.00     0.027 C 
BRANCH  13  14
ATOM     14  C   UNL     1      21.020   7.249  11.702  1.00  0.00     0.004 C 
BRANCH  14  15
ATOM     15  C   UNL     1      19.564   7.111  11.229  1.00  0.00     0.000 C 
BRANCH  15  16
ATOM     16  C   UNL     1      19.267   5.725  10.630  1.00  0.00     0.000 C 
BRANCH  16  17
ATOM     17  C   UNL     1      18.942   5.791   9.128  1.00  0.00    -0.000 C 
BRANCH  17  18
ATOM     18  C   UNL     1      19.909   6.706   8.356  1.00  0.00    -0.000 C 
BRANCH  18  19
ATOM     19  C   UNL     1      19.194   7.550   7.290  1.00  0.00    -0.003 C 
ATOM     20  C   UNL     1      20.069   8.680   6.747  1.00  0.00     0.004 C 
ENDBRANCH  18  19
ENDBRANCH  17  18
ENDBRANCH  16  17
ENDBRANCH  15  16
ENDBRANCH  14  15
ENDBRANCH  13  14
ENDBRANCH   2  13
TORSDOF 15
ENDMDL
MODEL 3
REMARK VINA RESULT:    -5.030      2.804      6.003
REMARK INTER + INTRA:         -11.516
REMARK INTER:                  -9.315
REMARK INTRA:                  -2.201
REMARK UNBOUND:                -2.075
REMARK SMILES CCCCCCCCC=CCCCCCCCC(=O)[O-]
REMARK SMILES IDX 10 1 9 2 11 3 12 4 13 5 14 6 15 7 16 8 17 9 18 10 19 11
REMARK SMILES IDX 20 12 8 13 7 14 6 15 5 16 4 17 3 18 2 19 1 20
REMARK H PARENT
REMARK Flexibility Score: inf
ROOT
ATOM      1  C   UNL     1      22.868   7.699  12.999  1.00  0.00    -0.031 C 
ATOM      2  C   UNL     1      23.837   6.911  13.505  1.00  0.00    -0.031 C 
ENDROOT
BRANCH   1   3
ATOM      3  C   UNL     1      21.756   7.244  12.084  1.00  0.00     0.027 C 
BRANCH   3   4
ATOM      4  C   UNL     1      20.762   8.378  11.776  1.00  0.00     0.004 C 
BRANCH   4   5
ATOM      5  C   UNL     1      19.417   7.919  11.176  1.00  0.00     0.000 C 
BRANCH   5   6
ATOM      6  C   UNL     1      19.205   6.392  11.138  1.00  0.00     0.000 C 
BRANCH   6   7
ATOM      7  C   UNL     1      19.336   5.751   9.742  1.00  0.00     0.000 C 
BRANCH   7   8
ATOM      8  C   UNL     1      20.147   6.571   8.723  1.00  0.00     0.006 C 
BRANCH   8   9
ATOM      9  C   UNL     1      19.375   6.841   7.425  1.00  0.00     0.053 C 
BRANCH   9  10
ATOM     10  C   UNL     1      19.549   8.264   6.998  1.00  0.00     0.041 C 
ATOM     11  O   UNL     1      20.703   8.730   6.805  1.00  0.00    -0.550 OA
ATOM     12  O   UNL     1      18.439   9.087   6.850  1.00  0.00    -0.550 OA
ENDBRANCH   9  10
ENDBRANCH   8   9
ENDBRANCH   7   8
ENDBRANCH   6   7
ENDBRANCH   5   6
ENDBRANCH   4   5
ENDBRANCH   3   4
ENDBRANCH   1   3
BRANCH   2  13
ATOM     13  C   UNL     1      23.995   5.437  13.227  1.00  0.00     0.027 C 
BRANCH  13  14
ATOM     14  C   UNL     1      25.330   5.136  12.530  1.00  0.00     0.004 C 
BRANCH  14  15
ATOM     15  C   UNL     1      25.879   6.350  11.764  1.00  0.00     0.000 C 
BRANCH  15  16
ATOM     16  C   UNL     1      25.633   6.250  10.248  1.00  0.00     0.000 C 
BRANCH  16  17
ATOM     17  C   UNL     1      24.845   7.452   9.701  1.00  0.00    -0.000 C 
BRANCH  17  18
ATOM     18  C   UNL     1      25.194   8.764  10.424  1.00  0.00    -0.000 C 
BRANCH  18  19
ATOM     19  C   UNL     1      24.036   9.775  10.400  1.00  0.00    -0.003 C 
ATOM     20  C   UNL     1      22.999   9.456   9.323  1.00  0.00     0.004 C 
ENDBRANCH  18  19
ENDBRANCH  17  18
ENDBRANCH  16  17
ENDBRANCH  15  16
ENDBRANCH  14  15
ENDBRANCH  13  14
ENDBRANCH   2  13
TORSDOF 15
ENDMDL
MODEL 4
REMARK VINA RESULT:    -4.991      2.920      6.464
REMARK INTER + INTRA:         -11.443
REMARK INTER:                  -9.120
REMARK INTRA:                  -2.324
REMARK UNBOUND:                -2.075
REMARK SMILES CCCCCCCCC=CCCCCCCCC(=O)[O-]
REMARK SMILES IDX 10 1 9 2 11 3 12 4 13 5 14 6 15 7 16 8 17 9 18 10 19 11
REMARK SMILES IDX 20 12 8 13 7 14 6 15 5 16 4 17 3 18 2 19 1 20
REMARK H PARENT
REMARK Flexibility Score: inf
ROOT
ATOM      1  C   UNL     1      22.838   8.308   9.940  1.00  0.00    -0.031 C 
ATOM      2  C   UNL     1      24.128   8.659  10.111  1.00  0.00    -0.031 C 
ENDROOT
BRANCH   1   3
ATOM      3  C   UNL     1      21.643   9.117  10.386  1.00  0.00     0.027 C 
BRANCH   3   4
ATOM      4  C   UNL     1      20.871   8.427  11.525  1.00  0.00     0.004 C 
BRANCH   4   5
ATOM      5  C   UNL     1      19.487   7.873  11.129  1.00  0.00     0.000 C 
BRANCH   5   6
ATOM      6  C   UNL     1      19.363   6.337  11.164  1.00  0.00     0.000 C 
BRANCH   6   7
ATOM      7  C   UNL     1      19.445   5.645   9.788  1.00  0.00     0.000 C 
BRANCH   7   8
ATOM      8  C   UNL     1      18.994   6.511   8.598  1.00  0.00     0.006 C 
BRANCH   8   9
ATOM      9  C   UNL     1      20.170   7.026   7.758  1.00  0.00     0.053 C 
BRANCH   9  10
ATOM     10  C   UNL     1      19.790   8.281   7.038  1.00  0.00     0.041 C 
ATOM     11  O   UNL     1      18.577   8.552   6.838  1.00  0.00    -0.550 OA
ATOM     12  O   UNL     1      20.776   9.134   6.555  1.00  0.00    -0.550 OA
ENDBRANCH   9  10
ENDBRANCH   8   9
ENDBRANCH   7   8
ENDBRANCH   6   7
ENDBRANCH   5   6
ENDBRANCH   4   5
ENDBRANCH   3   4
ENDBRANCH   1   3
BRANCH   2  13
ATOM     13  C   UNL     1      24.606   9.913  10.801  1.00  0.00     0.027 C 
BRANCH  13  14
ATOM     14  C   UNL     1      25.285   9.593  12.141  1.00  0.00     0.004 C 
BRANCH  14  15
ATOM     15  C   UNL     1      24.470  10.091  13.345  1.00  0.00     0.000 C 
BRANCH  15  16
ATOM     16  C   UNL     1      23.526   9.012  13.905  1.00  0.00     0.000 C 
BRANCH  16  17
ATOM     17  C   UNL     1      24.220   7.649  14.064  1.00  0.00    -0.000 C 
BRANCH  17  18
ATOM     18  C   UNL     1      23.520   6.535  13.267  1.00  0.00    -0.000 C 
BRANCH  18  19
ATOM     19  C   UNL     1      24.409   5.295  13.085  1.00  0.00    -0.003 C 
ATOM     20  C   UNL     1      23.862   4.065  13.810  1.00  0.00     0.004 C 
ENDBRANCH  18  19
ENDBRANCH  17  18
ENDBRANCH  16  17
ENDBRANCH  15  16
ENDBRANCH  14  15
ENDBRANCH  13  14
ENDBRANCH   2  13
TORSDOF 15
ENDMDL
MODEL 5
REMARK VINA RESULT:    -4.956      2.979      6.573
REMARK INTER + INTRA:         -11.377
REMARK INTER:                  -9.229
REMARK INTRA:                  -2.148
REMARK UNBOUND:                -2.075
REMARK SMILES CCCCCCCCC=CCCCCCCCC(=O)[O-]
REMARK SMILES IDX 10 1 9 2 11 3 12 4 13 5 14 6 15 7 16 8 17 9 18 10 19 11
REMARK SMILES IDX 20 12 8 13 7 14 6 15 5 16 4 17 3 18 2 19 1 20
REMARK H PARENT
REMARK Flexibility Score: inf
ROOT
ATOM      1  C   UNL     1      22.382   9.188  10.065  1.00  0.00    -0.031 C 
ATOM      2  C   UNL     1      23.602   9.111   9.498  1.00  0.00    -0.031 C 
ENDROOT
BRANCH   1   3
ATOM      3  C   UNL     1      22.036   8.744  11.467  1.00  0.00     0.027 C 
BRANCH   3   4
ATOM      4  C   UNL     1      21.250   7.420  11.475  1.00  0.00     0.004 C 
BRANCH   4   5
ATOM      5  C   UNL     1      19.718   7.575  11.397  1.00  0.00     0.000 C 
BRANCH   5   6
ATOM      6  C   UNL     1      18.947   6.284  11.055  1.00  0.00     0.000 C 
BRANCH   6   7
ATOM      7  C   UNL     1      19.340   5.624   9.719  1.00  0.00     0.000 C 
BRANCH   7   8
ATOM      8  C   UNL     1      19.035   6.462   8.465  1.00  0.00     0.006 C 
BRANCH   8   9
ATOM      9  C   UNL     1      20.272   7.182   7.914  1.00  0.00     0.053 C 
BRANCH   9  10
ATOM     10  C   UNL     1      19.867   8.312   7.021  1.00  0.00     0.041 C 
ATOM     11  O   UNL     1      20.744   9.021   6.461  1.00  0.00    -0.550 OA
ATOM     12  O   UNL     1      18.521   8.607   6.837  1.00  0.00    -0.550 OA
ENDBRANCH   9  10
ENDBRANCH   8   9
ENDBRANCH   7   8
ENDBRANCH   6   7
ENDBRANCH   5   6
ENDBRANCH   4   5
ENDBRANCH   3   4
ENDBRANCH   1   3
BRANCH   2  13
ATOM     13  C   UNL     1      24.835   8.545  10.157  1.00  0.00     0.027 C 
BRANCH  13  14
ATOM     14  C   UNL     1      24.983   7.042   9.875  1.00  0.00     0.004 C 
BRANCH  14  15
ATOM     15  C   UNL     1      25.262   6.231  11.151  1.00  0.00     0.000 C 
BRANCH  15  16
ATOM     16  C   UNL     1      25.385   7.119  12.401  1.00  0.00     0.000 C 
BRANCH  16  17
ATOM     17  C   UNL     1      24.522   6.613  13.568  1.00  0.00    -0.000 C 
BRANCH  17  18
ATOM     18  C   UNL     1      23.630   5.424  13.169  1.00  0.00    -0.000 C 
BRANCH  18  19
ATOM     19  C   UNL     1      23.849   4.197  14.068  1.00  0.00    -0.003 C 
ATOM     20  C   UNL     1      24.971   3.289  13.564  1.00  0.00     0.004 C 
ENDBRANCH  18  19
ENDBRANCH  17  18
ENDBRANCH  16  17
ENDBRANCH  15  16
ENDBRANCH  14  15
ENDBRANCH  13  14
ENDBRANCH   2  13
TORSDOF 15
ENDMDL
MODEL 6
REMARK VINA RESULT:    -4.858      1.149      2.408
REMARK INTER + INTRA:         -11.193
REMARK INTER:                  -8.742
REMARK INTRA:                  -2.450
REMARK UNBOUND:                -2.075
REMARK SMILES CCCCCCCCC=CCCCCCCCC(=O)[O-]
REMARK SMILES IDX 10 1 9 2 11 3 12 4 13 5 14 6 15 7 16 8 17 9 18 10 19 11
REMARK SMILES IDX 20 12 8 13 7 14 6 15 5 16 4 17 3 18 2 19 1 20
REMARK H PARENT
REMARK Flexibility Score: inf
ROOT
ATOM      1  C   UNL     1      22.919   8.962   9.988  1.00  0.00    -0.031 C 
ATOM      2  C   UNL     1      21.767   9.124  10.667  1.00  0.00    -0.031 C 
ENDROOT
BRANCH   1   3
ATOM      3  C   UNL     1      23.717   7.681   9.907  1.00  0.00     0.027 C 
BRANCH   3   4
ATOM      4  C   UNL     1      25.193   7.895  10.286  1.00  0.00     0.004 C 
BRANCH   4   5
ATOM      5  C   UNL     1      25.657   7.133  11.544  1.00  0.00     0.000 C 
BRANCH   5   6
ATOM      6  C   UNL     1      24.612   6.178  12.154  1.00  0.00     0.000 C 
BRANCH   6   7
ATOM      7  C   UNL     1      23.871   6.726  13.390  1.00  0.00     0.000 C 
BRANCH   7   8
ATOM      8  C   UNL     1      24.526   7.952  14.050  1.00  0.00     0.006 C 
BRANCH   8   9
ATOM      9  C   UNL     1      23.688   9.228  13.899  1.00  0.00     0.053 C 
BRANCH   9  10
ATOM     10  C   UNL     1      24.568  10.399  13.590  1.00  0.00     0.041 C 
ATOM     11  O   UNL     1      24.824  10.699  12.395  1.00  0.00    -0.550 OA
ATOM     12  O   UNL     1      25.135  11.136  14.623  1.00  0.00    -0.550 OA
ENDBRANCH   9  10
ENDBRANCH   8   9
ENDBRANCH   7   8
ENDBRANCH   6   7
ENDBRANCH   5   6
ENDBRANCH   4   5
ENDBRANCH   3   4
ENDBRANCH   1   3
BRANCH   2  13
ATOM     13  C   UNL     1      21.081   8.060  11.488  1.00  0.00     0.027 C 
BRANCH  13  14
ATOM     14  C   UNL     1      19.553   8.170  11.387  1.00  0.00     0.004 C 
BRANCH  14  15
ATOM     15  C   UNL     1      18.865   6.795  11.379  1.00  0.00     0.000 C 
BRANCH  15  16
ATOM     16  C   UNL     1      19.612   5.766  10.514  1.00  0.00     0.000 C 
BRANCH  16  17
ATOM     17  C   UNL     1      19.221   5.852   9.029  1.00  0.00    -0.000 C 
BRANCH  17  18
ATOM     18  C   UNL     1      20.154   6.776   8.227  1.00  0.00    -0.000 C 
BRANCH  18  19
ATOM     19  C   UNL     1      19.541   8.164   7.984  1.00  0.00    -0.003 C 
ATOM     20  C   UNL     1      19.208   8.412   6.513  1.00  0.00     0.004 C 
ENDBRANCH  18  19
ENDBRANCH  17  18
ENDBRANCH  16  17
ENDBRANCH  15  16
ENDBRANCH  14  15
ENDBRANCH  13  14
ENDBRANCH   2  13
TORSDOF 15
ENDMDL
MODEL 7
REMARK VINA RESULT:    -4.768      2.477      4.196
REMARK INTER + INTRA:         -11.024
REMARK INTER:                  -8.334
REMARK INTRA:                  -2.690
REMARK UNBOUND:                -2.075
REMARK SMILES CCCCCCCCC=CCCCCCCCC(=O)[O-]
REMARK SMILES IDX 10 1 9 2 11 3 12 4 13 5 14 6 15 7 16 8 17 9 18 10 19 11
REMARK SMILES IDX 20 12 8 13 7 14 6 15 5 16 4 17 3 18 2 19 1 20
REMARK H PARENT
REMARK Flexibility Score: inf
ROOT
ATOM      1  C   UNL     1      25.100   7.910  10.548  1.00  0.00    -0.031 C 
ATOM      2  C   UNL     1      23.859   7.859  10.026  1.00  0.00    -0.031 C 
ENDROOT
BRANCH   1   3
ATOM      3  C   UNL     1      25.982   9.136  10.598  1.00  0.00     0.027 C 
BRANCH   3   4
ATOM      4  C   UNL     1      25.505  10.146  11.657  1.00  0.00     0.004 C 
BRANCH   4   5
ATOM      5  C   UNL     1      25.482   9.608  13.103  1.00  0.00     0.000 C 
BRANCH   5   6
ATOM      6  C   UNL     1      24.118   9.706  13.815  1.00  0.00     0.000 C 
BRANCH   6   7
ATOM      7  C   UNL     1      23.528   8.360  14.282  1.00  0.00     0.000 C 
BRANCH   7   8
ATOM      8  C   UNL     1      24.381   7.125  13.944  1.00  0.00     0.006 C 
BRANCH   8   9
ATOM      9  C   UNL     1      23.582   6.028  13.227  1.00  0.00     0.053 C 
BRANCH   9  10
ATOM     10  C   UNL     1      24.182   4.684  13.494  1.00  0.00     0.041 C 
ATOM     11  O   UNL     1      25.177   4.292  12.830  1.00  0.00    -0.550 OA
ATOM     12  O   UNL     1      23.618   3.847  14.450  1.00  0.00    -0.550 OA
ENDBRANCH   9  10
ENDBRANCH   8   9
ENDBRANCH   7   8
ENDBRANCH   6   7
ENDBRANCH   5   6
ENDBRANCH   4   5
ENDBRANCH   3   4
ENDBRANCH   1   3
BRANCH   2  13
ATOM     13  C   UNL     1      23.139   9.014   9.376  1.00  0.00     0.027 C 
BRANCH  13  14
ATOM     14  C   UNL     1      21.982   9.520  10.251  1.00  0.00     0.004 C 
BRANCH  14  15
ATOM     15  C   UNL     1      21.559   8.494  11.315  1.00  0.00     0.000 C 
BRANCH  15  16
ATOM     16  C   UNL     1      20.107   8.019  11.131  1.00  0.00     0.000 C 
BRANCH  16  17
ATOM     17  C   UNL     1      20.024   6.554  10.670  1.00  0.00    -0.000 C 
BRANCH  17  18
ATOM     18  C   UNL     1      19.346   6.406   9.297  1.00  0.00    -0.000 C 
BRANCH  18  19
ATOM     19  C   UNL     1      20.180   7.019   8.161  1.00  0.00    -0.003 C 
ATOM     20  C   UNL     1      19.379   7.999   7.304  1.00  0.00     0.004 C 
ENDBRANCH  18  19
ENDBRANCH  17  18
ENDBRANCH  16  17
ENDBRANCH  15  16
ENDBRANCH  14  15
ENDBRANCH  13  14
ENDBRANCH   2  13
TORSDOF 15
ENDMDL
MODEL 8
REMARK VINA RESULT:    -4.690      1.791      5.549
REMARK INTER + INTRA:         -10.878
REMARK INTER:                  -9.072
REMARK INTRA:                  -1.806
REMARK UNBOUND:                -2.075
REMARK SMILES CCCCCCCCC=CCCCCCCCC(=O)[O-]
REMARK SMILES IDX 10 1 9 2 11 3 12 4 13 5 14 6 15 7 16 8 17 9 18 10 19 11
REMARK SMILES IDX 20 12 8 13 7 14 6 15 5 16 4 17 3 18 2 19 1 20
REMARK H PARENT
REMARK Flexibility Score: inf
ROOT
ATOM      1  C   UNL     1      19.220   7.583  11.286  1.00  0.00    -0.031 C 
ATOM      2  C   UNL     1      20.342   8.182  11.730  1.00  0.00    -0.031 C 
ENDROOT
BRANCH   1   3
ATOM      3  C   UNL     1      19.041   6.096  11.083  1.00  0.00     0.027 C 
BRANCH   3   4
ATOM      4  C   UNL     1      19.028   5.715   9.592  1.00  0.00     0.004 C 
BRANCH   4   5
ATOM      5  C   UNL     1      20.109   6.406   8.736  1.00  0.00     0.000 C 
BRANCH   5   6
ATOM      6  C   UNL     1      19.643   7.672   7.991  1.00  0.00     0.000 C 
BRANCH   6   7
ATOM      7  C   UNL     1      20.699   8.789   7.880  1.00  0.00     0.000 C 
BRANCH   7   8
ATOM      8  C   UNL     1      21.993   8.541   8.676  1.00  0.00     0.006 C 
BRANCH   8   9
ATOM      9  C   UNL     1      22.533   9.812   9.346  1.00  0.00     0.053 C 
BRANCH   9  10
ATOM     10  C   UNL     1      23.839   9.534  10.021  1.00  0.00     0.041 C 
ATOM     11  O   UNL     1      24.239  10.277  10.955  1.00  0.00    -0.550 OA
ATOM     12  O   UNL     1      24.633   8.476   9.595  1.00  0.00    -0.550 OA
ENDBRANCH   9  10
ENDBRANCH   8   9
ENDBRANCH   7   8
ENDBRANCH   6   7
ENDBRANCH   5   6
ENDBRANCH   4   5
ENDBRANCH   3   4
ENDBRANCH   1   3
BRANCH   2  13
ATOM     13  C   UNL     1      21.628   7.474  12.080  1.00  0.00     0.027 C 
BRANCH  13  14
ATOM     14  C   UNL     1      22.407   8.229  13.168  1.00  0.00     0.004 C 
BRANCH  14  15
ATOM     15  C   UNL     1      23.853   7.727  13.310  1.00  0.00     0.000 C 
BRANCH  15  16
ATOM     16  C   UNL     1      24.130   6.478  12.456  1.00  0.00     0.000 C 
BRANCH  16  17
ATOM     17  C   UNL     1      24.844   5.371  13.249  1.00  0.00    -0.000 C 
BRANCH  17  18
ATOM     18  C   UNL     1      23.867   4.321  13.806  1.00  0.00    -0.000 C 
BRANCH  18  19
ATOM     19  C   UNL     1      24.420   2.891  13.704  1.00  0.00    -0.003 C 
ATOM     20  C   UNL     1      25.790   2.836  13.028  1.00  0.00     0.004 C 
ENDBRANCH  18  19
ENDBRANCH  17  18
ENDBRANCH  16  17
ENDBRANCH  15  16
ENDBRANCH  14  15
ENDBRANCH  13  14
ENDBRANCH   2  13
TORSDOF 15
ENDMDL
MODEL 9
REMARK VINA RESULT:    -4.590      2.849      6.420
REMARK INTER + INTRA:         -10.689
REMARK INTER:                  -7.749
REMARK INTRA:                  -2.940
REMARK UNBOUND:                -2.075
REMARK SMILES CCCCCCCCC=CCCCCCCCC(=O)[O-]
REMARK SMILES IDX 10 1 9 2 11 3 12 4 13 5 14 6 15 7 16 8 17 9 18 10 19 11
REMARK SMILES IDX 20 12 8 13 7 14 6 15 5 16 4 17 3 18 2 19 1 20
REMARK H PARENT
REMARK Flexibility Score: inf
ROOT
ATOM      1  C   UNL     1      24.509   8.551   9.899  1.00  0.00    -0.031 C 
ATOM      2  C   UNL     1      25.526   7.734  10.235  1.00  0.00    -0.031 C 
ENDROOT
BRANCH   1   3
ATOM      3  C   UNL     1      23.049   8.163   9.857  1.00  0.00     0.027 C 
BRANCH   3   4
ATOM      4  C   UNL     1      22.176   9.107  10.703  1.00  0.00     0.004 C 
BRANCH   4   5
ATOM      5  C   UNL     1      21.129   8.402  11.590  1.00  0.00     0.000 C 
BRANCH   5   6
ATOM      6  C   UNL     1      20.957   6.893  11.326  1.00  0.00     0.000 C 
BRANCH   6   7
ATOM      7  C   UNL     1      19.499   6.425  11.146  1.00  0.00     0.000 C 
BRANCH   7   8
ATOM      8  C   UNL     1      19.132   5.976   9.720  1.00  0.00     0.006 C 
BRANCH   8   9
ATOM      9  C   UNL     1      20.133   6.465   8.665  1.00  0.00     0.053 C 
BRANCH   9  10
ATOM     10  C   UNL     1      19.633   7.712   8.007  1.00  0.00     0.041 C 
ATOM     11  O   UNL     1      19.340   8.720   8.701  1.00  0.00    -0.550 OA
ATOM     12  O   UNL     1      19.455   7.749   6.629  1.00  0.00    -0.550 OA
ENDBRANCH   9  10
ENDBRANCH   8   9
ENDBRANCH   7   8
ENDBRANCH   6   7
ENDBRANCH   5   6
ENDBRANCH   4   5
ENDBRANCH   3   4
ENDBRANCH   1   3
BRANCH   2  13
ATOM     13  C   UNL     1      25.389   6.277  10.603  1.00  0.00     0.027 C 
BRANCH  13  14
ATOM     14  C   UNL     1      25.542   6.063  12.116  1.00  0.00     0.004 C 
BRANCH  14  15
ATOM     15  C   UNL     1      24.204   6.182  12.863  1.00  0.00     0.000 C 
BRANCH  15  16
ATOM     16  C   UNL     1      24.114   7.461  13.714  1.00  0.00     0.000 C 
BRANCH  16  17
ATOM     17  C   UNL     1      25.479   7.886  14.281  1.00  0.00    -0.000 C 
BRANCH  17  18
ATOM     18  C   UNL     1      25.919   9.273  13.782  1.00  0.00    -0.000 C 
BRANCH  18  19
ATOM     19  C   UNL     1      24.744  10.101  13.237  1.00  0.00    -0.003 C 
ATOM     20  C   UNL     1      25.200  11.246  12.332  1.00  0.00     0.004 C 
ENDBRANCH  18  19
ENDBRANCH  17  18
ENDBRANCH  16  17
ENDBRANCH  15  16
ENDBRANCH  14  15
ENDBRANCH  13  14
ENDBRANCH   2  13
TORSDOF 15
ENDMDL
