MODEL 1
REMARK VINA RESULT:    -4.089      0.000      0.000
REMARK INTER + INTRA:          -5.617
REMARK INTER:                  -5.762
REMARK INTRA:                   0.146
REMARK UNBOUND:                 0.146
REMARK SMILES CC1=CCC(=C(C)C)C(=O)CC(C)=CCC1
REMARK SMILES IDX 12 1 14 2 13 3 15 4 16 5 2 6 1 7 3 8 11 10 9 11 10 12 5 13
REMARK SMILES IDX 6 14 7 15 8 16 4 17
REMARK H PARENT
REMARK Flexibility Score: 60.00
ROOT
ATOM      1  C   UNL     1     -28.834  12.001 -29.531  1.00  0.00    -0.070 C 
ATOM      2  C   UNL     1     -28.387  10.848 -28.980  1.00  0.00    -0.027 C 
ATOM      3  C   UNL     1     -30.124  11.964 -30.308  1.00  0.00     0.039 C 
ENDROOT
BRANCH   2   4
ATOM      4  C   UNL     1     -27.203  10.734 -28.054  1.00  0.00     0.032 C 
BRANCH   4   5
ATOM      5  C   UNL     1     -26.114   9.875 -28.707  1.00  0.00     0.034 C 
BRANCH   5   6
ATOM      6  C   UNL     1     -24.760  10.555 -28.703  1.00  0.00    -0.077 C 
ATOM      7  C   UNL     1     -23.769  10.185 -27.628  1.00  0.00     0.039 C 
ATOM      8  C   UNL     1     -24.410  11.535 -29.572  1.00  0.00    -0.023 CG0
ATOM      9  G   UNL     1     -25.204  12.037 -30.766  1.00  0.00     0.000 G0
ENDBRANCH   5   6
ENDBRANCH   4   5
ENDBRANCH   2   4
BRANCH   1  10
ATOM     10  C   UNL     1     -28.092  13.318 -29.421  1.00  0.00     0.111 C 
BRANCH  10  11
ATOM     11  C   UNL     1     -27.251  13.595 -30.644  1.00  0.00     0.163 C 
ATOM     12  O   UNL     1     -27.858  13.966 -31.686  1.00  0.00    -0.294 OA
BRANCH  11  13
ATOM     13  C   UNL     1     -25.760  13.433 -30.687  1.00  0.00    -0.002 C 
ATOM     14  C   UNL     1     -24.944  14.525 -30.812  1.00  0.00    -0.069 C 
ATOM     15  C   UNL     1     -25.472  15.929 -30.627  1.00  0.00     0.039 C 
ATOM     16  C   UNL     1     -23.464  14.392 -31.090  1.00  0.00     0.039 C 
BRANCH  13  17
ATOM     17  C   UNL     1     -25.200  12.017 -30.770  1.00  0.00     0.066 CG0
ATOM     18  G   UNL     1     -24.398  11.535 -29.574  1.00  0.00     0.000 G0
ENDBRANCH  13  17
ENDBRANCH  11  13
ENDBRANCH  10  11
ENDBRANCH   1  10
TORSDOF 0
ENDMDL
MODEL 2
REMARK VINA RESULT:    -3.834      8.714     11.209
REMARK INTER + INTRA:          -5.257
REMARK INTER:                  -5.763
REMARK INTRA:                   0.506
REMARK UNBOUND:                 0.146
REMARK SMILES CC1=CCC(=C(C)C)C(=O)CC(C)=CCC1
REMARK SMILES IDX 12 1 14 2 13 3 15 4 16 5 2 6 1 7 3 8 11 10 9 11 10 12 5 13
REMARK SMILES IDX 6 14 7 15 8 16 4 17
REMARK H PARENT
REMARK Flexibility Score: 60.00
ROOT
ATOM      1  C   UNL     1     -14.452  13.640 -31.297  1.00  0.00    -0.070 C 
ATOM      2  C   UNL     1     -13.525  12.670 -31.112  1.00  0.00    -0.027 C 
ATOM      3  C   UNL     1     -13.990  15.074 -31.291  1.00  0.00     0.039 C 
ENDROOT
BRANCH   2   4
ATOM      4  C   UNL     1     -13.787  11.191 -31.235  1.00  0.00     0.032 C 
BRANCH   4   5
ATOM      5  C   UNL     1     -13.170  10.453 -30.040  1.00  0.00     0.034 C 
BRANCH   5   6
ATOM      6  C   UNL     1     -13.841  10.810 -28.729  1.00  0.00    -0.077 C 
ATOM      7  C   UNL     1     -12.975  11.166 -27.547  1.00  0.00     0.039 C 
ATOM      8  C   UNL     1     -15.182  10.759 -28.534  1.00  0.00    -0.023 CG0
ATOM      9  G   UNL     1     -16.256  10.487 -29.573  1.00  0.00     0.000 G0
ENDBRANCH   5   6
ENDBRANCH   4   5
ENDBRANCH   2   4
BRANCH   1  10
ATOM     10  C   UNL     1     -15.928  13.355 -31.488  1.00  0.00     0.111 C 
BRANCH  10  11
ATOM     11  C   UNL     1     -16.607  12.999 -30.187  1.00  0.00     0.163 C 
ATOM     12  O   UNL     1     -16.650  13.893 -29.298  1.00  0.00    -0.294 OA
BRANCH  11  13
ATOM     13  C   UNL     1     -17.201  11.652 -29.896  1.00  0.00    -0.002 C 
ATOM     14  C   UNL     1     -18.554  11.505 -29.749  1.00  0.00    -0.069 C 
ATOM     15  C   UNL     1     -19.515  12.603 -30.147  1.00  0.00     0.039 C 
ATOM     16  C   UNL     1     -19.170  10.225 -29.232  1.00  0.00     0.039 C 
BRANCH  13  17
ATOM     17  C   UNL     1     -16.246  10.503 -29.593  1.00  0.00     0.066 CG0
ATOM     18  G   UNL     1     -15.196  10.759 -28.526  1.00  0.00     0.000 G0
ENDBRANCH  13  17
ENDBRANCH  11  13
ENDBRANCH  10  11
ENDBRANCH   1  10
TORSDOF 0
ENDMDL
MODEL 3
REMARK VINA RESULT:    -3.797      9.286     11.825
REMARK INTER + INTRA:          -5.205
REMARK INTER:                  -5.638
REMARK INTRA:                   0.433
REMARK UNBOUND:                 0.146
REMARK SMILES CC1=CCC(=C(C)C)C(=O)CC(C)=CCC1
REMARK SMILES IDX 12 1 14 2 13 3 15 4 16 5 2 6 1 7 3 8 11 10 9 11 10 12 5 13
REMARK SMILES IDX 6 14 7 15 8 16 4 17
REMARK H PARENT
REMARK Flexibility Score: 60.00
ROOT
ATOM      1  C   UNL     1     -17.165  13.117 -29.843  1.00  0.00    -0.070 C 
ATOM      2  C   UNL     1     -16.552  13.995 -30.670  1.00  0.00    -0.027 C 
ATOM      3  C   UNL     1     -18.548  12.642 -30.210  1.00  0.00     0.039 C 
ENDROOT
BRANCH   2   4
ATOM      4  C   UNL     1     -15.123  14.457 -30.535  1.00  0.00     0.032 C 
BRANCH   4   5
ATOM      5  C   UNL     1     -14.320  14.029 -31.769  1.00  0.00     0.034 C 
BRANCH   5   6
ATOM      6  C   UNL     1     -14.519  12.566 -32.112  1.00  0.00    -0.077 C 
ATOM      7  C   UNL     1     -15.172  12.214 -33.425  1.00  0.00     0.039 C 
ATOM      8  C   UNL     1     -14.208  11.549 -31.270  1.00  0.00    -0.023 CG0
ATOM      9  G   UNL     1     -13.497  11.644 -29.932  1.00  0.00     0.000 G0
ENDBRANCH   5   6
ENDBRANCH   4   5
ENDBRANCH   2   4
BRANCH   1  10
ATOM     10  C   UNL     1     -16.540  12.606 -28.560  1.00  0.00     0.111 C 
BRANCH  10  11
ATOM     11  C   UNL     1     -15.811  11.301 -28.770  1.00  0.00     0.163 C 
ATOM     12  O   UNL     1     -16.515  10.278 -28.990  1.00  0.00    -0.294 OA
BRANCH  11  13
ATOM     13  C   UNL     1     -14.318  11.160 -28.709  1.00  0.00    -0.002 C 
ATOM     14  C   UNL     1     -13.700  10.794 -27.543  1.00  0.00    -0.069 C 
ATOM     15  C   UNL     1     -14.485  10.246 -26.373  1.00  0.00     0.039 C 
ATOM     16  C   UNL     1     -12.200  10.865 -27.373  1.00  0.00     0.039 C 
BRANCH  13  17
ATOM     17  C   UNL     1     -13.510  11.611 -29.920  1.00  0.00     0.066 CG0
ATOM     18  G   UNL     1     -14.209  11.534 -31.267  1.00  0.00     0.000 G0
ENDBRANCH  13  17
ENDBRANCH  11  13
ENDBRANCH  10  11
ENDBRANCH   1  10
TORSDOF 0
ENDMDL
MODEL 4
REMARK VINA RESULT:    -3.613      9.870     11.643
REMARK INTER + INTRA:          -4.946
REMARK INTER:                  -5.231
REMARK INTRA:                   0.285
REMARK UNBOUND:                 0.146
REMARK SMILES CC1=CCC(=C(C)C)C(=O)CC(C)=CCC1
REMARK SMILES IDX 12 1 14 2 13 3 15 4 16 5 2 6 1 7 3 8 11 10 9 11 10 12 5 13
REMARK SMILES IDX 6 14 7 15 8 16 4 17
REMARK H PARENT
REMARK Flexibility Score: 60.00
ROOT
ATOM      1  C   UNL     1     -14.067  11.027 -31.029  1.00  0.00    -0.070 C 
ATOM      2  C   UNL     1     -14.021  11.970 -31.999  1.00  0.00    -0.027 C 
ATOM      3  C   UNL     1     -12.915  10.947 -30.062  1.00  0.00     0.039 C 
ENDROOT
BRANCH   2   4
ATOM      4  C   UNL     1     -15.145  12.285 -32.952  1.00  0.00     0.032 C 
BRANCH   4   5
ATOM      5  C   UNL     1     -15.894  13.537 -32.478  1.00  0.00     0.034 C 
BRANCH   5   6
ATOM      6  C   UNL     1     -15.208  14.214 -31.309  1.00  0.00    -0.077 C 
ATOM      7  C   UNL     1     -14.052  15.142 -31.587  1.00  0.00     0.039 C 
ATOM      8  C   UNL     1     -15.528  13.978 -30.012  1.00  0.00    -0.023 CG0
ATOM      9  G   UNL     1     -16.678  13.139 -29.484  1.00  0.00     0.000 G0
ENDBRANCH   5   6
ENDBRANCH   4   5
ENDBRANCH   2   4
BRANCH   1  10
ATOM     10  C   UNL     1     -15.207  10.039 -30.883  1.00  0.00     0.111 C 
BRANCH  10  11
ATOM     11  C   UNL     1     -16.418  10.667 -30.236  1.00  0.00     0.163 C 
ATOM     12  O   UNL     1     -17.548  10.322 -30.676  1.00  0.00    -0.294 OA
BRANCH  11  13
ATOM     13  C   UNL     1     -16.343  11.680 -29.131  1.00  0.00    -0.002 C 
ATOM     14  C   UNL     1     -16.138  11.285 -27.837  1.00  0.00    -0.069 C 
ATOM     15  C   UNL     1     -15.701   9.877 -27.502  1.00  0.00     0.039 C 
ATOM     16  C   UNL     1     -16.286  12.239 -26.673  1.00  0.00     0.039 C 
BRANCH  13  17
ATOM     17  C   UNL     1     -16.680  13.128 -29.469  1.00  0.00     0.066 CG0
ATOM     18  G   UNL     1     -15.544  13.980 -30.009  1.00  0.00     0.000 G0
ENDBRANCH  13  17
ENDBRANCH  11  13
ENDBRANCH  10  11
ENDBRANCH   1  10
TORSDOF 0
ENDMDL
MODEL 5
REMARK VINA RESULT:    -3.604     10.483     12.703
REMARK INTER + INTRA:          -4.933
REMARK INTER:                  -5.133
REMARK INTRA:                   0.200
REMARK UNBOUND:                 0.146
REMARK SMILES CC1=CCC(=C(C)C)C(=O)CC(C)=CCC1
REMARK SMILES IDX 12 1 14 2 13 3 15 4 16 5 2 6 1 7 3 8 11 10 9 11 10 12 5 13
REMARK SMILES IDX 6 14 7 15 8 16 4 17
REMARK H PARENT
REMARK Flexibility Score: 60.00
ROOT
ATOM      1  C   UNL     1     -15.841  13.769 -30.692  1.00  0.00    -0.070 C 
ATOM      2  C   UNL     1     -14.916  14.710 -30.997  1.00  0.00    -0.027 C 
ATOM      3  C   UNL     1     -16.637  13.942 -29.424  1.00  0.00     0.039 C 
ENDROOT
BRANCH   2   4
ATOM      4  C   UNL     1     -14.141  14.772 -32.289  1.00  0.00     0.032 C 
BRANCH   4   5
ATOM      5  C   UNL     1     -12.655  14.513 -32.016  1.00  0.00     0.034 C 
BRANCH   5   6
ATOM      6  C   UNL     1     -12.231  13.109 -32.396  1.00  0.00    -0.077 C 
ATOM      7  C   UNL     1     -11.636  12.878 -33.762  1.00  0.00     0.039 C 
ATOM      8  C   UNL     1     -12.424  12.026 -31.602  1.00  0.00    -0.023 CG0
ATOM      9  G   UNL     1     -12.946  12.008 -30.176  1.00  0.00     0.000 G0
ENDBRANCH   5   6
ENDBRANCH   4   5
ENDBRANCH   2   4
BRANCH   1  10
ATOM     10  C   UNL     1     -16.099  12.546 -31.548  1.00  0.00     0.111 C 
BRANCH  10  11
ATOM     11  C   UNL     1     -15.269  11.364 -31.108  1.00  0.00     0.163 C 
ATOM     12  O   UNL     1     -15.403  10.293 -31.760  1.00  0.00    -0.294 OA
BRANCH  11  13
ATOM     13  C   UNL     1     -14.325  11.395 -29.942  1.00  0.00    -0.002 C 
ATOM     14  C   UNL     1     -14.755  11.048 -28.689  1.00  0.00    -0.069 C 
ATOM     15  C   UNL     1     -16.083  10.358 -28.474  1.00  0.00     0.039 C 
ATOM     16  C   UNL     1     -13.912  11.285 -27.457  1.00  0.00     0.039 C 
BRANCH  13  17
ATOM     17  C   UNL     1     -12.940  11.994 -30.162  1.00  0.00     0.066 CG0
ATOM     18  G   UNL     1     -12.438  12.028 -31.595  1.00  0.00     0.000 G0
ENDBRANCH  13  17
ENDBRANCH  11  13
ENDBRANCH  10  11
ENDBRANCH   1  10
TORSDOF 0
ENDMDL
MODEL 6
REMARK VINA RESULT:    -3.523      1.835      4.837
REMARK INTER + INTRA:          -4.819
REMARK INTER:                  -4.804
REMARK INTRA:                  -0.015
REMARK UNBOUND:                 0.146
REMARK SMILES CC1=CCC(=C(C)C)C(=O)CC(C)=CCC1
REMARK SMILES IDX 12 1 14 2 13 3 15 4 16 5 2 6 1 7 3 8 11 10 9 11 10 12 5 13
REMARK SMILES IDX 6 14 7 15 8 16 4 17
REMARK H PARENT
REMARK Flexibility Score: 60.00
ROOT
ATOM      1  C   UNL     1     -24.034  11.145 -29.546  1.00  0.00    -0.070 C 
ATOM      2  C   UNL     1     -23.449  12.321 -29.877  1.00  0.00    -0.027 C 
ATOM      3  C   UNL     1     -23.256   9.875 -29.777  1.00  0.00     0.039 C 
ENDROOT
BRANCH   2   4
ATOM      4  C   UNL     1     -24.019  13.684 -29.580  1.00  0.00     0.032 C 
BRANCH   4   5
ATOM      5  C   UNL     1     -24.290  14.431 -30.891  1.00  0.00     0.034 C 
BRANCH   5   6
ATOM      6  C   UNL     1     -25.612  15.172 -30.873  1.00  0.00    -0.077 C 
ATOM      7  C   UNL     1     -25.611  16.645 -30.547  1.00  0.00     0.039 C 
ATOM      8  C   UNL     1     -26.812  14.570 -31.062  1.00  0.00    -0.023 CG0
ATOM      9  G   UNL     1     -27.068  13.126 -31.456  1.00  0.00     0.000 G0
ENDBRANCH   5   6
ENDBRANCH   4   5
ENDBRANCH   2   4
BRANCH   1  10
ATOM     10  C   UNL     1     -25.434  11.044 -28.976  1.00  0.00     0.111 C 
BRANCH  10  11
ATOM     11  C   UNL     1     -26.484  11.011 -30.061  1.00  0.00     0.163 C 
ATOM     12  O   UNL     1     -26.537   9.974 -30.777  1.00  0.00    -0.294 OA
BRANCH  11  13
ATOM     13  C   UNL     1     -27.434  12.139 -30.339  1.00  0.00    -0.002 C 
ATOM     14  C   UNL     1     -28.651  12.194 -29.714  1.00  0.00    -0.069 C 
ATOM     15  C   UNL     1     -28.972  11.307 -28.532  1.00  0.00     0.039 C 
ATOM     16  C   UNL     1     -29.723  13.174 -30.132  1.00  0.00     0.039 C 
BRANCH  13  17
ATOM     17  C   UNL     1     -27.079  13.109 -31.461  1.00  0.00     0.066 CG0
ATOM     18  G   UNL     1     -26.809  14.546 -31.053  1.00  0.00     0.000 G0
ENDBRANCH  13  17
ENDBRANCH  11  13
ENDBRANCH  10  11
ENDBRANCH   1  10
TORSDOF 0
ENDMDL
MODEL 7
REMARK VINA RESULT:    -3.427      4.804      7.722
REMARK INTER + INTRA:          -4.683
REMARK INTER:                  -4.597
REMARK INTRA:                  -0.086
REMARK UNBOUND:                 0.146
REMARK SMILES CC1=CCC(=C(C)C)C(=O)CC(C)=CCC1
REMARK SMILES IDX 12 1 14 2 13 3 15 4 16 5 2 6 1 7 3 8 11 10 9 11 10 12 5 13
REMARK SMILES IDX 6 14 7 15 8 16 4 17
REMARK H PARENT
REMARK Flexibility Score: 60.00
ROOT
ATOM      1  C   UNL     1     -25.585  16.334 -31.094  1.00  0.00    -0.070 C 
ATOM      2  C   UNL     1     -24.276  16.596 -31.318  1.00  0.00    -0.027 C 
ATOM      3  C   UNL     1     -25.986  14.909 -30.816  1.00  0.00     0.039 C 
ENDROOT
BRANCH   2   4
ATOM      4  C   UNL     1     -23.683  17.974 -31.465  1.00  0.00     0.032 C 
BRANCH   4   5
ATOM      5  C   UNL     1     -23.511  18.311 -32.951  1.00  0.00     0.034 C 
BRANCH   5   6
ATOM      6  C   UNL     1     -23.998  19.705 -33.290  1.00  0.00    -0.077 C 
ATOM      7  C   UNL     1     -23.114  20.881 -32.956  1.00  0.00     0.039 C 
ATOM      8  C   UNL     1     -25.222  19.966 -33.813  1.00  0.00    -0.023 CG0
ATOM      9  G   UNL     1     -26.258  18.960 -34.282  1.00  0.00     0.000 G0
ENDBRANCH   5   6
ENDBRANCH   4   5
ENDBRANCH   2   4
BRANCH   1  10
ATOM     10  C   UNL     1     -26.665  17.398 -31.127  1.00  0.00     0.111 C 
BRANCH  10  11
ATOM     11  C   UNL     1     -27.354  17.459 -32.469  1.00  0.00     0.163 C 
ATOM     12  O   UNL     1     -27.887  16.396 -32.890  1.00  0.00    -0.294 OA
BRANCH  11  13
ATOM     13  C   UNL     1     -27.415  18.694 -33.320  1.00  0.00    -0.002 C 
ATOM     14  C   UNL     1     -28.547  19.464 -33.349  1.00  0.00    -0.069 C 
ATOM     15  C   UNL     1     -29.653  19.278 -32.335  1.00  0.00     0.039 C 
ATOM     16  C   UNL     1     -28.736  20.574 -34.358  1.00  0.00     0.039 C 
BRANCH  13  17
ATOM     17  C   UNL     1     -26.259  18.956 -34.279  1.00  0.00     0.066 CG0
ATOM     18  G   UNL     1     -25.218  19.964 -33.824  1.00  0.00     0.000 G0
ENDBRANCH  13  17
ENDBRANCH  11  13
ENDBRANCH  10  11
ENDBRANCH   1  10
TORSDOF 0
ENDMDL
MODEL 8
REMARK VINA RESULT:    -3.402      9.179     11.534
REMARK INTER + INTRA:          -4.649
REMARK INTER:                  -5.166
REMARK INTRA:                   0.518
REMARK UNBOUND:                 0.146
REMARK SMILES CC1=CCC(=C(C)C)C(=O)CC(C)=CCC1
REMARK SMILES IDX 12 1 14 2 13 3 15 4 16 5 2 6 1 7 3 8 11 10 9 11 10 12 5 13
REMARK SMILES IDX 6 14 7 15 8 16 4 17
REMARK H PARENT
REMARK Flexibility Score: 60.00
ROOT
ATOM      1  C   UNL     1     -14.834  11.277 -28.212  1.00  0.00    -0.070 C 
ATOM      2  C   UNL     1     -16.060  11.798 -27.968  1.00  0.00    -0.027 C 
ATOM      3  C   UNL     1     -14.550   9.877 -27.733  1.00  0.00     0.039 C 
ENDROOT
BRANCH   2   4
ATOM      4  C   UNL     1     -16.560  13.117 -28.500  1.00  0.00     0.032 C 
BRANCH   4   5
ATOM      5  C   UNL     1     -17.865  12.903 -29.276  1.00  0.00     0.034 C 
BRANCH   5   6
ATOM      6  C   UNL     1     -17.672  12.046 -30.510  1.00  0.00    -0.077 C 
ATOM      7  C   UNL     1     -18.602  10.879 -30.732  1.00  0.00     0.039 C 
ATOM      8  C   UNL     1     -16.661  12.223 -31.396  1.00  0.00    -0.023 CG0
ATOM      9  G   UNL     1     -15.641  13.349 -31.420  1.00  0.00     0.000 G0
ENDBRANCH   5   6
ENDBRANCH   4   5
ENDBRANCH   2   4
BRANCH   1  10
ATOM     10  C   UNL     1     -13.732  12.039 -28.922  1.00  0.00     0.111 C 
BRANCH  10  11
ATOM     11  C   UNL     1     -13.788  11.846 -30.418  1.00  0.00     0.163 C 
ATOM     12  O   UNL     1     -13.472  10.710 -30.864  1.00  0.00    -0.294 OA
BRANCH  11  13
ATOM     13  C   UNL     1     -14.175  12.928 -31.385  1.00  0.00    -0.002 C 
ATOM     14  C   UNL     1     -13.216  13.622 -32.072  1.00  0.00    -0.069 C 
ATOM     15  C   UNL     1     -11.779  13.153 -32.111  1.00  0.00     0.039 C 
ATOM     16  C   UNL     1     -13.542  14.862 -32.872  1.00  0.00     0.039 C 
BRANCH  13  17
ATOM     17  C   UNL     1     -15.640  13.346 -31.436  1.00  0.00     0.066 CG0
ATOM     18  G   UNL     1     -16.665  12.227 -31.393  1.00  0.00     0.000 G0
ENDBRANCH  13  17
ENDBRANCH  11  13
ENDBRANCH  10  11
ENDBRANCH   1  10
TORSDOF 0
ENDMDL
MODEL 9
REMARK VINA RESULT:    -3.361      9.410     11.335
REMARK INTER + INTRA:          -4.591
REMARK INTER:                  -5.613
REMARK INTRA:                   1.023
REMARK UNBOUND:                 0.146
REMARK SMILES CC1=CCC(=C(C)C)C(=O)CC(C)=CCC1
REMARK SMILES IDX 12 1 14 2 13 3 15 4 16 5 2 6 1 7 3 8 11 10 9 11 10 12 5 13
REMARK SMILES IDX 6 14 7 15 8 16 4 17
REMARK H PARENT
REMARK Flexibility Score: 60.00
ROOT
ATOM      1  C   UNL     1     -17.578  12.061 -30.084  1.00  0.00    -0.070 C 
ATOM      2  C   UNL     1     -17.275  10.744 -30.167  1.00  0.00    -0.027 C 
ATOM      3  C   UNL     1     -19.030  12.450 -29.987  1.00  0.00     0.039 C 
ENDROOT
BRANCH   2   4
ATOM      4  C   UNL     1     -15.880  10.173 -30.122  1.00  0.00     0.032 C 
BRANCH   4   5
ATOM      5  C   UNL     1     -15.188  10.596 -28.821  1.00  0.00     0.034 C 
BRANCH   5   6
ATOM      6  C   UNL     1     -13.691  10.763 -28.989  1.00  0.00    -0.077 C 
ATOM      7  C   UNL     1     -12.791  10.427 -27.826  1.00  0.00     0.039 C 
ATOM      8  C   UNL     1     -13.113  11.269 -30.106  1.00  0.00    -0.023 CG0
ATOM      9  G   UNL     1     -13.793  11.624 -31.417  1.00  0.00     0.000 G0
ENDBRANCH   5   6
ENDBRANCH   4   5
ENDBRANCH   2   4
BRANCH   1  10
ATOM     10  C   UNL     1     -16.533  13.158 -30.103  1.00  0.00     0.111 C 
BRANCH  10  11
ATOM     11  C   UNL     1     -15.806  13.221 -31.425  1.00  0.00     0.163 C 
ATOM     12  O   UNL     1     -16.504  13.424 -32.455  1.00  0.00    -0.294 OA
BRANCH  11  13
ATOM     13  C   UNL     1     -14.324  13.036 -31.572  1.00  0.00    -0.002 C 
ATOM     14  C   UNL     1     -13.528  14.077 -31.970  1.00  0.00    -0.069 C 
ATOM     15  C   UNL     1     -14.044  15.498 -32.000  1.00  0.00     0.039 C 
ATOM     16  C   UNL     1     -12.079  13.878 -32.353  1.00  0.00     0.039 C 
BRANCH  13  17
ATOM     17  C   UNL     1     -13.767  11.622 -31.444  1.00  0.00     0.066 CG0
ATOM     18  G   UNL     1     -13.109  11.272 -30.121  1.00  0.00     0.000 G0
ENDBRANCH  13  17
ENDBRANCH  11  13
ENDBRANCH  10  11
ENDBRANCH   1  10
TORSDOF 0
ENDMDL
