MODEL 1
REMARK VINA RESULT:    -4.199      0.000      0.000
REMARK INTER + INTRA:          -5.314
REMARK INTER:                  -5.058
REMARK INTRA:                  -0.255
REMARK UNBOUND:                -0.255
REMARK SMILES NC(=O)C[C@H]([NH3+])C(=O)[O-]
REMARK SMILES IDX 4 1 5 2 6 3 7 7 8 8 9 9 2 10 3 11 1 12
REMARK H PARENT 6 4 6 5 6 6 1 13 1 14
REMARK Flexibility Score: inf
ROOT
ATOM      1  C   UNL     1       6.982  27.047  16.700  1.00  0.00     0.171 C 
ENDROOT
BRANCH   1   2
ATOM      2  C   UNL     1       6.114  25.856  16.240  1.00  0.00     0.237 C 
BRANCH   2   3
ATOM      3  N   UNL     1       4.861  26.300  15.613  1.00  0.00    -0.350 N 
ATOM      4  H   UNL     1       4.369  26.969  16.249  1.00  0.00     0.345 HD
ATOM      5  H   UNL     1       5.042  26.775  14.699  1.00  0.00     0.345 HD
ATOM      6  H   UNL     1       4.234  25.478  15.455  1.00  0.00     0.345 HD
ENDBRANCH   2   3
BRANCH   2   7
ATOM      7  C   UNL     1       5.852  24.895  17.372  1.00  0.00     0.100 C 
ATOM      8  O   UNL     1       5.500  23.708  17.143  1.00  0.00    -0.544 OA
ATOM      9  O   UNL     1       5.949  25.336  18.687  1.00  0.00    -0.544 OA
ENDBRANCH   2   7
ENDBRANCH   1   2
BRANCH   1  10
ATOM     10  C   UNL     1       7.511  27.872  15.560  1.00  0.00     0.223 C 
ATOM     11  O   UNL     1       6.710  28.501  14.818  1.00  0.00    -0.275 OA
ATOM     12  N   UNL     1       8.912  27.934  15.298  1.00  0.00    -0.369 N 
ATOM     13  H   UNL     1       9.275  28.500  14.499  1.00  0.00     0.159 HD
ATOM     14  H   UNL     1       9.590  27.412  15.897  1.00  0.00     0.159 HD
ENDBRANCH   1  10
TORSDOF 4
ENDMDL
MODEL 2
REMARK VINA RESULT:    -4.134     10.468     11.375
REMARK INTER + INTRA:          -5.236
REMARK INTER:                  -4.777
REMARK INTRA:                  -0.459
REMARK UNBOUND:                -0.255
REMARK SMILES NC(=O)C[C@H]([NH3+])C(=O)[O-]
REMARK SMILES IDX 4 1 5 2 6 3 7 7 8 8 9 9 2 10 3 11 1 12
REMARK H PARENT 6 4 6 5 6 6 1 13 1 14
REMARK Flexibility Score: inf
ROOT
ATOM      1  C   UNL     1      13.819  18.826  21.304  1.00  0.00     0.171 C 
ENDROOT
BRANCH   1   2
ATOM      2  C   UNL     1      13.764  19.794  22.506  1.00  0.00     0.237 C 
BRANCH   2   3
ATOM      3  N   UNL     1      12.508  20.559  22.537  1.00  0.00    -0.350 N 
ATOM      4  H   UNL     1      12.440  21.085  23.438  1.00  0.00     0.345 HD
ATOM      5  H   UNL     1      12.459  21.239  21.744  1.00  0.00     0.345 HD
ATOM      6  H   UNL     1      11.695  19.904  22.479  1.00  0.00     0.345 HD
ENDBRANCH   2   3
BRANCH   2   7
ATOM      7  C   UNL     1      14.964  20.707  22.534  1.00  0.00     0.100 C 
ATOM      8  O   UNL     1      15.708  20.764  23.549  1.00  0.00    -0.544 OA
ATOM      9  O   UNL     1      15.226  21.535  21.449  1.00  0.00    -0.544 OA
ENDBRANCH   2   7
ENDBRANCH   1   2
BRANCH   1  10
ATOM     10  C   UNL     1      13.066  19.326  20.104  1.00  0.00     0.223 C 
ATOM     11  O   UNL     1      11.812  19.203  20.055  1.00  0.00    -0.275 OA
ATOM     12  N   UNL     1      13.760  19.920  19.007  1.00  0.00    -0.369 N 
ATOM     13  H   UNL     1      13.234  20.257  18.170  1.00  0.00     0.159 HD
ATOM     14  H   UNL     1      14.798  20.023  19.027  1.00  0.00     0.159 HD
ENDBRANCH   1  10
TORSDOF 4
ENDMDL
MODEL 3
REMARK VINA RESULT:    -4.115     10.611     11.382
REMARK INTER + INTRA:          -5.213
REMARK INTER:                  -4.873
REMARK INTRA:                  -0.340
REMARK UNBOUND:                -0.255
REMARK SMILES NC(=O)C[C@H]([NH3+])C(=O)[O-]
REMARK SMILES IDX 4 1 5 2 6 3 7 7 8 8 9 9 2 10 3 11 1 12
REMARK H PARENT 6 4 6 5 6 6 1 13 1 14
REMARK Flexibility Score: inf
ROOT
ATOM      1  C   UNL     1      13.476  20.940  21.804  1.00  0.00     0.171 C 
ENDROOT
BRANCH   1   2
ATOM      2  C   UNL     1      13.037  19.544  21.311  1.00  0.00     0.237 C 
BRANCH   2   3
ATOM      3  N   UNL     1      13.668  18.466  22.086  1.00  0.00    -0.350 N 
ATOM      4  H   UNL     1      13.954  18.829  23.024  1.00  0.00     0.345 HD
ATOM      5  H   UNL     1      13.012  17.662  22.221  1.00  0.00     0.345 HD
ATOM      6  H   UNL     1      14.525  18.129  21.591  1.00  0.00     0.345 HD
ENDBRANCH   2   3
BRANCH   2   7
ATOM      7  C   UNL     1      13.286  19.377  19.833  1.00  0.00     0.100 C 
ATOM      8  O   UNL     1      13.094  20.333  19.035  1.00  0.00    -0.544 OA
ATOM      9  O   UNL     1      13.684  18.142  19.336  1.00  0.00    -0.544 OA
ENDBRANCH   2   7
ENDBRANCH   1   2
BRANCH   1  10
ATOM     10  C   UNL     1      14.859  20.955  22.392  1.00  0.00     0.223 C 
ATOM     11  O   UNL     1      15.042  20.555  23.573  1.00  0.00    -0.275 OA
ATOM     12  N   UNL     1      15.965  21.439  21.631  1.00  0.00    -0.369 N 
ATOM     13  H   UNL     1      16.923  21.458  22.046  1.00  0.00     0.159 HD
ATOM     14  H   UNL     1      15.831  21.783  20.654  1.00  0.00     0.159 HD
ENDBRANCH   1  10
TORSDOF 4
ENDMDL
MODEL 4
REMARK VINA RESULT:    -4.106     10.804     11.356
REMARK INTER + INTRA:          -5.202
REMARK INTER:                  -5.113
REMARK INTRA:                  -0.089
REMARK UNBOUND:                -0.255
REMARK SMILES NC(=O)C[C@H]([NH3+])C(=O)[O-]
REMARK SMILES IDX 4 1 5 2 6 3 7 7 8 8 9 9 2 10 3 11 1 12
REMARK H PARENT 6 4 6 5 6 6 1 13 1 14
REMARK Flexibility Score: inf
ROOT
ATOM      1  C   UNL     1      -1.480  21.126  23.136  1.00  0.00     0.171 C 
ENDROOT
BRANCH   1   2
ATOM      2  C   UNL     1      -1.725  20.854  21.636  1.00  0.00     0.237 C 
BRANCH   2   3
ATOM      3  N   UNL     1      -3.123  21.104  21.255  1.00  0.00    -0.350 N 
ATOM      4  H   UNL     1      -3.746  20.933  22.078  1.00  0.00     0.345 HD
ATOM      5  H   UNL     1      -3.257  22.088  20.928  1.00  0.00     0.345 HD
ATOM      6  H   UNL     1      -3.404  20.447  20.492  1.00  0.00     0.345 HD
ENDBRANCH   2   3
BRANCH   2   7
ATOM      7  C   UNL     1      -1.290  19.463  21.249  1.00  0.00     0.100 C 
ATOM      8  O   UNL     1      -2.099  18.498  21.295  1.00  0.00    -0.544 OA
ATOM      9  O   UNL     1       0.031  19.229  20.887  1.00  0.00    -0.544 OA
ENDBRANCH   2   7
ENDBRANCH   1   2
BRANCH   1  10
ATOM     10  C   UNL     1      -0.635  22.343  23.390  1.00  0.00     0.223 C 
ATOM     11  O   UNL     1       0.616  22.227  23.492  1.00  0.00    -0.275 OA
ATOM     12  N   UNL     1      -1.239  23.628  23.536  1.00  0.00    -0.369 N 
ATOM     13  H   UNL     1      -0.650  24.469  23.722  1.00  0.00     0.159 HD
ATOM     14  H   UNL     1      -2.274  23.741  23.462  1.00  0.00     0.159 HD
ENDBRANCH   1  10
TORSDOF 4
ENDMDL
MODEL 5
REMARK VINA RESULT:    -4.025     11.009     11.819
REMARK INTER + INTRA:          -5.104
REMARK INTER:                  -4.805
REMARK INTRA:                  -0.299
REMARK UNBOUND:                -0.255
REMARK SMILES NC(=O)C[C@H]([NH3+])C(=O)[O-]
REMARK SMILES IDX 4 1 5 2 6 3 7 7 8 8 9 9 2 10 3 11 1 12
REMARK H PARENT 6 4 6 5 6 6 1 13 1 14
REMARK Flexibility Score: inf
ROOT
ATOM      1  C   UNL     1      -1.229  19.696  22.777  1.00  0.00     0.171 C 
ENDROOT
BRANCH   1   2
ATOM      2  C   UNL     1      -1.749  21.141  22.936  1.00  0.00     0.237 C 
BRANCH   2   3
ATOM      3  N   UNL     1      -2.200  21.705  21.656  1.00  0.00    -0.350 N 
ATOM      4  H   UNL     1      -3.151  22.123  21.772  1.00  0.00     0.345 HD
ATOM      5  H   UNL     1      -1.545  22.447  21.318  1.00  0.00     0.345 HD
ATOM      6  H   UNL     1      -2.260  20.948  20.938  1.00  0.00     0.345 HD
ENDBRANCH   2   3
BRANCH   2   7
ATOM      7  C   UNL     1      -0.722  22.026  23.596  1.00  0.00     0.100 C 
ATOM      8  O   UNL     1      -1.067  22.897  24.439  1.00  0.00    -0.544 OA
ATOM      9  O   UNL     1       0.616  21.918  23.236  1.00  0.00    -0.544 OA
ENDBRANCH   2   7
ENDBRANCH   1   2
BRANCH   1  10
ATOM     10  C   UNL     1      -1.415  19.146  21.391  1.00  0.00     0.223 C 
ATOM     11  O   UNL     1      -0.560  19.397  20.499  1.00  0.00    -0.275 OA
ATOM     12  N   UNL     1      -2.561  18.359  21.069  1.00  0.00    -0.369 N 
ATOM     13  H   UNL     1      -2.691  17.988  20.102  1.00  0.00     0.159 HD
ATOM     14  H   UNL     1      -3.283  18.149  21.793  1.00  0.00     0.159 HD
ENDBRANCH   1  10
TORSDOF 4
ENDMDL
MODEL 6
REMARK VINA RESULT:    -3.981     10.550     11.622
REMARK INTER + INTRA:          -5.051
REMARK INTER:                  -4.687
REMARK INTRA:                  -0.364
REMARK UNBOUND:                -0.255
REMARK SMILES NC(=O)C[C@H]([NH3+])C(=O)[O-]
REMARK SMILES IDX 4 1 5 2 6 3 7 7 8 8 9 9 2 10 3 11 1 12
REMARK H PARENT 6 4 6 5 6 6 1 13 1 14
REMARK Flexibility Score: inf
ROOT
ATOM      1  C   UNL     1      -0.813  20.582  21.477  1.00  0.00     0.171 C 
ENDROOT
BRANCH   1   2
ATOM      2  C   UNL     1      -0.398  20.989  22.908  1.00  0.00     0.237 C 
BRANCH   2   3
ATOM      3  N   UNL     1      -1.252  20.361  23.926  1.00  0.00    -0.350 N 
ATOM      4  H   UNL     1      -0.950  19.371  24.076  1.00  0.00     0.345 HD
ATOM      5  H   UNL     1      -1.195  20.873  24.836  1.00  0.00     0.345 HD
ATOM      6  H   UNL     1      -2.245  20.353  23.599  1.00  0.00     0.345 HD
ENDBRANCH   2   3
BRANCH   2   7
ATOM      7  C   UNL     1      -0.365  22.489  23.067  1.00  0.00     0.100 C 
ATOM      8  O   UNL     1       0.153  23.220  22.182  1.00  0.00    -0.544 OA
ATOM      9  O   UNL     1      -0.866  23.070  24.225  1.00  0.00    -0.544 OA
ENDBRANCH   2   7
ENDBRANCH   1   2
BRANCH   1  10
ATOM     10  C   UNL     1      -2.295  20.390  21.320  1.00  0.00     0.223 C 
ATOM     11  O   UNL     1      -2.810  19.266  21.565  1.00  0.00    -0.275 OA
ATOM     12  N   UNL     1      -3.124  21.464  20.876  1.00  0.00    -0.369 N 
ATOM     13  H   UNL     1      -4.151  21.324  20.759  1.00  0.00     0.159 HD
ATOM     14  H   UNL     1      -2.713  22.400  20.661  1.00  0.00     0.159 HD
ENDBRANCH   1  10
TORSDOF 4
ENDMDL
MODEL 7
REMARK VINA RESULT:    -3.980      1.708      2.536
REMARK INTER + INTRA:          -5.050
REMARK INTER:                  -4.790
REMARK INTRA:                  -0.259
REMARK UNBOUND:                -0.255
REMARK SMILES NC(=O)C[C@H]([NH3+])C(=O)[O-]
REMARK SMILES IDX 4 1 5 2 6 3 7 7 8 8 9 9 2 10 3 11 1 12
REMARK H PARENT 6 4 6 5 6 6 1 13 1 14
REMARK Flexibility Score: inf
ROOT
ATOM      1  C   UNL     1       5.743  26.176  16.513  1.00  0.00     0.171 C 
ENDROOT
BRANCH   1   2
ATOM      2  C   UNL     1       6.453  26.169  17.884  1.00  0.00     0.237 C 
BRANCH   2   3
ATOM      3  N   UNL     1       7.624  27.058  17.899  1.00  0.00    -0.350 N 
ATOM      4  H   UNL     1       7.377  27.970  17.450  1.00  0.00     0.345 HD
ATOM      5  H   UNL     1       7.949  27.239  18.876  1.00  0.00     0.345 HD
ATOM      6  H   UNL     1       8.403  26.625  17.352  1.00  0.00     0.345 HD
ENDBRANCH   2   3
BRANCH   2   7
ATOM      7  C   UNL     1       6.820  24.769  18.307  1.00  0.00     0.100 C 
ATOM      8  O   UNL     1       7.431  24.562  19.389  1.00  0.00    -0.544 OA
ATOM      9  O   UNL     1       6.528  23.698  17.473  1.00  0.00    -0.544 OA
ENDBRANCH   2   7
ENDBRANCH   1   2
BRANCH   1  10
ATOM     10  C   UNL     1       5.734  27.527  15.854  1.00  0.00     0.223 C 
ATOM     11  O   UNL     1       6.785  27.970  15.319  1.00  0.00    -0.275 OA
ATOM     12  N   UNL     1       4.549  28.323  15.848  1.00  0.00    -0.369 N 
ATOM     13  H   UNL     1       4.550  29.266  15.398  1.00  0.00     0.159 HD
ATOM     14  H   UNL     1       3.671  27.976  16.294  1.00  0.00     0.159 HD
ENDBRANCH   1  10
TORSDOF 4
ENDMDL
MODEL 8
REMARK VINA RESULT:    -3.903     13.569     14.252
REMARK INTER + INTRA:          -4.957
REMARK INTER:                  -4.590
REMARK INTRA:                  -0.367
REMARK UNBOUND:                -0.255
REMARK SMILES NC(=O)C[C@H]([NH3+])C(=O)[O-]
REMARK SMILES IDX 4 1 5 2 6 3 7 7 8 8 9 9 2 10 3 11 1 12
REMARK H PARENT 6 4 6 5 6 6 1 13 1 14
REMARK Flexibility Score: inf
ROOT
ATOM      1  C   UNL     1       8.063  13.569  22.049  1.00  0.00     0.171 C 
ENDROOT
BRANCH   1   2
ATOM      2  C   UNL     1       6.582  13.229  22.324  1.00  0.00     0.237 C 
BRANCH   2   3
ATOM      3  N   UNL     1       6.234  11.878  21.861  1.00  0.00    -0.350 N 
ATOM      4  H   UNL     1       5.297  11.609  22.237  1.00  0.00     0.345 HD
ATOM      5  H   UNL     1       6.205  11.831  20.817  1.00  0.00     0.345 HD
ATOM      6  H   UNL     1       6.938  11.191  22.215  1.00  0.00     0.345 HD
ENDBRANCH   2   3
BRANCH   2   7
ATOM      7  C   UNL     1       5.660  14.266  21.733  1.00  0.00     0.100 C 
ATOM      8  O   UNL     1       4.418  14.065  21.671  1.00  0.00    -0.544 OA
ATOM      9  O   UNL     1       6.188  15.438  21.205  1.00  0.00    -0.544 OA
ENDBRANCH   2   7
ENDBRANCH   1   2
BRANCH   1  10
ATOM     10  C   UNL     1       8.652  12.782  20.912  1.00  0.00     0.223 C 
ATOM     11  O   UNL     1       8.186  12.918  19.748  1.00  0.00    -0.275 OA
ATOM     12  N   UNL     1       9.723  11.867  21.141  1.00  0.00    -0.369 N 
ATOM     13  H   UNL     1      10.122  11.314  20.350  1.00  0.00     0.159 HD
ATOM     14  H   UNL     1      10.116  11.736  22.099  1.00  0.00     0.159 HD
ENDBRANCH   1  10
TORSDOF 4
ENDMDL
MODEL 9
REMARK VINA RESULT:    -3.891     10.083     10.707
REMARK INTER + INTRA:          -4.942
REMARK INTER:                  -4.573
REMARK INTRA:                  -0.369
REMARK UNBOUND:                -0.255
REMARK SMILES NC(=O)C[C@H]([NH3+])C(=O)[O-]
REMARK SMILES IDX 4 1 5 2 6 3 7 7 8 8 9 9 2 10 3 11 1 12
REMARK H PARENT 6 4 6 5 6 6 1 13 1 14
REMARK Flexibility Score: inf
ROOT
ATOM      1  C   UNL     1      12.774  20.721  20.309  1.00  0.00     0.171 C 
ENDROOT
BRANCH   1   2
ATOM      2  C   UNL     1      13.644  21.617  21.217  1.00  0.00     0.237 C 
BRANCH   2   3
ATOM      3  N   UNL     1      15.034  21.143  21.284  1.00  0.00    -0.350 N 
ATOM      4  H   UNL     1      15.371  20.910  20.322  1.00  0.00     0.345 HD
ATOM      5  H   UNL     1      15.663  21.872  21.695  1.00  0.00     0.345 HD
ATOM      6  H   UNL     1      15.085  20.278  21.867  1.00  0.00     0.345 HD
ENDBRANCH   2   3
BRANCH   2   7
ATOM      7  C   UNL     1      13.043  21.754  22.594  1.00  0.00     0.100 C 
ATOM      8  O   UNL     1      12.527  20.762  23.175  1.00  0.00    -0.544 OA
ATOM      9  O   UNL     1      13.011  22.998  23.211  1.00  0.00    -0.544 OA
ENDBRANCH   2   7
ENDBRANCH   1   2
BRANCH   1  10
ATOM     10  C   UNL     1      13.402  19.389  20.010  1.00  0.00     0.223 C 
ATOM     11  O   UNL     1      13.608  18.569  20.945  1.00  0.00    -0.275 OA
ATOM     12  N   UNL     1      13.788  19.051  18.678  1.00  0.00    -0.369 N 
ATOM     13  H   UNL     1      14.234  18.129  18.476  1.00  0.00     0.159 HD
ATOM     14  H   UNL     1      13.633  19.721  17.892  1.00  0.00     0.159 HD
ENDBRANCH   1  10
TORSDOF 4
ENDMDL
