MODEL 1
REMARK VINA RESULT:    -4.339      0.000      0.000
REMARK INTER + INTRA:          -6.966
REMARK INTER:                  -6.621
REMARK INTRA:                  -0.345
REMARK UNBOUND:                -0.345
REMARK SMILES O=C([O-])CCCCCCCCC(=O)[O-]
REMARK SMILES IDX 7 1 6 2 5 3 4 4 2 5 1 6 3 7 8 8 9 9 10 10 11 11 12 12 13 13
REMARK SMILES IDX 14 14
REMARK H PARENT
REMARK Flexibility Score: inf
ROOT
ATOM      1  C   UNL     1      -3.268  10.708 -13.155  1.00  0.00     0.000 C 
ENDROOT
BRANCH   1   2
ATOM      2  C   UNL     1      -2.202  11.097 -14.191  1.00  0.00     0.000 C 
BRANCH   2   3
ATOM      3  C   UNL     1      -1.967  10.000 -15.240  1.00  0.00     0.006 C 
BRANCH   3   4
ATOM      4  C   UNL     1      -2.223  10.532 -16.654  1.00  0.00     0.053 C 
BRANCH   4   5
ATOM      5  C   UNL     1      -3.501   9.977 -17.199  1.00  0.00     0.041 C 
ATOM      6  O   UNL     1      -4.590  10.578 -16.998  1.00  0.00    -0.550 OA
ATOM      7  O   UNL     1      -3.499   8.770 -17.887  1.00  0.00    -0.550 OA
ENDBRANCH   4   5
ENDBRANCH   3   4
ENDBRANCH   2   3
ENDBRANCH   1   2
BRANCH   1   8
ATOM      8  C   UNL     1      -2.699  10.596 -11.733  1.00  0.00     0.000 C 
BRANCH   8   9
ATOM      9  C   UNL     1      -3.773  10.110 -10.749  1.00  0.00     0.000 C 
BRANCH   9  10
ATOM     10  C   UNL     1      -3.200   9.758  -9.363  1.00  0.00     0.006 C 
BRANCH  10  11
ATOM     11  C   UNL     1      -2.979   8.255  -9.132  1.00  0.00     0.053 C 
BRANCH  11  12
ATOM     12  C   UNL     1      -1.524   7.905  -9.066  1.00  0.00     0.041 C 
ATOM     13  O   UNL     1      -1.146   6.880  -8.440  1.00  0.00    -0.550 OA
ATOM     14  O   UNL     1      -0.588   8.692  -9.726  1.00  0.00    -0.550 OA
ENDBRANCH  11  12
ENDBRANCH  10  11
ENDBRANCH   9  10
ENDBRANCH   8   9
ENDBRANCH   1   8
TORSDOF 9
ENDMDL
MODEL 2
REMARK VINA RESULT:    -4.260      4.791      6.927
REMARK INTER + INTRA:          -6.846
REMARK INTER:                  -6.025
REMARK INTRA:                  -0.821
REMARK UNBOUND:                -0.345
REMARK SMILES O=C([O-])CCCCCCCCC(=O)[O-]
REMARK SMILES IDX 7 1 6 2 5 3 4 4 2 5 1 6 3 7 8 8 9 9 10 10 11 11 12 12 13 13
REMARK SMILES IDX 14 14
REMARK H PARENT
REMARK Flexibility Score: inf
ROOT
ATOM      1  C   UNL     1      -6.095   7.863 -10.296  1.00  0.00     0.000 C 
ENDROOT
BRANCH   1   2
ATOM      2  C   UNL     1      -4.821   8.208  -9.511  1.00  0.00     0.000 C 
BRANCH   2   3
ATOM      3  C   UNL     1      -4.073   9.416 -10.096  1.00  0.00     0.006 C 
BRANCH   3   4
ATOM      4  C   UNL     1      -3.475  10.282  -8.982  1.00  0.00     0.053 C 
BRANCH   4   5
ATOM      5  C   UNL     1      -2.022   9.974  -8.801  1.00  0.00     0.041 C 
ATOM      6  O   UNL     1      -1.430  10.312  -7.742  1.00  0.00    -0.550 OA
ATOM      7  O   UNL     1      -1.309   9.360  -9.823  1.00  0.00    -0.550 OA
ENDBRANCH   4   5
ENDBRANCH   3   4
ENDBRANCH   2   3
ENDBRANCH   1   2
BRANCH   1   8
ATOM      8  C   UNL     1      -6.695   9.081 -11.016  1.00  0.00     0.000 C 
BRANCH   8   9
ATOM      9  C   UNL     1      -8.010   9.517 -10.353  1.00  0.00     0.000 C 
BRANCH   9  10
ATOM     10  C   UNL     1      -7.873  10.833  -9.563  1.00  0.00     0.006 C 
BRANCH  10  11
ATOM     11  C   UNL     1      -6.861  11.826 -10.157  1.00  0.00     0.053 C 
BRANCH  11  12
ATOM     12  C   UNL     1      -6.710  13.050  -9.307  1.00  0.00     0.041 C 
ATOM     13  O   UNL     1      -7.713  13.759  -9.031  1.00  0.00    -0.550 OA
ATOM     14  O   UNL     1      -5.465  13.388  -8.790  1.00  0.00    -0.550 OA
ENDBRANCH  11  12
ENDBRANCH  10  11
ENDBRANCH   9  10
ENDBRANCH   8   9
ENDBRANCH   1   8
TORSDOF 9
ENDMDL
MODEL 3
REMARK VINA RESULT:    -4.257     14.997     17.348
REMARK INTER + INTRA:          -6.841
REMARK INTER:                  -6.344
REMARK INTRA:                  -0.497
REMARK UNBOUND:                -0.345
REMARK SMILES O=C([O-])CCCCCCCCC(=O)[O-]
REMARK SMILES IDX 7 1 6 2 5 3 4 4 2 5 1 6 3 7 8 8 9 9 10 10 11 11 12 12 13 13
REMARK SMILES IDX 14 14
REMARK H PARENT
REMARK Flexibility Score: inf
ROOT
ATOM      1  C   UNL     1     -15.373  16.203 -21.135  1.00  0.00     0.000 C 
ENDROOT
BRANCH   1   2
ATOM      2  C   UNL     1     -16.495  17.129 -20.642  1.00  0.00     0.000 C 
BRANCH   2   3
ATOM      3  C   UNL     1     -17.410  17.608 -21.779  1.00  0.00     0.006 C 
BRANCH   3   4
ATOM      4  C   UNL     1     -18.885  17.481 -21.384  1.00  0.00     0.053 C 
BRANCH   4   5
ATOM      5  C   UNL     1     -19.193  18.361 -20.214  1.00  0.00     0.041 C 
ATOM      6  O   UNL     1     -18.959  19.597 -20.272  1.00  0.00    -0.550 OA
ATOM      7  O   UNL     1     -19.691  17.809 -19.040  1.00  0.00    -0.550 OA
ENDBRANCH   4   5
ENDBRANCH   3   4
ENDBRANCH   2   3
ENDBRANCH   1   2
BRANCH   1   8
ATOM      8  C   UNL     1     -14.439  15.748 -20.003  1.00  0.00     0.000 C 
BRANCH   8   9
ATOM      9  C   UNL     1     -13.013  16.273 -20.225  1.00  0.00     0.000 C 
BRANCH   9  10
ATOM     10  C   UNL     1     -12.854  17.755 -19.837  1.00  0.00     0.006 C 
BRANCH  10  11
ATOM     11  C   UNL     1     -13.190  18.066 -18.370  1.00  0.00     0.053 C 
BRANCH  11  12
ATOM     12  C   UNL     1     -12.558  19.342 -17.907  1.00  0.00     0.041 C 
ATOM     13  O   UNL     1     -12.596  19.664 -16.691  1.00  0.00    -0.550 OA
ATOM     14  O   UNL     1     -11.896  20.160 -18.814  1.00  0.00    -0.550 OA
ENDBRANCH  11  12
ENDBRANCH  10  11
ENDBRANCH   9  10
ENDBRANCH   8   9
ENDBRANCH   1   8
TORSDOF 9
ENDMDL
MODEL 4
REMARK VINA RESULT:    -4.224     16.415     17.761
REMARK INTER + INTRA:          -6.792
REMARK INTER:                  -6.160
REMARK INTRA:                  -0.632
REMARK UNBOUND:                -0.345
REMARK SMILES O=C([O-])CCCCCCCCC(=O)[O-]
REMARK SMILES IDX 7 1 6 2 5 3 4 4 2 5 1 6 3 7 8 8 9 9 10 10 11 11 12 12 13 13
REMARK SMILES IDX 14 14
REMARK H PARENT
REMARK Flexibility Score: inf
ROOT
ATOM      1  C   UNL     1     -19.980  15.955 -16.375  1.00  0.00     0.000 C 
ENDROOT
BRANCH   1   2
ATOM      2  C   UNL     1     -19.842  16.920 -15.188  1.00  0.00     0.000 C 
BRANCH   2   3
ATOM      3  C   UNL     1     -18.393  17.376 -14.960  1.00  0.00     0.006 C 
BRANCH   3   4
ATOM      4  C   UNL     1     -17.647  16.394 -14.051  1.00  0.00     0.053 C 
BRANCH   4   5
ATOM      5  C   UNL     1     -17.659  16.878 -12.635  1.00  0.00     0.041 C 
ATOM      6  O   UNL     1     -17.076  16.218 -11.735  1.00  0.00    -0.550 OA
ATOM      7  O   UNL     1     -18.356  18.032 -12.300  1.00  0.00    -0.550 OA
ENDBRANCH   4   5
ENDBRANCH   3   4
ENDBRANCH   2   3
ENDBRANCH   1   2
BRANCH   1   8
ATOM      8  C   UNL     1     -18.950  16.226 -17.482  1.00  0.00     0.000 C 
BRANCH   8   9
ATOM      9  C   UNL     1     -18.336  14.914 -17.993  1.00  0.00     0.000 C 
BRANCH   9  10
ATOM     10  C   UNL     1     -18.231  13.836 -16.897  1.00  0.00     0.006 C 
BRANCH  10  11
ATOM     11  C   UNL     1     -18.982  12.534 -17.217  1.00  0.00     0.053 C 
BRANCH  11  12
ATOM     12  C   UNL     1     -18.346  11.344 -16.565  1.00  0.00     0.041 C 
ATOM     13  O   UNL     1     -17.959  11.408 -15.369  1.00  0.00    -0.550 OA
ATOM     14  O   UNL     1     -18.212  10.154 -17.269  1.00  0.00    -0.550 OA
ENDBRANCH  11  12
ENDBRANCH  10  11
ENDBRANCH   9  10
ENDBRANCH   8   9
ENDBRANCH   1   8
TORSDOF 9
ENDMDL
MODEL 5
REMARK VINA RESULT:    -4.197      4.187      6.292
REMARK INTER + INTRA:          -6.751
REMARK INTER:                  -6.189
REMARK INTRA:                  -0.562
REMARK UNBOUND:                -0.345
REMARK SMILES O=C([O-])CCCCCCCCC(=O)[O-]
REMARK SMILES IDX 7 1 6 2 5 3 4 4 2 5 1 6 3 7 8 8 9 9 10 10 11 11 12 12 13 13
REMARK SMILES IDX 14 14
REMARK H PARENT
REMARK Flexibility Score: inf
ROOT
ATOM      1  C   UNL     1      -0.399  13.422 -12.573  1.00  0.00     0.000 C 
ENDROOT
BRANCH   1   2
ATOM      2  C   UNL     1      -1.406  14.273 -11.785  1.00  0.00     0.000 C 
BRANCH   2   3
ATOM      3  C   UNL     1      -1.726  15.606 -12.477  1.00  0.00     0.006 C 
BRANCH   3   4
ATOM      4  C   UNL     1      -3.219  15.706 -12.809  1.00  0.00     0.053 C 
BRANCH   4   5
ATOM      5  C   UNL     1      -3.422  15.813 -14.287  1.00  0.00     0.041 C 
ATOM      6  O   UNL     1      -3.595  14.776 -14.980  1.00  0.00    -0.550 OA
ATOM      7  O   UNL     1      -3.369  17.055 -14.908  1.00  0.00    -0.550 OA
ENDBRANCH   4   5
ENDBRANCH   3   4
ENDBRANCH   2   3
ENDBRANCH   1   2
BRANCH   1   8
ATOM      8  C   UNL     1      -0.855  11.964 -12.736  1.00  0.00     0.000 C 
BRANCH   8   9
ATOM      9  C   UNL     1      -2.276  11.896 -13.315  1.00  0.00     0.000 C 
BRANCH   9  10
ATOM     10  C   UNL     1      -2.614  10.516 -13.910  1.00  0.00     0.006 C 
BRANCH  10  11
ATOM     11  C   UNL     1      -1.999  10.256 -15.295  1.00  0.00     0.053 C 
BRANCH  11  12
ATOM     12  C   UNL     1      -3.029  10.292 -16.382  1.00  0.00     0.041 C 
ATOM     13  O   UNL     1      -4.128  10.875 -16.195  1.00  0.00    -0.550 OA
ATOM     14  O   UNL     1      -2.759   9.710 -17.615  1.00  0.00    -0.550 OA
ENDBRANCH  11  12
ENDBRANCH  10  11
ENDBRANCH   9  10
ENDBRANCH   8   9
ENDBRANCH   1   8
TORSDOF 9
ENDMDL
MODEL 6
REMARK VINA RESULT:    -4.186     10.251     12.912
REMARK INTER + INTRA:          -6.734
REMARK INTER:                  -6.411
REMARK INTRA:                  -0.322
REMARK UNBOUND:                -0.345
REMARK SMILES O=C([O-])CCCCCCCCC(=O)[O-]
REMARK SMILES IDX 7 1 6 2 5 3 4 4 2 5 1 6 3 7 8 8 9 9 10 10 11 11 12 12 13 13
REMARK SMILES IDX 14 14
REMARK H PARENT
REMARK Flexibility Score: inf
ROOT
ATOM      1  C   UNL     1      -9.692  15.884 -13.245  1.00  0.00     0.000 C 
ENDROOT
BRANCH   1   2
ATOM      2  C   UNL     1      -8.233  16.144 -12.840  1.00  0.00     0.000 C 
BRANCH   2   3
ATOM      3  C   UNL     1      -7.853  15.458 -11.519  1.00  0.00     0.006 C 
BRANCH   3   4
ATOM      4  C   UNL     1      -8.033  16.414 -10.335  1.00  0.00     0.053 C 
BRANCH   4   5
ATOM      5  C   UNL     1      -7.772  15.703  -9.044  1.00  0.00     0.041 C 
ATOM      6  O   UNL     1      -7.484  16.358  -8.007  1.00  0.00    -0.550 OA
ATOM      7  O   UNL     1      -7.797  14.315  -8.996  1.00  0.00    -0.550 OA
ENDBRANCH   4   5
ENDBRANCH   3   4
ENDBRANCH   2   3
ENDBRANCH   1   2
BRANCH   1   8
ATOM      8  C   UNL     1     -10.534  17.168 -13.284  1.00  0.00     0.000 C 
BRANCH   8   9
ATOM      9  C   UNL     1     -11.938  16.886 -13.837  1.00  0.00     0.000 C 
BRANCH   9  10
ATOM     10  C   UNL     1     -12.747  18.171 -14.099  1.00  0.00     0.006 C 
BRANCH  10  11
ATOM     11  C   UNL     1     -11.888  19.414 -14.378  1.00  0.00     0.053 C 
BRANCH  11  12
ATOM     12  C   UNL     1     -12.293  20.105 -15.644  1.00  0.00     0.041 C 
ATOM     13  O   UNL     1     -12.583  21.329 -15.633  1.00  0.00    -0.550 OA
ATOM     14  O   UNL     1     -12.316  19.403 -16.842  1.00  0.00    -0.550 OA
ENDBRANCH  11  12
ENDBRANCH  10  11
ENDBRANCH   9  10
ENDBRANCH   8   9
ENDBRANCH   1   8
TORSDOF 9
ENDMDL
MODEL 7
REMARK VINA RESULT:    -4.183     15.263     16.290
REMARK INTER + INTRA:          -6.729
REMARK INTER:                  -6.046
REMARK INTRA:                  -0.683
REMARK UNBOUND:                -0.345
REMARK SMILES O=C([O-])CCCCCCCCC(=O)[O-]
REMARK SMILES IDX 7 1 6 2 5 3 4 4 2 5 1 6 3 7 8 8 9 9 10 10 11 11 12 12 13 13
REMARK SMILES IDX 14 14
REMARK H PARENT
REMARK Flexibility Score: inf
ROOT
ATOM      1  C   UNL     1     -13.642  17.935 -17.614  1.00  0.00     0.000 C 
ENDROOT
BRANCH   1   2
ATOM      2  C   UNL     1     -14.003  16.465 -17.878  1.00  0.00     0.000 C 
BRANCH   2   3
ATOM      3  C   UNL     1     -13.484  15.961 -19.233  1.00  0.00     0.006 C 
BRANCH   3   4
ATOM      4  C   UNL     1     -14.566  15.170 -19.974  1.00  0.00     0.053 C 
BRANCH   4   5
ATOM      5  C   UNL     1     -15.168  15.999 -21.065  1.00  0.00     0.041 C 
ATOM      6  O   UNL     1     -14.856  15.787 -22.267  1.00  0.00    -0.550 OA
ATOM      7  O   UNL     1     -16.034  17.039 -20.752  1.00  0.00    -0.550 OA
ENDBRANCH   4   5
ENDBRANCH   3   4
ENDBRANCH   2   3
ENDBRANCH   1   2
BRANCH   1   8
ATOM      8  C   UNL     1     -12.700  18.514 -18.681  1.00  0.00     0.000 C 
BRANCH   8   9
ATOM      9  C   UNL     1     -12.314  19.962 -18.345  1.00  0.00     0.000 C 
BRANCH   9  10
ATOM     10  C   UNL     1     -12.501  20.299 -16.853  1.00  0.00     0.006 C 
BRANCH  10  11
ATOM     11  C   UNL     1     -13.258  21.611 -16.591  1.00  0.00     0.053 C 
BRANCH  11  12
ATOM     12  C   UNL     1     -14.563  21.662 -17.324  1.00  0.00     0.041 C 
ATOM     13  O   UNL     1     -15.488  20.861 -17.028  1.00  0.00    -0.550 OA
ATOM     14  O   UNL     1     -14.770  22.618 -18.310  1.00  0.00    -0.550 OA
ENDBRANCH  11  12
ENDBRANCH  10  11
ENDBRANCH   9  10
ENDBRANCH   8   9
ENDBRANCH   1   8
TORSDOF 9
ENDMDL
MODEL 8
REMARK VINA RESULT:    -4.135     14.981     17.923
REMARK INTER + INTRA:          -6.655
REMARK INTER:                  -6.032
REMARK INTRA:                  -0.623
REMARK UNBOUND:                -0.345
REMARK SMILES O=C([O-])CCCCCCCCC(=O)[O-]
REMARK SMILES IDX 7 1 6 2 5 3 4 4 2 5 1 6 3 7 8 8 9 9 10 10 11 11 12 12 13 13
REMARK SMILES IDX 14 14
REMARK H PARENT
REMARK Flexibility Score: inf
ROOT
ATOM      1  C   UNL     1     -13.437  16.057 -20.329  1.00  0.00     0.000 C 
ENDROOT
BRANCH   1   2
ATOM      2  C   UNL     1     -13.073  17.495 -19.929  1.00  0.00     0.000 C 
BRANCH   2   3
ATOM      3  C   UNL     1     -13.069  17.704 -18.407  1.00  0.00     0.006 C 
BRANCH   3   4
ATOM      4  C   UNL     1     -13.928  18.912 -18.018  1.00  0.00     0.053 C 
BRANCH   4   5
ATOM      5  C   UNL     1     -13.083  19.976 -17.391  1.00  0.00     0.041 C 
ATOM      6  O   UNL     1     -11.875  20.104 -17.725  1.00  0.00    -0.550 OA
ATOM      7  O   UNL     1     -13.614  20.795 -16.403  1.00  0.00    -0.550 OA
ENDBRANCH   4   5
ENDBRANCH   3   4
ENDBRANCH   2   3
ENDBRANCH   1   2
BRANCH   1   8
ATOM      8  C   UNL     1     -14.711  15.984 -21.184  1.00  0.00     0.000 C 
BRANCH   8   9
ATOM      9  C   UNL     1     -15.926  16.505 -20.402  1.00  0.00     0.000 C 
BRANCH   9  10
ATOM     10  C   UNL     1     -16.813  17.451 -21.234  1.00  0.00     0.006 C 
BRANCH  10  11
ATOM     11  C   UNL     1     -17.508  18.550 -20.416  1.00  0.00     0.053 C 
BRANCH  11  12
ATOM     12  C   UNL     1     -18.995  18.530 -20.596  1.00  0.00     0.041 C 
ATOM     13  O   UNL     1     -19.506  17.929 -21.576  1.00  0.00    -0.550 OA
ATOM     14  O   UNL     1     -19.817  19.145 -19.660  1.00  0.00    -0.550 OA
ENDBRANCH  11  12
ENDBRANCH  10  11
ENDBRANCH   9  10
ENDBRANCH   8   9
ENDBRANCH   1   8
TORSDOF 9
ENDMDL
MODEL 9
REMARK VINA RESULT:    -4.101      4.162      5.908
REMARK INTER + INTRA:          -6.603
REMARK INTER:                  -6.093
REMARK INTRA:                  -0.511
REMARK UNBOUND:                -0.345
REMARK SMILES O=C([O-])CCCCCCCCC(=O)[O-]
REMARK SMILES IDX 7 1 6 2 5 3 4 4 2 5 1 6 3 7 8 8 9 9 10 10 11 11 12 12 13 13
REMARK SMILES IDX 14 14
REMARK H PARENT
REMARK Flexibility Score: inf
ROOT
ATOM      1  C   UNL     1      -0.581  12.012 -12.866  1.00  0.00     0.000 C 
ENDROOT
BRANCH   1   2
ATOM      2  C   UNL     1      -2.063  11.843 -13.234  1.00  0.00     0.000 C 
BRANCH   2   3
ATOM      3  C   UNL     1      -2.368  10.468 -13.848  1.00  0.00     0.006 C 
BRANCH   3   4
ATOM      4  C   UNL     1      -1.876  10.394 -15.297  1.00  0.00     0.053 C 
BRANCH   4   5
ATOM      5  C   UNL     1      -3.035  10.379 -16.244  1.00  0.00     0.041 C 
ATOM      6  O   UNL     1      -4.033  11.119 -16.036  1.00  0.00    -0.550 OA
ATOM      7  O   UNL     1      -3.036   9.511 -17.328  1.00  0.00    -0.550 OA
ENDBRANCH   4   5
ENDBRANCH   3   4
ENDBRANCH   2   3
ENDBRANCH   1   2
BRANCH   1   8
ATOM      8  C   UNL     1      -0.308  13.308 -12.088  1.00  0.00     0.000 C 
BRANCH   8   9
ATOM      9  C   UNL     1      -1.608  14.095 -11.862  1.00  0.00     0.000 C 
BRANCH   9  10
ATOM     10  C   UNL     1      -1.583  15.490 -12.516  1.00  0.00     0.006 C 
BRANCH  10  11
ATOM     11  C   UNL     1      -2.972  16.104 -12.750  1.00  0.00     0.053 C 
BRANCH  11  12
ATOM     12  C   UNL     1      -3.411  15.974 -14.176  1.00  0.00     0.041 C 
ATOM     13  O   UNL     1      -3.723  16.997 -14.839  1.00  0.00    -0.550 OA
ATOM     14  O   UNL     1      -3.441  14.725 -14.784  1.00  0.00    -0.550 OA
ENDBRANCH  11  12
ENDBRANCH  10  11
ENDBRANCH   9  10
ENDBRANCH   8   9
ENDBRANCH   1   8
TORSDOF 9
ENDMDL
