MODEL 1
REMARK VINA RESULT:    -2.723      0.000      0.000
REMARK INTER + INTRA:          -3.659
REMARK INTER:                  -4.156
REMARK INTRA:                   0.496
REMARK UNBOUND:                 0.496
REMARK SMILES CC1=CCC[C@H](C)C(=O)C[C@@H](C(C)C)C(=O)C1
REMARK SMILES IDX 8 1 9 2 6 3 7 4 5 5 4 6 3 7 2 8 1 9 10 11 11 12 15 13 16 14
REMARK SMILES IDX 17 15 12 17 13 18 14 19
REMARK H PARENT
REMARK Flexibility Score: 70.00
ROOT
ATOM      1  C   UNL     1       8.740 -32.948  16.707  1.00  0.00     0.136 C 
ATOM      2  O   UNL     1       9.186 -31.811  16.788  1.00  0.00    -0.299 OA
ENDROOT
BRANCH   1   3
ATOM      3  C   UNL     1       7.604 -33.373  17.610  1.00  0.00     0.053 C 
ATOM      4  C   UNL     1       6.933 -32.160  18.266  1.00  0.00     0.016 C 
BRANCH   3   5
ATOM      5  C   UNL     1       6.591 -34.206  16.788  1.00  0.00     0.015 C 
BRANCH   5   6
ATOM      6  C   UNL     1       6.721 -35.738  16.911  1.00  0.00     0.028 C 
BRANCH   6   7
ATOM      7  C   UNL     1       6.173 -36.570  15.771  1.00  0.00    -0.028 C 
ATOM      8  C   UNL     1       6.659 -36.644  14.508  1.00  0.00    -0.070 CG0
ATOM      9  C   UNL     1       5.875 -37.454  13.504  1.00  0.00     0.039 C 
ATOM     10  G   UNL     1       7.978 -36.038  14.064  1.00  0.00     0.000 G0
ENDBRANCH   6   7
ENDBRANCH   5   6
ENDBRANCH   3   5
ENDBRANCH   1   3
BRANCH   1  11
ATOM     11  C   UNL     1       9.285 -33.881  15.650  1.00  0.00     0.087 C 
BRANCH  11  12
ATOM     12  C   UNL     1       8.795 -33.513  14.220  1.00  0.00     0.066 C 
BRANCH  12  13
ATOM     13  C   UNL     1       7.852 -34.576  13.669  1.00  0.00     0.140 C 
ATOM     14  O   UNL     1       6.941 -34.238  12.928  1.00  0.00    -0.299 OA
BRANCH  13  15
ATOM     15  C   UNL     1       7.996 -36.041  14.028  1.00  0.00     0.106 CG0
ATOM     16  G   UNL     1       6.673 -36.613  14.505  1.00  0.00     0.000 G0
ENDBRANCH  13  15
ENDBRANCH  12  13
BRANCH  12  17
ATOM     17  C   UNL     1       9.985 -33.222  13.253  1.00  0.00    -0.006 C 
ATOM     18  C   UNL     1      10.958 -32.144  13.762  1.00  0.00     0.008 C 
ATOM     19  C   UNL     1      10.753 -34.506  12.904  1.00  0.00     0.008 C 
ENDBRANCH  12  17
ENDBRANCH  11  12
ENDBRANCH   1  11
TORSDOF 1
ENDMDL
MODEL 2
REMARK VINA RESULT:    -2.670      1.775      4.589
REMARK INTER + INTRA:          -3.578
REMARK INTER:                  -3.775
REMARK INTRA:                   0.197
REMARK UNBOUND:                 0.496
REMARK SMILES CC1=CCC[C@H](C)C(=O)C[C@@H](C(C)C)C(=O)C1
REMARK SMILES IDX 8 1 9 2 6 3 7 4 5 5 4 6 3 7 2 8 1 9 10 11 11 12 15 13 16 14
REMARK SMILES IDX 17 15 12 17 13 18 14 19
REMARK H PARENT
REMARK Flexibility Score: 70.00
ROOT
ATOM      1  C   UNL     1       6.960 -35.799  15.935  1.00  0.00     0.136 C 
ATOM      2  O   UNL     1       5.899 -35.684  16.534  1.00  0.00    -0.299 OA
ENDROOT
BRANCH   1   3
ATOM      3  C   UNL     1       7.041 -36.697  14.721  1.00  0.00     0.053 C 
ATOM      4  C   UNL     1       6.524 -38.106  15.037  1.00  0.00     0.016 C 
BRANCH   3   5
ATOM      5  C   UNL     1       6.248 -36.048  13.560  1.00  0.00     0.015 C 
BRANCH   5   6
ATOM      6  C   UNL     1       6.779 -34.690  13.057  1.00  0.00     0.028 C 
BRANCH   6   7
ATOM      7  C   UNL     1       8.279 -34.549  12.907  1.00  0.00    -0.028 C 
ATOM      8  C   UNL     1       9.042 -33.501  13.299  1.00  0.00    -0.070 CG0
ATOM      9  C   UNL     1      10.508 -33.530  12.939  1.00  0.00     0.039 C 
ATOM     10  G   UNL     1       8.537 -32.346  14.146  1.00  0.00     0.000 G0
ENDBRANCH   6   7
ENDBRANCH   5   6
ENDBRANCH   3   5
ENDBRANCH   1   3
BRANCH   1  11
ATOM     11  C   UNL     1       8.151 -34.981  16.378  1.00  0.00     0.087 C 
BRANCH  11  12
ATOM     12  C   UNL     1       7.825 -33.462  16.480  1.00  0.00     0.066 C 
BRANCH  12  13
ATOM     13  C   UNL     1       8.780 -32.634  15.630  1.00  0.00     0.140 C 
ATOM     14  O   UNL     1       9.776 -32.152  16.150  1.00  0.00    -0.299 OA
BRANCH  13  15
ATOM     15  C   UNL     1       8.525 -32.370  14.159  1.00  0.00     0.106 CG0
ATOM     16  G   UNL     1       9.054 -33.509  13.306  1.00  0.00     0.000 G0
ENDBRANCH  13  15
ENDBRANCH  12  13
BRANCH  12  17
ATOM     17  C   UNL     1       7.780 -32.974  17.961  1.00  0.00    -0.006 C 
ATOM     18  C   UNL     1       6.901 -31.731  18.188  1.00  0.00     0.008 C 
ATOM     19  C   UNL     1       7.354 -34.103  18.912  1.00  0.00     0.008 C 
ENDBRANCH  12  17
ENDBRANCH  11  12
ENDBRANCH   1  11
TORSDOF 1
ENDMDL
MODEL 3
REMARK VINA RESULT:    -2.488      1.550      3.964
REMARK INTER + INTRA:          -3.300
REMARK INTER:                  -3.457
REMARK INTRA:                   0.157
REMARK UNBOUND:                 0.496
REMARK SMILES CC1=CCC[C@H](C)C(=O)C[C@@H](C(C)C)C(=O)C1
REMARK SMILES IDX 8 1 9 2 6 3 7 4 5 5 4 6 3 7 2 8 1 9 10 11 11 12 15 13 16 14
REMARK SMILES IDX 17 15 12 17 13 18 14 19
REMARK H PARENT
REMARK Flexibility Score: 70.00
ROOT
ATOM      1  C   UNL     1       6.364 -33.443  16.645  1.00  0.00     0.136 C 
ATOM      2  O   UNL     1       6.080 -32.444  15.998  1.00  0.00    -0.299 OA
ENDROOT
BRANCH   1   3
ATOM      3  C   UNL     1       7.127 -33.301  17.944  1.00  0.00     0.053 C 
ATOM      4  C   UNL     1       7.429 -34.672  18.562  1.00  0.00     0.016 C 
BRANCH   3   5
ATOM      5  C   UNL     1       8.424 -32.498  17.682  1.00  0.00     0.015 C 
BRANCH   5   6
ATOM      6  C   UNL     1       9.411 -33.121  16.674  1.00  0.00     0.028 C 
BRANCH   6   7
ATOM      7  C   UNL     1       9.510 -32.467  15.312  1.00  0.00    -0.028 C 
ATOM      8  C   UNL     1       9.388 -33.073  14.106  1.00  0.00    -0.070 CG0
ATOM      9  C   UNL     1       9.643 -32.236  12.875  1.00  0.00     0.039 C 
ATOM     10  G   UNL     1       8.931 -34.507  13.914  1.00  0.00     0.000 G0
ENDBRANCH   6   7
ENDBRANCH   5   6
ENDBRANCH   3   5
ENDBRANCH   1   3
BRANCH   1  11
ATOM     11  C   UNL     1       5.880 -34.794  16.170  1.00  0.00     0.087 C 
BRANCH  11  12
ATOM     12  C   UNL     1       6.956 -35.554  15.341  1.00  0.00     0.066 C 
BRANCH  12  13
ATOM     13  C   UNL     1       7.460 -34.705  14.181  1.00  0.00     0.140 C 
ATOM     14  O   UNL     1       6.650 -34.161  13.444  1.00  0.00    -0.299 OA
BRANCH  13  15
ATOM     15  C   UNL     1       8.938 -34.531  13.895  1.00  0.00     0.106 CG0
ATOM     16  G   UNL     1       9.362 -33.088  14.103  1.00  0.00     0.000 G0
ENDBRANCH  13  15
ENDBRANCH  12  13
BRANCH  12  17
ATOM     17  C   UNL     1       6.448 -36.953  14.872  1.00  0.00    -0.006 C 
ATOM     18  C   UNL     1       7.396 -37.670  13.894  1.00  0.00     0.008 C 
ATOM     19  C   UNL     1       6.132 -37.866  16.067  1.00  0.00     0.008 C 
ENDBRANCH  12  17
ENDBRANCH  11  12
ENDBRANCH   1  11
TORSDOF 1
ENDMDL
MODEL 4
REMARK VINA RESULT:    -2.281      1.490      2.497
REMARK INTER + INTRA:          -2.985
REMARK INTER:                  -3.414
REMARK INTRA:                   0.429
REMARK UNBOUND:                 0.496
REMARK SMILES CC1=CCC[C@H](C)C(=O)C[C@@H](C(C)C)C(=O)C1
REMARK SMILES IDX 8 1 9 2 6 3 7 4 5 5 4 6 3 7 2 8 1 9 10 11 11 12 15 13 16 14
REMARK SMILES IDX 17 15 12 17 13 18 14 19
REMARK H PARENT
REMARK Flexibility Score: 70.00
ROOT
ATOM      1  C   UNL     1       7.108 -33.806  17.450  1.00  0.00     0.136 C 
ATOM      2  O   UNL     1       7.353 -33.271  18.523  1.00  0.00    -0.299 OA
ENDROOT
BRANCH   1   3
ATOM      3  C   UNL     1       7.326 -35.294  17.287  1.00  0.00     0.053 C 
ATOM      4  C   UNL     1       7.971 -35.900  18.540  1.00  0.00     0.016 C 
BRANCH   3   5
ATOM      5  C   UNL     1       5.971 -35.969  16.962  1.00  0.00     0.015 C 
BRANCH   5   6
ATOM      6  C   UNL     1       5.889 -36.693  15.603  1.00  0.00     0.028 C 
BRANCH   6   7
ATOM      7  C   UNL     1       7.078 -36.557  14.675  1.00  0.00    -0.028 C 
ATOM      8  C   UNL     1       7.306 -35.564  13.783  1.00  0.00    -0.070 CG0
ATOM      9  C   UNL     1       8.507 -35.699  12.878  1.00  0.00     0.039 C 
ATOM     10  G   UNL     1       6.484 -34.290  13.694  1.00  0.00     0.000 G0
ENDBRANCH   6   7
ENDBRANCH   5   6
ENDBRANCH   3   5
ENDBRANCH   1   3
BRANCH   1  11
ATOM     11  C   UNL     1       6.521 -32.978  16.330  1.00  0.00     0.087 C 
BRANCH  11  12
ATOM     12  C   UNL     1       7.601 -32.497  15.316  1.00  0.00     0.066 C 
BRANCH  12  13
ATOM     13  C   UNL     1       7.338 -33.055  13.923  1.00  0.00     0.140 C 
ATOM     14  O   UNL     1       7.820 -32.490  12.953  1.00  0.00    -0.299 OA
BRANCH  13  15
ATOM     15  C   UNL     1       6.476 -34.282  13.699  1.00  0.00     0.106 CG0
ATOM     16  G   UNL     1       7.305 -35.550  13.801  1.00  0.00     0.000 G0
ENDBRANCH  13  15
ENDBRANCH  12  13
BRANCH  12  17
ATOM     17  C   UNL     1       9.046 -32.809  15.813  1.00  0.00    -0.006 C 
ATOM     18  C   UNL     1      10.006 -33.273  14.704  1.00  0.00     0.008 C 
ATOM     19  C   UNL     1       9.650 -31.617  16.570  1.00  0.00     0.008 C 
ENDBRANCH  12  17
ENDBRANCH  11  12
ENDBRANCH   1  11
TORSDOF 1
ENDMDL
MODEL 5
REMARK VINA RESULT:    -2.280      1.544      3.833
REMARK INTER + INTRA:          -2.983
REMARK INTER:                  -3.038
REMARK INTRA:                   0.055
REMARK UNBOUND:                 0.496
REMARK SMILES CC1=CCC[C@H](C)C(=O)C[C@@H](C(C)C)C(=O)C1
REMARK SMILES IDX 8 1 9 2 6 3 7 4 5 5 4 6 3 7 2 8 1 9 10 11 11 12 15 13 16 14
REMARK SMILES IDX 17 15 12 17 13 18 14 19
REMARK H PARENT
REMARK Flexibility Score: 70.00
ROOT
ATOM      1  C   UNL     1       9.045 -32.798  14.746  1.00  0.00     0.136 C 
ATOM      2  O   UNL     1       9.995 -32.121  15.113  1.00  0.00    -0.299 OA
ENDROOT
BRANCH   1   3
ATOM      3  C   UNL     1       9.149 -33.607  13.472  1.00  0.00     0.053 C 
ATOM      4  C   UNL     1      10.260 -34.659  13.572  1.00  0.00     0.016 C 
BRANCH   3   5
ATOM      5  C   UNL     1       7.776 -34.258  13.174  1.00  0.00     0.015 C 
BRANCH   5   6
ATOM      6  C   UNL     1       7.747 -35.799  13.174  1.00  0.00     0.028 C 
BRANCH   6   7
ATOM      7  C   UNL     1       6.782 -36.470  14.129  1.00  0.00    -0.028 C 
ATOM      8  C   UNL     1       6.942 -36.641  15.463  1.00  0.00    -0.070 CG0
ATOM      9  C   UNL     1       5.896 -37.447  16.195  1.00  0.00     0.039 C 
ATOM     10  G   UNL     1       8.053 -36.004  16.278  1.00  0.00     0.000 G0
ENDBRANCH   6   7
ENDBRANCH   5   6
ENDBRANCH   3   5
ENDBRANCH   1   3
BRANCH   1  11
ATOM     11  C   UNL     1       7.810 -32.872  15.616  1.00  0.00     0.087 C 
BRANCH  11  12
ATOM     12  C   UNL     1       8.107 -33.472  17.021  1.00  0.00     0.066 C 
BRANCH  12  13
ATOM     13  C   UNL     1       7.555 -34.886  17.145  1.00  0.00     0.140 C 
ATOM     14  O   UNL     1       6.682 -35.115  17.971  1.00  0.00    -0.299 OA
BRANCH  13  15
ATOM     15  C   UNL     1       8.067 -36.028  16.290  1.00  0.00     0.106 CG0
ATOM     16  G   UNL     1       6.941 -36.645  15.481  1.00  0.00     0.000 G0
ENDBRANCH  13  15
ENDBRANCH  12  13
BRANCH  12  17
ATOM     17  C   UNL     1       7.607 -32.541  18.169  1.00  0.00    -0.006 C 
ATOM     18  C   UNL     1       8.726 -31.745  18.865  1.00  0.00     0.008 C 
ATOM     19  C   UNL     1       6.506 -31.588  17.680  1.00  0.00     0.008 C 
ENDBRANCH  12  17
ENDBRANCH  11  12
ENDBRANCH   1  11
TORSDOF 1
ENDMDL
MODEL 6
REMARK VINA RESULT:    -2.128      1.364      3.796
REMARK INTER + INTRA:          -2.751
REMARK INTER:                  -4.064
REMARK INTRA:                   1.313
REMARK UNBOUND:                 0.496
REMARK SMILES CC1=CCC[C@H](C)C(=O)C[C@@H](C(C)C)C(=O)C1
REMARK SMILES IDX 8 1 9 2 6 3 7 4 5 5 4 6 3 7 2 8 1 9 10 11 11 12 15 13 16 14
REMARK SMILES IDX 17 15 12 17 13 18 14 19
REMARK H PARENT
REMARK Flexibility Score: 70.00
ROOT
ATOM      1  C   UNL     1       9.074 -33.264  15.277  1.00  0.00     0.136 C 
ATOM      2  O   UNL     1       8.806 -32.110  15.585  1.00  0.00    -0.299 OA
ENDROOT
BRANCH   1   3
ATOM      3  C   UNL     1       9.462 -33.587  13.851  1.00  0.00     0.053 C 
ATOM      4  C   UNL     1      10.392 -32.513  13.272  1.00  0.00     0.016 C 
BRANCH   3   5
ATOM      5  C   UNL     1      10.119 -34.988  13.812  1.00  0.00     0.015 C 
BRANCH   5   6
ATOM      6  C   UNL     1       9.457 -36.018  12.875  1.00  0.00     0.028 C 
BRANCH   6   7
ATOM      7  C   UNL     1       8.526 -37.030  13.510  1.00  0.00    -0.028 C 
ATOM      8  C   UNL     1       7.324 -36.784  14.084  1.00  0.00    -0.070 CG0
ATOM      9  C   UNL     1       6.623 -37.937  14.759  1.00  0.00     0.039 C 
ATOM     10  G   UNL     1       6.602 -35.450  14.016  1.00  0.00     0.000 G0
ENDBRANCH   6   7
ENDBRANCH   5   6
ENDBRANCH   3   5
ENDBRANCH   1   3
BRANCH   1  11
ATOM     11  C   UNL     1       9.085 -34.331  16.347  1.00  0.00     0.087 C 
BRANCH  11  12
ATOM     12  C   UNL     1       7.747 -35.124  16.410  1.00  0.00     0.066 C 
BRANCH  12  13
ATOM     13  C   UNL     1       6.779 -34.661  15.328  1.00  0.00     0.140 C 
ATOM     14  O   UNL     1       6.135 -33.637  15.502  1.00  0.00    -0.299 OA
BRANCH  13  15
ATOM     15  C   UNL     1       6.573 -35.444  14.047  1.00  0.00     0.106 CG0
ATOM     16  G   UNL     1       7.294 -36.779  14.107  1.00  0.00     0.000 G0
ENDBRANCH  13  15
ENDBRANCH  12  13
BRANCH  12  17
ATOM     17  C   UNL     1       7.107 -35.074  17.833  1.00  0.00    -0.006 C 
ATOM     18  C   UNL     1       7.547 -36.221  18.760  1.00  0.00     0.008 C 
ATOM     19  C   UNL     1       7.355 -33.719  18.514  1.00  0.00     0.008 C 
ENDBRANCH  12  17
ENDBRANCH  11  12
ENDBRANCH   1  11
TORSDOF 1
ENDMDL
MODEL 7
REMARK VINA RESULT:    -1.868      1.756      3.858
REMARK INTER + INTRA:          -2.355
REMARK INTER:                  -3.416
REMARK INTRA:                   1.061
REMARK UNBOUND:                 0.496
REMARK SMILES CC1=CCC[C@H](C)C(=O)C[C@@H](C(C)C)C(=O)C1
REMARK SMILES IDX 8 1 9 2 6 3 7 4 5 5 4 6 3 7 2 8 1 9 10 11 11 12 15 13 16 14
REMARK SMILES IDX 17 15 12 17 13 18 14 19
REMARK H PARENT
REMARK Flexibility Score: 70.00
ROOT
ATOM      1  C   UNL     1       8.365 -33.339  17.501  1.00  0.00     0.136 C 
ATOM      2  O   UNL     1       7.634 -33.201  18.472  1.00  0.00    -0.299 OA
ENDROOT
BRANCH   1   3
ATOM      3  C   UNL     1       8.867 -32.119  16.762  1.00  0.00     0.053 C 
ATOM      4  C   UNL     1       9.650 -31.187  17.696  1.00  0.00     0.016 C 
BRANCH   3   5
ATOM      5  C   UNL     1       9.732 -32.576  15.562  1.00  0.00     0.015 C 
BRANCH   5   6
ATOM      6  C   UNL     1       8.997 -32.705  14.212  1.00  0.00     0.028 C 
BRANCH   6   7
ATOM      7  C   UNL     1       9.057 -34.051  13.520  1.00  0.00    -0.028 C 
ATOM      8  C   UNL     1       8.114 -35.024  13.547  1.00  0.00    -0.070 CG0
ATOM      9  C   UNL     1       8.444 -36.335  12.875  1.00  0.00     0.039 C 
ATOM     10  G   UNL     1       6.724 -34.850  14.132  1.00  0.00     0.000 G0
ENDBRANCH   6   7
ENDBRANCH   5   6
ENDBRANCH   3   5
ENDBRANCH   1   3
BRANCH   1  11
ATOM     11  C   UNL     1       8.813 -34.727  17.105  1.00  0.00     0.087 C 
BRANCH  11  12
ATOM     12  C   UNL     1       7.656 -35.576  16.500  1.00  0.00     0.066 C 
BRANCH  12  13
ATOM     13  C   UNL     1       6.740 -34.722  15.633  1.00  0.00     0.140 C 
ATOM     14  O   UNL     1       6.003 -33.906  16.167  1.00  0.00    -0.299 OA
BRANCH  13  15
ATOM     15  C   UNL     1       6.699 -34.866  14.124  1.00  0.00     0.106 CG0
ATOM     16  G   UNL     1       8.100 -35.003  13.556  1.00  0.00     0.000 G0
ENDBRANCH  13  15
ENDBRANCH  12  13
BRANCH  12  17
ATOM     17  C   UNL     1       6.869 -36.355  17.600  1.00  0.00    -0.006 C 
ATOM     18  C   UNL     1       6.147 -37.612  17.085  1.00  0.00     0.008 C 
ATOM     19  C   UNL     1       7.772 -36.713  18.790  1.00  0.00     0.008 C 
ENDBRANCH  12  17
ENDBRANCH  11  12
ENDBRANCH   1  11
TORSDOF 1
ENDMDL
MODEL 8
REMARK VINA RESULT:    -1.806      2.311      5.288
REMARK INTER + INTRA:          -2.260
REMARK INTER:                  -4.131
REMARK INTRA:                   1.871
REMARK UNBOUND:                 0.496
REMARK SMILES CC1=CCC[C@H](C)C(=O)C[C@@H](C(C)C)C(=O)C1
REMARK SMILES IDX 8 1 9 2 6 3 7 4 5 5 4 6 3 7 2 8 1 9 10 11 11 12 15 13 16 14
REMARK SMILES IDX 17 15 12 17 13 18 14 19
REMARK H PARENT
REMARK Flexibility Score: 70.00
ROOT
ATOM      1  C   UNL     1       8.118 -35.472  14.281  1.00  0.00     0.136 C 
ATOM      2  O   UNL     1       8.466 -36.493  13.703  1.00  0.00    -0.299 OA
ENDROOT
BRANCH   1   3
ATOM      3  C   UNL     1       7.406 -34.382  13.511  1.00  0.00     0.053 C 
ATOM      4  C   UNL     1       5.904 -34.670  13.403  1.00  0.00     0.016 C 
BRANCH   3   5
ATOM      5  C   UNL     1       7.676 -33.021  14.199  1.00  0.00     0.015 C 
BRANCH   5   6
ATOM      6  C   UNL     1       9.159 -32.647  14.395  1.00  0.00     0.028 C 
BRANCH   6   7
ATOM      7  C   UNL     1       9.599 -32.287  15.799  1.00  0.00    -0.028 C 
ATOM      8  C   UNL     1       8.808 -32.141  16.889  1.00  0.00    -0.070 CG0
ATOM      9  C   UNL     1       9.457 -31.661  18.164  1.00  0.00     0.039 C 
ATOM     10  G   UNL     1       7.336 -32.510  16.931  1.00  0.00     0.000 G0
ENDBRANCH   6   7
ENDBRANCH   5   6
ENDBRANCH   3   5
ENDBRANCH   1   3
BRANCH   1  11
ATOM     11  C   UNL     1       8.341 -35.354  15.771  1.00  0.00     0.087 C 
BRANCH  11  12
ATOM     12  C   UNL     1       7.018 -35.112  16.554  1.00  0.00     0.066 C 
BRANCH  12  13
ATOM     13  C   UNL     1       7.141 -33.915  17.488  1.00  0.00     0.140 C 
ATOM     14  O   UNL     1       7.062 -34.090  18.695  1.00  0.00    -0.299 OA
BRANCH  13  15
ATOM     15  C   UNL     1       7.337 -32.505  16.966  1.00  0.00     0.106 CG0
ATOM     16  G   UNL     1       8.813 -32.160  16.886  1.00  0.00     0.000 G0
ENDBRANCH  13  15
ENDBRANCH  12  13
BRANCH  12  17
ATOM     17  C   UNL     1       6.540 -36.396  17.301  1.00  0.00    -0.006 C 
ATOM     18  C   UNL     1       6.003 -37.500  16.373  1.00  0.00     0.008 C 
ATOM     19  C   UNL     1       7.643 -36.961  18.210  1.00  0.00     0.008 C 
ENDBRANCH  12  17
ENDBRANCH  11  12
ENDBRANCH   1  11
TORSDOF 1
ENDMDL
MODEL 9
REMARK VINA RESULT:    -1.565      2.027      4.728
REMARK INTER + INTRA:          -1.891
REMARK INTER:                  -4.629
REMARK INTRA:                   2.737
REMARK UNBOUND:                 0.496
REMARK SMILES CC1=CCC[C@H](C)C(=O)C[C@@H](C(C)C)C(=O)C1
REMARK SMILES IDX 8 1 9 2 6 3 7 4 5 5 4 6 3 7 2 8 1 9 10 11 11 12 15 13 16 14
REMARK SMILES IDX 17 15 12 17 13 18 14 19
REMARK H PARENT
REMARK Flexibility Score: 70.00
ROOT
ATOM      1  C   UNL     1       9.212 -35.041  13.518  1.00  0.00     0.136 C 
ATOM      2  O   UNL     1      10.432 -35.087  13.430  1.00  0.00    -0.299 OA
ENDROOT
BRANCH   1   3
ATOM      3  C   UNL     1       8.457 -33.899  12.875  1.00  0.00     0.053 C 
ATOM      4  C   UNL     1       6.942 -34.114  12.967  1.00  0.00     0.016 C 
BRANCH   3   5
ATOM      5  C   UNL     1       8.884 -32.571  13.547  1.00  0.00     0.015 C 
BRANCH   5   6
ATOM      6  C   UNL     1       9.588 -32.702  14.913  1.00  0.00     0.028 C 
BRANCH   6   7
ATOM      7  C   UNL     1       8.767 -32.382  16.145  1.00  0.00    -0.028 C 
ATOM      8  C   UNL     1       8.097 -33.261  16.929  1.00  0.00    -0.070 CG0
ATOM      9  C   UNL     1       7.247 -32.697  18.042  1.00  0.00     0.039 C 
ATOM     10  G   UNL     1       8.213 -34.770  16.812  1.00  0.00     0.000 G0
ENDBRANCH   6   7
ENDBRANCH   5   6
ENDBRANCH   3   5
ENDBRANCH   1   3
BRANCH   1  11
ATOM     11  C   UNL     1       8.479 -36.170  14.205  1.00  0.00     0.087 C 
BRANCH  11  12
ATOM     12  C   UNL     1       7.042 -35.765  14.646  1.00  0.00     0.066 C 
BRANCH  12  13
ATOM     13  C   UNL     1       7.007 -35.370  16.117  1.00  0.00     0.140 C 
ATOM     14  O   UNL     1       5.971 -35.517  16.749  1.00  0.00    -0.299 OA
BRANCH  13  15
ATOM     15  C   UNL     1       8.213 -34.779  16.819  1.00  0.00     0.106 CG0
ATOM     16  G   UNL     1       8.089 -33.269  16.927  1.00  0.00     0.000 G0
ENDBRANCH  13  15
ENDBRANCH  12  13
BRANCH  12  17
ATOM     17  C   UNL     1       5.996 -36.872  14.307  1.00  0.00    -0.006 C 
ATOM     18  C   UNL     1       6.181 -37.509  12.919  1.00  0.00     0.008 C 
ATOM     19  C   UNL     1       5.961 -37.963  15.389  1.00  0.00     0.008 C 
ENDBRANCH  12  17
ENDBRANCH  11  12
ENDBRANCH   1  11
TORSDOF 1
ENDMDL
