MODEL 1
REMARK VINA RESULT:    -1.944      0.000      0.000
REMARK INTER + INTRA:          -4.285
REMARK INTER:                  -3.762
REMARK INTRA:                  -0.524
REMARK UNBOUND:                -0.524
REMARK SMILES CCCCCCCCCCCCCCCCCC(=O)[O-]
REMARK SMILES IDX 10 1 11 2 12 3 13 4 14 5 15 6 16 7 17 8 18 9 19 10 20 11
REMARK SMILES IDX 9 12 8 13 7 14 6 15 5 16 4 17 3 18 2 19 1 20
REMARK H PARENT
REMARK Flexibility Score: inf
ROOT
ATOM      1  C   UNL     1      31.000  -0.339  -2.901  1.00  0.00     0.000 C 
ENDROOT
BRANCH   1   2
ATOM      2  C   UNL     1      31.498   0.233  -1.556  1.00  0.00     0.000 C 
BRANCH   2   3
ATOM      3  C   UNL     1      30.368   0.760  -0.648  1.00  0.00     0.000 C 
BRANCH   3   4
ATOM      4  C   UNL     1      30.765   0.987   0.821  1.00  0.00     0.000 C 
BRANCH   4   5
ATOM      5  C   UNL     1      29.777   1.899   1.569  1.00  0.00     0.000 C 
BRANCH   5   6
ATOM      6  C   UNL     1      30.330   2.377   2.922  1.00  0.00     0.000 C 
BRANCH   6   7
ATOM      7  C   UNL     1      30.940   3.785   2.848  1.00  0.00     0.006 C 
BRANCH   7   8
ATOM      8  C   UNL     1      30.732   4.541   4.164  1.00  0.00     0.053 C 
BRANCH   8   9
ATOM      9  C   UNL     1      30.877   6.014   3.952  1.00  0.00     0.041 C 
ATOM     10  O   UNL     1      30.212   6.823   4.651  1.00  0.00    -0.550 OA
ATOM     11  O   UNL     1      31.776   6.495   3.009  1.00  0.00    -0.550 OA
ENDBRANCH   8   9
ENDBRANCH   7   8
ENDBRANCH   6   7
ENDBRANCH   5   6
ENDBRANCH   4   5
ENDBRANCH   3   4
ENDBRANCH   2   3
ENDBRANCH   1   2
BRANCH   1  12
ATOM     12  C   UNL     1      32.114  -1.066  -3.673  1.00  0.00     0.000 C 
BRANCH  12  13
ATOM     13  C   UNL     1      33.504  -0.838  -3.057  1.00  0.00    -0.000 C 
BRANCH  13  14
ATOM     14  C   UNL     1      34.630  -0.928  -4.097  1.00  0.00    -0.000 C 
BRANCH  14  15
ATOM     15  C   UNL     1      35.754  -1.849  -3.608  1.00  0.00    -0.000 C 
BRANCH  15  16
ATOM     16  C   UNL     1      35.558  -3.282  -4.124  1.00  0.00    -0.000 C 
BRANCH  16  17
ATOM     17  C   UNL     1      36.738  -4.205  -3.752  1.00  0.00    -0.000 C 
BRANCH  17  18
ATOM     18  C   UNL     1      36.326  -5.670  -3.506  1.00  0.00    -0.000 C 
BRANCH  18  19
ATOM     19  C   UNL     1      36.503  -6.153  -2.057  1.00  0.00    -0.003 C 
ATOM     20  C   UNL     1      36.344  -7.666  -1.910  1.00  0.00     0.004 C 
ENDBRANCH  18  19
ENDBRANCH  17  18
ENDBRANCH  16  17
ENDBRANCH  15  16
ENDBRANCH  14  15
ENDBRANCH  13  14
ENDBRANCH  12  13
ENDBRANCH   1  12
TORSDOF 16
ENDMDL
MODEL 2
REMARK VINA RESULT:    -1.775      3.850      7.040
REMARK INTER + INTRA:          -3.958
REMARK INTER:                  -3.039
REMARK INTRA:                  -0.919
REMARK UNBOUND:                -0.524
REMARK SMILES CCCCCCCCCCCCCCCCCC(=O)[O-]
REMARK SMILES IDX 10 1 11 2 12 3 13 4 14 5 15 6 16 7 17 8 18 9 19 10 20 11
REMARK SMILES IDX 9 12 8 13 7 14 6 15 5 16 4 17 3 18 2 19 1 20
REMARK H PARENT
REMARK Flexibility Score: inf
ROOT
ATOM      1  C   UNL     1      31.302  -0.634  -3.003  1.00  0.00     0.000 C 
ENDROOT
BRANCH   1   2
ATOM      2  C   UNL     1      31.485  -0.453  -1.481  1.00  0.00     0.000 C 
BRANCH   2   3
ATOM      3  C   UNL     1      30.523   0.578  -0.857  1.00  0.00     0.000 C 
BRANCH   3   4
ATOM      4  C   UNL     1      30.944   1.111   0.523  1.00  0.00     0.000 C 
BRANCH   4   5
ATOM      5  C   UNL     1      29.749   1.583   1.369  1.00  0.00     0.000 C 
BRANCH   5   6
ATOM      6  C   UNL     1      30.187   2.272   2.671  1.00  0.00     0.000 C 
BRANCH   6   7
ATOM      7  C   UNL     1      30.462   3.772   2.484  1.00  0.00     0.006 C 
BRANCH   7   8
ATOM      8  C   UNL     1      30.981   4.399   3.783  1.00  0.00     0.053 C 
BRANCH   8   9
ATOM      9  C   UNL     1      30.836   5.886   3.741  1.00  0.00     0.041 C 
ATOM     10  O   UNL     1      29.761   6.428   4.108  1.00  0.00    -0.550 OA
ATOM     11  O   UNL     1      31.902   6.677   3.334  1.00  0.00    -0.550 OA
ENDBRANCH   8   9
ENDBRANCH   7   8
ENDBRANCH   6   7
ENDBRANCH   5   6
ENDBRANCH   4   5
ENDBRANCH   3   4
ENDBRANCH   2   3
ENDBRANCH   1   2
BRANCH   1  12
ATOM     12  C   UNL     1      31.016   0.698  -3.718  1.00  0.00     0.000 C 
BRANCH  12  13
ATOM     13  C   UNL     1      32.263   1.591  -3.821  1.00  0.00    -0.000 C 
BRANCH  13  14
ATOM     14  C   UNL     1      31.910   3.070  -4.037  1.00  0.00    -0.000 C 
BRANCH  14  15
ATOM     15  C   UNL     1      33.168   3.946  -3.987  1.00  0.00    -0.000 C 
BRANCH  15  16
ATOM     16  C   UNL     1      32.882   5.285  -3.292  1.00  0.00    -0.000 C 
BRANCH  16  17
ATOM     17  C   UNL     1      31.496   5.308  -2.612  1.00  0.00    -0.000 C 
BRANCH  17  18
ATOM     18  C   UNL     1      31.191   6.624  -1.871  1.00  0.00    -0.000 C 
BRANCH  18  19
ATOM     19  C   UNL     1      30.690   7.766  -2.770  1.00  0.00    -0.003 C 
ATOM     20  C   UNL     1      29.302   8.270  -2.375  1.00  0.00     0.004 C 
ENDBRANCH  18  19
ENDBRANCH  17  18
ENDBRANCH  16  17
ENDBRANCH  15  16
ENDBRANCH  14  15
ENDBRANCH  13  14
ENDBRANCH  12  13
ENDBRANCH   1  12
TORSDOF 16
ENDMDL
MODEL 3
REMARK VINA RESULT:    -1.678      4.373     10.699
REMARK INTER + INTRA:          -3.771
REMARK INTER:                  -2.966
REMARK INTRA:                  -0.806
REMARK UNBOUND:                -0.524
REMARK SMILES CCCCCCCCCCCCCCCCCC(=O)[O-]
REMARK SMILES IDX 10 1 11 2 12 3 13 4 14 5 15 6 16 7 17 8 18 9 19 10 20 11
REMARK SMILES IDX 9 12 8 13 7 14 6 15 5 16 4 17 3 18 2 19 1 20
REMARK H PARENT
REMARK Flexibility Score: inf
ROOT
ATOM      1  C   UNL     1      30.883   0.577  -1.168  1.00  0.00     0.000 C 
ENDROOT
BRANCH   1   2
ATOM      2  C   UNL     1      31.460  -0.799  -1.566  1.00  0.00     0.000 C 
BRANCH   2   3
ATOM      3  C   UNL     1      31.377  -1.093  -3.077  1.00  0.00     0.000 C 
BRANCH   3   4
ATOM      4  C   UNL     1      32.597  -0.640  -3.898  1.00  0.00     0.000 C 
BRANCH   4   5
ATOM      5  C   UNL     1      33.927  -0.857  -3.155  1.00  0.00     0.000 C 
BRANCH   5   6
ATOM      6  C   UNL     1      35.145  -0.463  -4.007  1.00  0.00     0.000 C 
BRANCH   6   7
ATOM      7  C   UNL     1      36.200  -1.576  -4.084  1.00  0.00     0.006 C 
BRANCH   7   8
ATOM      8  C   UNL     1      35.545  -2.958  -3.977  1.00  0.00     0.053 C 
BRANCH   8   9
ATOM      9  C   UNL     1      36.361  -3.859  -3.106  1.00  0.00     0.041 C 
ATOM     10  O   UNL     1      37.030  -3.381  -2.153  1.00  0.00    -0.550 OA
ATOM     11  O   UNL     1      36.352  -5.230  -3.323  1.00  0.00    -0.550 OA
ENDBRANCH   8   9
ENDBRANCH   7   8
ENDBRANCH   6   7
ENDBRANCH   5   6
ENDBRANCH   4   5
ENDBRANCH   3   4
ENDBRANCH   2   3
ENDBRANCH   1   2
BRANCH   1  12
ATOM     12  C   UNL     1      31.066   0.874   0.331  1.00  0.00     0.000 C 
BRANCH  12  13
ATOM     13  C   UNL     1      29.728   0.932   1.087  1.00  0.00    -0.000 C 
BRANCH  13  14
ATOM     14  C   UNL     1      29.790   1.842   2.322  1.00  0.00    -0.000 C 
BRANCH  14  15
ATOM     15  C   UNL     1      30.640   3.087   2.042  1.00  0.00    -0.000 C 
BRANCH  15  16
ATOM     16  C   UNL     1      30.767   3.964   3.297  1.00  0.00    -0.000 C 
BRANCH  16  17
ATOM     17  C   UNL     1      30.584   5.464   2.984  1.00  0.00    -0.000 C 
BRANCH  17  18
ATOM     18  C   UNL     1      30.390   6.340   4.237  1.00  0.00    -0.000 C 
BRANCH  18  19
ATOM     19  C   UNL     1      30.873   5.700   5.549  1.00  0.00    -0.003 C 
ATOM     20  C   UNL     1      30.306   6.387   6.791  1.00  0.00     0.004 C 
ENDBRANCH  18  19
ENDBRANCH  17  18
ENDBRANCH  16  17
ENDBRANCH  15  16
ENDBRANCH  14  15
ENDBRANCH  13  14
ENDBRANCH  12  13
ENDBRANCH   1  12
TORSDOF 16
ENDMDL
MODEL 4
REMARK VINA RESULT:    -1.594      4.707      8.485
REMARK INTER + INTRA:          -3.609
REMARK INTER:                  -2.780
REMARK INTRA:                  -0.828
REMARK UNBOUND:                -0.524
REMARK SMILES CCCCCCCCCCCCCCCCCC(=O)[O-]
REMARK SMILES IDX 10 1 11 2 12 3 13 4 14 5 15 6 16 7 17 8 18 9 19 10 20 11
REMARK SMILES IDX 9 12 8 13 7 14 6 15 5 16 4 17 3 18 2 19 1 20
REMARK H PARENT
REMARK Flexibility Score: inf
ROOT
ATOM      1  C   UNL     1      30.965   0.627  -3.293  1.00  0.00     0.000 C 
ENDROOT
BRANCH   1   2
ATOM      2  C   UNL     1      31.979   1.453  -4.114  1.00  0.00     0.000 C 
BRANCH   2   3
ATOM      3  C   UNL     1      31.892   2.971  -3.862  1.00  0.00     0.000 C 
BRANCH   3   4
ATOM      4  C   UNL     1      33.192   3.751  -4.125  1.00  0.00     0.000 C 
BRANCH   4   5
ATOM      5  C   UNL     1      33.216   5.122  -3.426  1.00  0.00     0.000 C 
BRANCH   5   6
ATOM      6  C   UNL     1      31.846   5.505  -2.843  1.00  0.00     0.000 C 
BRANCH   6   7
ATOM      7  C   UNL     1      31.497   6.983  -3.074  1.00  0.00     0.006 C 
BRANCH   7   8
ATOM      8  C   UNL     1      30.351   7.425  -2.157  1.00  0.00     0.053 C 
BRANCH   8   9
ATOM      9  C   UNL     1      29.787   8.732  -2.615  1.00  0.00     0.041 C 
ATOM     10  O   UNL     1      30.327   9.355  -3.566  1.00  0.00    -0.550 OA
ATOM     11  O   UNL     1      28.643   9.242  -2.017  1.00  0.00    -0.550 OA
ENDBRANCH   8   9
ENDBRANCH   7   8
ENDBRANCH   6   7
ENDBRANCH   5   6
ENDBRANCH   4   5
ENDBRANCH   3   4
ENDBRANCH   2   3
ENDBRANCH   1   2
BRANCH   1  12
ATOM     12  C   UNL     1      31.524   0.218  -1.918  1.00  0.00     0.000 C 
BRANCH  12  13
ATOM     13  C   UNL     1      30.454   0.249  -0.815  1.00  0.00    -0.000 C 
BRANCH  13  14
ATOM     14  C   UNL     1      30.718   1.344   0.229  1.00  0.00    -0.000 C 
BRANCH  14  15
ATOM     15  C   UNL     1      29.873   1.116   1.488  1.00  0.00    -0.000 C 
BRANCH  15  16
ATOM     16  C   UNL     1      29.667   2.427   2.260  1.00  0.00    -0.000 C 
BRANCH  16  17
ATOM     17  C   UNL     1      30.989   2.985   2.830  1.00  0.00    -0.000 C 
BRANCH  17  18
ATOM     18  C   UNL     1      30.794   4.144   3.827  1.00  0.00    -0.000 C 
BRANCH  18  19
ATOM     19  C   UNL     1      30.534   5.513   3.178  1.00  0.00    -0.003 C 
ATOM     20  C   UNL     1      30.635   6.672   4.170  1.00  0.00     0.004 C 
ENDBRANCH  18  19
ENDBRANCH  17  18
ENDBRANCH  16  17
ENDBRANCH  15  16
ENDBRANCH  14  15
ENDBRANCH  13  14
ENDBRANCH  12  13
ENDBRANCH   1  12
TORSDOF 16
ENDMDL
MODEL 5
REMARK VINA RESULT:    -1.563      3.848      9.576
REMARK INTER + INTRA:          -3.549
REMARK INTER:                  -2.432
REMARK INTRA:                  -1.117
REMARK UNBOUND:                -0.524
REMARK SMILES CCCCCCCCCCCCCCCCCC(=O)[O-]
REMARK SMILES IDX 10 1 11 2 12 3 13 4 14 5 15 6 16 7 17 8 18 9 19 10 20 11
REMARK SMILES IDX 9 12 8 13 7 14 6 15 5 16 4 17 3 18 2 19 1 20
REMARK H PARENT
REMARK Flexibility Score: inf
ROOT
ATOM      1  C   UNL     1      30.668   0.898  -0.255  1.00  0.00     0.000 C 
ENDROOT
BRANCH   1   2
ATOM      2  C   UNL     1      31.476  -0.401  -0.466  1.00  0.00     0.000 C 
BRANCH   2   3
ATOM      3  C   UNL     1      31.672  -0.776  -1.949  1.00  0.00     0.000 C 
BRANCH   3   4
ATOM      4  C   UNL     1      33.058  -0.443  -2.528  1.00  0.00     0.000 C 
BRANCH   4   5
ATOM      5  C   UNL     1      32.987   0.102  -3.965  1.00  0.00     0.000 C 
BRANCH   5   6
ATOM      6  C   UNL     1      31.917   1.194  -4.125  1.00  0.00     0.000 C 
BRANCH   6   7
ATOM      7  C   UNL     1      32.490   2.611  -3.982  1.00  0.00     0.006 C 
BRANCH   7   8
ATOM      8  C   UNL     1      31.550   3.502  -3.163  1.00  0.00     0.053 C 
BRANCH   8   9
ATOM      9  C   UNL     1      32.116   4.880  -3.030  1.00  0.00     0.041 C 
ATOM     10  O   UNL     1      33.179   5.188  -3.630  1.00  0.00    -0.550 OA
ATOM     11  O   UNL     1      31.450   5.835  -2.274  1.00  0.00    -0.550 OA
ENDBRANCH   8   9
ENDBRANCH   7   8
ENDBRANCH   6   7
ENDBRANCH   5   6
ENDBRANCH   4   5
ENDBRANCH   3   4
ENDBRANCH   2   3
ENDBRANCH   1   2
BRANCH   1  12
ATOM     12  C   UNL     1      29.680   0.786   0.919  1.00  0.00     0.000 C 
BRANCH  12  13
ATOM     13  C   UNL     1      29.643   2.060   1.781  1.00  0.00    -0.000 C 
BRANCH  13  14
ATOM     14  C   UNL     1      30.946   2.277   2.565  1.00  0.00    -0.000 C 
BRANCH  14  15
ATOM     15  C   UNL     1      30.751   3.320   3.671  1.00  0.00    -0.000 C 
BRANCH  15  16
ATOM     16  C   UNL     1      30.646   4.735   3.084  1.00  0.00    -0.000 C 
BRANCH  16  17
ATOM     17  C   UNL     1      31.150   5.815   4.066  1.00  0.00    -0.000 C 
BRANCH  17  18
ATOM     18  C   UNL     1      30.191   7.013   4.214  1.00  0.00    -0.000 C 
BRANCH  18  19
ATOM     19  C   UNL     1      29.880   7.410   5.667  1.00  0.00    -0.003 C 
ATOM     20  C   UNL     1      30.431   6.415   6.688  1.00  0.00     0.004 C 
ENDBRANCH  18  19
ENDBRANCH  17  18
ENDBRANCH  16  17
ENDBRANCH  15  16
ENDBRANCH  14  15
ENDBRANCH  13  14
ENDBRANCH  12  13
ENDBRANCH   1  12
TORSDOF 16
ENDMDL
MODEL 6
REMARK VINA RESULT:    -1.405      1.370      2.569
REMARK INTER + INTRA:          -3.243
REMARK INTER:                  -2.435
REMARK INTRA:                  -0.808
REMARK UNBOUND:                -0.524
REMARK SMILES CCCCCCCCCCCCCCCCCC(=O)[O-]
REMARK SMILES IDX 10 1 11 2 12 3 13 4 14 5 15 6 16 7 17 8 18 9 19 10 20 11
REMARK SMILES IDX 9 12 8 13 7 14 6 15 5 16 4 17 3 18 2 19 1 20
REMARK H PARENT
REMARK Flexibility Score: inf
ROOT
ATOM      1  C   UNL     1      31.373   0.338  -0.421  1.00  0.00     0.000 C 
ENDROOT
BRANCH   1   2
ATOM      2  C   UNL     1      30.086   0.742   0.331  1.00  0.00     0.000 C 
BRANCH   2   3
ATOM      3  C   UNL     1      30.237   2.024   1.175  1.00  0.00     0.000 C 
BRANCH   3   4
ATOM      4  C   UNL     1      30.014   1.839   2.686  1.00  0.00     0.000 C 
BRANCH   4   5
ATOM      5  C   UNL     1      30.644   2.966   3.523  1.00  0.00     0.000 C 
BRANCH   5   6
ATOM      6  C   UNL     1      31.083   4.160   2.661  1.00  0.00     0.000 C 
BRANCH   6   7
ATOM      7  C   UNL     1      30.327   5.451   3.009  1.00  0.00     0.006 C 
BRANCH   7   8
ATOM      8  C   UNL     1      31.208   6.396   3.833  1.00  0.00     0.053 C 
BRANCH   8   9
ATOM      9  C   UNL     1      30.492   6.836   5.069  1.00  0.00     0.041 C 
ATOM     10  O   UNL     1      29.953   7.973   5.117  1.00  0.00    -0.550 OA
ATOM     11  O   UNL     1      30.385   5.977   6.155  1.00  0.00    -0.550 OA
ENDBRANCH   8   9
ENDBRANCH   7   8
ENDBRANCH   6   7
ENDBRANCH   5   6
ENDBRANCH   4   5
ENDBRANCH   3   4
ENDBRANCH   2   3
ENDBRANCH   1   2
BRANCH   1  12
ATOM     12  C   UNL     1      31.154   0.244  -1.941  1.00  0.00     0.000 C 
BRANCH  12  13
ATOM     13  C   UNL     1      31.151  -1.209  -2.446  1.00  0.00    -0.000 C 
BRANCH  13  14
ATOM     14  C   UNL     1      32.072  -1.410  -3.659  1.00  0.00    -0.000 C 
BRANCH  14  15
ATOM     15  C   UNL     1      32.996  -0.203  -3.851  1.00  0.00    -0.000 C 
BRANCH  15  16
ATOM     16  C   UNL     1      34.452  -0.564  -3.521  1.00  0.00    -0.000 C 
BRANCH  16  17
ATOM     17  C   UNL     1      34.848  -1.955  -4.062  1.00  0.00    -0.000 C 
BRANCH  17  18
ATOM     18  C   UNL     1      35.996  -2.621  -3.278  1.00  0.00    -0.000 C 
BRANCH  18  19
ATOM     19  C   UNL     1      36.872  -3.573  -4.108  1.00  0.00    -0.003 C 
ATOM     20  C   UNL     1      36.712  -5.038  -3.701  1.00  0.00     0.004 C 
ENDBRANCH  18  19
ENDBRANCH  17  18
ENDBRANCH  16  17
ENDBRANCH  15  16
ENDBRANCH  14  15
ENDBRANCH  13  14
ENDBRANCH  12  13
ENDBRANCH   1  12
TORSDOF 16
ENDMDL
MODEL 7
REMARK VINA RESULT:    -1.258      3.091      5.181
REMARK INTER + INTRA:          -2.959
REMARK INTER:                  -2.407
REMARK INTRA:                  -0.552
REMARK UNBOUND:                -0.524
REMARK SMILES CCCCCCCCCCCCCCCCCC(=O)[O-]
REMARK SMILES IDX 10 1 11 2 12 3 13 4 14 5 15 6 16 7 17 8 18 9 19 10 20 11
REMARK SMILES IDX 9 12 8 13 7 14 6 15 5 16 4 17 3 18 2 19 1 20
REMARK H PARENT
REMARK Flexibility Score: inf
ROOT
ATOM      1  C   UNL     1      30.787   1.230   0.069  1.00  0.00     0.000 C 
ENDROOT
BRANCH   1   2
ATOM      2  C   UNL     1      29.652   0.816   1.030  1.00  0.00     0.000 C 
BRANCH   2   3
ATOM      3  C   UNL     1      29.218   1.934   1.998  1.00  0.00     0.000 C 
BRANCH   3   4
ATOM      4  C   UNL     1      30.202   2.221   3.146  1.00  0.00     0.000 C 
BRANCH   4   5
ATOM      5  C   UNL     1      31.073   3.463   2.887  1.00  0.00     0.000 C 
BRANCH   5   6
ATOM      6  C   UNL     1      30.300   4.775   3.098  1.00  0.00     0.000 C 
BRANCH   6   7
ATOM      7  C   UNL     1      31.104   5.813   3.894  1.00  0.00     0.006 C 
BRANCH   7   8
ATOM      8  C   UNL     1      30.239   7.032   4.233  1.00  0.00     0.053 C 
BRANCH   8   9
ATOM      9  C   UNL     1      30.160   7.224   5.714  1.00  0.00     0.041 C 
ATOM     10  O   UNL     1      30.302   6.240   6.488  1.00  0.00    -0.550 OA
ATOM     11  O   UNL     1      29.969   8.494   6.242  1.00  0.00    -0.550 OA
ENDBRANCH   8   9
ENDBRANCH   7   8
ENDBRANCH   6   7
ENDBRANCH   5   6
ENDBRANCH   4   5
ENDBRANCH   3   4
ENDBRANCH   2   3
ENDBRANCH   1   2
BRANCH   1  12
ATOM     12  C   UNL     1      30.608   0.632  -1.337  1.00  0.00     0.000 C 
BRANCH  12  13
ATOM     13  C   UNL     1      31.483  -0.612  -1.564  1.00  0.00    -0.000 C 
BRANCH  13  14
ATOM     14  C   UNL     1      31.302  -1.210  -2.967  1.00  0.00    -0.000 C 
BRANCH  14  15
ATOM     15  C   UNL     1      32.657  -1.570  -3.588  1.00  0.00    -0.000 C 
BRANCH  15  16
ATOM     16  C   UNL     1      33.492  -0.310  -3.861  1.00  0.00    -0.000 C 
BRANCH  16  17
ATOM     17  C   UNL     1      32.611   0.932  -4.117  1.00  0.00    -0.000 C 
BRANCH  17  18
ATOM     18  C   UNL     1      33.391   2.262  -4.090  1.00  0.00    -0.000 C 
BRANCH  18  19
ATOM     19  C   UNL     1      32.526   3.509  -3.845  1.00  0.00    -0.003 C 
ATOM     20  C   UNL     1      33.338   4.804  -3.836  1.00  0.00     0.004 C 
ENDBRANCH  18  19
ENDBRANCH  17  18
ENDBRANCH  16  17
ENDBRANCH  15  16
ENDBRANCH  14  15
ENDBRANCH  13  14
ENDBRANCH  12  13
ENDBRANCH   1  12
TORSDOF 16
ENDMDL
MODEL 8
REMARK VINA RESULT:    -1.240      4.315     10.466
REMARK INTER + INTRA:          -2.924
REMARK INTER:                  -2.049
REMARK INTRA:                  -0.875
REMARK UNBOUND:                -0.524
REMARK SMILES CCCCCCCCCCCCCCCCCC(=O)[O-]
REMARK SMILES IDX 10 1 11 2 12 3 13 4 14 5 15 6 16 7 17 8 18 9 19 10 20 11
REMARK SMILES IDX 9 12 8 13 7 14 6 15 5 16 4 17 3 18 2 19 1 20
REMARK H PARENT
REMARK Flexibility Score: inf
ROOT
ATOM      1  C   UNL     1      29.601   0.952   0.984  1.00  0.00     0.000 C 
ENDROOT
BRANCH   1   2
ATOM      2  C   UNL     1      30.741   1.143  -0.039  1.00  0.00     0.000 C 
BRANCH   2   3
ATOM      3  C   UNL     1      30.542   0.349  -1.346  1.00  0.00     0.000 C 
BRANCH   3   4
ATOM      4  C   UNL     1      31.646  -0.675  -1.662  1.00  0.00     0.000 C 
BRANCH   4   5
ATOM      5  C   UNL     1      32.079  -0.647  -3.138  1.00  0.00     0.000 C 
BRANCH   5   6
ATOM      6  C   UNL     1      31.507   0.564  -3.893  1.00  0.00     0.000 C 
BRANCH   6   7
ATOM      7  C   UNL     1      32.553   1.665  -4.125  1.00  0.00     0.006 C 
BRANCH   7   8
ATOM      8  C   UNL     1      32.268   2.885  -3.243  1.00  0.00     0.053 C 
BRANCH   8   9
ATOM      9  C   UNL     1      33.105   4.048  -3.669  1.00  0.00     0.041 C 
ATOM     10  O   UNL     1      32.649   5.219  -3.591  1.00  0.00    -0.550 OA
ATOM     11  O   UNL     1      34.404   3.843  -4.116  1.00  0.00    -0.550 OA
ENDBRANCH   8   9
ENDBRANCH   7   8
ENDBRANCH   6   7
ENDBRANCH   5   6
ENDBRANCH   4   5
ENDBRANCH   3   4
ENDBRANCH   2   3
ENDBRANCH   1   2
BRANCH   1  12
ATOM     12  C   UNL     1      29.637   2.010   2.101  1.00  0.00     0.000 C 
BRANCH  12  13
ATOM     13  C   UNL     1      31.028   2.644   2.267  1.00  0.00    -0.000 C 
BRANCH  13  14
ATOM     14  C   UNL     1      31.114   3.558   3.498  1.00  0.00    -0.000 C 
BRANCH  14  15
ATOM     15  C   UNL     1      30.550   4.950   3.187  1.00  0.00    -0.000 C 
BRANCH  15  16
ATOM     16  C   UNL     1      31.107   6.001   4.158  1.00  0.00    -0.000 C 
BRANCH  16  17
ATOM     17  C   UNL     1      29.997   6.661   5.006  1.00  0.00    -0.000 C 
BRANCH  17  18
ATOM     18  C   UNL     1      30.365   6.816   6.495  1.00  0.00    -0.000 C 
BRANCH  18  19
ATOM     19  C   UNL     1      29.615   7.941   7.228  1.00  0.00    -0.003 C 
ATOM     20  C   UNL     1      30.258   9.313   7.030  1.00  0.00     0.004 C 
ENDBRANCH  18  19
ENDBRANCH  17  18
ENDBRANCH  16  17
ENDBRANCH  15  16
ENDBRANCH  14  15
ENDBRANCH  13  14
ENDBRANCH  12  13
ENDBRANCH   1  12
TORSDOF 16
ENDMDL
