MODEL 1
REMARK VINA RESULT:    -4.020      0.000      0.000
REMARK INTER + INTRA:          -8.928
REMARK INTER:                  -7.779
REMARK INTRA:                  -1.148
REMARK UNBOUND:                -1.148
REMARK SMILES CCCCCC=CCC=CCCCCCCCCOC(C)=O
REMARK SMILES IDX 12 1 11 2 10 3 9 4 8 5 7 6 6 7 5 8 4 9 3 10 2 11 1 12 13 13
REMARK SMILES IDX 14 14 15 15 16 16 17 17 18 18 19 19 20 20 22 21 21 22
REMARK H PARENT
REMARK Flexibility Score: inf
ROOT
ATOM      1  C   UNL     1       7.015  -5.963 -12.763  1.00  0.00     0.004 C 
ENDROOT
BRANCH   1   2
ATOM      2  C   UNL     1       8.295  -6.111 -13.600  1.00  0.00     0.027 C 
BRANCH   2   3
ATOM      3  C   UNL     1       9.017  -4.802 -13.778  1.00  0.00    -0.031 C 
ATOM      4  C   UNL     1       8.356  -3.636 -13.847  1.00  0.00    -0.027 C 
BRANCH   4   5
ATOM      5  C   UNL     1       9.080  -2.335 -14.036  1.00  0.00     0.054 C 
BRANCH   5   6
ATOM      6  C   UNL     1       8.095  -1.219 -14.280  1.00  0.00    -0.027 C 
ATOM      7  C   UNL     1       8.236  -0.249 -15.204  1.00  0.00    -0.031 C 
BRANCH   7   8
ATOM      8  C   UNL     1       9.385  -0.146 -16.177  1.00  0.00     0.027 C 
BRANCH   8   9
ATOM      9  C   UNL     1       8.935   0.303 -17.582  1.00  0.00     0.004 C 
BRANCH   9  10
ATOM     10  C   UNL     1       8.343   1.723 -17.618  1.00  0.00     0.000 C 
BRANCH  10  11
ATOM     11  C   UNL     1       9.314   2.790 -17.096  1.00  0.00    -0.003 C 
ATOM     12  C   UNL     1       8.647   3.676 -16.048  1.00  0.00     0.004 C 
ENDBRANCH  10  11
ENDBRANCH   9  10
ENDBRANCH   8   9
ENDBRANCH   7   8
ENDBRANCH   5   6
ENDBRANCH   4   5
ENDBRANCH   2   3
ENDBRANCH   1   2
BRANCH   1  13
ATOM     13  C   UNL     1       6.912  -7.042 -11.670  1.00  0.00     0.000 C 
BRANCH  13  14
ATOM     14  C   UNL     1       5.544  -7.743 -11.661  1.00  0.00     0.000 C 
BRANCH  14  15
ATOM     15  C   UNL     1       4.841  -7.651 -10.298  1.00  0.00     0.000 C 
BRANCH  15  16
ATOM     16  C   UNL     1       3.332  -7.903 -10.443  1.00  0.00     0.003 C 
BRANCH  16  17
ATOM     17  C   UNL     1       2.503  -6.609 -10.372  1.00  0.00     0.042 C 
BRANCH  17  18
ATOM     18  C   UNL     1       2.114  -6.056 -11.746  1.00  0.00     0.233 C 
BRANCH  18  19
ATOM     19  O   UNL     1       3.226  -5.401 -12.349  1.00  0.00    -0.466 OA
BRANCH  19  20
ATOM     20  C   UNL     1       3.353  -5.252 -13.733  1.00  0.00     0.302 C 
ATOM     21  O   UNL     1       3.701  -6.224 -14.457  1.00  0.00    -0.253 OA
ATOM     22  C   UNL     1       3.030  -3.940 -14.363  1.00  0.00     0.139 C 
ENDBRANCH  19  20
ENDBRANCH  18  19
ENDBRANCH  17  18
ENDBRANCH  16  17
ENDBRANCH  15  16
ENDBRANCH  14  15
ENDBRANCH  13  14
ENDBRANCH   1  13
TORSDOF 16
ENDMDL
MODEL 2
REMARK VINA RESULT:    -3.993      1.944      3.622
REMARK INTER + INTRA:          -8.876
REMARK INTER:                  -7.842
REMARK INTRA:                  -1.034
REMARK UNBOUND:                -1.148
REMARK SMILES CCCCCC=CCC=CCCCCCCCCOC(C)=O
REMARK SMILES IDX 12 1 11 2 10 3 9 4 8 5 7 6 6 7 5 8 4 9 3 10 2 11 1 12 13 13
REMARK SMILES IDX 14 14 15 15 16 16 17 17 18 18 19 19 20 20 22 21 21 22
REMARK H PARENT
REMARK Flexibility Score: inf
ROOT
ATOM      1  C   UNL     1       2.911  -4.145 -14.689  1.00  0.00     0.004 C 
ENDROOT
BRANCH   1   2
ATOM      2  C   UNL     1       3.784  -3.743 -13.490  1.00  0.00     0.027 C 
BRANCH   2   3
ATOM      3  C   UNL     1       4.661  -2.557 -13.792  1.00  0.00    -0.031 C 
ATOM      4  C   UNL     1       5.923  -2.481 -13.341  1.00  0.00    -0.027 C 
BRANCH   4   5
ATOM      5  C   UNL     1       6.790  -1.292 -13.636  1.00  0.00     0.054 C 
BRANCH   5   6
ATOM      6  C   UNL     1       8.196  -1.735 -13.953  1.00  0.00    -0.027 C 
ATOM      7  C   UNL     1       8.959  -1.238 -14.945  1.00  0.00    -0.031 C 
BRANCH   7   8
ATOM      8  C   UNL     1       8.547  -0.124 -15.876  1.00  0.00     0.027 C 
BRANCH   8   9
ATOM      9  C   UNL     1       9.589   0.144 -16.979  1.00  0.00     0.004 C 
BRANCH   9  10
ATOM     10  C   UNL     1       9.883   1.637 -17.205  1.00  0.00     0.000 C 
BRANCH  10  11
ATOM     11  C   UNL     1       8.632   2.518 -17.092  1.00  0.00    -0.003 C 
ATOM     12  C   UNL     1       8.857   3.672 -16.119  1.00  0.00     0.004 C 
ENDBRANCH  10  11
ENDBRANCH   9  10
ENDBRANCH   8   9
ENDBRANCH   7   8
ENDBRANCH   5   6
ENDBRANCH   4   5
ENDBRANCH   2   3
ENDBRANCH   1   2
BRANCH   1  13
ATOM     13  C   UNL     1       2.908  -5.667 -14.916  1.00  0.00     0.000 C 
BRANCH  13  14
ATOM     14  C   UNL     1       4.271  -6.311 -14.615  1.00  0.00     0.000 C 
BRANCH  14  15
ATOM     15  C   UNL     1       4.316  -6.985 -13.235  1.00  0.00     0.000 C 
BRANCH  15  16
ATOM     16  C   UNL     1       5.680  -6.765 -12.564  1.00  0.00     0.003 C 
BRANCH  16  17
ATOM     17  C   UNL     1       5.908  -7.698 -11.361  1.00  0.00     0.042 C 
BRANCH  17  18
ATOM     18  C   UNL     1       4.964  -8.902 -11.333  1.00  0.00     0.233 C 
BRANCH  18  19
ATOM     19  O   UNL     1       4.165  -8.877 -10.154  1.00  0.00    -0.466 OA
BRANCH  19  20
ATOM     20  C   UNL     1       3.639  -7.695  -9.624  1.00  0.00     0.302 C 
ATOM     21  O   UNL     1       4.145  -7.170  -8.596  1.00  0.00    -0.253 OA
ATOM     22  C   UNL     1       2.497  -7.027 -10.310  1.00  0.00     0.139 C 
ENDBRANCH  19  20
ENDBRANCH  18  19
ENDBRANCH  17  18
ENDBRANCH  16  17
ENDBRANCH  15  16
ENDBRANCH  14  15
ENDBRANCH  13  14
ENDBRANCH   1  13
TORSDOF 16
ENDMDL
MODEL 3
REMARK VINA RESULT:    -3.797      2.245      2.686
REMARK INTER + INTRA:          -8.496
REMARK INTER:                  -7.647
REMARK INTRA:                  -0.849
REMARK UNBOUND:                -1.148
REMARK SMILES CCCCCC=CCC=CCCCCCCCCOC(C)=O
REMARK SMILES IDX 12 1 11 2 10 3 9 4 8 5 7 6 6 7 5 8 4 9 3 10 2 11 1 12 13 13
REMARK SMILES IDX 14 14 15 15 16 16 17 17 18 18 19 19 20 20 22 21 21 22
REMARK H PARENT
REMARK Flexibility Score: inf
ROOT
ATOM      1  C   UNL     1       6.960  -5.778 -13.097  1.00  0.00     0.004 C 
ENDROOT
BRANCH   1   2
ATOM      2  C   UNL     1       8.399  -5.890 -13.623  1.00  0.00     0.027 C 
BRANCH   2   3
ATOM      3  C   UNL     1       9.113  -4.565 -13.627  1.00  0.00    -0.031 C 
ATOM      4  C   UNL     1       8.473  -3.420 -13.912  1.00  0.00    -0.027 C 
BRANCH   4   5
ATOM      5  C   UNL     1       9.192  -2.103 -13.926  1.00  0.00     0.054 C 
BRANCH   5   6
ATOM      6  C   UNL     1       8.251  -0.997 -14.336  1.00  0.00    -0.027 C 
ATOM      7  C   UNL     1       8.273  -0.362 -15.523  1.00  0.00    -0.031 C 
BRANCH   7   8
ATOM      8  C   UNL     1       9.218  -0.683 -16.655  1.00  0.00     0.027 C 
BRANCH   8   9
ATOM      9  C   UNL     1       9.357   0.479 -17.659  1.00  0.00     0.004 C 
BRANCH   9  10
ATOM     10  C   UNL     1       8.543   1.728 -17.279  1.00  0.00     0.000 C 
BRANCH  10  11
ATOM     11  C   UNL     1       9.396   2.825 -16.627  1.00  0.00    -0.003 C 
ATOM     12  C   UNL     1       8.526   3.971 -16.120  1.00  0.00     0.004 C 
ENDBRANCH  10  11
ENDBRANCH   9  10
ENDBRANCH   8   9
ENDBRANCH   7   8
ENDBRANCH   5   6
ENDBRANCH   4   5
ENDBRANCH   2   3
ENDBRANCH   1   2
BRANCH   1  13
ATOM     13  C   UNL     1       6.711  -6.703 -11.894  1.00  0.00     0.000 C 
BRANCH  13  14
ATOM     14  C   UNL     1       5.352  -7.418 -11.971  1.00  0.00     0.000 C 
BRANCH  14  15
ATOM     15  C   UNL     1       5.360  -8.785 -11.270  1.00  0.00     0.000 C 
BRANCH  15  16
ATOM     16  C   UNL     1       4.110  -8.957 -10.395  1.00  0.00     0.003 C 
BRANCH  16  17
ATOM     17  C   UNL     1       3.491  -7.614  -9.969  1.00  0.00     0.042 C 
BRANCH  17  18
ATOM     18  C   UNL     1       2.987  -7.604  -8.524  1.00  0.00     0.233 C 
BRANCH  18  19
ATOM     19  O   UNL     1       1.717  -8.244  -8.438  1.00  0.00    -0.466 OA
BRANCH  19  20
ATOM     20  C   UNL     1       0.739  -8.116  -9.427  1.00  0.00     0.302 C 
ATOM     21  O   UNL     1       0.349  -9.121 -10.081  1.00  0.00    -0.253 OA
ATOM     22  C   UNL     1       0.118  -6.785  -9.678  1.00  0.00     0.139 C 
ENDBRANCH  19  20
ENDBRANCH  18  19
ENDBRANCH  17  18
ENDBRANCH  16  17
ENDBRANCH  15  16
ENDBRANCH  14  15
ENDBRANCH  13  14
ENDBRANCH   1  13
TORSDOF 16
ENDMDL
MODEL 4
REMARK VINA RESULT:    -3.621      3.325      9.642
REMARK INTER + INTRA:          -8.156
REMARK INTER:                  -7.063
REMARK INTRA:                  -1.094
REMARK UNBOUND:                -1.148
REMARK SMILES CCCCCC=CCC=CCCCCCCCCOC(C)=O
REMARK SMILES IDX 12 1 11 2 10 3 9 4 8 5 7 6 6 7 5 8 4 9 3 10 2 11 1 12 13 13
REMARK SMILES IDX 14 14 15 15 16 16 17 17 18 18 19 19 20 20 22 21 21 22
REMARK H PARENT
REMARK Flexibility Score: inf
ROOT
ATOM      1  C   UNL     1       3.324  -4.323 -13.729  1.00  0.00     0.004 C 
ENDROOT
BRANCH   1   2
ATOM      2  C   UNL     1       4.000  -5.598 -14.256  1.00  0.00     0.027 C 
BRANCH   2   3
ATOM      3  C   UNL     1       4.435  -6.518 -13.147  1.00  0.00    -0.031 C 
ATOM      4  C   UNL     1       5.710  -6.567 -12.731  1.00  0.00    -0.027 C 
BRANCH   4   5
ATOM      5  C   UNL     1       6.141  -7.494 -11.632  1.00  0.00     0.054 C 
BRANCH   5   6
ATOM      6  C   UNL     1       5.091  -8.552 -11.399  1.00  0.00    -0.027 C 
ATOM      7  C   UNL     1       4.151  -8.512 -10.436  1.00  0.00    -0.031 C 
BRANCH   7   8
ATOM      8  C   UNL     1       3.967  -7.379  -9.457  1.00  0.00     0.027 C 
BRANCH   8   9
ATOM      9  C   UNL     1       3.032  -7.750  -8.288  1.00  0.00     0.004 C 
BRANCH   9  10
ATOM     10  C   UNL     1       2.114  -8.948  -8.585  1.00  0.00     0.000 C 
BRANCH  10  11
ATOM     11  C   UNL     1       0.636  -8.553  -8.716  1.00  0.00    -0.003 C 
ATOM     12  C   UNL     1       0.438  -7.523  -9.823  1.00  0.00     0.004 C 
ENDBRANCH  10  11
ENDBRANCH   9  10
ENDBRANCH   8   9
ENDBRANCH   7   8
ENDBRANCH   5   6
ENDBRANCH   4   5
ENDBRANCH   2   3
ENDBRANCH   1   2
BRANCH   1  13
ATOM     13  C   UNL     1       4.133  -3.059 -14.067  1.00  0.00     0.000 C 
BRANCH  13  14
ATOM     14  C   UNL     1       5.434  -2.956 -13.254  1.00  0.00     0.000 C 
BRANCH  14  15
ATOM     15  C   UNL     1       6.367  -1.849 -13.766  1.00  0.00     0.000 C 
BRANCH  15  16
ATOM     16  C   UNL     1       7.818  -2.350 -13.842  1.00  0.00     0.003 C 
BRANCH  16  17
ATOM     17  C   UNL     1       8.803  -1.253 -14.283  1.00  0.00     0.042 C 
BRANCH  17  18
ATOM     18  C   UNL     1       8.262  -0.359 -15.402  1.00  0.00     0.233 C 
BRANCH  18  19
ATOM     19  O   UNL     1       9.270  -0.129 -16.382  1.00  0.00    -0.466 OA
BRANCH  19  20
ATOM     20  C   UNL     1       9.655   1.154 -16.782  1.00  0.00     0.302 C 
ATOM     21  O   UNL     1      10.829   1.377 -17.186  1.00  0.00    -0.253 OA
ATOM     22  C   UNL     1       8.654   2.258 -16.771  1.00  0.00     0.139 C 
ENDBRANCH  19  20
ENDBRANCH  18  19
ENDBRANCH  17  18
ENDBRANCH  16  17
ENDBRANCH  15  16
ENDBRANCH  14  15
ENDBRANCH  13  14
ENDBRANCH   1  13
TORSDOF 16
ENDMDL
MODEL 5
REMARK VINA RESULT:    -3.573      2.994      8.369
REMARK INTER + INTRA:          -8.062
REMARK INTER:                  -6.593
REMARK INTRA:                  -1.470
REMARK UNBOUND:                -1.148
REMARK SMILES CCCCCC=CCC=CCCCCCCCCOC(C)=O
REMARK SMILES IDX 12 1 11 2 10 3 9 4 8 5 7 6 6 7 5 8 4 9 3 10 2 11 1 12 13 13
REMARK SMILES IDX 14 14 15 15 16 16 17 17 18 18 19 19 20 20 22 21 21 22
REMARK H PARENT
REMARK Flexibility Score: inf
ROOT
ATOM      1  C   UNL     1       7.270  -5.735 -12.901  1.00  0.00     0.004 C 
ENDROOT
BRANCH   1   2
ATOM      2  C   UNL     1       7.352  -6.873 -11.872  1.00  0.00     0.027 C 
BRANCH   2   3
ATOM      3  C   UNL     1       6.000  -7.260 -11.336  1.00  0.00    -0.031 C 
ATOM      4  C   UNL     1       5.620  -8.544 -11.240  1.00  0.00    -0.027 C 
BRANCH   4   5
ATOM      5  C   UNL     1       4.266  -8.924 -10.715  1.00  0.00     0.054 C 
BRANCH   5   6
ATOM      6  C   UNL     1       3.836  -7.963  -9.634  1.00  0.00    -0.027 C 
ATOM      7  C   UNL     1       2.943  -6.968  -9.794  1.00  0.00    -0.031 C 
BRANCH   7   8
ATOM      8  C   UNL     1       2.192  -6.679 -11.070  1.00  0.00     0.027 C 
BRANCH   8   9
ATOM      9  C   UNL     1       2.915  -5.652 -11.964  1.00  0.00     0.004 C 
BRANCH   9  10
ATOM     10  C   UNL     1       3.317  -6.204 -13.344  1.00  0.00     0.000 C 
BRANCH  10  11
ATOM     11  C   UNL     1       3.250  -5.147 -14.454  1.00  0.00    -0.003 C 
ATOM     12  C   UNL     1       3.547  -3.754 -13.908  1.00  0.00     0.004 C 
ENDBRANCH  10  11
ENDBRANCH   9  10
ENDBRANCH   8   9
ENDBRANCH   7   8
ENDBRANCH   5   6
ENDBRANCH   4   5
ENDBRANCH   2   3
ENDBRANCH   1   2
BRANCH   1  13
ATOM     13  C   UNL     1       8.480  -5.726 -13.851  1.00  0.00     0.000 C 
BRANCH  13  14
ATOM     14  C   UNL     1       9.181  -4.359 -13.900  1.00  0.00     0.000 C 
BRANCH  14  15
ATOM     15  C   UNL     1       8.191  -3.185 -13.903  1.00  0.00     0.000 C 
BRANCH  15  16
ATOM     16  C   UNL     1       8.935  -1.842 -13.845  1.00  0.00     0.003 C 
BRANCH  16  17
ATOM     17  C   UNL     1       8.413  -0.827 -14.876  1.00  0.00     0.042 C 
BRANCH  17  18
ATOM     18  C   UNL     1       9.322  -0.675 -16.099  1.00  0.00     0.233 C 
BRANCH  18  19
ATOM     19  O   UNL     1       9.473   0.701 -16.435  1.00  0.00    -0.466 OA
BRANCH  19  20
ATOM     20  C   UNL     1       8.453   1.449 -17.029  1.00  0.00     0.302 C 
ATOM     21  O   UNL     1       8.044   2.517 -16.497  1.00  0.00    -0.253 OA
ATOM     22  C   UNL     1       7.876   1.002 -18.329  1.00  0.00     0.139 C 
ENDBRANCH  19  20
ENDBRANCH  18  19
ENDBRANCH  17  18
ENDBRANCH  16  17
ENDBRANCH  15  16
ENDBRANCH  14  15
ENDBRANCH  13  14
ENDBRANCH   1  13
TORSDOF 16
ENDMDL
MODEL 6
REMARK VINA RESULT:    -3.183      3.341      9.950
REMARK INTER + INTRA:          -7.309
REMARK INTER:                  -7.275
REMARK INTRA:                  -0.034
REMARK UNBOUND:                -1.148
REMARK SMILES CCCCCC=CCC=CCCCCCCCCOC(C)=O
REMARK SMILES IDX 12 1 11 2 10 3 9 4 8 5 7 6 6 7 5 8 4 9 3 10 2 11 1 12 13 13
REMARK SMILES IDX 14 14 15 15 16 16 17 17 18 18 19 19 20 20 22 21 21 22
REMARK H PARENT
REMARK Flexibility Score: inf
ROOT
ATOM      1  C   UNL     1       9.362  -4.365 -14.133  1.00  0.00     0.004 C 
ENDROOT
BRANCH   1   2
ATOM      2  C   UNL     1       9.046  -5.639 -13.335  1.00  0.00     0.027 C 
BRANCH   2   3
ATOM      3  C   UNL     1       7.581  -5.986 -13.366  1.00  0.00    -0.031 C 
ATOM      4  C   UNL     1       6.975  -6.580 -12.326  1.00  0.00    -0.027 C 
BRANCH   4   5
ATOM      5  C   UNL     1       5.518  -6.934 -12.367  1.00  0.00     0.054 C 
BRANCH   5   6
ATOM      6  C   UNL     1       5.277  -8.244 -11.657  1.00  0.00    -0.027 C 
ATOM      7  C   UNL     1       4.526  -8.398 -10.550  1.00  0.00    -0.031 C 
BRANCH   7   8
ATOM      8  C   UNL     1       3.766  -7.292  -9.862  1.00  0.00     0.027 C 
BRANCH   8   9
ATOM      9  C   UNL     1       2.904  -7.803  -8.691  1.00  0.00     0.004 C 
BRANCH   9  10
ATOM     10  C   UNL     1       2.166  -9.119  -8.993  1.00  0.00     0.000 C 
BRANCH  10  11
ATOM     11  C   UNL     1       0.872  -8.911  -9.792  1.00  0.00    -0.003 C 
ATOM     12  C   UNL     1       0.343  -7.490  -9.624  1.00  0.00     0.004 C 
ENDBRANCH  10  11
ENDBRANCH   9  10
ENDBRANCH   8   9
ENDBRANCH   7   8
ENDBRANCH   5   6
ENDBRANCH   4   5
ENDBRANCH   2   3
ENDBRANCH   1   2
BRANCH   1  13
ATOM     13  C   UNL     1       8.336  -3.249 -13.872  1.00  0.00     0.000 C 
BRANCH  13  14
ATOM     14  C   UNL     1       8.933  -1.844 -14.049  1.00  0.00     0.000 C 
BRANCH  14  15
ATOM     15  C   UNL     1       7.890  -0.807 -14.491  1.00  0.00     0.000 C 
BRANCH  15  16
ATOM     16  C   UNL     1       8.386  -0.019 -15.712  1.00  0.00     0.003 C 
BRANCH  16  17
ATOM     17  C   UNL     1       7.242   0.653 -16.492  1.00  0.00     0.042 C 
BRANCH  17  18
ATOM     18  C   UNL     1       7.572   0.903 -17.966  1.00  0.00     0.233 C 
BRANCH  18  19
ATOM     19  O   UNL     1       8.956   0.675 -18.210  1.00  0.00    -0.466 OA
BRANCH  19  20
ATOM     20  C   UNL     1       9.960   1.492 -17.681  1.00  0.00     0.302 C 
ATOM     21  O   UNL     1      11.139   1.063 -17.555  1.00  0.00    -0.253 OA
ATOM     22  C   UNL     1       9.641   2.899 -17.307  1.00  0.00     0.139 C 
ENDBRANCH  19  20
ENDBRANCH  18  19
ENDBRANCH  17  18
ENDBRANCH  16  17
ENDBRANCH  15  16
ENDBRANCH  14  15
ENDBRANCH  13  14
ENDBRANCH   1  13
TORSDOF 16
ENDMDL
MODEL 7
REMARK VINA RESULT:    -3.052      2.191      3.474
REMARK INTER + INTRA:          -7.054
REMARK INTER:                  -6.050
REMARK INTRA:                  -1.004
REMARK UNBOUND:                -1.148
REMARK SMILES CCCCCC=CCC=CCCCCCCCCOC(C)=O
REMARK SMILES IDX 12 1 11 2 10 3 9 4 8 5 7 6 6 7 5 8 4 9 3 10 2 11 1 12 13 13
REMARK SMILES IDX 14 14 15 15 16 16 17 17 18 18 19 19 20 20 22 21 21 22
REMARK H PARENT
REMARK Flexibility Score: inf
ROOT
ATOM      1  C   UNL     1       3.905  -5.628 -14.237  1.00  0.00     0.004 C 
ENDROOT
BRANCH   1   2
ATOM      2  C   UNL     1       3.437  -4.354 -13.517  1.00  0.00     0.027 C 
BRANCH   2   3
ATOM      3  C   UNL     1       4.219  -3.138 -13.936  1.00  0.00    -0.031 C 
ATOM      4  C   UNL     1       5.442  -2.883 -13.445  1.00  0.00    -0.027 C 
BRANCH   4   5
ATOM      5  C   UNL     1       6.213  -1.663 -13.858  1.00  0.00     0.054 C 
BRANCH   5   6
ATOM      6  C   UNL     1       7.637  -1.754 -13.368  1.00  0.00    -0.027 C 
ATOM      7  C   UNL     1       8.732  -1.592 -14.136  1.00  0.00    -0.031 C 
BRANCH   7   8
ATOM      8  C   UNL     1       8.712  -1.250 -15.605  1.00  0.00     0.027 C 
BRANCH   8   9
ATOM      9  C   UNL     1       8.953   0.250 -15.869  1.00  0.00     0.004 C 
BRANCH   9  10
ATOM     10  C   UNL     1       8.056   0.837 -16.973  1.00  0.00     0.000 C 
BRANCH  10  11
ATOM     11  C   UNL     1       8.630   2.118 -17.594  1.00  0.00    -0.003 C 
ATOM     12  C   UNL     1      10.079   1.917 -18.028  1.00  0.00     0.004 C 
ENDBRANCH  10  11
ENDBRANCH   9  10
ENDBRANCH   8   9
ENDBRANCH   7   8
ENDBRANCH   5   6
ENDBRANCH   4   5
ENDBRANCH   2   3
ENDBRANCH   1   2
BRANCH   1  13
ATOM     13  C   UNL     1       4.374  -6.710 -13.249  1.00  0.00     0.000 C 
BRANCH  13  14
ATOM     14  C   UNL     1       5.798  -6.457 -12.729  1.00  0.00     0.000 C 
BRANCH  14  15
ATOM     15  C   UNL     1       6.200  -7.426 -11.607  1.00  0.00     0.000 C 
BRANCH  15  16
ATOM     16  C   UNL     1       5.075  -8.434 -11.326  1.00  0.00     0.003 C 
BRANCH  16  17
ATOM     17  C   UNL     1       4.157  -7.995 -10.172  1.00  0.00     0.042 C 
BRANCH  17  18
ATOM     18  C   UNL     1       3.205  -9.095  -9.696  1.00  0.00     0.233 C 
BRANCH  18  19
ATOM     19  O   UNL     1       2.061  -8.522  -9.068  1.00  0.00    -0.466 OA
BRANCH  19  20
ATOM     20  C   UNL     1       0.914  -8.156  -9.779  1.00  0.00     0.302 C 
ATOM     21  O   UNL     1       0.037  -9.014 -10.070  1.00  0.00    -0.253 OA
ATOM     22  C   UNL     1       0.708  -6.729 -10.156  1.00  0.00     0.139 C 
ENDBRANCH  19  20
ENDBRANCH  18  19
ENDBRANCH  17  18
ENDBRANCH  16  17
ENDBRANCH  15  16
ENDBRANCH  14  15
ENDBRANCH  13  14
ENDBRANCH   1  13
TORSDOF 16
ENDMDL
MODEL 8
REMARK VINA RESULT:    -2.805      3.021      8.934
REMARK INTER + INTRA:          -6.578
REMARK INTER:                  -5.276
REMARK INTRA:                  -1.302
REMARK UNBOUND:                -1.148
REMARK SMILES CCCCCC=CCC=CCCCCCCCCOC(C)=O
REMARK SMILES IDX 12 1 11 2 10 3 9 4 8 5 7 6 6 7 5 8 4 9 3 10 2 11 1 12 13 13
REMARK SMILES IDX 14 14 15 15 16 16 17 17 18 18 19 19 20 20 22 21 21 22
REMARK H PARENT
REMARK Flexibility Score: inf
ROOT
ATOM      1  C   UNL     1       3.754  -3.460 -13.981  1.00  0.00     0.004 C 
ENDROOT
BRANCH   1   2
ATOM      2  C   UNL     1       3.426  -4.932 -14.269  1.00  0.00     0.027 C 
BRANCH   2   3
ATOM      3  C   UNL     1       2.552  -5.544 -13.207  1.00  0.00    -0.031 C 
ATOM      4  C   UNL     1       3.022  -5.820 -11.981  1.00  0.00    -0.027 C 
BRANCH   4   5
ATOM      5  C   UNL     1       2.149  -6.440 -10.929  1.00  0.00     0.054 C 
BRANCH   5   6
ATOM      6  C   UNL     1       2.979  -6.860  -9.741  1.00  0.00    -0.027 C 
ATOM      7  C   UNL     1       3.775  -7.945  -9.698  1.00  0.00    -0.031 C 
BRANCH   7   8
ATOM      8  C   UNL     1       4.002  -8.896 -10.848  1.00  0.00     0.027 C 
BRANCH   8   9
ATOM      9  C   UNL     1       5.482  -8.976 -11.269  1.00  0.00     0.004 C 
BRANCH   9  10
ATOM     10  C   UNL     1       6.222  -7.628 -11.197  1.00  0.00     0.000 C 
BRANCH  10  11
ATOM     11  C   UNL     1       6.141  -6.829 -12.505  1.00  0.00    -0.003 C 
ATOM     12  C   UNL     1       7.425  -6.043 -12.750  1.00  0.00     0.004 C 
ENDBRANCH  10  11
ENDBRANCH   9  10
ENDBRANCH   8   9
ENDBRANCH   7   8
ENDBRANCH   5   6
ENDBRANCH   4   5
ENDBRANCH   2   3
ENDBRANCH   1   2
BRANCH   1  13
ATOM     13  C   UNL     1       5.038  -3.306 -13.148  1.00  0.00     0.000 C 
BRANCH  13  14
ATOM     14  C   UNL     1       5.899  -2.117 -13.604  1.00  0.00     0.000 C 
BRANCH  14  15
ATOM     15  C   UNL     1       7.331  -2.529 -13.975  1.00  0.00     0.000 C 
BRANCH  15  16
ATOM     16  C   UNL     1       8.283  -1.325 -13.901  1.00  0.00     0.003 C 
BRANCH  16  17
ATOM     17  C   UNL     1       8.144  -0.383 -15.110  1.00  0.00     0.042 C 
BRANCH  17  18
ATOM     18  C   UNL     1       9.290  -0.509 -16.118  1.00  0.00     0.233 C 
BRANCH  18  19
ATOM     19  O   UNL     1       9.652   0.775 -16.619  1.00  0.00    -0.466 OA
BRANCH  19  20
ATOM     20  C   UNL     1       8.706   1.746 -16.959  1.00  0.00     0.302 C 
ATOM     21  O   UNL     1       7.674   1.437 -17.616  1.00  0.00    -0.253 OA
ATOM     22  C   UNL     1       8.898   3.151 -16.502  1.00  0.00     0.139 C 
ENDBRANCH  19  20
ENDBRANCH  18  19
ENDBRANCH  17  18
ENDBRANCH  16  17
ENDBRANCH  15  16
ENDBRANCH  14  15
ENDBRANCH  13  14
ENDBRANCH   1  13
TORSDOF 16
ENDMDL
MODEL 9
REMARK VINA RESULT:    -2.788      3.234      9.393
REMARK INTER + INTRA:          -6.545
REMARK INTER:                  -5.329
REMARK INTRA:                  -1.216
REMARK UNBOUND:                -1.148
REMARK SMILES CCCCCC=CCC=CCCCCCCCCOC(C)=O
REMARK SMILES IDX 12 1 11 2 10 3 9 4 8 5 7 6 6 7 5 8 4 9 3 10 2 11 1 12 13 13
REMARK SMILES IDX 14 14 15 15 16 16 17 17 18 18 19 19 20 20 22 21 21 22
REMARK H PARENT
REMARK Flexibility Score: inf
ROOT
ATOM      1  C   UNL     1       4.003  -2.417 -13.772  1.00  0.00     0.004 C 
ENDROOT
BRANCH   1   2
ATOM      2  C   UNL     1       3.246  -3.656 -14.274  1.00  0.00     0.027 C 
BRANCH   2   3
ATOM      3  C   UNL     1       3.631  -4.905 -13.527  1.00  0.00    -0.031 C 
ATOM      4  C   UNL     1       4.069  -6.001 -14.166  1.00  0.00    -0.027 C 
BRANCH   4   5
ATOM      5  C   UNL     1       4.441  -7.248 -13.417  1.00  0.00     0.054 C 
BRANCH   5   6
ATOM      6  C   UNL     1       5.519  -6.948 -12.405  1.00  0.00    -0.027 C 
ATOM      7  C   UNL     1       5.853  -7.743 -11.371  1.00  0.00    -0.031 C 
BRANCH   7   8
ATOM      8  C   UNL     1       5.231  -9.086 -11.079  1.00  0.00     0.027 C 
BRANCH   8   9
ATOM      9  C   UNL     1       3.827  -8.967 -10.453  1.00  0.00     0.004 C 
BRANCH   9  10
ATOM     10  C   UNL     1       3.597  -7.650  -9.691  1.00  0.00     0.000 C 
BRANCH  10  11
ATOM     11  C   UNL     1       2.383  -6.864 -10.205  1.00  0.00    -0.003 C 
ATOM     12  C   UNL     1       1.084  -7.611  -9.919  1.00  0.00     0.004 C 
ENDBRANCH  10  11
ENDBRANCH   9  10
ENDBRANCH   8   9
ENDBRANCH   7   8
ENDBRANCH   5   6
ENDBRANCH   4   5
ENDBRANCH   2   3
ENDBRANCH   1   2
BRANCH   1  13
ATOM     13  C   UNL     1       5.487  -2.718 -13.498  1.00  0.00     0.000 C 
BRANCH  13  14
ATOM     14  C   UNL     1       6.419  -1.611 -14.016  1.00  0.00     0.000 C 
BRANCH  14  15
ATOM     15  C   UNL     1       7.852  -1.743 -13.479  1.00  0.00     0.000 C 
BRANCH  15  16
ATOM     16  C   UNL     1       8.873  -1.665 -14.624  1.00  0.00     0.003 C 
BRANCH  16  17
ATOM     17  C   UNL     1       8.625  -0.471 -15.563  1.00  0.00     0.042 C 
BRANCH  17  18
ATOM     18  C   UNL     1       9.833  -0.116 -16.434  1.00  0.00     0.233 C 
BRANCH  18  19
ATOM     19  O   UNL     1       9.404   0.452 -17.667  1.00  0.00    -0.466 OA
BRANCH  19  20
ATOM     20  C   UNL     1       8.590   1.586 -17.732  1.00  0.00     0.302 C 
ATOM     21  O   UNL     1       7.490   1.555 -18.348  1.00  0.00    -0.253 OA
ATOM     22  C   UNL     1       9.007   2.832 -17.028  1.00  0.00     0.139 C 
ENDBRANCH  19  20
ENDBRANCH  18  19
ENDBRANCH  17  18
ENDBRANCH  16  17
ENDBRANCH  15  16
ENDBRANCH  14  15
ENDBRANCH  13  14
ENDBRANCH   1  13
TORSDOF 16
ENDMDL
