MODEL 1
REMARK VINA RESULT:    -0.814      0.000      0.000
REMARK INTER + INTRA:          -1.630
REMARK INTER:                  -1.243
REMARK INTRA:                  -0.387
REMARK UNBOUND:                -0.387
REMARK SMILES CC1=CCC[C@H](C)C(=O)C[C@H](C(C)C)C(=O)C1
REMARK SMILES IDX 8 1 9 2 6 3 7 4 5 5 4 6 3 7 2 8 1 9 10 11 11 12 15 13 16 14
REMARK SMILES IDX 17 15 12 17 13 18 14 19
REMARK H PARENT
REMARK Flexibility Score: 70.00
ROOT
ATOM      1  C   UNL     1      90.896  29.676  12.207  1.00  0.00     0.136 C 
ATOM      2  O   UNL     1      90.415  30.287  11.264  1.00  0.00    -0.299 OA
ENDROOT
BRANCH   1   3
ATOM      3  C   UNL     1      92.338  29.209  12.117  1.00  0.00     0.053 C 
ATOM      4  C   UNL     1      92.537  28.285  10.910  1.00  0.00     0.016 C 
BRANCH   3   5
ATOM      5  C   UNL     1      93.317  30.398  12.075  1.00  0.00     0.015 C 
BRANCH   5   6
ATOM      6  C   UNL     1      93.921  30.698  13.458  1.00  0.00     0.028 C 
BRANCH   6   7
ATOM      7  C   UNL     1      93.375  31.989  14.011  1.00  0.00    -0.028 C 
ATOM      8  C   UNL     1      92.615  32.085  15.126  1.00  0.00    -0.070 CG0
ATOM      9  C   UNL     1      92.094  33.447  15.513  1.00  0.00     0.039 C 
ATOM     10  G   UNL     1      92.280  30.888  16.005  1.00  0.00     0.000 G0
ENDBRANCH   6   7
ENDBRANCH   5   6
ENDBRANCH   3   5
ENDBRANCH   1   3
BRANCH   1  11
ATOM     11  C   UNL     1      90.039  29.440  13.431  1.00  0.00     0.087 C 
BRANCH  11  12
ATOM     12  C   UNL     1      90.887  29.090  14.685  1.00  0.00     0.066 C 
BRANCH  12  13
ATOM     13  C   UNL     1      90.958  30.265  15.649  1.00  0.00     0.140 C 
ATOM     14  O   UNL     1      89.941  30.666  16.197  1.00  0.00    -0.299 OA
BRANCH  13  15
ATOM     15  C   UNL     1      92.281  30.901  16.007  1.00  0.00     0.106 CG0
ATOM     16  G   UNL     1      92.610  32.087  15.112  1.00  0.00     0.000 G0
ENDBRANCH  13  15
ENDBRANCH  12  13
BRANCH  12  17
ATOM     17  C   UNL     1      90.401  27.803  15.425  1.00  0.00    -0.006 C 
ATOM     18  C   UNL     1      89.995  26.653  14.485  1.00  0.00     0.008 C 
ATOM     19  C   UNL     1      91.444  27.307  16.441  1.00  0.00     0.008 C 
ENDBRANCH  12  17
ENDBRANCH  11  12
ENDBRANCH   1  11
TORSDOF 1
ENDMDL
MODEL 2
REMARK VINA RESULT:    -0.779      2.510      4.579
REMARK INTER + INTRA:          -1.575
REMARK INTER:                  -1.108
REMARK INTRA:                  -0.467
REMARK UNBOUND:                -0.387
REMARK SMILES CC1=CCC[C@H](C)C(=O)C[C@H](C(C)C)C(=O)C1
REMARK SMILES IDX 8 1 9 2 6 3 7 4 5 5 4 6 3 7 2 8 1 9 10 11 11 12 15 13 16 14
REMARK SMILES IDX 17 15 12 17 13 18 14 19
REMARK H PARENT
REMARK Flexibility Score: 70.00
ROOT
ATOM      1  C   UNL     1      92.360  28.221  10.660  1.00  0.00     0.136 C 
ATOM      2  O   UNL     1      93.390  28.017  10.034  1.00  0.00    -0.299 OA
ENDROOT
BRANCH   1   3
ATOM      3  C   UNL     1      91.167  27.312  10.420  1.00  0.00     0.053 C 
ATOM      4  C   UNL     1      91.081  26.905   8.945  1.00  0.00     0.016 C 
BRANCH   3   5
ATOM      5  C   UNL     1      91.203  26.076  11.337  1.00  0.00     0.015 C 
BRANCH   5   6
ATOM      6  C   UNL     1      90.195  26.186  12.495  1.00  0.00     0.028 C 
BRANCH   6   7
ATOM      7  C   UNL     1      90.908  26.369  13.809  1.00  0.00    -0.028 C 
ATOM      8  C   UNL     1      90.833  27.484  14.573  1.00  0.00    -0.070 CG0
ATOM      9  C   UNL     1      91.658  27.535  15.834  1.00  0.00     0.039 C 
ATOM     10  G   UNL     1      89.946  28.670  14.222  1.00  0.00     0.000 G0
ENDBRANCH   6   7
ENDBRANCH   5   6
ENDBRANCH   3   5
ENDBRANCH   1   3
BRANCH   1  11
ATOM     11  C   UNL     1      92.334  29.350  11.666  1.00  0.00     0.087 C 
BRANCH  11  12
ATOM     12  C   UNL     1      90.886  29.772  12.039  1.00  0.00     0.066 C 
BRANCH  12  13
ATOM     13  C   UNL     1      90.689  29.795  13.548  1.00  0.00     0.140 C 
ATOM     14  O   UNL     1      91.075  30.756  14.198  1.00  0.00    -0.299 OA
BRANCH  13  15
ATOM     15  C   UNL     1      89.949  28.684  14.254  1.00  0.00     0.106 CG0
ATOM     16  G   UNL     1      90.851  27.498  14.563  1.00  0.00     0.000 G0
ENDBRANCH  13  15
ENDBRANCH  12  13
BRANCH  12  17
ATOM     17  C   UNL     1      90.454  31.135  11.410  1.00  0.00    -0.006 C 
ATOM     18  C   UNL     1      91.632  32.035  10.991  1.00  0.00     0.008 C 
ATOM     19  C   UNL     1      89.500  30.932  10.220  1.00  0.00     0.008 C 
ENDBRANCH  12  17
ENDBRANCH  11  12
ENDBRANCH   1  11
TORSDOF 1
ENDMDL
MODEL 3
REMARK VINA RESULT:    -0.692      1.965      2.819
REMARK INTER + INTRA:          -1.443
REMARK INTER:                  -1.263
REMARK INTRA:                  -0.179
REMARK UNBOUND:                -0.387
REMARK SMILES CC1=CCC[C@H](C)C(=O)C[C@H](C(C)C)C(=O)C1
REMARK SMILES IDX 8 1 9 2 6 3 7 4 5 5 4 6 3 7 2 8 1 9 10 11 11 12 15 13 16 14
REMARK SMILES IDX 17 15 12 17 13 18 14 19
REMARK H PARENT
REMARK Flexibility Score: 70.00
ROOT
ATOM      1  C   UNL     1      90.113  28.281  13.834  1.00  0.00     0.136 C 
ATOM      2  O   UNL     1      89.061  27.666  13.733  1.00  0.00    -0.299 OA
ENDROOT
BRANCH   1   3
ATOM      3  C   UNL     1      91.200  28.042  12.801  1.00  0.00     0.053 C 
ATOM      4  C   UNL     1      91.343  26.547  12.497  1.00  0.00     0.016 C 
BRANCH   3   5
ATOM      5  C   UNL     1      90.948  28.850  11.515  1.00  0.00     0.015 C 
BRANCH   5   6
ATOM      6  C   UNL     1      92.147  29.743  11.148  1.00  0.00     0.028 C 
BRANCH   6   7
ATOM      7  C   UNL     1      91.754  31.197  11.160  1.00  0.00    -0.028 C 
ATOM      8  C   UNL     1      91.969  32.041  12.196  1.00  0.00    -0.070 CG0
ATOM      9  C   UNL     1      91.458  33.455  12.075  1.00  0.00     0.039 C 
ATOM     10  G   UNL     1      92.710  31.628  13.460  1.00  0.00     0.000 G0
ENDBRANCH   6   7
ENDBRANCH   5   6
ENDBRANCH   3   5
ENDBRANCH   1   3
BRANCH   1  11
ATOM     11  C   UNL     1      90.268  29.271  14.967  1.00  0.00     0.087 C 
BRANCH  11  12
ATOM     12  C   UNL     1      91.722  29.808  15.083  1.00  0.00     0.066 C 
BRANCH  12  13
ATOM     13  C   UNL     1      91.821  31.245  14.594  1.00  0.00     0.140 C 
ATOM     14  O   UNL     1      91.198  32.128  15.167  1.00  0.00    -0.299 OA
BRANCH  13  15
ATOM     15  C   UNL     1      92.742  31.620  13.457  1.00  0.00     0.106 CG0
ATOM     16  G   UNL     1      91.976  32.028  12.207  1.00  0.00     0.000 G0
ENDBRANCH  13  15
ENDBRANCH  12  13
BRANCH  12  17
ATOM     17  C   UNL     1      92.321  29.676  16.520  1.00  0.00    -0.006 C 
ATOM     18  C   UNL     1      92.114  28.291  17.162  1.00  0.00     0.008 C 
ATOM     19  C   UNL     1      93.812  30.050  16.548  1.00  0.00     0.008 C 
ENDBRANCH  12  17
ENDBRANCH  11  12
ENDBRANCH   1  11
TORSDOF 1
ENDMDL
MODEL 4
REMARK VINA RESULT:    -0.648      2.189      4.372
REMARK INTER + INTRA:          -1.376
REMARK INTER:                  -1.061
REMARK INTRA:                  -0.315
REMARK UNBOUND:                -0.387
REMARK SMILES CC1=CCC[C@H](C)C(=O)C[C@H](C(C)C)C(=O)C1
REMARK SMILES IDX 8 1 9 2 6 3 7 4 5 5 4 6 3 7 2 8 1 9 10 11 11 12 15 13 16 14
REMARK SMILES IDX 17 15 12 17 13 18 14 19
REMARK H PARENT
REMARK Flexibility Score: 70.00
ROOT
ATOM      1  C   UNL     1      91.703  27.497  11.843  1.00  0.00     0.136 C 
ATOM      2  O   UNL     1      92.036  26.325  11.751  1.00  0.00    -0.299 OA
ENDROOT
BRANCH   1   3
ATOM      3  C   UNL     1      90.311  27.823  12.356  1.00  0.00     0.053 C 
ATOM      4  C   UNL     1      89.371  26.625  12.177  1.00  0.00     0.016 C 
BRANCH   3   5
ATOM      5  C   UNL     1      90.342  28.291  13.823  1.00  0.00     0.015 C 
BRANCH   5   6
ATOM      6  C   UNL     1      89.878  29.750  13.973  1.00  0.00     0.028 C 
BRANCH   6   7
ATOM      7  C   UNL     1      90.929  30.577  14.668  1.00  0.00    -0.028 C 
ATOM      8  C   UNL     1      91.707  31.499  14.056  1.00  0.00    -0.070 CG0
ATOM      9  C   UNL     1      92.758  32.199  14.881  1.00  0.00     0.039 C 
ATOM     10  G   UNL     1      91.556  31.866  12.587  1.00  0.00     0.000 G0
ENDBRANCH   6   7
ENDBRANCH   5   6
ENDBRANCH   3   5
ENDBRANCH   1   3
BRANCH   1  11
ATOM     11  C   UNL     1      92.704  28.568  11.469  1.00  0.00     0.087 C 
BRANCH  11  12
ATOM     12  C   UNL     1      92.016  29.859  10.944  1.00  0.00     0.066 C 
BRANCH  12  13
ATOM     13  C   UNL     1      92.508  31.089  11.692  1.00  0.00     0.140 C 
ATOM     14  O   UNL     1      93.652  31.486  11.525  1.00  0.00    -0.299 OA
BRANCH  13  15
ATOM     15  C   UNL     1      91.581  31.883  12.581  1.00  0.00     0.106 CG0
ATOM     16  G   UNL     1      91.705  31.485  14.044  1.00  0.00     0.000 G0
ENDBRANCH  13  15
ENDBRANCH  12  13
BRANCH  12  17
ATOM     17  C   UNL     1      92.164  30.059   9.402  1.00  0.00    -0.006 C 
ATOM     18  C   UNL     1      92.824  28.872   8.675  1.00  0.00     0.008 C 
ATOM     19  C   UNL     1      90.815  30.393   8.743  1.00  0.00     0.008 C 
ENDBRANCH  12  17
ENDBRANCH  11  12
ENDBRANCH   1  11
TORSDOF 1
ENDMDL
MODEL 5
REMARK VINA RESULT:    -0.581      1.892      2.486
REMARK INTER + INTRA:          -1.274
REMARK INTER:                  -0.890
REMARK INTRA:                  -0.384
REMARK UNBOUND:                -0.387
REMARK SMILES CC1=CCC[C@H](C)C(=O)C[C@H](C(C)C)C(=O)C1
REMARK SMILES IDX 8 1 9 2 6 3 7 4 5 5 4 6 3 7 2 8 1 9 10 11 11 12 15 13 16 14
REMARK SMILES IDX 17 15 12 17 13 18 14 19
REMARK H PARENT
REMARK Flexibility Score: 70.00
ROOT
ATOM      1  C   UNL     1      91.930  31.522  10.341  1.00  0.00     0.136 C 
ATOM      2  O   UNL     1      91.720  32.322   9.440  1.00  0.00    -0.299 OA
ENDROOT
BRANCH   1   3
ATOM      3  C   UNL     1      93.288  30.846  10.416  1.00  0.00     0.053 C 
ATOM      4  C   UNL     1      93.484  29.886   9.236  1.00  0.00     0.016 C 
BRANCH   3   5
ATOM      5  C   UNL     1      94.430  31.875  10.491  1.00  0.00     0.015 C 
BRANCH   5   6
ATOM      6  C   UNL     1      94.994  32.009  11.916  1.00  0.00     0.028 C 
BRANCH   6   7
ATOM      7  C   UNL     1      94.287  33.104  12.670  1.00  0.00    -0.028 C 
ATOM      8  C   UNL     1      93.377  32.896  13.651  1.00  0.00    -0.070 CG0
ATOM      9  C   UNL     1      92.711  34.102  14.266  1.00  0.00     0.039 C 
ATOM     10  G   UNL     1      93.015  31.510  14.163  1.00  0.00     0.000 G0
ENDBRANCH   6   7
ENDBRANCH   5   6
ENDBRANCH   3   5
ENDBRANCH   1   3
BRANCH   1  11
ATOM     11  C   UNL     1      90.837  31.267  11.354  1.00  0.00     0.087 C 
BRANCH  11  12
ATOM     12  C   UNL     1      91.308  30.336  12.507  1.00  0.00     0.066 C 
BRANCH  12  13
ATOM     13  C   UNL     1      91.593  31.128  13.774  1.00  0.00     0.140 C 
ATOM     14  O   UNL     1      90.677  31.412  14.534  1.00  0.00    -0.299 OA
BRANCH  13  15
ATOM     15  C   UNL     1      93.004  31.505  14.157  1.00  0.00     0.106 CG0
ATOM     16  G   UNL     1      93.382  32.894  13.664  1.00  0.00     0.000 G0
ENDBRANCH  13  15
ENDBRANCH  12  13
BRANCH  12  17
ATOM     17  C   UNL     1      90.318  29.164  12.804  1.00  0.00    -0.006 C 
ATOM     18  C   UNL     1      89.481  28.726  11.588  1.00  0.00     0.008 C 
ATOM     19  C   UNL     1      91.045  27.949  13.405  1.00  0.00     0.008 C 
ENDBRANCH  12  17
ENDBRANCH  11  12
ENDBRANCH   1  11
TORSDOF 1
ENDMDL
MODEL 6
REMARK VINA RESULT:    -0.558      3.635      6.249
REMARK INTER + INTRA:          -1.238
REMARK INTER:                  -0.866
REMARK INTRA:                  -0.372
REMARK UNBOUND:                -0.387
REMARK SMILES CC1=CCC[C@H](C)C(=O)C[C@H](C(C)C)C(=O)C1
REMARK SMILES IDX 8 1 9 2 6 3 7 4 5 5 4 6 3 7 2 8 1 9 10 11 11 12 15 13 16 14
REMARK SMILES IDX 17 15 12 17 13 18 14 19
REMARK H PARENT
REMARK Flexibility Score: 70.00
ROOT
ATOM      1  C   UNL     1      92.070  31.183   9.395  1.00  0.00     0.136 C 
ATOM      2  O   UNL     1      91.324  32.145   9.516  1.00  0.00    -0.299 OA
ENDROOT
BRANCH   1   3
ATOM      3  C   UNL     1      93.233  31.035  10.360  1.00  0.00     0.053 C 
ATOM      4  C   UNL     1      94.163  32.251  10.283  1.00  0.00     0.016 C 
BRANCH   3   5
ATOM      5  C   UNL     1      92.747  30.795  11.802  1.00  0.00     0.015 C 
BRANCH   5   6
ATOM      6  C   UNL     1      92.946  29.335  12.243  1.00  0.00     0.028 C 
BRANCH   6   7
ATOM      7  C   UNL     1      91.622  28.627  12.360  1.00  0.00    -0.028 C 
ATOM      8  C   UNL     1      91.198  27.651  11.523  1.00  0.00    -0.070 CG0
ATOM      9  C   UNL     1      89.816  27.085  11.739  1.00  0.00     0.039 C 
ATOM     10  G   UNL     1      92.056  27.098  10.395  1.00  0.00     0.000 G0
ENDBRANCH   6   7
ENDBRANCH   5   6
ENDBRANCH   3   5
ENDBRANCH   1   3
BRANCH   1  11
ATOM     11  C   UNL     1      91.779  30.172   8.308  1.00  0.00     0.087 C 
BRANCH  11  12
ATOM     12  C   UNL     1      92.585  28.857   8.497  1.00  0.00     0.066 C 
BRANCH  12  13
ATOM     13  C   UNL     1      91.708  27.748   9.059  1.00  0.00     0.140 C 
ATOM     14  O   UNL     1      90.759  27.333   8.408  1.00  0.00    -0.299 OA
BRANCH  13  15
ATOM     15  C   UNL     1      92.034  27.088  10.377  1.00  0.00     0.106 CG0
ATOM     16  G   UNL     1      91.197  27.643  11.521  1.00  0.00     0.000 G0
ENDBRANCH  13  15
ENDBRANCH  12  13
BRANCH  12  17
ATOM     17  C   UNL     1      93.308  28.379   7.198  1.00  0.00    -0.006 C 
ATOM     18  C   UNL     1      92.817  29.073   5.914  1.00  0.00     0.008 C 
ATOM     19  C   UNL     1      94.835  28.517   7.317  1.00  0.00     0.008 C 
ENDBRANCH  12  17
ENDBRANCH  11  12
ENDBRANCH   1  11
TORSDOF 1
ENDMDL
MODEL 7
REMARK VINA RESULT:    -0.557      2.526      4.443
REMARK INTER + INTRA:          -1.237
REMARK INTER:                  -0.789
REMARK INTRA:                  -0.448
REMARK UNBOUND:                -0.387
REMARK SMILES CC1=CCC[C@H](C)C(=O)C[C@H](C(C)C)C(=O)C1
REMARK SMILES IDX 8 1 9 2 6 3 7 4 5 5 4 6 3 7 2 8 1 9 10 11 11 12 15 13 16 14
REMARK SMILES IDX 17 15 12 17 13 18 14 19
REMARK H PARENT
REMARK Flexibility Score: 70.00
ROOT
ATOM      1  C   UNL     1      88.746  30.031  11.088  1.00  0.00     0.136 C 
ATOM      2  O   UNL     1      87.570  29.837  11.360  1.00  0.00    -0.299 OA
ENDROOT
BRANCH   1   3
ATOM      3  C   UNL     1      89.228  31.459  10.905  1.00  0.00     0.053 C 
ATOM      4  C   UNL     1      88.334  32.213   9.913  1.00  0.00     0.016 C 
BRANCH   3   5
ATOM      5  C   UNL     1      89.315  32.204  12.251  1.00  0.00     0.015 C 
BRANCH   5   6
ATOM      6  C   UNL     1      90.767  32.335  12.745  1.00  0.00     0.028 C 
BRANCH   6   7
ATOM      7  C   UNL     1      91.027  31.400  13.896  1.00  0.00    -0.028 C 
ATOM      8  C   UNL     1      91.861  30.336  13.847  1.00  0.00    -0.070 CG0
ATOM      9  C   UNL     1      91.964  29.459  15.070  1.00  0.00     0.039 C 
ATOM     10  G   UNL     1      92.704  30.001  12.625  1.00  0.00     0.000 G0
ENDBRANCH   6   7
ENDBRANCH   5   6
ENDBRANCH   3   5
ENDBRANCH   1   3
BRANCH   1  11
ATOM     11  C   UNL     1      89.670  28.839  10.975  1.00  0.00     0.087 C 
BRANCH  11  12
ATOM     12  C   UNL     1      91.131  29.257  10.647  1.00  0.00     0.066 C 
BRANCH  12  13
ATOM     13  C   UNL     1      92.074  28.906  11.788  1.00  0.00     0.140 C 
ATOM     14  O   UNL     1      92.378  27.739  11.991  1.00  0.00    -0.299 OA
BRANCH  13  15
ATOM     15  C   UNL     1      92.713  29.985  12.630  1.00  0.00     0.106 CG0
ATOM     16  G   UNL     1      91.869  30.341  13.845  1.00  0.00     0.000 G0
ENDBRANCH  13  15
ENDBRANCH  12  13
BRANCH  12  17
ATOM     17  C   UNL     1      91.658  28.668   9.299  1.00  0.00    -0.006 C 
ATOM     18  C   UNL     1      90.844  27.469   8.776  1.00  0.00     0.008 C 
ATOM     19  C   UNL     1      91.759  29.749   8.210  1.00  0.00     0.008 C 
ENDBRANCH  12  17
ENDBRANCH  11  12
ENDBRANCH   1  11
TORSDOF 1
ENDMDL
MODEL 8
REMARK VINA RESULT:    -0.521      3.923      6.357
REMARK INTER + INTRA:          -1.182
REMARK INTER:                  -0.749
REMARK INTRA:                  -0.434
REMARK UNBOUND:                -0.387
REMARK SMILES CC1=CCC[C@H](C)C(=O)C[C@H](C(C)C)C(=O)C1
REMARK SMILES IDX 8 1 9 2 6 3 7 4 5 5 4 6 3 7 2 8 1 9 10 11 11 12 15 13 16 14
REMARK SMILES IDX 17 15 12 17 13 18 14 19
REMARK H PARENT
REMARK Flexibility Score: 70.00
ROOT
ATOM      1  C   UNL     1      89.371  29.614  10.616  1.00  0.00     0.136 C 
ATOM      2  O   UNL     1      88.198  29.271  10.571  1.00  0.00    -0.299 OA
ENDROOT
BRANCH   1   3
ATOM      3  C   UNL     1      90.153  29.376  11.896  1.00  0.00     0.053 C 
ATOM      4  C   UNL     1      89.342  29.818  13.120  1.00  0.00     0.016 C 
BRANCH   3   5
ATOM      5  C   UNL     1      90.597  27.907  12.024  1.00  0.00     0.015 C 
BRANCH   5   6
ATOM      6  C   UNL     1      92.093  27.727  11.709  1.00  0.00     0.028 C 
BRANCH   6   7
ATOM      7  C   UNL     1      92.281  27.101  10.352  1.00  0.00    -0.028 C 
ATOM      8  C   UNL     1      92.833  27.729   9.288  1.00  0.00    -0.070 CG0
ATOM      9  C   UNL     1      92.893  26.983   7.978  1.00  0.00     0.039 C 
ATOM     10  G   UNL     1      93.403  29.138   9.363  1.00  0.00     0.000 G0
ENDBRANCH   6   7
ENDBRANCH   5   6
ENDBRANCH   3   5
ENDBRANCH   1   3
BRANCH   1  11
ATOM     11  C   UNL     1      89.993  30.233   9.384  1.00  0.00     0.087 C 
BRANCH  11  12
ATOM     12  C   UNL     1      91.402  30.823   9.671  1.00  0.00     0.066 C 
BRANCH  12  13
ATOM     13  C   UNL     1      92.462  30.171   8.795  1.00  0.00     0.140 C 
ATOM     14  O   UNL     1      92.600  30.531   7.635  1.00  0.00    -0.299 OA
BRANCH  13  15
ATOM     15  C   UNL     1      93.408  29.136   9.357  1.00  0.00     0.106 CG0
ATOM     16  G   UNL     1      92.833  27.729   9.279  1.00  0.00     0.000 G0
ENDBRANCH  13  15
ENDBRANCH  12  13
BRANCH  12  17
ATOM     17  C   UNL     1      91.463  32.379   9.537  1.00  0.00    -0.006 C 
ATOM     18  C   UNL     1      90.084  33.064   9.543  1.00  0.00     0.008 C 
ATOM     19  C   UNL     1      92.364  33.003  10.616  1.00  0.00     0.008 C 
ENDBRANCH  12  17
ENDBRANCH  11  12
ENDBRANCH   1  11
TORSDOF 1
ENDMDL
MODEL 9
REMARK VINA RESULT:    -0.499      3.100      5.390
REMARK INTER + INTRA:          -1.148
REMARK INTER:                  -0.768
REMARK INTRA:                  -0.380
REMARK UNBOUND:                -0.387
REMARK SMILES CC1=CCC[C@H](C)C(=O)C[C@H](C(C)C)C(=O)C1
REMARK SMILES IDX 8 1 9 2 6 3 7 4 5 5 4 6 3 7 2 8 1 9 10 11 11 12 15 13 16 14
REMARK SMILES IDX 17 15 12 17 13 18 14 19
REMARK H PARENT
REMARK Flexibility Score: 70.00
ROOT
ATOM      1  C   UNL     1      92.309  29.068   9.106  1.00  0.00     0.136 C 
ATOM      2  O   UNL     1      93.202  28.845   8.301  1.00  0.00    -0.299 OA
ENDROOT
BRANCH   1   3
ATOM      3  C   UNL     1      90.900  28.603   8.783  1.00  0.00     0.053 C 
ATOM      4  C   UNL     1      90.382  29.282   7.509  1.00  0.00     0.016 C 
BRANCH   3   5
ATOM      5  C   UNL     1      90.821  27.069   8.667  1.00  0.00     0.015 C 
BRANCH   5   6
ATOM      6  C   UNL     1      91.130  26.373  10.004  1.00  0.00     0.028 C 
BRANCH   6   7
ATOM      7  C   UNL     1      90.000  26.566  10.981  1.00  0.00    -0.028 C 
ATOM      8  C   UNL     1      90.090  27.284  12.125  1.00  0.00    -0.070 CG0
ATOM      9  C   UNL     1      88.883  27.330  13.029  1.00  0.00     0.039 C 
ATOM     10  G   UNL     1      91.342  28.052  12.523  1.00  0.00     0.000 G0
ENDBRANCH   6   7
ENDBRANCH   5   6
ENDBRANCH   3   5
ENDBRANCH   1   3
BRANCH   1  11
ATOM     11  C   UNL     1      92.658  29.770  10.400  1.00  0.00     0.087 C 
BRANCH  11  12
ATOM     12  C   UNL     1      91.399  30.314  11.132  1.00  0.00     0.066 C 
BRANCH  12  13
ATOM     13  C   UNL     1      91.149  29.563  12.431  1.00  0.00     0.140 C 
ATOM     14  O   UNL     1      90.718  30.161  13.407  1.00  0.00    -0.299 OA
BRANCH  13  15
ATOM     15  C   UNL     1      91.347  28.069  12.518  1.00  0.00     0.106 CG0
ATOM     16  G   UNL     1      90.096  27.299  12.122  1.00  0.00     0.000 G0
ENDBRANCH  13  15
ENDBRANCH  12  13
BRANCH  12  17
ATOM     17  C   UNL     1      91.447  31.854  11.389  1.00  0.00    -0.006 C 
ATOM     18  C   UNL     1      92.839  32.482  11.188  1.00  0.00     0.008 C 
ATOM     19  C   UNL     1      90.407  32.602  10.539  1.00  0.00     0.008 C 
ENDBRANCH  12  17
ENDBRANCH  11  12
ENDBRANCH   1  11
TORSDOF 1
ENDMDL
