MODEL 1
REMARK VINA RESULT:    -2.961      0.000      0.000
REMARK INTER + INTRA:          -3.220
REMARK INTER:                  -3.220
REMARK INTRA:                   0.000
REMARK UNBOUND:                 0.000
REMARK SMILES [NH3+]CC(=O)[O-]
REMARK SMILES IDX 2 1 1 2 3 6 4 7 5 8
REMARK H PARENT 1 3 1 4 1 5
REMARK Flexibility Score: inf
ROOT
ATOM      1  C   UNL     1     -31.443  53.735 -51.356  1.00  0.00     0.312 C 
ENDROOT
BRANCH   1   2
ATOM      2  N   UNL     1     -31.815  54.862 -50.503  1.00  0.00    -0.353 N 
ATOM      3  H   UNL     1     -32.480  55.491 -51.010  1.00  0.00     0.344 HD
ATOM      4  H   UNL     1     -32.260  54.513 -49.622  1.00  0.00     0.344 HD
ATOM      5  H   UNL     1     -30.956  55.404 -50.259  1.00  0.00     0.344 HD
ENDBRANCH   1   2
BRANCH   1   6
ATOM      6  C   UNL     1     -32.323  52.554 -51.086  1.00  0.00     0.096 C 
ATOM      7  O   UNL     1     -33.029  52.066 -52.008  1.00  0.00    -0.544 OA
ATOM      8  O   UNL     1     -32.402  52.024 -49.804  1.00  0.00    -0.544 OA
ENDBRANCH   1   6
TORSDOF 2
ENDMDL
MODEL 2
REMARK VINA RESULT:    -2.949      0.073      1.450
REMARK INTER + INTRA:          -3.207
REMARK INTER:                  -3.207
REMARK INTRA:                   0.000
REMARK UNBOUND:                 0.000
REMARK SMILES [NH3+]CC(=O)[O-]
REMARK SMILES IDX 2 1 1 2 3 6 4 7 5 8
REMARK H PARENT 1 3 1 4 1 5
REMARK Flexibility Score: inf
ROOT
ATOM      1  C   UNL     1     -31.442  53.728 -51.338  1.00  0.00     0.312 C 
ENDROOT
BRANCH   1   2
ATOM      2  N   UNL     1     -31.807  54.882 -50.519  1.00  0.00    -0.353 N 
ATOM      3  H   UNL     1     -31.508  54.727 -49.528  1.00  0.00     0.344 HD
ATOM      4  H   UNL     1     -31.353  55.746 -50.894  1.00  0.00     0.344 HD
ATOM      5  H   UNL     1     -32.845  55.005 -50.544  1.00  0.00     0.344 HD
ENDBRANCH   1   2
BRANCH   1   6
ATOM      6  C   UNL     1     -32.346  52.569 -51.051  1.00  0.00     0.096 C 
ATOM      7  O   UNL     1     -32.400  52.079 -49.892  1.00  0.00    -0.544 OA
ATOM      8  O   UNL     1     -33.090  51.997 -52.076  1.00  0.00    -0.544 OA
ENDBRANCH   1   6
TORSDOF 2
ENDMDL
MODEL 3
REMARK VINA RESULT:    -2.914     14.931     15.223
REMARK INTER + INTRA:          -3.169
REMARK INTER:                  -3.169
REMARK INTRA:                   0.000
REMARK UNBOUND:                 0.000
REMARK SMILES [NH3+]CC(=O)[O-]
REMARK SMILES IDX 2 1 1 2 3 6 4 7 5 8
REMARK H PARENT 1 3 1 4 1 5
REMARK Flexibility Score: inf
ROOT
ATOM      1  C   UNL     1     -40.930  41.408 -50.432  1.00  0.00     0.312 C 
ENDROOT
BRANCH   1   2
ATOM      2  N   UNL     1     -41.372  42.713 -49.943  1.00  0.00    -0.353 N 
ATOM      3  H   UNL     1     -42.281  42.615 -49.433  1.00  0.00     0.344 HD
ATOM      4  H   UNL     1     -40.650  43.120 -49.305  1.00  0.00     0.344 HD
ATOM      5  H   UNL     1     -41.508  43.355 -50.757  1.00  0.00     0.344 HD
ENDBRANCH   1   2
BRANCH   1   6
ATOM      6  C   UNL     1     -41.131  40.356 -49.386  1.00  0.00     0.096 C 
ATOM      7  O   UNL     1     -41.693  39.268 -49.681  1.00  0.00    -0.544 OA
ATOM      8  O   UNL     1     -40.744  40.597 -48.073  1.00  0.00    -0.544 OA
ENDBRANCH   1   6
TORSDOF 2
ENDMDL
MODEL 4
REMARK VINA RESULT:    -2.895     14.902     15.245
REMARK INTER + INTRA:          -3.149
REMARK INTER:                  -3.149
REMARK INTRA:                   0.000
REMARK UNBOUND:                 0.000
REMARK SMILES [NH3+]CC(=O)[O-]
REMARK SMILES IDX 2 1 1 2 3 6 4 7 5 8
REMARK H PARENT 1 3 1 4 1 5
REMARK Flexibility Score: inf
ROOT
ATOM      1  C   UNL     1     -40.876  41.498 -50.463  1.00  0.00     0.312 C 
ENDROOT
BRANCH   1   2
ATOM      2  N   UNL     1     -41.414  42.800 -50.073  1.00  0.00    -0.353 N 
ATOM      3  H   UNL     1     -41.687  42.787 -49.062  1.00  0.00     0.344 HD
ATOM      4  H   UNL     1     -40.699  43.547 -50.235  1.00  0.00     0.344 HD
ATOM      5  H   UNL     1     -42.260  43.008 -50.650  1.00  0.00     0.344 HD
ENDBRANCH   1   2
BRANCH   1   6
ATOM      6  C   UNL     1     -41.192  40.464 -49.428  1.00  0.00     0.096 C 
ATOM      7  O   UNL     1     -40.798  40.613 -48.241  1.00  0.00    -0.544 OA
ATOM      8  O   UNL     1     -41.879  39.310 -49.784  1.00  0.00    -0.544 OA
ENDBRANCH   1   6
TORSDOF 2
ENDMDL
MODEL 5
REMARK VINA RESULT:    -2.701      1.692      2.073
REMARK INTER + INTRA:          -2.938
REMARK INTER:                  -2.938
REMARK INTRA:                   0.000
REMARK UNBOUND:                 0.000
REMARK SMILES [NH3+]CC(=O)[O-]
REMARK SMILES IDX 2 1 1 2 3 6 4 7 5 8
REMARK H PARENT 1 3 1 4 1 5
REMARK Flexibility Score: inf
ROOT
ATOM      1  C   UNL     1     -31.988  53.456 -50.843  1.00  0.00     0.312 C 
ENDROOT
BRANCH   1   2
ATOM      2  N   UNL     1     -31.748  54.874 -50.581  1.00  0.00    -0.353 N 
ATOM      3  H   UNL     1     -32.244  55.165 -49.706  1.00  0.00     0.344 HD
ATOM      4  H   UNL     1     -30.722  55.051 -50.482  1.00  0.00     0.344 HD
ATOM      5  H   UNL     1     -32.115  55.437 -51.381  1.00  0.00     0.344 HD
ENDBRANCH   1   2
BRANCH   1   6
ATOM      6  C   UNL     1     -31.288  53.024 -52.094  1.00  0.00     0.096 C 
ATOM      7  O   UNL     1     -30.540  53.828 -52.711  1.00  0.00    -0.544 OA
ATOM      8  O   UNL     1     -31.499  51.750 -52.605  1.00  0.00    -0.544 OA
ENDBRANCH   1   6
TORSDOF 2
ENDMDL
MODEL 6
REMARK VINA RESULT:    -2.640     14.853     15.017
REMARK INTER + INTRA:          -2.872
REMARK INTER:                  -2.872
REMARK INTRA:                   0.000
REMARK UNBOUND:                 0.000
REMARK SMILES [NH3+]CC(=O)[O-]
REMARK SMILES IDX 2 1 1 2 3 6 4 7 5 8
REMARK H PARENT 1 3 1 4 1 5
REMARK Flexibility Score: inf
ROOT
ATOM      1  C   UNL     1     -40.956  41.439 -49.799  1.00  0.00     0.312 C 
ENDROOT
BRANCH   1   2
ATOM      2  N   UNL     1     -41.412  42.794 -50.103  1.00  0.00    -0.353 N 
ATOM      3  H   UNL     1     -40.666  43.486 -49.859  1.00  0.00     0.344 HD
ATOM      4  H   UNL     1     -41.650  42.873 -51.119  1.00  0.00     0.344 HD
ATOM      5  H   UNL     1     -42.266  43.003 -49.537  1.00  0.00     0.344 HD
ENDBRANCH   1   2
BRANCH   1   6
ATOM      6  C   UNL     1     -41.039  40.569 -51.015  1.00  0.00     0.096 C 
ATOM      7  O   UNL     1     -41.832  40.858 -51.949  1.00  0.00    -0.544 OA
ATOM      8  O   UNL     1     -40.276  39.410 -51.094  1.00  0.00    -0.544 OA
ENDBRANCH   1   6
TORSDOF 2
ENDMDL
MODEL 7
REMARK VINA RESULT:    -2.634      6.587      6.866
REMARK INTER + INTRA:          -2.865
REMARK INTER:                  -2.865
REMARK INTRA:                   0.000
REMARK UNBOUND:                 0.000
REMARK SMILES [NH3+]CC(=O)[O-]
REMARK SMILES IDX 2 1 1 2 3 6 4 7 5 8
REMARK H PARENT 1 3 1 4 1 5
REMARK Flexibility Score: inf
ROOT
ATOM      1  C   UNL     1     -28.327  53.340 -46.344  1.00  0.00     0.312 C 
ENDROOT
BRANCH   1   2
ATOM      2  N   UNL     1     -29.398  53.683 -47.277  1.00  0.00    -0.353 N 
ATOM      3  H   UNL     1     -30.280  53.186 -47.009  1.00  0.00     0.344 HD
ATOM      4  H   UNL     1     -29.560  54.716 -47.274  1.00  0.00     0.344 HD
ATOM      5  H   UNL     1     -29.121  53.385 -48.240  1.00  0.00     0.344 HD
ENDBRANCH   1   2
BRANCH   1   6
ATOM      6  C   UNL     1     -28.655  53.820 -44.964  1.00  0.00     0.096 C 
ATOM      7  O   UNL     1     -29.010  53.001 -44.076  1.00  0.00    -0.544 OA
ATOM      8  O   UNL     1     -28.617  55.178 -44.672  1.00  0.00    -0.544 OA
ENDBRANCH   1   6
TORSDOF 2
ENDMDL
MODEL 8
REMARK VINA RESULT:    -2.605      6.766      7.195
REMARK INTER + INTRA:          -2.834
REMARK INTER:                  -2.834
REMARK INTRA:                   0.000
REMARK UNBOUND:                 0.000
REMARK SMILES [NH3+]CC(=O)[O-]
REMARK SMILES IDX 2 1 1 2 3 6 4 7 5 8
REMARK H PARENT 1 3 1 4 1 5
REMARK Flexibility Score: inf
ROOT
ATOM      1  C   UNL     1     -38.082  48.742 -52.880  1.00  0.00     0.312 C 
ENDROOT
BRANCH   1   2
ATOM      2  N   UNL     1     -39.053  48.822 -51.790  1.00  0.00    -0.353 N 
ATOM      3  H   UNL     1     -40.023  48.714 -52.166  1.00  0.00     0.344 HD
ATOM      4  H   UNL     1     -38.862  48.074 -51.084  1.00  0.00     0.344 HD
ATOM      5  H   UNL     1     -38.971  49.755 -51.326  1.00  0.00     0.344 HD
ENDBRANCH   1   2
BRANCH   1   6
ATOM      6  C   UNL     1     -36.719  48.418 -52.351  1.00  0.00     0.096 C 
ATOM      7  O   UNL     1     -36.456  47.254 -51.948  1.00  0.00    -0.544 OA
ATOM      8  O   UNL     1     -35.755  49.414 -52.256  1.00  0.00    -0.544 OA
ENDBRANCH   1   6
TORSDOF 2
ENDMDL
MODEL 9
REMARK VINA RESULT:    -2.549      3.052      3.299
REMARK INTER + INTRA:          -2.772
REMARK INTER:                  -2.772
REMARK INTRA:                   0.000
REMARK UNBOUND:                 0.000
REMARK SMILES [NH3+]CC(=O)[O-]
REMARK SMILES IDX 2 1 1 2 3 6 4 7 5 8
REMARK H PARENT 1 3 1 4 1 5
REMARK Flexibility Score: inf
ROOT
ATOM      1  C   UNL     1     -33.093  51.223 -51.039  1.00  0.00     0.312 C 
ENDROOT
BRANCH   1   2
ATOM      2  N   UNL     1     -31.719  50.795 -51.295  1.00  0.00    -0.353 N 
ATOM      3  H   UNL     1     -31.315  50.353 -50.436  1.00  0.00     0.344 HD
ATOM      4  H   UNL     1     -31.697  50.112 -52.087  1.00  0.00     0.344 HD
ATOM      5  H   UNL     1     -31.142  51.629 -51.550  1.00  0.00     0.344 HD
ENDBRANCH   1   2
BRANCH   1   6
ATOM      6  C   UNL     1     -33.940  51.038 -52.259  1.00  0.00     0.096 C 
ATOM      7  O   UNL     1     -35.052  50.452 -52.176  1.00  0.00    -0.544 OA
ATOM      8  O   UNL     1     -33.480  51.467 -53.497  1.00  0.00    -0.544 OA
ENDBRANCH   1   6
TORSDOF 2
ENDMDL
