MODEL 1
REMARK VINA RESULT:    -4.854      0.000      0.000
REMARK INTER + INTRA:          -7.701
REMARK INTER:                  -7.124
REMARK INTRA:                  -0.577
REMARK UNBOUND:                -0.577
REMARK SMILES O=C([O-])CCCCCCCC(=O)[O-]
REMARK SMILES IDX 7 1 6 2 5 3 4 4 2 5 1 6 3 7 8 8 9 9 10 10 11 11 12 12 13 13
REMARK H PARENT
REMARK Flexibility Score: inf
ROOT
ATOM      1  C   UNL     1      45.328 -45.948 164.953  1.00  0.00     0.000 C 
ENDROOT
BRANCH   1   2
ATOM      2  C   UNL     1      46.717 -45.828 165.600  1.00  0.00     0.000 C 
BRANCH   2   3
ATOM      3  C   UNL     1      47.794 -46.618 164.836  1.00  0.00     0.006 C 
BRANCH   3   4
ATOM      4  C   UNL     1      48.985 -45.736 164.440  1.00  0.00     0.053 C 
BRANCH   4   5
ATOM      5  C   UNL     1      50.284 -46.308 164.920  1.00  0.00     0.041 C 
ATOM      6  O   UNL     1      51.340 -45.626 164.853  1.00  0.00    -0.550 OA
ATOM      7  O   UNL     1      50.333 -47.607 165.409  1.00  0.00    -0.550 OA
ENDBRANCH   4   5
ENDBRANCH   3   4
ENDBRANCH   2   3
ENDBRANCH   1   2
BRANCH   1   8
ATOM      8  C   UNL     1      45.402 -46.161 163.431  1.00  0.00     0.000 C 
BRANCH   8   9
ATOM      9  C   UNL     1      44.366 -47.178 162.925  1.00  0.00     0.006 C 
BRANCH   9  10
ATOM     10  C   UNL     1      45.007 -48.332 162.143  1.00  0.00     0.053 C 
BRANCH  10  11
ATOM     11  C   UNL     1      45.803 -49.206 163.062  1.00  0.00     0.041 C 
ATOM     12  O   UNL     1      45.316 -49.580 164.161  1.00  0.00    -0.550 OA
ATOM     13  O   UNL     1      47.064 -49.648 162.681  1.00  0.00    -0.550 OA
ENDBRANCH  10  11
ENDBRANCH   9  10
ENDBRANCH   8   9
ENDBRANCH   1   8
TORSDOF 8
ENDMDL
MODEL 2
REMARK VINA RESULT:    -4.794      0.193      4.865
REMARK INTER + INTRA:          -7.614
REMARK INTER:                  -7.068
REMARK INTRA:                  -0.546
REMARK UNBOUND:                -0.577
REMARK SMILES O=C([O-])CCCCCCCC(=O)[O-]
REMARK SMILES IDX 7 1 6 2 5 3 4 4 2 5 1 6 3 7 8 8 9 9 10 10 11 11 12 12 13 13
REMARK H PARENT
REMARK Flexibility Score: inf
ROOT
ATOM      1  C   UNL     1      45.369 -45.932 164.912  1.00  0.00     0.000 C 
ENDROOT
BRANCH   1   2
ATOM      2  C   UNL     1      45.427 -46.163 163.394  1.00  0.00     0.000 C 
BRANCH   2   3
ATOM      3  C   UNL     1      44.271 -47.041 162.886  1.00  0.00     0.006 C 
BRANCH   3   4
ATOM      4  C   UNL     1      44.770 -48.353 162.267  1.00  0.00     0.053 C 
BRANCH   4   5
ATOM      5  C   UNL     1      45.688 -49.091 163.194  1.00  0.00     0.041 C 
ATOM      6  O   UNL     1      46.870 -49.347 162.844  1.00  0.00    -0.550 OA
ATOM      7  O   UNL     1      45.226 -49.526 164.429  1.00  0.00    -0.550 OA
ENDBRANCH   4   5
ENDBRANCH   3   4
ENDBRANCH   2   3
ENDBRANCH   1   2
BRANCH   1   8
ATOM      8  C   UNL     1      46.764 -45.745 165.535  1.00  0.00     0.000 C 
BRANCH   8   9
ATOM      9  C   UNL     1      47.844 -46.575 164.823  1.00  0.00     0.006 C 
BRANCH   9  10
ATOM     10  C   UNL     1      49.073 -45.739 164.442  1.00  0.00     0.053 C 
BRANCH  10  11
ATOM     11  C   UNL     1      50.320 -46.370 164.978  1.00  0.00     0.041 C 
ATOM     12  O   UNL     1      50.313 -47.573 165.350  1.00  0.00    -0.550 OA
ATOM     13  O   UNL     1      51.503 -45.643 165.021  1.00  0.00    -0.550 OA
ENDBRANCH  10  11
ENDBRANCH   9  10
ENDBRANCH   8   9
ENDBRANCH   1   8
TORSDOF 8
ENDMDL
MODEL 3
REMARK VINA RESULT:    -4.775      4.284      6.348
REMARK INTER + INTRA:          -7.586
REMARK INTER:                  -7.203
REMARK INTRA:                  -0.383
REMARK UNBOUND:                -0.577
REMARK SMILES O=C([O-])CCCCCCCC(=O)[O-]
REMARK SMILES IDX 7 1 6 2 5 3 4 4 2 5 1 6 3 7 8 8 9 9 10 10 11 11 12 12 13 13
REMARK H PARENT
REMARK Flexibility Score: inf
ROOT
ATOM      1  C   UNL     1      52.686 -48.068 165.777  1.00  0.00     0.000 C 
ENDROOT
BRANCH   1   2
ATOM      2  C   UNL     1      54.219 -47.994 165.850  1.00  0.00     0.000 C 
BRANCH   2   3
ATOM      3  C   UNL     1      54.802 -48.900 166.948  1.00  0.00     0.006 C 
BRANCH   3   4
ATOM      4  C   UNL     1      53.729 -49.784 167.597  1.00  0.00     0.053 C 
BRANCH   4   5
ATOM      5  C   UNL     1      54.128 -51.228 167.605  1.00  0.00     0.041 C 
ATOM      6  O   UNL     1      54.751 -51.718 166.626  1.00  0.00    -0.550 OA
ATOM      7  O   UNL     1      53.782 -52.040 168.677  1.00  0.00    -0.550 OA
ENDBRANCH   4   5
ENDBRANCH   3   4
ENDBRANCH   2   3
ENDBRANCH   1   2
BRANCH   1   8
ATOM      8  C   UNL     1      52.027 -46.677 165.781  1.00  0.00     0.000 C 
BRANCH   8   9
ATOM      9  C   UNL     1      50.591 -46.702 165.232  1.00  0.00     0.006 C 
BRANCH   9  10
ATOM     10  C   UNL     1      49.915 -48.068 165.414  1.00  0.00     0.053 C 
BRANCH  10  11
ATOM     11  C   UNL     1      48.633 -48.122 164.645  1.00  0.00     0.041 C 
ATOM     12  O   UNL     1      47.758 -47.231 164.807  1.00  0.00    -0.550 OA
ATOM     13  O   UNL     1      48.425 -49.129 163.710  1.00  0.00    -0.550 OA
ENDBRANCH  10  11
ENDBRANCH   9  10
ENDBRANCH   8   9
ENDBRANCH   1   8
TORSDOF 8
ENDMDL
MODEL 4
REMARK VINA RESULT:    -4.755      3.966      5.616
REMARK INTER + INTRA:          -7.556
REMARK INTER:                  -6.854
REMARK INTRA:                  -0.701
REMARK UNBOUND:                -0.577
REMARK SMILES O=C([O-])CCCCCCCC(=O)[O-]
REMARK SMILES IDX 7 1 6 2 5 3 4 4 2 5 1 6 3 7 8 8 9 9 10 10 11 11 12 12 13 13
REMARK H PARENT
REMARK Flexibility Score: inf
ROOT
ATOM      1  C   UNL     1      43.358 -48.383 165.350  1.00  0.00     0.000 C 
ENDROOT
BRANCH   1   2
ATOM      2  C   UNL     1      44.172 -49.381 164.511  1.00  0.00     0.000 C 
BRANCH   2   3
ATOM      3  C   UNL     1      45.569 -48.847 164.151  1.00  0.00     0.006 C 
BRANCH   3   4
ATOM      4  C   UNL     1      45.783 -48.763 162.634  1.00  0.00     0.053 C 
BRANCH   4   5
ATOM      5  C   UNL     1      44.908 -47.721 162.007  1.00  0.00     0.041 C 
ATOM      6  O   UNL     1      44.322 -47.957 160.917  1.00  0.00    -0.550 OA
ATOM      7  O   UNL     1      44.769 -46.476 162.608  1.00  0.00    -0.550 OA
ENDBRANCH   4   5
ENDBRANCH   3   4
ENDBRANCH   2   3
ENDBRANCH   1   2
BRANCH   1   8
ATOM      8  C   UNL     1      41.861 -48.397 164.997  1.00  0.00     0.000 C 
BRANCH   8   9
ATOM      9  C   UNL     1      41.590 -48.971 163.596  1.00  0.00     0.006 C 
BRANCH   9  10
ATOM     10  C   UNL     1      41.189 -47.889 162.584  1.00  0.00     0.053 C 
BRANCH  10  11
ATOM     11  C   UNL     1      39.772 -48.085 162.145  1.00  0.00     0.041 C 
ATOM     12  O   UNL     1      39.146 -49.128 162.471  1.00  0.00    -0.550 OA
ATOM     13  O   UNL     1      39.126 -47.093 161.418  1.00  0.00    -0.550 OA
ENDBRANCH  10  11
ENDBRANCH   9  10
ENDBRANCH   8   9
ENDBRANCH   1   8
TORSDOF 8
ENDMDL
MODEL 5
REMARK VINA RESULT:    -4.743      4.440      7.532
REMARK INTER + INTRA:          -7.539
REMARK INTER:                  -7.281
REMARK INTRA:                  -0.258
REMARK UNBOUND:                -0.577
REMARK SMILES O=C([O-])CCCCCCCC(=O)[O-]
REMARK SMILES IDX 7 1 6 2 5 3 4 4 2 5 1 6 3 7 8 8 9 9 10 10 11 11 12 12 13 13
REMARK H PARENT
REMARK Flexibility Score: inf
ROOT
ATOM      1  C   UNL     1      52.625 -48.017 165.894  1.00  0.00     0.000 C 
ENDROOT
BRANCH   1   2
ATOM      2  C   UNL     1      52.021 -46.604 165.834  1.00  0.00     0.000 C 
BRANCH   2   3
ATOM      3  C   UNL     1      50.672 -46.570 165.096  1.00  0.00     0.006 C 
BRANCH   3   4
ATOM      4  C   UNL     1      49.866 -47.860 165.303  1.00  0.00     0.053 C 
BRANCH   4   5
ATOM      5  C   UNL     1      48.511 -47.776 164.672  1.00  0.00     0.041 C 
ATOM      6  O   UNL     1      47.762 -46.791 164.908  1.00  0.00    -0.550 OA
ATOM      7  O   UNL     1      48.061 -48.802 163.851  1.00  0.00    -0.550 OA
ENDBRANCH   4   5
ENDBRANCH   3   4
ENDBRANCH   2   3
ENDBRANCH   1   2
BRANCH   1   8
ATOM      8  C   UNL     1      53.821 -48.107 166.857  1.00  0.00     0.000 C 
BRANCH   8   9
ATOM      9  C   UNL     1      54.343 -49.544 167.017  1.00  0.00     0.006 C 
BRANCH   9  10
ATOM     10  C   UNL     1      54.036 -50.132 168.401  1.00  0.00     0.053 C 
BRANCH  10  11
ATOM     11  C   UNL     1      53.811 -51.608 168.302  1.00  0.00     0.041 C 
ATOM     12  O   UNL     1      54.508 -52.402 168.988  1.00  0.00    -0.550 OA
ATOM     13  O   UNL     1      52.798 -52.104 167.491  1.00  0.00    -0.550 OA
ENDBRANCH  10  11
ENDBRANCH   9  10
ENDBRANCH   8   9
ENDBRANCH   1   8
TORSDOF 8
ENDMDL
MODEL 6
REMARK VINA RESULT:    -4.742      3.906      6.849
REMARK INTER + INTRA:          -7.537
REMARK INTER:                  -6.885
REMARK INTRA:                  -0.652
REMARK UNBOUND:                -0.577
REMARK SMILES O=C([O-])CCCCCCCC(=O)[O-]
REMARK SMILES IDX 7 1 6 2 5 3 4 4 2 5 1 6 3 7 8 8 9 9 10 10 11 11 12 12 13 13
REMARK H PARENT
REMARK Flexibility Score: inf
ROOT
ATOM      1  C   UNL     1      42.335 -48.357 164.980  1.00  0.00     0.000 C 
ENDROOT
BRANCH   1   2
ATOM      2  C   UNL     1      41.798 -49.435 164.026  1.00  0.00     0.000 C 
BRANCH   2   3
ATOM      3  C   UNL     1      40.840 -48.862 162.967  1.00  0.00     0.006 C 
BRANCH   3   4
ATOM      4  C   UNL     1      41.311 -47.501 162.438  1.00  0.00     0.053 C 
BRANCH   4   5
ATOM      5  C   UNL     1      40.247 -46.820 161.634  1.00  0.00     0.041 C 
ATOM      6  O   UNL     1      40.473 -45.701 161.102  1.00  0.00    -0.550 OA
ATOM      7  O   UNL     1      38.993 -47.404 161.501  1.00  0.00    -0.550 OA
ENDBRANCH   4   5
ENDBRANCH   3   4
ENDBRANCH   2   3
ENDBRANCH   1   2
BRANCH   1   8
ATOM      8  C   UNL     1      43.838 -48.519 165.269  1.00  0.00     0.000 C 
BRANCH   8   9
ATOM      9  C   UNL     1      44.525 -49.489 164.294  1.00  0.00     0.006 C 
BRANCH   9  10
ATOM     10  C   UNL     1      45.697 -48.839 163.546  1.00  0.00     0.053 C 
BRANCH  10  11
ATOM     11  C   UNL     1      45.194 -47.811 162.582  1.00  0.00     0.041 C 
ATOM     12  O   UNL     1      45.361 -46.585 162.818  1.00  0.00    -0.550 OA
ATOM     13  O   UNL     1      44.585 -48.208 161.397  1.00  0.00    -0.550 OA
ENDBRANCH  10  11
ENDBRANCH   9  10
ENDBRANCH   8   9
ENDBRANCH   1   8
TORSDOF 8
ENDMDL
MODEL 7
REMARK VINA RESULT:    -4.722      3.433      5.784
REMARK INTER + INTRA:          -7.507
REMARK INTER:                  -7.141
REMARK INTRA:                  -0.367
REMARK UNBOUND:                -0.577
REMARK SMILES O=C([O-])CCCCCCCC(=O)[O-]
REMARK SMILES IDX 7 1 6 2 5 3 4 4 2 5 1 6 3 7 8 8 9 9 10 10 11 11 12 12 13 13
REMARK H PARENT
REMARK Flexibility Score: inf
ROOT
ATOM      1  C   UNL     1      52.313 -46.086 165.874  1.00  0.00     0.000 C 
ENDROOT
BRANCH   1   2
ATOM      2  C   UNL     1      53.480 -45.757 166.818  1.00  0.00     0.000 C 
BRANCH   2   3
ATOM      3  C   UNL     1      54.479 -44.765 166.198  1.00  0.00     0.006 C 
BRANCH   3   4
ATOM      4  C   UNL     1      53.975 -44.194 164.865  1.00  0.00     0.053 C 
BRANCH   4   5
ATOM      5  C   UNL     1      53.977 -42.696 164.867  1.00  0.00     0.041 C 
ATOM      6  O   UNL     1      54.257 -42.062 163.816  1.00  0.00    -0.550 OA
ATOM      7  O   UNL     1      53.704 -42.001 166.038  1.00  0.00    -0.550 OA
ENDBRANCH   4   5
ENDBRANCH   3   4
ENDBRANCH   2   3
ENDBRANCH   1   2
BRANCH   1   8
ATOM      8  C   UNL     1      52.078 -47.600 165.730  1.00  0.00     0.000 C 
BRANCH   8   9
ATOM      9  C   UNL     1      50.598 -47.950 165.502  1.00  0.00     0.006 C 
BRANCH   9  10
ATOM     10  C   UNL     1      49.815 -46.800 164.856  1.00  0.00     0.053 C 
BRANCH  10  11
ATOM     11  C   UNL     1      48.346 -47.084 164.894  1.00  0.00     0.041 C 
ATOM     12  O   UNL     1      47.536 -46.191 165.256  1.00  0.00    -0.550 OA
ATOM     13  O   UNL     1      47.867 -48.321 164.479  1.00  0.00    -0.550 OA
ENDBRANCH  10  11
ENDBRANCH   9  10
ENDBRANCH   8   9
ENDBRANCH   1   8
TORSDOF 8
ENDMDL
MODEL 8
REMARK VINA RESULT:    -4.710      3.484      7.793
REMARK INTER + INTRA:          -7.490
REMARK INTER:                  -7.139
REMARK INTRA:                  -0.351
REMARK UNBOUND:                -0.577
REMARK SMILES O=C([O-])CCCCCCCC(=O)[O-]
REMARK SMILES IDX 7 1 6 2 5 3 4 4 2 5 1 6 3 7 8 8 9 9 10 10 11 11 12 12 13 13
REMARK H PARENT
REMARK Flexibility Score: inf
ROOT
ATOM      1  C   UNL     1      52.327 -46.062 165.916  1.00  0.00     0.000 C 
ENDROOT
BRANCH   1   2
ATOM      2  C   UNL     1      52.171 -47.535 165.504  1.00  0.00     0.000 C 
BRANCH   2   3
ATOM      3  C   UNL     1      50.703 -47.993 165.498  1.00  0.00     0.006 C 
BRANCH   3   4
ATOM      4  C   UNL     1      49.756 -46.895 164.996  1.00  0.00     0.053 C 
BRANCH   4   5
ATOM      5  C   UNL     1      48.371 -47.418 164.766  1.00  0.00     0.041 C 
ATOM      6  O   UNL     1      48.155 -48.658 164.761  1.00  0.00    -0.550 OA
ATOM      7  O   UNL     1      47.326 -46.535 164.522  1.00  0.00    -0.550 OA
ENDBRANCH   4   5
ENDBRANCH   3   4
ENDBRANCH   2   3
ENDBRANCH   1   2
BRANCH   1   8
ATOM      8  C   UNL     1      53.611 -45.808 166.724  1.00  0.00     0.000 C 
BRANCH   8   9
ATOM      9  C   UNL     1      54.467 -44.676 166.133  1.00  0.00     0.006 C 
BRANCH   9  10
ATOM     10  C   UNL     1      53.850 -44.071 164.865  1.00  0.00     0.053 C 
BRANCH  10  11
ATOM     11  C   UNL     1      53.903 -42.577 164.921  1.00  0.00     0.041 C 
ATOM     12  O   UNL     1      53.690 -41.975 166.006  1.00  0.00    -0.550 OA
ATOM     13  O   UNL     1      54.236 -41.851 163.784  1.00  0.00    -0.550 OA
ENDBRANCH  10  11
ENDBRANCH   9  10
ENDBRANCH   8   9
ENDBRANCH   1   8
TORSDOF 8
ENDMDL
MODEL 9
REMARK VINA RESULT:    -4.665      3.338      6.273
REMARK INTER + INTRA:          -7.425
REMARK INTER:                  -6.804
REMARK INTRA:                  -0.621
REMARK UNBOUND:                -0.577
REMARK SMILES O=C([O-])CCCCCCCC(=O)[O-]
REMARK SMILES IDX 7 1 6 2 5 3 4 4 2 5 1 6 3 7 8 8 9 9 10 10 11 11 12 12 13 13
REMARK H PARENT
REMARK Flexibility Score: inf
ROOT
ATOM      1  C   UNL     1      43.616 -48.490 165.503  1.00  0.00     0.000 C 
ENDROOT
BRANCH   1   2
ATOM      2  C   UNL     1      42.138 -48.382 165.098  1.00  0.00     0.000 C 
BRANCH   2   3
ATOM      3  C   UNL     1      41.799 -49.239 163.866  1.00  0.00     0.006 C 
BRANCH   3   4
ATOM      4  C   UNL     1      40.802 -48.541 162.932  1.00  0.00     0.053 C 
BRANCH   4   5
ATOM      5  C   UNL     1      41.483 -47.567 162.020  1.00  0.00     0.041 C 
ATOM      6  O   UNL     1      40.894 -46.511 161.667  1.00  0.00    -0.550 OA
ATOM      7  O   UNL     1      42.753 -47.843 161.531  1.00  0.00    -0.550 OA
ENDBRANCH   4   5
ENDBRANCH   3   4
ENDBRANCH   2   3
ENDBRANCH   1   2
BRANCH   1   8
ATOM      8  C   UNL     1      44.493 -49.085 164.387  1.00  0.00     0.000 C 
BRANCH   8   9
ATOM      9  C   UNL     1      45.581 -48.111 163.908  1.00  0.00     0.006 C 
BRANCH   9  10
ATOM     10  C   UNL     1      45.280 -46.656 164.292  1.00  0.00     0.053 C 
BRANCH  10  11
ATOM     11  C   UNL     1      46.376 -46.106 165.149  1.00  0.00     0.041 C 
ATOM     12  O   UNL     1      46.103 -45.371 166.135  1.00  0.00    -0.550 OA
ATOM     13  O   UNL     1      47.699 -46.445 164.889  1.00  0.00    -0.550 OA
ENDBRANCH  10  11
ENDBRANCH   9  10
ENDBRANCH   8   9
ENDBRANCH   1   8
TORSDOF 8
ENDMDL
