MODEL 1
REMARK VINA RESULT:    -5.693      0.000      0.000
REMARK INTER + INTRA:          -5.693
REMARK INTER:                  -5.693
REMARK INTRA:                   0.000
REMARK UNBOUND:                 0.000
REMARK SMILES CC1=CC(=O)[C@H]2C[C@@H]1C2(C)C
REMARK SMILES IDX 1 1 2 2 3 3 4 4 5 5 6 6 7 7 8 8 9 9 10 10 11 11
REMARK H PARENT
REMARK Flexibility Score: inf
ROOT
ATOM      1  C   UNL     1     -14.006 -20.012  28.786  1.00  0.00     0.040 C 
ATOM      2  C   UNL     1     -12.933 -18.980  28.930  1.00  0.00    -0.066 C 
ATOM      3  C   UNL     1     -11.870 -19.175  29.758  1.00  0.00     0.047 C 
ATOM      4  C   UNL     1     -10.879 -18.053  29.839  1.00  0.00     0.159 C 
ATOM      5  O   UNL     1      -9.875 -18.096  30.597  1.00  0.00    -0.295 OA
ATOM      6  C   UNL     1     -11.173 -16.853  28.938  1.00  0.00     0.067 C 
ATOM      7  C   UNL     1     -11.540 -17.484  27.576  1.00  0.00     0.021 C 
ATOM      8  C   UNL     1     -12.969 -17.656  28.138  1.00  0.00     0.022 C 
ATOM      9  C   UNL     1     -12.672 -16.468  29.099  1.00  0.00    -0.019 C 
ATOM     10  C   UNL     1     -13.001 -15.095  28.462  1.00  0.00     0.012 C 
ATOM     11  C   UNL     1     -13.294 -16.505  30.525  1.00  0.00     0.012 C 
ENDROOT
TORSDOF 0
ENDMDL
MODEL 2
REMARK VINA RESULT:    -5.551      1.822      3.111
REMARK INTER + INTRA:          -5.551
REMARK INTER:                  -5.551
REMARK INTRA:                   0.000
REMARK UNBOUND:                 0.000
REMARK SMILES CC1=CC(=O)[C@H]2C[C@@H]1C2(C)C
REMARK SMILES IDX 1 1 2 2 3 3 4 4 5 5 6 6 7 7 8 8 9 9 10 10 11 11
REMARK H PARENT
REMARK Flexibility Score: inf
ROOT
ATOM      1  C   UNL     1     -14.461 -15.460  32.280  1.00  0.00     0.040 C 
ATOM      2  C   UNL     1     -13.523 -16.439  31.651  1.00  0.00    -0.066 C 
ATOM      3  C   UNL     1     -13.228 -17.625  32.252  1.00  0.00     0.047 C 
ATOM      4  C   UNL     1     -12.250 -18.506  31.536  1.00  0.00     0.159 C 
ATOM      5  O   UNL     1     -11.868 -19.609  32.008  1.00  0.00    -0.295 OA
ATOM      6  C   UNL     1     -11.747 -17.972  30.194  1.00  0.00     0.067 C 
ATOM      7  C   UNL     1     -13.025 -17.474  29.484  1.00  0.00     0.021 C 
ATOM      8  C   UNL     1     -12.856 -16.164  30.287  1.00  0.00     0.022 C 
ATOM      9  C   UNL     1     -11.336 -16.483  30.377  1.00  0.00    -0.019 C 
ATOM     10  C   UNL     1     -10.543 -15.936  29.164  1.00  0.00     0.012 C 
ATOM     11  C   UNL     1     -10.578 -16.081  31.675  1.00  0.00     0.012 C 
ENDROOT
TORSDOF 0
ENDMDL
MODEL 3
REMARK VINA RESULT:    -5.491      1.670      3.752
REMARK INTER + INTRA:          -5.491
REMARK INTER:                  -5.491
REMARK INTRA:                   0.000
REMARK UNBOUND:                 0.000
REMARK SMILES CC1=CC(=O)[C@H]2C[C@@H]1C2(C)C
REMARK SMILES IDX 1 1 2 2 3 3 4 4 5 5 6 6 7 7 8 8 9 9 10 10 11 11
REMARK H PARENT
REMARK Flexibility Score: inf
ROOT
ATOM      1  C   UNL     1     -13.943 -15.865  31.624  1.00  0.00     0.040 C 
ATOM      2  C   UNL     1     -12.837 -16.804  31.263  1.00  0.00    -0.066 C 
ATOM      3  C   UNL     1     -11.996 -16.542  30.224  1.00  0.00     0.047 C 
ATOM      4  C   UNL     1     -10.948 -17.577  29.943  1.00  0.00     0.159 C 
ATOM      5  O   UNL     1     -10.136 -17.468  28.988  1.00  0.00    -0.295 OA
ATOM      6  C   UNL     1     -10.935 -18.772  30.897  1.00  0.00     0.067 C 
ATOM      7  C   UNL     1     -11.059 -18.137  32.299  1.00  0.00     0.021 C 
ATOM      8  C   UNL     1     -12.585 -18.104  32.055  1.00  0.00     0.022 C 
ATOM      9  C   UNL     1     -12.394 -19.288  31.063  1.00  0.00    -0.019 C 
ATOM     10  C   UNL     1     -12.455 -20.666  31.768  1.00  0.00     0.012 C 
ATOM     11  C   UNL     1     -13.304 -19.344  29.803  1.00  0.00     0.012 C 
ENDROOT
TORSDOF 0
ENDMDL
MODEL 4
REMARK VINA RESULT:    -5.461      2.018      3.290
REMARK INTER + INTRA:          -5.461
REMARK INTER:                  -5.461
REMARK INTRA:                   0.000
REMARK UNBOUND:                 0.000
REMARK SMILES CC1=CC(=O)[C@H]2C[C@@H]1C2(C)C
REMARK SMILES IDX 1 1 2 2 3 3 4 4 5 5 6 6 7 7 8 8 9 9 10 10 11 11
REMARK H PARENT
REMARK Flexibility Score: inf
ROOT
ATOM      1  C   UNL     1     -12.871 -15.505  28.415  1.00  0.00     0.040 C 
ATOM      2  C   UNL     1     -12.568 -16.498  29.492  1.00  0.00    -0.066 C 
ATOM      3  C   UNL     1     -13.166 -17.722  29.515  1.00  0.00     0.047 C 
ATOM      4  C   UNL     1     -12.803 -18.614  30.664  1.00  0.00     0.159 C 
ATOM      5  O   UNL     1     -13.316 -19.753  30.818  1.00  0.00    -0.295 OA
ATOM      6  C   UNL     1     -11.768 -18.044  31.635  1.00  0.00     0.067 C 
ATOM      7  C   UNL     1     -10.673 -17.457  30.717  1.00  0.00     0.021 C 
ATOM      8  C   UNL     1     -11.557 -16.193  30.617  1.00  0.00     0.022 C 
ATOM      9  C   UNL     1     -12.174 -16.585  31.991  1.00  0.00    -0.019 C 
ATOM     10  C   UNL     1     -11.364 -16.022  33.185  1.00  0.00     0.012 C 
ATOM     11  C   UNL     1     -13.680 -16.277  32.234  1.00  0.00     0.012 C 
ENDROOT
TORSDOF 0
ENDMDL
MODEL 5
REMARK VINA RESULT:    -5.455      1.802      3.376
REMARK INTER + INTRA:          -5.455
REMARK INTER:                  -5.455
REMARK INTRA:                   0.000
REMARK UNBOUND:                 0.000
REMARK SMILES CC1=CC(=O)[C@H]2C[C@@H]1C2(C)C
REMARK SMILES IDX 1 1 2 2 3 3 4 4 5 5 6 6 7 7 8 8 9 9 10 10 11 11
REMARK H PARENT
REMARK Flexibility Score: inf
ROOT
ATOM      1  C   UNL     1     -14.034 -14.599  28.256  1.00  0.00     0.040 C 
ATOM      2  C   UNL     1     -12.915 -15.589  28.184  1.00  0.00    -0.066 C 
ATOM      3  C   UNL     1     -12.535 -16.143  27.000  1.00  0.00     0.047 C 
ATOM      4  C   UNL     1     -11.422 -17.145  27.065  1.00  0.00     0.159 C 
ATOM      5  O   UNL     1     -11.006 -17.755  26.045  1.00  0.00    -0.295 OA
ATOM      6  C   UNL     1     -10.829 -17.376  28.455  1.00  0.00     0.067 C 
ATOM      7  C   UNL     1     -10.642 -15.953  29.027  1.00  0.00     0.021 C 
ATOM      8  C   UNL     1     -12.129 -16.018  29.441  1.00  0.00     0.022 C 
ATOM      9  C   UNL     1     -11.996 -17.568  29.466  1.00  0.00    -0.019 C 
ATOM     10  C   UNL     1     -11.508 -18.098  30.837  1.00  0.00     0.012 C 
ATOM     11  C   UNL     1     -13.222 -18.418  29.024  1.00  0.00     0.012 C 
ENDROOT
TORSDOF 0
ENDMDL
MODEL 6
REMARK VINA RESULT:    -5.295      2.006      3.641
REMARK INTER + INTRA:          -5.295
REMARK INTER:                  -5.295
REMARK INTRA:                   0.000
REMARK UNBOUND:                 0.000
REMARK SMILES CC1=CC(=O)[C@H]2C[C@@H]1C2(C)C
REMARK SMILES IDX 1 1 2 2 3 3 4 4 5 5 6 6 7 7 8 8 9 9 10 10 11 11
REMARK H PARENT
REMARK Flexibility Score: inf
ROOT
ATOM      1  C   UNL     1      -9.875 -15.017  29.703  1.00  0.00     0.040 C 
ATOM      2  C   UNL     1     -10.988 -15.994  29.496  1.00  0.00    -0.066 C 
ATOM      3  C   UNL     1     -11.761 -15.961  28.376  1.00  0.00     0.047 C 
ATOM      4  C   UNL     1     -12.864 -16.974  28.302  1.00  0.00     0.159 C 
ATOM      5  O   UNL     1     -13.670 -17.020  27.336  1.00  0.00    -0.295 OA
ATOM      6  C   UNL     1     -12.942 -17.944  29.480  1.00  0.00     0.067 C 
ATOM      7  C   UNL     1     -11.480 -18.388  29.702  1.00  0.00     0.021 C 
ATOM      8  C   UNL     1     -11.304 -17.095  30.530  1.00  0.00     0.022 C 
ATOM      9  C   UNL     1     -12.836 -17.129  30.801  1.00  0.00    -0.019 C 
ATOM     10  C   UNL     1     -13.198 -17.975  32.047  1.00  0.00     0.012 C 
ATOM     11  C   UNL     1     -13.595 -15.774  30.894  1.00  0.00     0.012 C 
ENDROOT
TORSDOF 0
ENDMDL
MODEL 7
REMARK VINA RESULT:    -5.278      2.248      3.487
REMARK INTER + INTRA:          -5.278
REMARK INTER:                  -5.278
REMARK INTRA:                   0.000
REMARK UNBOUND:                 0.000
REMARK SMILES CC1=CC(=O)[C@H]2C[C@@H]1C2(C)C
REMARK SMILES IDX 1 1 2 2 3 3 4 4 5 5 6 6 7 7 8 8 9 9 10 10 11 11
REMARK H PARENT
REMARK Flexibility Score: inf
ROOT
ATOM      1  C   UNL     1     -12.502 -20.463  31.601  1.00  0.00     0.040 C 
ATOM      2  C   UNL     1     -12.574 -19.003  31.284  1.00  0.00    -0.066 C 
ATOM      3  C   UNL     1     -12.740 -18.562  30.006  1.00  0.00     0.047 C 
ATOM      4  C   UNL     1     -12.766 -17.076  29.816  1.00  0.00     0.159 C 
ATOM      5  O   UNL     1     -12.874 -16.545  28.680  1.00  0.00    -0.295 OA
ATOM      6  C   UNL     1     -12.649 -16.249  31.098  1.00  0.00     0.067 C 
ATOM      7  C   UNL     1     -13.625 -16.935  32.079  1.00  0.00     0.021 C 
ATOM      8  C   UNL     1     -12.482 -17.927  32.387  1.00  0.00     0.022 C 
ATOM      9  C   UNL     1     -11.479 -16.820  31.950  1.00  0.00    -0.019 C 
ATOM     10  C   UNL     1     -11.089 -15.881  33.119  1.00  0.00     0.012 C 
ATOM     11  C   UNL     1     -10.177 -17.256  31.219  1.00  0.00     0.012 C 
ENDROOT
TORSDOF 0
ENDMDL
MODEL 8
REMARK VINA RESULT:    -5.275      2.081      3.102
REMARK INTER + INTRA:          -5.275
REMARK INTER:                  -5.275
REMARK INTRA:                   0.000
REMARK UNBOUND:                 0.000
REMARK SMILES CC1=CC(=O)[C@H]2C[C@@H]1C2(C)C
REMARK SMILES IDX 1 1 2 2 3 3 4 4 5 5 6 6 7 7 8 8 9 9 10 10 11 11
REMARK H PARENT
REMARK Flexibility Score: inf
ROOT
ATOM      1  C   UNL     1     -12.446 -20.404  31.974  1.00  0.00     0.040 C 
ATOM      2  C   UNL     1     -12.386 -18.972  31.546  1.00  0.00    -0.066 C 
ATOM      3  C   UNL     1     -13.323 -18.071  31.952  1.00  0.00     0.047 C 
ATOM      4  C   UNL     1     -13.170 -16.675  31.429  1.00  0.00     0.159 C 
ATOM      5  O   UNL     1     -13.992 -15.761  31.701  1.00  0.00    -0.295 OA
ATOM      6  C   UNL     1     -11.947 -16.438  30.542  1.00  0.00     0.067 C 
ATOM      7  C   UNL     1     -10.791 -17.126  31.300  1.00  0.00     0.021 C 
ATOM      8  C   UNL     1     -11.255 -18.443  30.639  1.00  0.00     0.022 C 
ATOM      9  C   UNL     1     -11.867 -17.585  29.493  1.00  0.00    -0.019 C 
ATOM     10  C   UNL     1     -10.845 -17.285  28.368  1.00  0.00     0.012 C 
ATOM     11  C   UNL     1     -13.188 -18.075  28.834  1.00  0.00     0.012 C 
ENDROOT
TORSDOF 0
ENDMDL
MODEL 9
REMARK VINA RESULT:    -5.232      1.766      3.386
REMARK INTER + INTRA:          -5.232
REMARK INTER:                  -5.232
REMARK INTRA:                   0.000
REMARK UNBOUND:                 0.000
REMARK SMILES CC1=CC(=O)[C@H]2C[C@@H]1C2(C)C
REMARK SMILES IDX 1 1 2 2 3 3 4 4 5 5 6 6 7 7 8 8 9 9 10 10 11 11
REMARK H PARENT
REMARK Flexibility Score: inf
ROOT
ATOM      1  C   UNL     1     -11.820 -16.572  27.665  1.00  0.00     0.040 C 
ATOM      2  C   UNL     1     -11.776 -16.626  29.159  1.00  0.00    -0.066 C 
ATOM      3  C   UNL     1     -10.771 -16.033  29.860  1.00  0.00     0.047 C 
ATOM      4  C   UNL     1     -10.824 -16.185  31.351  1.00  0.00     0.159 C 
ATOM      5  O   UNL     1      -9.933 -15.715  32.106  1.00  0.00    -0.295 OA
ATOM      6  C   UNL     1     -12.032 -16.952  31.888  1.00  0.00     0.067 C 
ATOM      7  C   UNL     1     -13.230 -16.359  31.115  1.00  0.00     0.021 C 
ATOM      8  C   UNL     1     -12.871 -17.341  29.978  1.00  0.00     0.022 C 
ATOM      9  C   UNL     1     -12.207 -18.251  31.051  1.00  0.00    -0.019 C 
ATOM     10  C   UNL     1     -13.213 -19.237  31.695  1.00  0.00     0.012 C 
ATOM     11  C   UNL     1     -10.932 -19.048  30.651  1.00  0.00     0.012 C 
ENDROOT
TORSDOF 0
ENDMDL
