MODEL 1
REMARK VINA RESULT:    -3.615      0.000      0.000
REMARK INTER + INTRA:          -4.238
REMARK INTER:                  -4.249
REMARK INTRA:                   0.011
REMARK UNBOUND:                 0.011
REMARK SMILES CCCCC(=O)[O-]
REMARK SMILES IDX 4 1 5 2 6 3 7 4 3 5 2 6 1 7
REMARK H PARENT
REMARK Flexibility Score: inf
ROOT
ATOM      1  C   UNL     1     -52.392  23.483 -37.014  1.00  0.00     0.053 C 
ENDROOT
BRANCH   1   2
ATOM      2  C   UNL     1     -53.518  22.700 -36.414  1.00  0.00     0.041 C 
ATOM      3  O   UNL     1     -53.942  21.660 -36.985  1.00  0.00    -0.550 OA
ATOM      4  O   UNL     1     -54.125  23.136 -35.242  1.00  0.00    -0.550 OA
ENDBRANCH   1   2
BRANCH   1   5
ATOM      5  C   UNL     1     -52.848  24.300 -38.229  1.00  0.00     0.006 C 
BRANCH   5   6
ATOM      6  C   UNL     1     -52.933  23.447 -39.504  1.00  0.00    -0.003 C 
ATOM      7  C   UNL     1     -51.598  22.769 -39.802  1.00  0.00     0.004 C 
ENDBRANCH   5   6
ENDBRANCH   1   5
TORSDOF 3
ENDMDL
MODEL 2
REMARK VINA RESULT:    -3.534     16.785     17.481
REMARK INTER + INTRA:          -4.143
REMARK INTER:                  -4.109
REMARK INTRA:                  -0.034
REMARK UNBOUND:                 0.011
REMARK SMILES CCCCC(=O)[O-]
REMARK SMILES IDX 4 1 5 2 6 3 7 4 3 5 2 6 1 7
REMARK H PARENT
REMARK Flexibility Score: inf
ROOT
ATOM      1  C   UNL     1     -38.417  18.759 -30.651  1.00  0.00     0.053 C 
ENDROOT
BRANCH   1   2
ATOM      2  C   UNL     1     -37.806  20.033 -31.148  1.00  0.00     0.041 C 
ATOM      3  O   UNL     1     -38.484  20.831 -31.848  1.00  0.00    -0.550 OA
ATOM      4  O   UNL     1     -36.476  20.324 -30.869  1.00  0.00    -0.550 OA
ENDBRANCH   1   2
BRANCH   1   5
ATOM      5  C   UNL     1     -37.684  18.220 -29.416  1.00  0.00     0.006 C 
BRANCH   5   6
ATOM      6  C   UNL     1     -38.339  18.680 -28.105  1.00  0.00    -0.003 C 
ATOM      7  C   UNL     1     -39.776  19.139 -28.339  1.00  0.00     0.004 C 
ENDBRANCH   5   6
ENDBRANCH   1   5
TORSDOF 3
ENDMDL
MODEL 3
REMARK VINA RESULT:    -3.495     16.994     17.668
REMARK INTER + INTRA:          -4.096
REMARK INTER:                  -4.012
REMARK INTRA:                  -0.084
REMARK UNBOUND:                 0.011
REMARK SMILES CCCCC(=O)[O-]
REMARK SMILES IDX 4 1 5 2 6 3 7 4 3 5 2 6 1 7
REMARK H PARENT
REMARK Flexibility Score: inf
ROOT
ATOM      1  C   UNL     1     -38.301  19.966 -29.512  1.00  0.00     0.053 C 
ENDROOT
BRANCH   1   2
ATOM      2  C   UNL     1     -38.422  19.532 -30.941  1.00  0.00     0.041 C 
ATOM      3  O   UNL     1     -38.296  20.372 -31.871  1.00  0.00    -0.550 OA
ATOM      4  O   UNL     1     -38.710  18.207 -31.245  1.00  0.00    -0.550 OA
ENDBRANCH   1   2
BRANCH   1   5
ATOM      5  C   UNL     1     -38.887  18.926 -28.549  1.00  0.00     0.006 C 
BRANCH   5   6
ATOM      6  C   UNL     1     -37.794  18.145 -27.803  1.00  0.00    -0.003 C 
ATOM      7  C   UNL     1     -36.477  18.916 -27.792  1.00  0.00     0.004 C 
ENDBRANCH   5   6
ENDBRANCH   1   5
TORSDOF 3
ENDMDL
MODEL 4
REMARK VINA RESULT:    -3.447     16.475     17.211
REMARK INTER + INTRA:          -4.041
REMARK INTER:                  -3.931
REMARK INTRA:                  -0.109
REMARK UNBOUND:                 0.011
REMARK SMILES CCCCC(=O)[O-]
REMARK SMILES IDX 4 1 5 2 6 3 7 4 3 5 2 6 1 7
REMARK H PARENT
REMARK Flexibility Score: inf
ROOT
ATOM      1  C   UNL     1     -38.221  20.340 -30.183  1.00  0.00     0.053 C 
ENDROOT
BRANCH   1   2
ATOM      2  C   UNL     1     -38.829  21.536 -29.519  1.00  0.00     0.041 C 
ATOM      3  O   UNL     1     -38.123  22.287 -28.795  1.00  0.00    -0.550 OA
ATOM      4  O   UNL     1     -40.185  21.804 -29.669  1.00  0.00    -0.550 OA
ENDBRANCH   1   2
BRANCH   1   5
ATOM      5  C   UNL     1     -38.885  19.035 -29.727  1.00  0.00     0.006 C 
BRANCH   5   6
ATOM      6  C   UNL     1     -38.819  18.851 -28.204  1.00  0.00    -0.003 C 
ATOM      7  C   UNL     1     -37.518  18.170 -27.787  1.00  0.00     0.004 C 
ENDBRANCH   5   6
ENDBRANCH   1   5
TORSDOF 3
ENDMDL
MODEL 5
REMARK VINA RESULT:    -3.414     16.970     17.495
REMARK INTER + INTRA:          -4.002
REMARK INTER:                  -3.926
REMARK INTRA:                  -0.076
REMARK UNBOUND:                 0.011
REMARK SMILES CCCCC(=O)[O-]
REMARK SMILES IDX 4 1 5 2 6 3 7 4 3 5 2 6 1 7
REMARK H PARENT
REMARK Flexibility Score: inf
ROOT
ATOM      1  C   UNL     1     -37.428  18.794 -29.588  1.00  0.00     0.053 C 
ENDROOT
BRANCH   1   2
ATOM      2  C   UNL     1     -38.167  18.539 -28.310  1.00  0.00     0.041 C 
ATOM      3  O   UNL     1     -37.626  17.876 -27.386  1.00  0.00    -0.550 OA
ATOM      4  O   UNL     1     -39.467  19.002 -28.153  1.00  0.00    -0.550 OA
ENDBRANCH   1   2
BRANCH   1   5
ATOM      5  C   UNL     1     -38.370  18.813 -30.798  1.00  0.00     0.006 C 
BRANCH   5   6
ATOM      6  C   UNL     1     -38.389  20.181 -31.497  1.00  0.00    -0.003 C 
ATOM      7  C   UNL     1     -37.062  20.911 -31.314  1.00  0.00     0.004 C 
ENDBRANCH   5   6
ENDBRANCH   1   5
TORSDOF 3
ENDMDL
MODEL 6
REMARK VINA RESULT:    -3.393     17.952     18.568
REMARK INTER + INTRA:          -3.978
REMARK INTER:                  -3.890
REMARK INTRA:                  -0.087
REMARK UNBOUND:                 0.011
REMARK SMILES CCCCC(=O)[O-]
REMARK SMILES IDX 4 1 5 2 6 3 7 4 3 5 2 6 1 7
REMARK H PARENT
REMARK Flexibility Score: inf
ROOT
ATOM      1  C   UNL     1     -36.873  18.887 -28.897  1.00  0.00     0.053 C 
ENDROOT
BRANCH   1   2
ATOM      2  C   UNL     1     -36.433  17.804 -29.833  1.00  0.00     0.041 C 
ATOM      3  O   UNL     1     -37.237  16.896 -30.175  1.00  0.00    -0.550 OA
ATOM      4  O   UNL     1     -35.125  17.776 -30.302  1.00  0.00    -0.550 OA
ENDBRANCH   1   2
BRANCH   1   5
ATOM      5  C   UNL     1     -37.982  18.408 -27.951  1.00  0.00     0.006 C 
BRANCH   5   6
ATOM      6  C   UNL     1     -39.350  19.007 -28.311  1.00  0.00    -0.003 C 
ATOM      7  C   UNL     1     -39.193  20.258 -29.172  1.00  0.00     0.004 C 
ENDBRANCH   5   6
ENDBRANCH   1   5
TORSDOF 3
ENDMDL
MODEL 7
REMARK VINA RESULT:    -3.309     17.286     17.924
REMARK INTER + INTRA:          -3.879
REMARK INTER:                  -3.819
REMARK INTRA:                  -0.060
REMARK UNBOUND:                 0.011
REMARK SMILES CCCCC(=O)[O-]
REMARK SMILES IDX 4 1 5 2 6 3 7 4 3 5 2 6 1 7
REMARK H PARENT
REMARK Flexibility Score: inf
ROOT
ATOM      1  C   UNL     1     -38.963  18.986 -28.508  1.00  0.00     0.053 C 
ENDROOT
BRANCH   1   2
ATOM      2  C   UNL     1     -37.678  18.250 -28.284  1.00  0.00     0.041 C 
ATOM      3  O   UNL     1     -36.921  18.572 -27.331  1.00  0.00    -0.550 OA
ATOM      4  O   UNL     1     -37.298  17.232 -29.151  1.00  0.00    -0.550 OA
ENDBRANCH   1   2
BRANCH   1   5
ATOM      5  C   UNL     1     -38.848  20.003 -29.650  1.00  0.00     0.006 C 
BRANCH   5   6
ATOM      6  C   UNL     1     -39.215  21.425 -29.202  1.00  0.00    -0.003 C 
ATOM      7  C   UNL     1     -37.965  22.247 -28.901  1.00  0.00     0.004 C 
ENDBRANCH   5   6
ENDBRANCH   1   5
TORSDOF 3
ENDMDL
MODEL 8
REMARK VINA RESULT:    -3.309      2.222      3.587
REMARK INTER + INTRA:          -3.878
REMARK INTER:                  -3.848
REMARK INTRA:                  -0.030
REMARK UNBOUND:                 0.011
REMARK SMILES CCCCC(=O)[O-]
REMARK SMILES IDX 4 1 5 2 6 3 7 4 3 5 2 6 1 7
REMARK H PARENT
REMARK Flexibility Score: inf
ROOT
ATOM      1  C   UNL     1     -52.334  23.468 -36.961  1.00  0.00     0.053 C 
ENDROOT
BRANCH   1   2
ATOM      2  C   UNL     1     -52.459  23.822 -38.411  1.00  0.00     0.041 C 
ATOM      3  O   UNL     1     -51.829  23.164 -39.281  1.00  0.00    -0.550 OA
ATOM      4  O   UNL     1     -53.242  24.902 -38.801  1.00  0.00    -0.550 OA
ENDBRANCH   1   2
BRANCH   1   5
ATOM      5  C   UNL     1     -53.696  23.149 -36.333  1.00  0.00     0.006 C 
BRANCH   5   6
ATOM      6  C   UNL     1     -53.860  21.652 -36.030  1.00  0.00    -0.003 C 
ATOM      7  C   UNL     1     -53.572  21.353 -34.561  1.00  0.00     0.004 C 
ENDBRANCH   5   6
ENDBRANCH   1   5
TORSDOF 3
ENDMDL
MODEL 9
REMARK VINA RESULT:    -3.293     17.215     17.812
REMARK INTER + INTRA:          -3.860
REMARK INTER:                  -3.801
REMARK INTRA:                  -0.059
REMARK UNBOUND:                 0.011
REMARK SMILES CCCCC(=O)[O-]
REMARK SMILES IDX 4 1 5 2 6 3 7 4 3 5 2 6 1 7
REMARK H PARENT
REMARK Flexibility Score: inf
ROOT
ATOM      1  C   UNL     1     -38.175  18.594 -28.128  1.00  0.00     0.053 C 
ENDROOT
BRANCH   1   2
ATOM      2  C   UNL     1     -39.314  19.467 -28.559  1.00  0.00     0.041 C 
ATOM      3  O   UNL     1     -40.443  19.352 -28.014  1.00  0.00    -0.550 OA
ATOM      4  O   UNL     1     -39.138  20.385 -29.588  1.00  0.00    -0.550 OA
ENDBRANCH   1   2
BRANCH   1   5
ATOM      5  C   UNL     1     -36.839  19.071 -28.709  1.00  0.00     0.006 C 
BRANCH   5   6
ATOM      6  C   UNL     1     -36.446  18.296 -29.976  1.00  0.00    -0.003 C 
ATOM      7  C   UNL     1     -36.970  16.863 -29.928  1.00  0.00     0.004 C 
ENDBRANCH   5   6
ENDBRANCH   1   5
TORSDOF 3
ENDMDL
