MODEL 1
REMARK VINA RESULT:    -3.978      0.000      0.000
REMARK INTER + INTRA:          -5.056
REMARK INTER:                  -4.909
REMARK INTRA:                  -0.147
REMARK UNBOUND:                -0.147
REMARK SMILES CCCCC=CC(C)=O
REMARK SMILES IDX 4 1 3 2 2 3 1 4 5 5 6 6 7 7 9 8 8 9
REMARK H PARENT
REMARK Flexibility Score: inf
ROOT
ATOM      1  C   UNL     1     165.304 199.552 303.122  1.00  0.00     0.027 C 
ENDROOT
BRANCH   1   2
ATOM      2  C   UNL     1     165.665 200.429 304.332  1.00  0.00     0.004 C 
BRANCH   2   3
ATOM      3  C   UNL     1     166.523 199.682 305.365  1.00  0.00    -0.003 C 
ATOM      4  C   UNL     1     165.791 199.451 306.687  1.00  0.00     0.004 C 
ENDBRANCH   2   3
ENDBRANCH   1   2
BRANCH   1   5
ATOM      5  C   UNL     1     166.537 199.112 302.386  1.00  0.00    -0.023 C 
ATOM      6  C   UNL     1     166.809 199.556 301.153  1.00  0.00     0.042 C 
BRANCH   6   7
ATOM      7  C   UNL     1     168.014 199.162 300.395  1.00  0.00     0.152 C 
ATOM      8  O   UNL     1     169.005 198.711 301.029  1.00  0.00    -0.295 OA
ATOM      9  C   UNL     1     168.100 199.280 298.903  1.00  0.00     0.093 C 
ENDBRANCH   6   7
ENDBRANCH   1   5
TORSDOF 4
ENDMDL
MODEL 2
REMARK VINA RESULT:    -3.884      1.156      1.184
REMARK INTER + INTRA:          -4.940
REMARK INTER:                  -4.769
REMARK INTRA:                  -0.170
REMARK UNBOUND:                -0.147
REMARK SMILES CCCCC=CC(C)=O
REMARK SMILES IDX 4 1 3 2 2 3 1 4 5 5 6 6 7 7 9 8 8 9
REMARK H PARENT
REMARK Flexibility Score: inf
ROOT
ATOM      1  C   UNL     1     165.197 199.390 303.273  1.00  0.00     0.027 C 
ENDROOT
BRANCH   1   2
ATOM      2  C   UNL     1     165.572 200.341 304.420  1.00  0.00     0.004 C 
BRANCH   2   3
ATOM      3  C   UNL     1     166.515 199.688 305.443  1.00  0.00    -0.003 C 
ATOM      4  C   UNL     1     165.798 199.271 306.727  1.00  0.00     0.004 C 
ENDBRANCH   2   3
ENDBRANCH   1   2
BRANCH   1   5
ATOM      5  C   UNL     1     166.349 199.205 302.326  1.00  0.00    -0.023 C 
ATOM      6  C   UNL     1     166.508 199.997 301.258  1.00  0.00     0.042 C 
BRANCH   6   7
ATOM      7  C   UNL     1     167.630 199.861 300.308  1.00  0.00     0.152 C 
ATOM      8  O   UNL     1     167.671 200.627 299.308  1.00  0.00    -0.295 OA
ATOM      9  C   UNL     1     168.720 198.848 300.490  1.00  0.00     0.093 C 
ENDBRANCH   6   7
ENDBRANCH   1   5
TORSDOF 4
ENDMDL
MODEL 3
REMARK VINA RESULT:    -3.659     18.278     20.297
REMARK INTER + INTRA:          -4.662
REMARK INTER:                  -4.483
REMARK INTRA:                  -0.179
REMARK UNBOUND:                -0.147
REMARK SMILES CCCCC=CC(C)=O
REMARK SMILES IDX 4 1 3 2 2 3 1 4 5 5 6 6 7 7 9 8 8 9
REMARK H PARENT
REMARK Flexibility Score: inf
ROOT
ATOM      1  C   UNL     1     167.627 182.896 316.656  1.00  0.00     0.027 C 
ENDROOT
BRANCH   1   2
ATOM      2  C   UNL     1     167.367 183.428 318.074  1.00  0.00     0.004 C 
BRANCH   2   3
ATOM      3  C   UNL     1     168.661 183.831 318.798  1.00  0.00    -0.003 C 
ATOM      4  C   UNL     1     168.717 185.323 319.124  1.00  0.00     0.004 C 
ENDBRANCH   2   3
ENDBRANCH   1   2
BRANCH   1   5
ATOM      5  C   UNL     1     168.566 183.795 315.904  1.00  0.00    -0.023 C 
ATOM      6  C   UNL     1     168.171 184.990 315.446  1.00  0.00     0.042 C 
BRANCH   6   7
ATOM      7  C   UNL     1     169.061 185.913 314.714  1.00  0.00     0.152 C 
ATOM      8  O   UNL     1     169.126 187.114 315.087  1.00  0.00    -0.295 OA
ATOM      9  C   UNL     1     169.890 185.472 313.544  1.00  0.00     0.093 C 
ENDBRANCH   6   7
ENDBRANCH   1   5
TORSDOF 4
ENDMDL
MODEL 4
REMARK VINA RESULT:    -3.594     18.607     21.018
REMARK INTER + INTRA:          -4.581
REMARK INTER:                  -4.393
REMARK INTRA:                  -0.188
REMARK UNBOUND:                -0.147
REMARK SMILES CCCCC=CC(C)=O
REMARK SMILES IDX 4 1 3 2 2 3 1 4 5 5 6 6 7 7 9 8 8 9
REMARK H PARENT
REMARK Flexibility Score: inf
ROOT
ATOM      1  C   UNL     1     168.603 186.499 316.420  1.00  0.00     0.027 C 
ENDROOT
BRANCH   1   2
ATOM      2  C   UNL     1     168.366 185.748 315.100  1.00  0.00     0.004 C 
BRANCH   2   3
ATOM      3  C   UNL     1     169.260 186.262 313.961  1.00  0.00    -0.003 C 
ATOM      4  C   UNL     1     170.246 185.207 313.460  1.00  0.00     0.004 C 
ENDBRANCH   2   3
ENDBRANCH   1   2
BRANCH   1   5
ATOM      5  C   UNL     1     168.408 185.591 317.601  1.00  0.00    -0.023 C 
ATOM      6  C   UNL     1     168.005 184.324 317.448  1.00  0.00     0.042 C 
BRANCH   6   7
ATOM      7  C   UNL     1     167.812 183.392 318.578  1.00  0.00     0.152 C 
ATOM      8  O   UNL     1     168.827 182.875 319.114  1.00  0.00    -0.295 OA
ATOM      9  C   UNL     1     166.454 183.041 319.107  1.00  0.00     0.093 C 
ENDBRANCH   6   7
ENDBRANCH   1   5
TORSDOF 4
ENDMDL
MODEL 5
REMARK VINA RESULT:    -3.503      1.024      1.852
REMARK INTER + INTRA:          -4.469
REMARK INTER:                  -4.229
REMARK INTRA:                  -0.240
REMARK UNBOUND:                -0.147
REMARK SMILES CCCCC=CC(C)=O
REMARK SMILES IDX 4 1 3 2 2 3 1 4 5 5 6 6 7 7 9 8 8 9
REMARK H PARENT
REMARK Flexibility Score: inf
ROOT
ATOM      1  C   UNL     1     165.370 199.531 303.163  1.00  0.00     0.027 C 
ENDROOT
BRANCH   1   2
ATOM      2  C   UNL     1     165.655 200.495 304.325  1.00  0.00     0.004 C 
BRANCH   2   3
ATOM      3  C   UNL     1     165.195 201.930 304.026  1.00  0.00    -0.003 C 
ATOM      4  C   UNL     1     166.291 202.783 303.389  1.00  0.00     0.004 C 
ENDBRANCH   2   3
ENDBRANCH   1   2
BRANCH   1   5
ATOM      5  C   UNL     1     166.632 199.179 302.430  1.00  0.00    -0.023 C 
ATOM      6  C   UNL     1     166.787 199.464 301.131  1.00  0.00     0.042 C 
BRANCH   6   7
ATOM      7  C   UNL     1     168.015 199.150 300.372  1.00  0.00     0.152 C 
ATOM      8  O   UNL     1     169.023 198.732 301.000  1.00  0.00    -0.295 OA
ATOM      9  C   UNL     1     168.102 199.309 298.883  1.00  0.00     0.093 C 
ENDBRANCH   6   7
ENDBRANCH   1   5
TORSDOF 4
ENDMDL
MODEL 6
REMARK VINA RESULT:    -3.408      2.522      5.480
REMARK INTER + INTRA:          -4.352
REMARK INTER:                  -4.166
REMARK INTRA:                  -0.186
REMARK UNBOUND:                -0.147
REMARK SMILES CCCCC=CC(C)=O
REMARK SMILES IDX 4 1 3 2 2 3 1 4 5 5 6 6 7 7 9 8 8 9
REMARK H PARENT
REMARK Flexibility Score: inf
ROOT
ATOM      1  C   UNL     1     166.330 200.708 303.221  1.00  0.00     0.027 C 
ENDROOT
BRANCH   1   2
ATOM      2  C   UNL     1     166.296 199.407 302.405  1.00  0.00     0.004 C 
BRANCH   2   3
ATOM      3  C   UNL     1     167.100 199.509 301.100  1.00  0.00    -0.003 C 
ATOM      4  C   UNL     1     167.148 200.932 300.543  1.00  0.00     0.004 C 
ENDBRANCH   2   3
ENDBRANCH   1   2
BRANCH   1   5
ATOM      5  C   UNL     1     165.831 200.483 304.620  1.00  0.00    -0.023 C 
ATOM      6  C   UNL     1     166.211 199.416 305.333  1.00  0.00     0.042 C 
BRANCH   6   7
ATOM      7  C   UNL     1     165.757 199.160 306.715  1.00  0.00     0.152 C 
ATOM      8  O   UNL     1     166.135 198.105 307.289  1.00  0.00    -0.295 OA
ATOM      9  C   UNL     1     164.865 200.110 307.457  1.00  0.00     0.093 C 
ENDBRANCH   6   7
ENDBRANCH   1   5
TORSDOF 4
ENDMDL
MODEL 7
REMARK VINA RESULT:    -3.362      2.316      5.322
REMARK INTER + INTRA:          -4.296
REMARK INTER:                  -4.139
REMARK INTRA:                  -0.156
REMARK UNBOUND:                -0.147
REMARK SMILES CCCCC=CC(C)=O
REMARK SMILES IDX 4 1 3 2 2 3 1 4 5 5 6 6 7 7 9 8 8 9
REMARK H PARENT
REMARK Flexibility Score: inf
ROOT
ATOM      1  C   UNL     1     166.541 199.394 301.786  1.00  0.00     0.027 C 
ENDROOT
BRANCH   1   2
ATOM      2  C   UNL     1     166.888 200.420 300.696  1.00  0.00     0.004 C 
BRANCH   2   3
ATOM      3  C   UNL     1     168.034 199.949 299.787  1.00  0.00    -0.003 C 
ATOM      4  C   UNL     1     168.843 198.806 300.400  1.00  0.00     0.004 C 
ENDBRANCH   2   3
ENDBRANCH   1   2
BRANCH   1   5
ATOM      5  C   UNL     1     166.010 200.071 303.017  1.00  0.00    -0.023 C 
ATOM      6  C   UNL     1     166.008 199.456 304.206  1.00  0.00     0.042 C 
BRANCH   6   7
ATOM      7  C   UNL     1     165.509 200.086 305.445  1.00  0.00     0.152 C 
ATOM      8  O   UNL     1     164.841 201.150 305.355  1.00  0.00    -0.295 OA
ATOM      9  C   UNL     1     165.769 199.505 306.803  1.00  0.00     0.093 C 
ENDBRANCH   6   7
ENDBRANCH   1   5
TORSDOF 4
ENDMDL
MODEL 8
REMARK VINA RESULT:    -3.339      1.831      2.828
REMARK INTER + INTRA:          -4.267
REMARK INTER:                  -4.093
REMARK INTRA:                  -0.174
REMARK UNBOUND:                -0.147
REMARK SMILES CCCCC=CC(C)=O
REMARK SMILES IDX 4 1 3 2 2 3 1 4 5 5 6 6 7 7 9 8 8 9
REMARK H PARENT
REMARK Flexibility Score: inf
ROOT
ATOM      1  C   UNL     1     166.535 198.927 305.877  1.00  0.00     0.027 C 
ENDROOT
BRANCH   1   2
ATOM      2  C   UNL     1     165.405 199.022 306.913  1.00  0.00     0.004 C 
BRANCH   2   3
ATOM      3  C   UNL     1     164.762 200.417 306.957  1.00  0.00    -0.003 C 
ATOM      4  C   UNL     1     164.274 200.800 308.354  1.00  0.00     0.004 C 
ENDBRANCH   2   3
ENDBRANCH   1   2
BRANCH   1   5
ATOM      5  C   UNL     1     166.102 199.484 304.551  1.00  0.00    -0.023 C 
ATOM      6  C   UNL     1     166.639 199.051 303.403  1.00  0.00     0.042 C 
BRANCH   6   7
ATOM      7  C   UNL     1     166.236 199.559 302.076  1.00  0.00     0.152 C 
ATOM      8  O   UNL     1     166.961 199.292 301.082  1.00  0.00    -0.295 OA
ATOM      9  C   UNL     1     164.998 200.381 301.872  1.00  0.00     0.093 C 
ENDBRANCH   6   7
ENDBRANCH   1   5
TORSDOF 4
ENDMDL
MODEL 9
REMARK VINA RESULT:    -3.176      2.406      4.993
REMARK INTER + INTRA:          -4.066
REMARK INTER:                  -3.778
REMARK INTRA:                  -0.288
REMARK UNBOUND:                -0.147
REMARK SMILES CCCCC=CC(C)=O
REMARK SMILES IDX 4 1 3 2 2 3 1 4 5 5 6 6 7 7 9 8 8 9
REMARK H PARENT
REMARK Flexibility Score: inf
ROOT
ATOM      1  C   UNL     1     165.109 202.677 303.318  1.00  0.00     0.027 C 
ENDROOT
BRANCH   1   2
ATOM      2  C   UNL     1     166.499 203.012 302.756  1.00  0.00     0.004 C 
BRANCH   2   3
ATOM      3  C   UNL     1     166.572 202.845 301.230  1.00  0.00    -0.003 C 
ATOM      4  C   UNL     1     166.906 201.415 300.806  1.00  0.00     0.004 C 
ENDBRANCH   2   3
ENDBRANCH   1   2
BRANCH   1   5
ATOM      5  C   UNL     1     165.159 201.455 304.191  1.00  0.00    -0.023 C 
ATOM      6  C   UNL     1     166.322 200.879 304.519  1.00  0.00     0.042 C 
BRANCH   6   7
ATOM      7  C   UNL     1     166.422 199.686 305.383  1.00  0.00     0.152 C 
ATOM      8  O   UNL     1     167.051 198.681 304.957  1.00  0.00    -0.295 OA
ATOM      9  C   UNL     1     165.802 199.628 306.748  1.00  0.00     0.093 C 
ENDBRANCH   6   7
ENDBRANCH   1   5
TORSDOF 4
ENDMDL
