MODEL 1
REMARK VINA RESULT:    -4.501      0.000      0.000
REMARK INTER + INTRA:          -6.848
REMARK INTER:                  -6.869
REMARK INTRA:                   0.021
REMARK UNBOUND:                 0.021
REMARK SMILES CC1=CCC[C@H](C)C(=O)C[C@@H](C(C)C)C(=O)C1
REMARK SMILES IDX 8 1 9 2 6 3 7 4 5 5 4 6 3 7 2 8 1 9 10 11 11 12 15 13 16 14
REMARK SMILES IDX 17 15 12 17 13 18 14 19
REMARK H PARENT
REMARK Flexibility Score: 70.00
ROOT
ATOM      1  C   UNL     1       1.279 -19.977  -4.287  1.00  0.00     0.136 C 
ATOM      2  O   UNL     1       0.144 -20.419  -4.199  1.00  0.00    -0.299 OA
ENDROOT
BRANCH   1   3
ATOM      3  C   UNL     1       2.027 -19.670  -2.998  1.00  0.00     0.053 C 
ATOM      4  C   UNL     1       1.785 -20.692  -1.876  1.00  0.00     0.016 C 
BRANCH   3   5
ATOM      5  C   UNL     1       3.521 -19.380  -3.255  1.00  0.00     0.015 C 
BRANCH   5   6
ATOM      6  C   UNL     1       4.457 -20.594  -3.088  1.00  0.00     0.028 C 
BRANCH   6   7
ATOM      7  C   UNL     1       5.766 -20.344  -3.793  1.00  0.00    -0.028 C 
ATOM      8  C   UNL     1       6.032 -20.707  -5.070  1.00  0.00    -0.070 CG0
ATOM      9  C   UNL     1       7.349 -20.280  -5.667  1.00  0.00     0.039 C 
ATOM     10  G   UNL     1       5.085 -21.563  -5.897  1.00  0.00     0.000 G0
ENDBRANCH   6   7
ENDBRANCH   5   6
ENDBRANCH   3   5
ENDBRANCH   1   3
BRANCH   1  11
ATOM     11  C   UNL     1       1.874 -19.773  -5.668  1.00  0.00     0.087 C 
BRANCH  11  12
ATOM     12  C   UNL     1       2.552 -21.027  -6.307  1.00  0.00     0.066 C 
BRANCH  12  13
ATOM     13  C   UNL     1       4.025 -20.825  -6.641  1.00  0.00     0.140 C 
ATOM     14  O   UNL     1       4.351 -20.093  -7.563  1.00  0.00    -0.299 OA
BRANCH  13  15
ATOM     15  C   UNL     1       5.092 -21.597  -5.897  1.00  0.00     0.106 CG0
ATOM     16  G   UNL     1       6.006 -20.700  -5.077  1.00  0.00     0.000 G0
ENDBRANCH  13  15
ENDBRANCH  12  13
BRANCH  12  17
ATOM     17  C   UNL     1       1.770 -21.680  -7.494  1.00  0.00    -0.006 C 
ATOM     18  C   UNL     1       0.585 -22.526  -6.996  1.00  0.00     0.008 C 
ATOM     19  C   UNL     1       1.287 -20.689  -8.563  1.00  0.00     0.008 C 
ENDBRANCH  12  17
ENDBRANCH  11  12
ENDBRANCH   1  11
TORSDOF 1
ENDMDL
MODEL 2
REMARK VINA RESULT:    -4.008      1.666      1.941
REMARK INTER + INTRA:          -6.096
REMARK INTER:                  -6.264
REMARK INTRA:                   0.168
REMARK UNBOUND:                 0.021
REMARK SMILES CC1=CCC[C@H](C)C(=O)C[C@@H](C(C)C)C(=O)C1
REMARK SMILES IDX 8 1 9 2 6 3 7 4 5 5 4 6 3 7 2 8 1 9 10 11 11 12 15 13 16 14
REMARK SMILES IDX 17 15 12 17 13 18 14 19
REMARK H PARENT
REMARK Flexibility Score: 70.00
ROOT
ATOM      1  C   UNL     1       1.985 -18.033  -5.243  1.00  0.00     0.136 C 
ATOM      2  O   UNL     1       2.715 -17.095  -5.527  1.00  0.00    -0.299 OA
ENDROOT
BRANCH   1   3
ATOM      3  C   UNL     1       1.406 -18.085  -3.836  1.00  0.00     0.053 C 
ATOM      4  C   UNL     1       0.751 -19.428  -3.479  1.00  0.00     0.016 C 
BRANCH   3   5
ATOM      5  C   UNL     1       2.418 -17.593  -2.779  1.00  0.00     0.015 C 
BRANCH   5   6
ATOM      6  C   UNL     1       3.351 -18.685  -2.216  1.00  0.00     0.028 C 
BRANCH   6   7
ATOM      7  C   UNL     1       4.695 -18.624  -2.896  1.00  0.00    -0.028 C 
ATOM      8  C   UNL     1       5.089 -19.453  -3.892  1.00  0.00    -0.070 CG0
ATOM      9  C   UNL     1       6.420 -19.187  -4.549  1.00  0.00     0.039 C 
ATOM     10  G   UNL     1       4.272 -20.658  -4.333  1.00  0.00     0.000 G0
ENDBRANCH   6   7
ENDBRANCH   5   6
ENDBRANCH   3   5
ENDBRANCH   1   3
BRANCH   1  11
ATOM     11  C   UNL     1       1.693 -19.075  -6.306  1.00  0.00     0.087 C 
BRANCH  11  12
ATOM     12  C   UNL     1       2.232 -20.511  -6.015  1.00  0.00     0.066 C 
BRANCH  12  13
ATOM     13  C   UNL     1       3.733 -20.562  -5.751  1.00  0.00     0.140 C 
ATOM     14  O   UNL     1       4.520 -20.580  -6.684  1.00  0.00    -0.299 OA
BRANCH  13  15
ATOM     15  C   UNL     1       4.258 -20.683  -4.338  1.00  0.00     0.106 CG0
ATOM     16  G   UNL     1       5.069 -19.472  -3.903  1.00  0.00     0.000 G0
ENDBRANCH  13  15
ENDBRANCH  12  13
BRANCH  12  17
ATOM     17  C   UNL     1       1.782 -21.615  -7.028  1.00  0.00    -0.006 C 
ATOM     18  C   UNL     1       0.486 -22.310  -6.573  1.00  0.00     0.008 C 
ATOM     19  C   UNL     1       1.629 -21.129  -8.477  1.00  0.00     0.008 C 
ENDBRANCH  12  17
ENDBRANCH  11  12
ENDBRANCH   1  11
TORSDOF 1
ENDMDL
MODEL 3
REMARK VINA RESULT:    -3.856      2.339      4.283
REMARK INTER + INTRA:          -5.863
REMARK INTER:                  -5.714
REMARK INTRA:                  -0.150
REMARK UNBOUND:                 0.021
REMARK SMILES CC1=CCC[C@H](C)C(=O)C[C@@H](C(C)C)C(=O)C1
REMARK SMILES IDX 8 1 9 2 6 3 7 4 5 5 4 6 3 7 2 8 1 9 10 11 11 12 15 13 16 14
REMARK SMILES IDX 17 15 12 17 13 18 14 19
REMARK H PARENT
REMARK Flexibility Score: 70.00
ROOT
ATOM      1  C   UNL     1       2.072 -20.856  -6.761  1.00  0.00     0.136 C 
ATOM      2  O   UNL     1       2.550 -21.707  -7.495  1.00  0.00    -0.299 OA
ENDROOT
BRANCH   1   3
ATOM      3  C   UNL     1       0.785 -21.193  -6.022  1.00  0.00     0.053 C 
ATOM      4  C   UNL     1       0.168 -22.542  -6.425  1.00  0.00     0.016 C 
BRANCH   3   5
ATOM      5  C   UNL     1       0.934 -21.016  -4.496  1.00  0.00     0.015 C 
BRANCH   5   6
ATOM      6  C   UNL     1       0.491 -19.642  -3.954  1.00  0.00     0.028 C 
BRANCH   6   7
ATOM      7  C   UNL     1       1.372 -19.227  -2.803  1.00  0.00    -0.028 C 
ATOM      8  C   UNL     1       2.377 -18.323  -2.892  1.00  0.00    -0.070 CG0
ATOM      9  C   UNL     1       3.088 -17.929  -1.623  1.00  0.00     0.039 C 
ATOM     10  G   UNL     1       2.842 -17.736  -4.216  1.00  0.00     0.000 G0
ENDBRANCH   6   7
ENDBRANCH   5   6
ENDBRANCH   3   5
ENDBRANCH   1   3
BRANCH   1  11
ATOM     11  C   UNL     1       2.792 -19.528  -6.621  1.00  0.00     0.087 C 
BRANCH  11  12
ATOM     12  C   UNL     1       4.067 -19.539  -5.719  1.00  0.00     0.066 C 
BRANCH  12  13
ATOM     13  C   UNL     1       4.129 -18.381  -4.730  1.00  0.00     0.140 C 
ATOM     14  O   UNL     1       5.205 -18.008  -4.287  1.00  0.00    -0.299 OA
BRANCH  13  15
ATOM     15  C   UNL     1       2.857 -17.744  -4.216  1.00  0.00     0.106 CG0
ATOM     16  G   UNL     1       2.398 -18.330  -2.890  1.00  0.00     0.000 G0
ENDBRANCH  13  15
ENDBRANCH  12  13
BRANCH  12  17
ATOM     17  C   UNL     1       5.423 -19.731  -6.476  1.00  0.00    -0.006 C 
ATOM     18  C   UNL     1       6.010 -21.134  -6.244  1.00  0.00     0.008 C 
ATOM     19  C   UNL     1       5.361 -19.438  -7.983  1.00  0.00     0.008 C 
ENDBRANCH  12  17
ENDBRANCH  11  12
ENDBRANCH   1  11
TORSDOF 1
ENDMDL
MODEL 4
REMARK VINA RESULT:    -3.769      1.618      3.952
REMARK INTER + INTRA:          -5.730
REMARK INTER:                  -5.981
REMARK INTRA:                   0.251
REMARK UNBOUND:                 0.021
REMARK SMILES CC1=CCC[C@H](C)C(=O)C[C@@H](C(C)C)C(=O)C1
REMARK SMILES IDX 8 1 9 2 6 3 7 4 5 5 4 6 3 7 2 8 1 9 10 11 11 12 15 13 16 14
REMARK SMILES IDX 17 15 12 17 13 18 14 19
REMARK H PARENT
REMARK Flexibility Score: 70.00
ROOT
ATOM      1  C   UNL     1       5.465 -20.589  -7.206  1.00  0.00     0.136 C 
ATOM      2  O   UNL     1       5.519 -19.488  -7.733  1.00  0.00    -0.299 OA
ENDROOT
BRANCH   1   3
ATOM      3  C   UNL     1       6.775 -21.258  -6.817  1.00  0.00     0.053 C 
ATOM      4  C   UNL     1       7.800 -21.337  -7.960  1.00  0.00     0.016 C 
BRANCH   3   5
ATOM      5  C   UNL     1       7.354 -20.675  -5.511  1.00  0.00     0.015 C 
BRANCH   5   6
ATOM      6  C   UNL     1       6.555 -21.017  -4.236  1.00  0.00     0.028 C 
BRANCH   6   7
ATOM      7  C   UNL     1       5.976 -19.764  -3.631  1.00  0.00    -0.028 C 
ATOM      8  C   UNL     1       4.651 -19.498  -3.538  1.00  0.00    -0.070 CG0
ATOM      9  C   UNL     1       4.230 -18.252  -2.800  1.00  0.00     0.039 C 
ATOM     10  G   UNL     1       3.588 -20.371  -4.186  1.00  0.00     0.000 G0
ENDBRANCH   6   7
ENDBRANCH   5   6
ENDBRANCH   3   5
ENDBRANCH   1   3
BRANCH   1  11
ATOM     11  C   UNL     1       4.103 -21.212  -6.962  1.00  0.00     0.087 C 
BRANCH  11  12
ATOM     12  C   UNL     1       2.928 -20.208  -6.736  1.00  0.00     0.066 C 
BRANCH  12  13
ATOM     13  C   UNL     1       2.831 -19.689  -5.306  1.00  0.00     0.140 C 
ATOM     14  O   UNL     1       2.211 -18.664  -5.066  1.00  0.00    -0.299 OA
BRANCH  13  15
ATOM     15  C   UNL     1       3.576 -20.382  -4.187  1.00  0.00     0.106 CG0
ATOM     16  G   UNL     1       4.646 -19.504  -3.558  1.00  0.00     0.000 G0
ENDBRANCH  13  15
ENDBRANCH  12  13
BRANCH  12  17
ATOM     17  C   UNL     1       1.537 -20.669  -7.284  1.00  0.00    -0.006 C 
ATOM     18  C   UNL     1       1.598 -21.000  -8.785  1.00  0.00     0.008 C 
ATOM     19  C   UNL     1       0.906 -21.843  -6.519  1.00  0.00     0.008 C 
ENDBRANCH  12  17
ENDBRANCH  11  12
ENDBRANCH   1  11
TORSDOF 1
ENDMDL
MODEL 5
REMARK VINA RESULT:    -3.745      1.923      2.451
REMARK INTER + INTRA:          -5.695
REMARK INTER:                  -6.161
REMARK INTRA:                   0.467
REMARK UNBOUND:                 0.021
REMARK SMILES CC1=CCC[C@H](C)C(=O)C[C@@H](C(C)C)C(=O)C1
REMARK SMILES IDX 8 1 9 2 6 3 7 4 5 5 4 6 3 7 2 8 1 9 10 11 11 12 15 13 16 14
REMARK SMILES IDX 17 15 12 17 13 18 14 19
REMARK H PARENT
REMARK Flexibility Score: 70.00
ROOT
ATOM      1  C   UNL     1       0.892 -20.514  -4.293  1.00  0.00     0.136 C 
ATOM      2  O   UNL     1       0.113 -21.371  -4.681  1.00  0.00    -0.299 OA
ENDROOT
BRANCH   1   3
ATOM      3  C   UNL     1       0.975 -20.250  -2.796  1.00  0.00     0.053 C 
ATOM      4  C   UNL     1       0.344 -21.352  -1.931  1.00  0.00     0.016 C 
BRANCH   3   5
ATOM      5  C   UNL     1       2.404 -19.865  -2.358  1.00  0.00     0.015 C 
BRANCH   5   6
ATOM      6  C   UNL     1       2.675 -18.349  -2.281  1.00  0.00     0.028 C 
BRANCH   6   7
ATOM      7  C   UNL     1       4.155 -18.079  -2.370  1.00  0.00    -0.028 C 
ATOM      8  C   UNL     1       4.850 -17.986  -3.529  1.00  0.00    -0.070 CG0
ATOM      9  C   UNL     1       6.304 -17.594  -3.452  1.00  0.00     0.039 C 
ATOM     10  G   UNL     1       4.240 -18.307  -4.884  1.00  0.00     0.000 G0
ENDBRANCH   6   7
ENDBRANCH   5   6
ENDBRANCH   3   5
ENDBRANCH   1   3
BRANCH   1  11
ATOM     11  C   UNL     1       1.733 -19.778  -5.319  1.00  0.00     0.087 C 
BRANCH  11  12
ATOM     12  C   UNL     1       3.063 -20.482  -5.738  1.00  0.00     0.066 C 
BRANCH  12  13
ATOM     13  C   UNL     1       4.317 -19.752  -5.271  1.00  0.00     0.140 C 
ATOM     14  O   UNL     1       5.364 -20.365  -5.120  1.00  0.00    -0.299 OA
BRANCH  13  15
ATOM     15  C   UNL     1       4.258 -18.287  -4.901  1.00  0.00     0.106 CG0
ATOM     16  G   UNL     1       4.842 -18.001  -3.527  1.00  0.00     0.000 G0
ENDBRANCH  13  15
ENDBRANCH  12  13
BRANCH  12  17
ATOM     17  C   UNL     1       3.157 -20.898  -7.243  1.00  0.00    -0.006 C 
ATOM     18  C   UNL     1       1.771 -20.934  -7.911  1.00  0.00     0.008 C 
ATOM     19  C   UNL     1       4.115 -20.040  -8.084  1.00  0.00     0.008 C 
ENDBRANCH  12  17
ENDBRANCH  11  12
ENDBRANCH   1  11
TORSDOF 1
ENDMDL
MODEL 6
REMARK VINA RESULT:    -3.725     12.536     14.875
REMARK INTER + INTRA:          -5.663
REMARK INTER:                  -5.557
REMARK INTRA:                  -0.106
REMARK UNBOUND:                 0.021
REMARK SMILES CC1=CCC[C@H](C)C(=O)C[C@@H](C(C)C)C(=O)C1
REMARK SMILES IDX 8 1 9 2 6 3 7 4 5 5 4 6 3 7 2 8 1 9 10 11 11 12 15 13 16 14
REMARK SMILES IDX 17 15 12 17 13 18 14 19
REMARK H PARENT
REMARK Flexibility Score: 70.00
ROOT
ATOM      1  C   UNL     1      -7.314 -25.813  -2.299  1.00  0.00     0.136 C 
ATOM      2  O   UNL     1      -6.525 -25.040  -2.820  1.00  0.00    -0.299 OA
ENDROOT
BRANCH   1   3
ATOM      3  C   UNL     1      -8.791 -25.443  -2.315  1.00  0.00     0.053 C 
ATOM      4  C   UNL     1      -9.064 -23.949  -2.081  1.00  0.00     0.016 C 
BRANCH   3   5
ATOM      5  C   UNL     1      -9.513 -26.014  -3.554  1.00  0.00     0.015 C 
BRANCH   5   6
ATOM      6  C   UNL     1     -10.403 -27.243  -3.279  1.00  0.00     0.028 C 
BRANCH   6   7
ATOM      7  C   UNL     1     -10.800 -27.284  -1.825  1.00  0.00    -0.028 C 
ATOM      8  C   UNL     1     -10.381 -28.221  -0.941  1.00  0.00    -0.070 CG0
ATOM      9  C   UNL     1     -10.775 -28.054   0.505  1.00  0.00     0.039 C 
ATOM     10  G   UNL     1      -9.582 -29.446  -1.356  1.00  0.00     0.000 G0
ENDBRANCH   6   7
ENDBRANCH   5   6
ENDBRANCH   3   5
ENDBRANCH   1   3
BRANCH   1  11
ATOM     11  C   UNL     1      -6.779 -27.091  -1.680  1.00  0.00     0.087 C 
BRANCH  11  12
ATOM     12  C   UNL     1      -7.337 -28.420  -2.281  1.00  0.00     0.066 C 
BRANCH  12  13
ATOM     13  C   UNL     1      -8.075 -29.288  -1.268  1.00  0.00     0.140 C 
ATOM     14  O   UNL     1      -7.452 -29.907  -0.420  1.00  0.00    -0.299 OA
BRANCH  13  15
ATOM     15  C   UNL     1      -9.574 -29.467  -1.361  1.00  0.00     0.106 CG0
ATOM     16  G   UNL     1     -10.344 -28.222  -0.948  1.00  0.00     0.000 G0
ENDBRANCH  13  15
ENDBRANCH  12  13
BRANCH  12  17
ATOM     17  C   UNL     1      -6.320 -29.252  -3.129  1.00  0.00    -0.006 C 
ATOM     18  C   UNL     1      -7.001 -29.929  -4.332  1.00  0.00     0.008 C 
ATOM     19  C   UNL     1      -5.090 -28.464  -3.605  1.00  0.00     0.008 C 
ENDBRANCH  12  17
ENDBRANCH  11  12
ENDBRANCH   1  11
TORSDOF 1
ENDMDL
MODEL 7
REMARK VINA RESULT:    -3.606     10.097     12.158
REMARK INTER + INTRA:          -5.482
REMARK INTER:                  -5.300
REMARK INTRA:                  -0.182
REMARK UNBOUND:                 0.021
REMARK SMILES CC1=CCC[C@H](C)C(=O)C[C@@H](C(C)C)C(=O)C1
REMARK SMILES IDX 8 1 9 2 6 3 7 4 5 5 4 6 3 7 2 8 1 9 10 11 11 12 15 13 16 14
REMARK SMILES IDX 17 15 12 17 13 18 14 19
REMARK H PARENT
REMARK Flexibility Score: 70.00
ROOT
ATOM      1  C   UNL     1       3.964 -25.834   7.546  1.00  0.00     0.136 C 
ATOM      2  O   UNL     1       3.443 -26.507   8.422  1.00  0.00    -0.299 OA
ENDROOT
BRANCH   1   3
ATOM      3  C   UNL     1       5.190 -25.009   7.913  1.00  0.00     0.053 C 
ATOM      4  C   UNL     1       6.524 -25.737   7.684  1.00  0.00     0.016 C 
BRANCH   3   5
ATOM      5  C   UNL     1       5.143 -23.599   7.288  1.00  0.00     0.015 C 
BRANCH   5   6
ATOM      6  C   UNL     1       6.200 -23.336   6.196  1.00  0.00     0.028 C 
BRANCH   6   7
ATOM      7  C   UNL     1       5.527 -23.075   4.872  1.00  0.00    -0.028 C 
ATOM      8  C   UNL     1       5.248 -24.029   3.952  1.00  0.00    -0.070 CG0
ATOM      9  C   UNL     1       4.466 -23.624   2.729  1.00  0.00     0.039 C 
ATOM     10  G   UNL     1       5.733 -25.465   4.081  1.00  0.00     0.000 G0
ENDBRANCH   6   7
ENDBRANCH   5   6
ENDBRANCH   3   5
ENDBRANCH   1   3
BRANCH   1  11
ATOM     11  C   UNL     1       3.368 -25.869   6.151  1.00  0.00     0.087 C 
BRANCH  11  12
ATOM     12  C   UNL     1       3.899 -27.002   5.215  1.00  0.00     0.066 C 
BRANCH  12  13
ATOM     13  C   UNL     1       4.603 -26.486   3.965  1.00  0.00     0.140 C 
ATOM     14  O   UNL     1       4.318 -26.941   2.868  1.00  0.00    -0.299 OA
BRANCH  13  15
ATOM     15  C   UNL     1       5.723 -25.476   4.078  1.00  0.00     0.106 CG0
ATOM     16  G   UNL     1       5.240 -24.041   3.939  1.00  0.00     0.000 G0
ENDBRANCH  13  15
ENDBRANCH  12  13
BRANCH  12  17
ATOM     17  C   UNL     1       2.870 -28.132   4.880  1.00  0.00    -0.006 C 
ATOM     18  C   UNL     1       3.512 -29.528   4.966  1.00  0.00     0.008 C 
ATOM     19  C   UNL     1       1.586 -28.098   5.722  1.00  0.00     0.008 C 
ENDBRANCH  12  17
ENDBRANCH  11  12
ENDBRANCH   1  11
TORSDOF 1
ENDMDL
MODEL 8
REMARK VINA RESULT:    -3.572     12.488     14.576
REMARK INTER + INTRA:          -5.431
REMARK INTER:                  -5.753
REMARK INTRA:                   0.322
REMARK UNBOUND:                 0.021
REMARK SMILES CC1=CCC[C@H](C)C(=O)C[C@@H](C(C)C)C(=O)C1
REMARK SMILES IDX 8 1 9 2 6 3 7 4 5 5 4 6 3 7 2 8 1 9 10 11 11 12 15 13 16 14
REMARK SMILES IDX 17 15 12 17 13 18 14 19
REMARK H PARENT
REMARK Flexibility Score: 70.00
ROOT
ATOM      1  C   UNL     1      -6.430 -27.199  -2.081  1.00  0.00     0.136 C 
ATOM      2  O   UNL     1      -6.018 -27.402  -0.950  1.00  0.00    -0.299 OA
ENDROOT
BRANCH   1   3
ATOM      3  C   UNL     1      -6.502 -28.381  -3.037  1.00  0.00     0.053 C 
ATOM      4  C   UNL     1      -5.134 -28.841  -3.566  1.00  0.00     0.016 C 
BRANCH   3   5
ATOM      5  C   UNL     1      -7.360 -29.531  -2.467  1.00  0.00     0.015 C 
BRANCH   5   6
ATOM      6  C   UNL     1      -8.883 -29.337  -2.608  1.00  0.00     0.028 C 
BRANCH   6   7
ATOM      7  C   UNL     1      -9.449 -28.724  -1.353  1.00  0.00    -0.028 C 
ATOM      8  C   UNL     1     -10.260 -27.640  -1.326  1.00  0.00    -0.070 CG0
ATOM      9  C   UNL     1     -10.837 -27.221   0.003  1.00  0.00     0.039 C 
ATOM     10  G   UNL     1     -10.567 -26.809  -2.562  1.00  0.00     0.000 G0
ENDBRANCH   6   7
ENDBRANCH   5   6
ENDBRANCH   3   5
ENDBRANCH   1   3
BRANCH   1  11
ATOM     11  C   UNL     1      -6.855 -25.792  -2.459  1.00  0.00     0.087 C 
BRANCH  11  12
ATOM     12  C   UNL     1      -8.350 -25.436  -2.180  1.00  0.00     0.066 C 
BRANCH  12  13
ATOM     13  C   UNL     1      -9.331 -26.131  -3.116  1.00  0.00     0.140 C 
ATOM     14  O   UNL     1      -9.166 -26.081  -4.326  1.00  0.00    -0.299 OA
BRANCH  13  15
ATOM     15  C   UNL     1     -10.567 -26.807  -2.566  1.00  0.00     0.106 CG0
ATOM     16  G   UNL     1     -10.285 -27.627  -1.317  1.00  0.00     0.000 G0
ENDBRANCH  13  15
ENDBRANCH  12  13
BRANCH  12  17
ATOM     17  C   UNL     1      -8.661 -23.909  -2.038  1.00  0.00    -0.006 C 
ATOM     18  C   UNL     1      -9.687 -23.639  -0.924  1.00  0.00     0.008 C 
ATOM     19  C   UNL     1      -7.424 -23.022  -1.831  1.00  0.00     0.008 C 
ENDBRANCH  12  17
ENDBRANCH  11  12
ENDBRANCH   1  11
TORSDOF 1
ENDMDL
MODEL 9
REMARK VINA RESULT:    -3.468      1.815      4.089
REMARK INTER + INTRA:          -5.271
REMARK INTER:                  -5.205
REMARK INTRA:                  -0.066
REMARK UNBOUND:                 0.021
REMARK SMILES CC1=CCC[C@H](C)C(=O)C[C@@H](C(C)C)C(=O)C1
REMARK SMILES IDX 8 1 9 2 6 3 7 4 5 5 4 6 3 7 2 8 1 9 10 11 11 12 15 13 16 14
REMARK SMILES IDX 17 15 12 17 13 18 14 19
REMARK H PARENT
REMARK Flexibility Score: 70.00
ROOT
ATOM      1  C   UNL     1       1.812 -19.989  -4.325  1.00  0.00     0.136 C 
ATOM      2  O   UNL     1       0.840 -19.260  -4.197  1.00  0.00    -0.299 OA
ENDROOT
BRANCH   1   3
ATOM      3  C   UNL     1       1.993 -20.709  -5.654  1.00  0.00     0.053 C 
ATOM      4  C   UNL     1       0.749 -21.479  -6.122  1.00  0.00     0.016 C 
BRANCH   3   5
ATOM      5  C   UNL     1       2.585 -19.780  -6.736  1.00  0.00     0.015 C 
BRANCH   5   6
ATOM      6  C   UNL     1       3.888 -20.287  -7.386  1.00  0.00     0.028 C 
BRANCH   6   7
ATOM      7  C   UNL     1       5.050 -19.422  -6.968  1.00  0.00    -0.028 C 
ATOM      8  C   UNL     1       5.893 -19.709  -5.948  1.00  0.00    -0.070 CG0
ATOM      9  C   UNL     1       7.077 -18.801  -5.732  1.00  0.00     0.039 C 
ATOM     10  G   UNL     1       5.665 -20.870  -4.994  1.00  0.00     0.000 G0
ENDBRANCH   6   7
ENDBRANCH   5   6
ENDBRANCH   3   5
ENDBRANCH   1   3
BRANCH   1  11
ATOM     11  C   UNL     1       2.779 -20.122  -3.164  1.00  0.00     0.087 C 
BRANCH  11  12
ATOM     12  C   UNL     1       4.171 -19.440  -3.358  1.00  0.00     0.066 C 
BRANCH  12  13
ATOM     13  C   UNL     1       5.311 -20.425  -3.585  1.00  0.00     0.140 C 
ATOM     14  O   UNL     1       5.992 -20.804  -2.645  1.00  0.00    -0.299 OA
BRANCH  13  15
ATOM     15  C   UNL     1       5.671 -20.870  -4.985  1.00  0.00     0.106 CG0
ATOM     16  G   UNL     1       5.882 -19.705  -5.940  1.00  0.00     0.000 G0
ENDBRANCH  13  15
ENDBRANCH  12  13
BRANCH  12  17
ATOM     17  C   UNL     1       4.541 -18.356  -2.292  1.00  0.00    -0.006 C 
ATOM     18  C   UNL     1       5.580 -17.358  -2.833  1.00  0.00     0.008 C 
ATOM     19  C   UNL     1       3.340 -17.593  -1.713  1.00  0.00     0.008 C 
ENDBRANCH  12  17
ENDBRANCH  11  12
ENDBRANCH   1  11
TORSDOF 1
ENDMDL
