MODEL 1
REMARK VINA RESULT:    -6.648      0.000      0.000
REMARK INTER + INTRA:          -8.552
REMARK INTER:                  -8.203
REMARK INTRA:                  -0.349
REMARK UNBOUND:                -0.349
REMARK SMILES COc1cc(-c2oc3cc(O)cc(O)c3c(=O)c2O)ccc1O
REMARK SMILES IDX 6 1 18 2 16 3 17 4 15 5 13 6 12 7 10 8 9 9 8 10 7 11 5 12
REMARK SMILES IDX 3 13 22 14 4 15 21 16 20 17 2 18 1 19 23 20 19 22 14 24
REMARK SMILES IDX 11 26
REMARK H PARENT 23 21 19 23 14 25 11 27
REMARK Flexibility Score: inf
ROOT
ATOM      1  C   UNL     1       4.827 -60.280 189.994  1.00  0.00     0.180 A 
ATOM      2  C   UNL     1       3.477 -60.586 189.750  1.00  0.00     0.208 A 
ATOM      3  C   UNL     1       3.164 -61.733 189.004  1.00  0.00     0.238 A 
ATOM      4  O   UNL     1       1.953 -62.032 188.835  1.00  0.00    -0.285 OA
ATOM      5  C   UNL     1       4.203 -62.550 188.497  1.00  0.00     0.111 A 
ATOM      6  C   UNL     1       4.003 -63.713 187.694  1.00  0.00     0.134 A 
ATOM      7  C   UNL     1       5.098 -64.517 187.358  1.00  0.00     0.093 A 
ATOM      8  C   UNL     1       6.395 -64.165 187.741  1.00  0.00     0.123 A 
ATOM      9  C   UNL     1       6.607 -63.001 188.474  1.00  0.00     0.094 A 
ATOM     10  C   UNL     1       5.531 -62.196 188.855  1.00  0.00     0.146 A 
ATOM     11  O   UNL     1       5.777 -61.100 189.562  1.00  0.00    -0.452 OA
ENDROOT
BRANCH   1  12
ATOM     12  C   UNL     1       5.236 -59.075 190.752  1.00  0.00     0.025 A 
ATOM     13  C   UNL     1       5.993 -57.997 192.815  1.00  0.00     0.161 A 
ATOM     14  C   UNL     1       5.954 -56.750 192.166  1.00  0.00     0.157 A 
ATOM     15  C   UNL     1       5.624 -59.156 192.101  1.00  0.00     0.062 A 
ATOM     16  C   UNL     1       5.546 -56.667 190.831  1.00  0.00     0.051 A 
ATOM     17  C   UNL     1       5.182 -57.818 190.131  1.00  0.00     0.016 A 
BRANCH  13  18
ATOM     18  O   UNL     1       6.395 -58.048 194.159  1.00  0.00    -0.493 OA
ATOM     19  C   UNL     1       5.568 -58.483 195.234  1.00  0.00     0.278 C 
ENDBRANCH  13  18
BRANCH  14  20
ATOM     20  O   UNL     1       6.312 -55.579 192.833  1.00  0.00    -0.504 OA
ATOM     21  H   UNL     1       5.809 -55.244 193.646  1.00  0.00     0.293 HD
ENDBRANCH  14  20
ENDBRANCH   1  12
BRANCH   2  22
ATOM     22  O   UNL     1       2.466 -59.779 190.279  1.00  0.00    -0.502 OA
ATOM     23  H   UNL     1       2.658 -58.897 190.738  1.00  0.00     0.293 HD
ENDBRANCH   2  22
BRANCH   6  24
ATOM     24  O   UNL     1       2.761 -64.103 187.183  1.00  0.00    -0.507 OA
ATOM     25  H   UNL     1       1.969 -63.489 187.066  1.00  0.00     0.293 HD
ENDBRANCH   6  24
BRANCH   8  26
ATOM     26  O   UNL     1       7.481 -64.964 187.389  1.00  0.00    -0.508 OA
ATOM     27  H   UNL     1       8.413 -64.777 187.739  1.00  0.00     0.293 HD
ENDBRANCH   8  26
TORSDOF 6
ENDMDL
MODEL 2
REMARK VINA RESULT:    -6.343      1.527      6.961
REMARK INTER + INTRA:          -8.175
REMARK INTER:                  -8.300
REMARK INTRA:                   0.125
REMARK UNBOUND:                -0.349
REMARK SMILES COc1cc(-c2oc3cc(O)cc(O)c3c(=O)c2O)ccc1O
REMARK SMILES IDX 6 1 18 2 16 3 17 4 15 5 13 6 12 7 10 8 9 9 8 10 7 11 5 12
REMARK SMILES IDX 3 13 22 14 4 15 21 16 20 17 2 18 1 19 23 20 19 22 14 24
REMARK SMILES IDX 11 26
REMARK H PARENT 23 21 19 23 14 25 11 27
REMARK Flexibility Score: inf
ROOT
ATOM      1  C   UNL     1       5.334 -60.391 190.091  1.00  0.00     0.180 A 
ATOM      2  C   UNL     1       4.182 -59.710 189.664  1.00  0.00     0.208 A 
ATOM      3  C   UNL     1       3.719 -58.617 190.414  1.00  0.00     0.238 A 
ATOM      4  O   UNL     1       2.718 -57.977 189.997  1.00  0.00    -0.285 OA
ATOM      5  C   UNL     1       4.404 -58.229 191.591  1.00  0.00     0.111 A 
ATOM      6  C   UNL     1       4.002 -57.163 192.450  1.00  0.00     0.134 A 
ATOM      7  C   UNL     1       4.828 -56.785 193.515  1.00  0.00     0.093 A 
ATOM      8  C   UNL     1       6.010 -57.476 193.790  1.00  0.00     0.123 A 
ATOM      9  C   UNL     1       6.382 -58.556 192.993  1.00  0.00     0.094 A 
ATOM     10  C   UNL     1       5.597 -58.934 191.902  1.00  0.00     0.146 A 
ATOM     11  O   UNL     1       5.993 -59.963 191.161  1.00  0.00    -0.452 OA
ENDROOT
BRANCH   1  12
ATOM     12  C   UNL     1       5.868 -61.566 189.366  1.00  0.00     0.025 A 
ATOM     13  C   UNL     1       5.533 -63.614 188.068  1.00  0.00     0.161 A 
ATOM     14  C   UNL     1       6.926 -63.816 188.047  1.00  0.00     0.157 A 
ATOM     15  C   UNL     1       5.012 -62.489 188.738  1.00  0.00     0.062 A 
ATOM     16  C   UNL     1       7.774 -62.911 188.692  1.00  0.00     0.051 A 
ATOM     17  C   UNL     1       7.251 -61.800 189.353  1.00  0.00     0.016 A 
BRANCH  13  18
ATOM     18  O   UNL     1       4.705 -64.545 187.422  1.00  0.00    -0.493 OA
ATOM     19  C   UNL     1       3.401 -64.260 186.927  1.00  0.00     0.278 C 
ENDBRANCH  13  18
BRANCH  14  20
ATOM     20  O   UNL     1       7.485 -64.914 187.394  1.00  0.00    -0.504 OA
ATOM     21  H   UNL     1       7.080 -65.307 186.554  1.00  0.00     0.293 HD
ENDBRANCH  14  20
ENDBRANCH   1  12
BRANCH   2  22
ATOM     22  O   UNL     1       3.533 -60.094 188.487  1.00  0.00    -0.502 OA
ATOM     23  H   UNL     1       3.517 -61.054 188.163  1.00  0.00     0.293 HD
ENDBRANCH   2  22
BRANCH   6  24
ATOM     24  O   UNL     1       2.796 -56.468 192.318  1.00  0.00    -0.507 OA
ATOM     25  H   UNL     1       2.595 -55.578 192.750  1.00  0.00     0.293 HD
ENDBRANCH   6  24
BRANCH   8  26
ATOM     26  O   UNL     1       6.819 -57.102 194.861  1.00  0.00    -0.508 OA
ATOM     27  H   UNL     1       7.418 -56.285 194.814  1.00  0.00     0.293 HD
ENDBRANCH   8  26
TORSDOF 6
ENDMDL
MODEL 3
REMARK VINA RESULT:    -6.114      1.967      2.822
REMARK INTER + INTRA:          -7.892
REMARK INTER:                  -7.581
REMARK INTRA:                  -0.311
REMARK UNBOUND:                -0.349
REMARK SMILES COc1cc(-c2oc3cc(O)cc(O)c3c(=O)c2O)ccc1O
REMARK SMILES IDX 6 1 18 2 16 3 17 4 15 5 13 6 12 7 10 8 9 9 8 10 7 11 5 12
REMARK SMILES IDX 3 13 22 14 4 15 21 16 20 17 2 18 1 19 23 20 19 22 14 24
REMARK SMILES IDX 11 26
REMARK H PARENT 23 21 19 23 14 25 11 27
REMARK Flexibility Score: inf
ROOT
ATOM      1  C   UNL     1       4.950 -59.259 191.531  1.00  0.00     0.180 A 
ATOM      2  C   UNL     1       3.922 -59.572 190.626  1.00  0.00     0.208 A 
ATOM      3  C   UNL     1       4.128 -60.600 189.691  1.00  0.00     0.238 A 
ATOM      4  O   UNL     1       3.184 -60.912 188.919  1.00  0.00    -0.285 OA
ATOM      5  C   UNL     1       5.364 -61.289 189.662  1.00  0.00     0.111 A 
ATOM      6  C   UNL     1       5.697 -62.319 188.731  1.00  0.00     0.134 A 
ATOM      7  C   UNL     1       6.899 -63.020 188.879  1.00  0.00     0.093 A 
ATOM      8  C   UNL     1       7.810 -62.686 189.884  1.00  0.00     0.123 A 
ATOM      9  C   UNL     1       7.521 -61.643 190.760  1.00  0.00     0.094 A 
ATOM     10  C   UNL     1       6.314 -60.948 190.661  1.00  0.00     0.146 A 
ATOM     11  O   UNL     1       6.073 -59.967 191.523  1.00  0.00    -0.452 OA
ENDROOT
BRANCH   1  12
ATOM     12  C   UNL     1       4.816 -58.173 192.529  1.00  0.00     0.025 A 
ATOM     13  C   UNL     1       5.389 -55.940 193.353  1.00  0.00     0.161 A 
ATOM     14  C   UNL     1       4.574 -56.159 194.479  1.00  0.00     0.157 A 
ATOM     15  C   UNL     1       5.510 -56.958 192.385  1.00  0.00     0.062 A 
ATOM     16  C   UNL     1       3.903 -57.375 194.633  1.00  0.00     0.051 A 
ATOM     17  C   UNL     1       4.028 -58.378 193.671  1.00  0.00     0.016 A 
BRANCH  13  18
ATOM     18  O   UNL     1       6.060 -54.713 193.231  1.00  0.00    -0.493 OA
ATOM     19  C   UNL     1       5.535 -53.568 192.566  1.00  0.00     0.278 C 
ENDBRANCH  13  18
BRANCH  14  20
ATOM     20  O   UNL     1       4.423 -55.179 195.460  1.00  0.00    -0.504 OA
ATOM     21  H   UNL     1       5.053 -54.389 195.536  1.00  0.00     0.293 HD
ENDBRANCH  14  20
ENDBRANCH   1  12
BRANCH   2  22
ATOM     22  O   UNL     1       2.701 -58.895 190.686  1.00  0.00    -0.502 OA
ATOM     23  H   UNL     1       2.095 -58.936 191.497  1.00  0.00     0.293 HD
ENDBRANCH   2  22
BRANCH   6  24
ATOM     24  O   UNL     1       4.899 -62.669 187.637  1.00  0.00    -0.507 OA
ATOM     25  H   UNL     1       4.439 -62.009 187.027  1.00  0.00     0.293 HD
ENDBRANCH   6  24
BRANCH   8  26
ATOM     26  O   UNL     1       9.011 -63.380 190.013  1.00  0.00    -0.508 OA
ATOM     27  H   UNL     1       9.179 -64.247 189.516  1.00  0.00     0.293 HD
ENDBRANCH   8  26
TORSDOF 6
ENDMDL
MODEL 4
REMARK VINA RESULT:    -6.029      2.102      2.537
REMARK INTER + INTRA:          -7.788
REMARK INTER:                  -7.428
REMARK INTRA:                  -0.360
REMARK UNBOUND:                -0.349
REMARK SMILES COc1cc(-c2oc3cc(O)cc(O)c3c(=O)c2O)ccc1O
REMARK SMILES IDX 6 1 18 2 16 3 17 4 15 5 13 6 12 7 10 8 9 9 8 10 7 11 5 12
REMARK SMILES IDX 3 13 22 14 4 15 21 16 20 17 2 18 1 19 23 20 19 22 14 24
REMARK SMILES IDX 11 26
REMARK H PARENT 23 21 19 23 14 25 11 27
REMARK Flexibility Score: inf
ROOT
ATOM      1  C   UNL     1       4.940 -59.258 191.518  1.00  0.00     0.180 A 
ATOM      2  C   UNL     1       3.936 -59.603 190.598  1.00  0.00     0.208 A 
ATOM      3  C   UNL     1       4.181 -60.635 189.678  1.00  0.00     0.238 A 
ATOM      4  O   UNL     1       3.258 -60.976 188.892  1.00  0.00    -0.285 OA
ATOM      5  C   UNL     1       5.432 -61.297 189.677  1.00  0.00     0.111 A 
ATOM      6  C   UNL     1       5.804 -62.329 188.764  1.00  0.00     0.134 A 
ATOM      7  C   UNL     1       7.018 -63.002 188.939  1.00  0.00     0.093 A 
ATOM      8  C   UNL     1       7.904 -62.637 189.957  1.00  0.00     0.123 A 
ATOM      9  C   UNL     1       7.576 -61.592 190.817  1.00  0.00     0.094 A 
ATOM     10  C   UNL     1       6.356 -60.925 190.689  1.00  0.00     0.146 A 
ATOM     11  O   UNL     1       6.079 -59.942 191.537  1.00  0.00    -0.452 OA
ENDROOT
BRANCH   1  12
ATOM     12  C   UNL     1       4.765 -58.166 192.502  1.00  0.00     0.025 A 
ATOM     13  C   UNL     1       3.864 -57.307 194.610  1.00  0.00     0.161 A 
ATOM     14  C   UNL     1       4.413 -56.045 194.317  1.00  0.00     0.157 A 
ATOM     15  C   UNL     1       4.039 -58.362 193.691  1.00  0.00     0.062 A 
ATOM     16  C   UNL     1       5.114 -55.845 193.125  1.00  0.00     0.051 A 
ATOM     17  C   UNL     1       5.283 -56.893 192.220  1.00  0.00     0.016 A 
BRANCH  13  18
ATOM     18  O   UNL     1       3.155 -57.475 195.809  1.00  0.00    -0.493 OA
ATOM     19  C   UNL     1       3.250 -58.620 196.650  1.00  0.00     0.278 C 
ENDBRANCH  13  18
BRANCH  14  20
ATOM     20  O   UNL     1       4.266 -54.974 195.199  1.00  0.00    -0.504 OA
ATOM     21  H   UNL     1       4.050 -54.037 194.880  1.00  0.00     0.293 HD
ENDBRANCH  14  20
ENDBRANCH   1  12
BRANCH   2  22
ATOM     22  O   UNL     1       2.700 -58.953 190.630  1.00  0.00    -0.502 OA
ATOM     23  H   UNL     1       1.929 -59.218 190.029  1.00  0.00     0.293 HD
ENDBRANCH   2  22
BRANCH   6  24
ATOM     24  O   UNL     1       5.034 -62.707 187.659  1.00  0.00    -0.507 OA
ATOM     25  H   UNL     1       4.883 -63.660 187.364  1.00  0.00     0.293 HD
ENDBRANCH   6  24
BRANCH   8  26
ATOM     26  O   UNL     1       9.117 -63.303 190.115  1.00  0.00    -0.508 OA
ATOM     27  H   UNL     1       9.737 -63.470 189.331  1.00  0.00     0.293 HD
ENDBRANCH   8  26
TORSDOF 6
ENDMDL
MODEL 5
REMARK VINA RESULT:    -6.010      1.335      2.897
REMARK INTER + INTRA:          -7.764
REMARK INTER:                  -7.523
REMARK INTRA:                  -0.241
REMARK UNBOUND:                -0.349
REMARK SMILES COc1cc(-c2oc3cc(O)cc(O)c3c(=O)c2O)ccc1O
REMARK SMILES IDX 6 1 18 2 16 3 17 4 15 5 13 6 12 7 10 8 9 9 8 10 7 11 5 12
REMARK SMILES IDX 3 13 22 14 4 15 21 16 20 17 2 18 1 19 23 20 19 22 14 24
REMARK SMILES IDX 11 26
REMARK H PARENT 23 21 19 23 14 25 11 27
REMARK Flexibility Score: inf
ROOT
ATOM      1  C   UNL     1       5.792 -61.081 189.726  1.00  0.00     0.180 A 
ATOM      2  C   UNL     1       7.028 -61.725 189.549  1.00  0.00     0.208 A 
ATOM      3  C   UNL     1       7.074 -62.914 188.803  1.00  0.00     0.238 A 
ATOM      4  O   UNL     1       8.192 -63.458 188.601  1.00  0.00    -0.285 OA
ATOM      5  C   UNL     1       5.884 -63.452 188.259  1.00  0.00     0.111 A 
ATOM      6  C   UNL     1       5.807 -64.672 187.522  1.00  0.00     0.134 A 
ATOM      7  C   UNL     1       4.598 -65.041 186.921  1.00  0.00     0.093 A 
ATOM      8  C   UNL     1       3.446 -64.267 187.084  1.00  0.00     0.123 A 
ATOM      9  C   UNL     1       3.497 -63.106 187.851  1.00  0.00     0.094 A 
ATOM     10  C   UNL     1       4.696 -62.693 188.434  1.00  0.00     0.146 A 
ATOM     11  O   UNL     1       4.703 -61.574 189.149  1.00  0.00    -0.452 OA
ENDROOT
BRANCH   1  12
ATOM     12  C   UNL     1       5.659 -59.837 190.520  1.00  0.00     0.025 A 
ATOM     13  C   UNL     1       5.805 -58.626 192.642  1.00  0.00     0.161 A 
ATOM     14  C   UNL     1       5.340 -57.464 191.998  1.00  0.00     0.157 A 
ATOM     15  C   UNL     1       5.955 -59.813 191.895  1.00  0.00     0.062 A 
ATOM     16  C   UNL     1       5.024 -57.497 190.637  1.00  0.00     0.051 A 
ATOM     17  C   UNL     1       5.175 -58.674 189.904  1.00  0.00     0.016 A 
BRANCH  13  18
ATOM     18  O   UNL     1       6.103 -58.567 194.012  1.00  0.00    -0.493 OA
ATOM     19  C   UNL     1       5.184 -58.885 195.053  1.00  0.00     0.278 C 
ENDBRANCH  13  18
BRANCH  14  20
ATOM     20  O   UNL     1       5.180 -56.269 192.698  1.00  0.00    -0.504 OA
ATOM     21  H   UNL     1       5.963 -55.768 193.100  1.00  0.00     0.293 HD
ENDBRANCH  14  20
ENDBRANCH   1  12
BRANCH   2  22
ATOM     22  O   UNL     1       8.195 -61.165 190.075  1.00  0.00    -0.502 OA
ATOM     23  H   UNL     1       8.918 -60.764 189.490  1.00  0.00     0.293 HD
ENDBRANCH   2  22
BRANCH   6  24
ATOM     24  O   UNL     1       6.874 -65.563 187.376  1.00  0.00    -0.507 OA
ATOM     25  H   UNL     1       7.800 -65.306 187.067  1.00  0.00     0.293 HD
ENDBRANCH   6  24
BRANCH   8  26
ATOM     26  O   UNL     1       2.244 -64.650 186.494  1.00  0.00    -0.508 OA
ATOM     27  H   UNL     1       1.986 -65.625 186.400  1.00  0.00     0.293 HD
ENDBRANCH   8  26
TORSDOF 6
ENDMDL
MODEL 6
REMARK VINA RESULT:    -5.714      1.489      7.283
REMARK INTER + INTRA:          -7.398
REMARK INTER:                  -7.019
REMARK INTRA:                  -0.380
REMARK UNBOUND:                -0.349
REMARK SMILES COc1cc(-c2oc3cc(O)cc(O)c3c(=O)c2O)ccc1O
REMARK SMILES IDX 6 1 18 2 16 3 17 4 15 5 13 6 12 7 10 8 9 9 8 10 7 11 5 12
REMARK SMILES IDX 3 13 22 14 4 15 21 16 20 17 2 18 1 19 23 20 19 22 14 24
REMARK SMILES IDX 11 26
REMARK H PARENT 23 21 19 23 14 25 11 27
REMARK Flexibility Score: inf
ROOT
ATOM      1  C   UNL     1       5.004 -59.340 190.807  1.00  0.00     0.180 A 
ATOM      2  C   UNL     1       5.239 -58.074 190.244  1.00  0.00     0.208 A 
ATOM      3  C   UNL     1       5.598 -57.010 191.088  1.00  0.00     0.238 A 
ATOM      4  O   UNL     1       5.860 -55.892 190.571  1.00  0.00    -0.285 OA
ATOM      5  C   UNL     1       5.701 -57.221 192.483  1.00  0.00     0.111 A 
ATOM      6  C   UNL     1       6.017 -56.206 193.436  1.00  0.00     0.134 A 
ATOM      7  C   UNL     1       6.220 -56.556 194.776  1.00  0.00     0.093 A 
ATOM      8  C   UNL     1       6.054 -57.873 195.210  1.00  0.00     0.123 A 
ATOM      9  C   UNL     1       5.687 -58.860 194.299  1.00  0.00     0.094 A 
ATOM     10  C   UNL     1       5.513 -58.549 192.949  1.00  0.00     0.146 A 
ATOM     11  O   UNL     1       5.173 -59.522 192.112  1.00  0.00    -0.452 OA
ENDROOT
BRANCH   1  12
ATOM     12  C   UNL     1       4.598 -60.504 189.986  1.00  0.00     0.025 A 
ATOM     13  C   UNL     1       5.150 -62.501 188.683  1.00  0.00     0.161 A 
ATOM     14  C   UNL     1       3.785 -62.671 188.386  1.00  0.00     0.157 A 
ATOM     15  C   UNL     1       5.549 -61.408 189.480  1.00  0.00     0.062 A 
ATOM     16  C   UNL     1       2.844 -61.758 188.870  1.00  0.00     0.051 A 
ATOM     17  C   UNL     1       3.246 -60.679 189.658  1.00  0.00     0.016 A 
BRANCH  13  18
ATOM     18  O   UNL     1       6.074 -63.426 188.173  1.00  0.00    -0.493 OA
ATOM     19  C   UNL     1       7.472 -63.405 188.443  1.00  0.00     0.278 C 
ENDBRANCH  13  18
BRANCH  14  20
ATOM     20  O   UNL     1       3.346 -63.739 187.603  1.00  0.00    -0.504 OA
ATOM     21  H   UNL     1       3.845 -64.045 186.777  1.00  0.00     0.293 HD
ENDBRANCH  14  20
ENDBRANCH   1  12
BRANCH   2  22
ATOM     22  O   UNL     1       5.154 -57.893 188.862  1.00  0.00    -0.502 OA
ATOM     23  H   UNL     1       5.546 -58.553 188.201  1.00  0.00     0.293 HD
ENDBRANCH   2  22
BRANCH   6  24
ATOM     24  O   UNL     1       6.116 -54.847 193.124  1.00  0.00    -0.507 OA
ATOM     25  H   UNL     1       5.903 -54.093 193.761  1.00  0.00     0.293 HD
ENDBRANCH   6  24
BRANCH   8  26
ATOM     26  O   UNL     1       6.244 -58.210 196.548  1.00  0.00    -0.508 OA
ATOM     27  H   UNL     1       7.157 -58.460 196.909  1.00  0.00     0.293 HD
ENDBRANCH   8  26
TORSDOF 6
ENDMDL
MODEL 7
REMARK VINA RESULT:    -5.572      1.461      6.886
REMARK INTER + INTRA:          -7.224
REMARK INTER:                  -7.493
REMARK INTRA:                   0.270
REMARK UNBOUND:                -0.349
REMARK SMILES COc1cc(-c2oc3cc(O)cc(O)c3c(=O)c2O)ccc1O
REMARK SMILES IDX 6 1 18 2 16 3 17 4 15 5 13 6 12 7 10 8 9 9 8 10 7 11 5 12
REMARK SMILES IDX 3 13 22 14 4 15 21 16 20 17 2 18 1 19 23 20 19 22 14 24
REMARK SMILES IDX 11 26
REMARK H PARENT 23 21 19 23 14 25 11 27
REMARK Flexibility Score: inf
ROOT
ATOM      1  C   UNL     1       4.131 -60.363 189.972  1.00  0.00     0.180 A 
ATOM      2  C   UNL     1       3.155 -59.364 189.823  1.00  0.00     0.208 A 
ATOM      3  C   UNL     1       3.234 -58.209 190.619  1.00  0.00     0.238 A 
ATOM      4  O   UNL     1       2.388 -57.294 190.443  1.00  0.00    -0.285 OA
ATOM      5  C   UNL     1       4.279 -58.077 191.565  1.00  0.00     0.111 A 
ATOM      6  C   UNL     1       4.434 -56.969 192.453  1.00  0.00     0.134 A 
ATOM      7  C   UNL     1       5.577 -56.882 193.256  1.00  0.00     0.093 A 
ATOM      8  C   UNL     1       6.539 -57.895 193.251  1.00  0.00     0.123 A 
ATOM      9  C   UNL     1       6.368 -59.009 192.433  1.00  0.00     0.094 A 
ATOM     10  C   UNL     1       5.255 -59.107 191.594  1.00  0.00     0.146 A 
ATOM     11  O   UNL     1       5.136 -60.180 190.821  1.00  0.00    -0.452 OA
ENDROOT
BRANCH   1  12
ATOM     12  C   UNL     1       4.100 -61.618 189.187  1.00  0.00     0.025 A 
ATOM     13  C   UNL     1       5.240 -63.478 188.077  1.00  0.00     0.161 A 
ATOM     14  C   UNL     1       3.995 -63.970 187.646  1.00  0.00     0.157 A 
ATOM     15  C   UNL     1       5.284 -62.294 188.842  1.00  0.00     0.062 A 
ATOM     16  C   UNL     1       2.821 -63.285 187.970  1.00  0.00     0.051 A 
ATOM     17  C   UNL     1       2.871 -62.114 188.727  1.00  0.00     0.016 A 
BRANCH  13  18
ATOM     18  O   UNL     1       6.404 -64.181 187.728  1.00  0.00    -0.493 OA
ATOM     19  C   UNL     1       7.729 -63.731 187.990  1.00  0.00     0.278 C 
ENDBRANCH  13  18
BRANCH  14  20
ATOM     20  O   UNL     1       3.905 -65.139 186.890  1.00  0.00    -0.504 OA
ATOM     21  H   UNL     1       3.503 -65.151 185.961  1.00  0.00     0.293 HD
ENDBRANCH  14  20
ENDBRANCH   1  12
BRANCH   2  22
ATOM     22  O   UNL     1       2.145 -59.504 188.868  1.00  0.00    -0.502 OA
ATOM     23  H   UNL     1       1.576 -58.726 188.558  1.00  0.00     0.293 HD
ENDBRANCH   2  22
BRANCH   6  24
ATOM     24  O   UNL     1       3.487 -55.951 192.602  1.00  0.00    -0.507 OA
ATOM     25  H   UNL     1       2.508 -56.100 192.798  1.00  0.00     0.293 HD
ENDBRANCH   6  24
BRANCH   8  26
ATOM     26  O   UNL     1       7.667 -57.807 194.065  1.00  0.00    -0.508 OA
ATOM     27  H   UNL     1       8.326 -57.043 193.977  1.00  0.00     0.293 HD
ENDBRANCH   8  26
TORSDOF 6
ENDMDL
MODEL 8
REMARK VINA RESULT:    -5.557      9.415     11.570
REMARK INTER + INTRA:          -7.205
REMARK INTER:                  -6.857
REMARK INTRA:                  -0.348
REMARK UNBOUND:                -0.349
REMARK SMILES COc1cc(-c2oc3cc(O)cc(O)c3c(=O)c2O)ccc1O
REMARK SMILES IDX 6 1 18 2 16 3 17 4 15 5 13 6 12 7 10 8 9 9 8 10 7 11 5 12
REMARK SMILES IDX 3 13 22 14 4 15 21 16 20 17 2 18 1 19 23 20 19 22 14 24
REMARK SMILES IDX 11 26
REMARK H PARENT 23 21 19 23 14 25 11 27
REMARK Flexibility Score: inf
ROOT
ATOM      1  C   UNL     1      11.150 -56.362 197.354  1.00  0.00     0.180 A 
ATOM      2  C   UNL     1      10.207 -56.253 196.318  1.00  0.00     0.208 A 
ATOM      3  C   UNL     1      10.621 -55.758 195.071  1.00  0.00     0.238 A 
ATOM      4  O   UNL     1       9.785 -55.713 194.131  1.00  0.00    -0.285 OA
ATOM      5  C   UNL     1      11.967 -55.364 194.880  1.00  0.00     0.111 A 
ATOM      6  C   UNL     1      12.487 -54.811 193.671  1.00  0.00     0.134 A 
ATOM      7  C   UNL     1      13.863 -54.578 193.554  1.00  0.00     0.093 A 
ATOM      8  C   UNL     1      14.728 -54.818 194.624  1.00  0.00     0.123 A 
ATOM      9  C   UNL     1      14.221 -55.301 195.828  1.00  0.00     0.094 A 
ATOM     10  C   UNL     1      12.859 -55.577 195.964  1.00  0.00     0.146 A 
ATOM     11  O   UNL     1      12.420 -56.047 197.126  1.00  0.00    -0.452 OA
ENDROOT
BRANCH   1  12
ATOM     12  C   UNL     1      10.784 -56.852 198.703  1.00  0.00     0.025 A 
ATOM     13  C   UNL     1       9.732 -56.521 200.888  1.00  0.00     0.161 A 
ATOM     14  C   UNL     1      10.159 -57.804 201.276  1.00  0.00     0.157 A 
ATOM     15  C   UNL     1      10.056 -56.049 199.600  1.00  0.00     0.062 A 
ATOM     16  C   UNL     1      10.902 -58.592 200.393  1.00  0.00     0.051 A 
ATOM     17  C   UNL     1      11.220 -58.118 199.119  1.00  0.00     0.016 A 
BRANCH  13  18
ATOM     18  O   UNL     1       8.997 -55.747 201.800  1.00  0.00    -0.493 OA
ATOM     19  C   UNL     1       9.477 -54.560 202.423  1.00  0.00     0.278 C 
ENDBRANCH  13  18
BRANCH  14  20
ATOM     20  O   UNL     1       9.858 -58.311 202.540  1.00  0.00    -0.504 OA
ATOM     21  H   UNL     1       9.000 -58.813 202.731  1.00  0.00     0.293 HD
ENDBRANCH  14  20
ENDBRANCH   1  12
BRANCH   2  22
ATOM     22  O   UNL     1       8.889 -56.669 196.520  1.00  0.00    -0.502 OA
ATOM     23  H   UNL     1       8.559 -57.021 197.411  1.00  0.00     0.293 HD
ENDBRANCH   2  22
BRANCH   6  24
ATOM     24  O   UNL     1      11.697 -54.449 192.576  1.00  0.00    -0.507 OA
ATOM     25  H   UNL     1      10.856 -54.929 192.291  1.00  0.00     0.293 HD
ENDBRANCH   6  24
BRANCH   8  26
ATOM     26  O   UNL     1      16.093 -54.569 194.503  1.00  0.00    -0.508 OA
ATOM     27  H   UNL     1      16.775 -55.317 194.552  1.00  0.00     0.293 HD
ENDBRANCH   8  26
TORSDOF 6
ENDMDL
MODEL 9
REMARK VINA RESULT:    -5.315      9.094     10.491
REMARK INTER + INTRA:          -6.906
REMARK INTER:                  -6.707
REMARK INTRA:                  -0.199
REMARK UNBOUND:                -0.349
REMARK SMILES COc1cc(-c2oc3cc(O)cc(O)c3c(=O)c2O)ccc1O
REMARK SMILES IDX 6 1 18 2 16 3 17 4 15 5 13 6 12 7 10 8 9 9 8 10 7 11 5 12
REMARK SMILES IDX 3 13 22 14 4 15 21 16 20 17 2 18 1 19 23 20 19 22 14 24
REMARK SMILES IDX 11 26
REMARK H PARENT 23 21 19 23 14 25 11 27
REMARK Flexibility Score: inf
ROOT
ATOM      1  C   UNL     1       6.048 -59.187 200.159  1.00  0.00     0.180 A 
ATOM      2  C   UNL     1       4.928 -58.880 199.369  1.00  0.00     0.208 A 
ATOM      3  C   UNL     1       4.134 -59.929 198.877  1.00  0.00     0.238 A 
ATOM      4  O   UNL     1       3.101 -59.646 198.215  1.00  0.00    -0.285 OA
ATOM      5  C   UNL     1       4.479 -61.270 199.168  1.00  0.00     0.111 A 
ATOM      6  C   UNL     1       3.770 -62.413 198.689  1.00  0.00     0.134 A 
ATOM      7  C   UNL     1       4.124 -63.688 199.146  1.00  0.00     0.093 A 
ATOM      8  C   UNL     1       5.203 -63.867 200.015  1.00  0.00     0.123 A 
ATOM      9  C   UNL     1       5.938 -62.764 200.442  1.00  0.00     0.094 A 
ATOM     10  C   UNL     1       5.587 -61.476 200.031  1.00  0.00     0.146 A 
ATOM     11  O   UNL     1       6.309 -60.452 200.470  1.00  0.00    -0.452 OA
ENDROOT
BRANCH   1  12
ATOM     12  C   UNL     1       6.947 -58.138 200.693  1.00  0.00     0.025 A 
ATOM     13  C   UNL     1       9.152 -57.089 200.857  1.00  0.00     0.161 A 
ATOM     14  C   UNL     1       8.629 -56.158 201.774  1.00  0.00     0.157 A 
ATOM     15  C   UNL     1       8.304 -58.082 200.327  1.00  0.00     0.062 A 
ATOM     16  C   UNL     1       7.286 -56.230 202.155  1.00  0.00     0.051 A 
ATOM     17  C   UNL     1       6.452 -57.215 201.626  1.00  0.00     0.016 A 
BRANCH  13  18
ATOM     18  O   UNL     1      10.507 -57.000 200.502  1.00  0.00    -0.493 OA
ATOM     19  C   UNL     1      11.317 -58.109 200.123  1.00  0.00     0.278 C 
ENDBRANCH  13  18
BRANCH  14  20
ATOM     20  O   UNL     1       9.432 -55.158 202.323  1.00  0.00    -0.504 OA
ATOM     21  H   UNL     1      10.102 -54.639 201.769  1.00  0.00     0.293 HD
ENDBRANCH  14  20
ENDBRANCH   1  12
BRANCH   2  22
ATOM     22  O   UNL     1       4.592 -57.549 199.113  1.00  0.00    -0.502 OA
ATOM     23  H   UNL     1       4.998 -57.022 198.349  1.00  0.00     0.293 HD
ENDBRANCH   2  22
BRANCH   6  24
ATOM     24  O   UNL     1       2.737 -62.351 197.749  1.00  0.00    -0.507 OA
ATOM     25  H   UNL     1       2.617 -61.611 197.073  1.00  0.00     0.293 HD
ENDBRANCH   6  24
BRANCH   8  26
ATOM     26  O   UNL     1       5.557 -65.141 200.454  1.00  0.00    -0.508 OA
ATOM     27  H   UNL     1       6.375 -65.295 201.033  1.00  0.00     0.293 HD
ENDBRANCH   8  26
TORSDOF 6
ENDMDL
