MODEL 1
REMARK VINA RESULT:    -3.607      0.000      0.000
REMARK INTER + INTRA:          -4.339
REMARK INTER:                  -4.240
REMARK INTRA:                  -0.099
REMARK UNBOUND:                -0.099
REMARK SMILES CCCCC(=O)[O-]
REMARK SMILES IDX 4 1 5 2 6 3 7 4 3 5 2 6 1 7
REMARK H PARENT
REMARK Flexibility Score: inf
ROOT
ATOM      1  C   UNL     1       7.856   8.186  10.931  1.00  0.00     0.053 C 
ENDROOT
BRANCH   1   2
ATOM      2  C   UNL     1       6.693   8.305   9.998  1.00  0.00     0.041 C 
ATOM      3  O   UNL     1       6.402   9.419   9.487  1.00  0.00    -0.550 OA
ATOM      4  O   UNL     1       5.899   7.197   9.730  1.00  0.00    -0.550 OA
ENDBRANCH   1   2
BRANCH   1   5
ATOM      5  C   UNL     1       7.817   6.841  11.666  1.00  0.00     0.006 C 
BRANCH   5   6
ATOM      6  C   UNL     1       9.084   6.004  11.433  1.00  0.00    -0.003 C 
ATOM      7  C   UNL     1       9.292   5.641   9.963  1.00  0.00     0.004 C 
ENDBRANCH   5   6
ENDBRANCH   1   5
TORSDOF 3
ENDMDL
MODEL 2
REMARK VINA RESULT:    -3.597      0.938      1.550
REMARK INTER + INTRA:          -4.327
REMARK INTER:                  -4.303
REMARK INTRA:                  -0.024
REMARK UNBOUND:                -0.099
REMARK SMILES CCCCC(=O)[O-]
REMARK SMILES IDX 4 1 5 2 6 3 7 4 3 5 2 6 1 7
REMARK H PARENT
REMARK Flexibility Score: inf
ROOT
ATOM      1  C   UNL     1       6.444   7.093  10.461  1.00  0.00     0.053 C 
ENDROOT
BRANCH   1   2
ATOM      2  C   UNL     1       5.721   8.123   9.654  1.00  0.00     0.041 C 
ATOM      3  O   UNL     1       4.557   7.895   9.230  1.00  0.00    -0.550 OA
ATOM      4  O   UNL     1       6.349   9.318   9.327  1.00  0.00    -0.550 OA
ENDBRANCH   1   2
BRANCH   1   5
ATOM      5  C   UNL     1       7.876   7.553  10.759  1.00  0.00     0.006 C 
BRANCH   5   6
ATOM      6  C   UNL     1       8.786   6.399  11.208  1.00  0.00    -0.003 C 
ATOM      7  C   UNL     1       9.409   5.647  10.033  1.00  0.00     0.004 C 
ENDBRANCH   5   6
ENDBRANCH   1   5
TORSDOF 3
ENDMDL
MODEL 3
REMARK VINA RESULT:    -3.588      3.310      3.845
REMARK INTER + INTRA:          -4.316
REMARK INTER:                  -4.237
REMARK INTRA:                  -0.079
REMARK UNBOUND:                -0.099
REMARK SMILES CCCCC(=O)[O-]
REMARK SMILES IDX 4 1 5 2 6 3 7 4 3 5 2 6 1 7
REMARK H PARENT
REMARK Flexibility Score: inf
ROOT
ATOM      1  C   UNL     1       7.399   7.226  13.357  1.00  0.00     0.053 C 
ENDROOT
BRANCH   1   2
ATOM      2  C   UNL     1       7.320   5.960  14.148  1.00  0.00     0.041 C 
ATOM      3  O   UNL     1       8.368   5.318  14.425  1.00  0.00    -0.550 OA
ATOM      4  O   UNL     1       6.084   5.460  14.540  1.00  0.00    -0.550 OA
ENDBRANCH   1   2
BRANCH   1   5
ATOM      5  C   UNL     1       7.297   6.927  11.856  1.00  0.00     0.006 C 
BRANCH   5   6
ATOM      6  C   UNL     1       8.640   7.092  11.129  1.00  0.00    -0.003 C 
ATOM      7  C   UNL     1       9.109   5.805  10.453  1.00  0.00     0.004 C 
ENDBRANCH   5   6
ENDBRANCH   1   5
TORSDOF 3
ENDMDL
MODEL 4
REMARK VINA RESULT:    -3.500      1.280      1.841
REMARK INTER + INTRA:          -4.213
REMARK INTER:                  -4.115
REMARK INTRA:                  -0.098
REMARK UNBOUND:                -0.099
REMARK SMILES CCCCC(=O)[O-]
REMARK SMILES IDX 4 1 5 2 6 3 7 4 3 5 2 6 1 7
REMARK H PARENT
REMARK Flexibility Score: inf
ROOT
ATOM      1  C   UNL     1       6.548   7.104  11.907  1.00  0.00     0.053 C 
ENDROOT
BRANCH   1   2
ATOM      2  C   UNL     1       5.475   6.982  10.873  1.00  0.00     0.041 C 
ATOM      3  O   UNL     1       4.316   6.613  11.201  1.00  0.00    -0.550 OA
ATOM      4  O   UNL     1       5.765   7.227   9.537  1.00  0.00    -0.550 OA
ENDBRANCH   1   2
BRANCH   1   5
ATOM      5  C   UNL     1       7.892   7.436  11.249  1.00  0.00     0.006 C 
BRANCH   5   6
ATOM      6  C   UNL     1       8.908   6.289  11.368  1.00  0.00    -0.003 C 
ATOM      7  C   UNL     1       9.172   5.591  10.035  1.00  0.00     0.004 C 
ENDBRANCH   5   6
ENDBRANCH   1   5
TORSDOF 3
ENDMDL
MODEL 5
REMARK VINA RESULT:    -3.415      1.347      2.456
REMARK INTER + INTRA:          -4.113
REMARK INTER:                  -4.066
REMARK INTRA:                  -0.047
REMARK UNBOUND:                -0.099
REMARK SMILES CCCCC(=O)[O-]
REMARK SMILES IDX 4 1 5 2 6 3 7 4 3 5 2 6 1 7
REMARK H PARENT
REMARK Flexibility Score: inf
ROOT
ATOM      1  C   UNL     1       7.997   7.914  11.067  1.00  0.00     0.053 C 
ENDROOT
BRANCH   1   2
ATOM      2  C   UNL     1       6.830   7.868  10.133  1.00  0.00     0.041 C 
ATOM      3  O   UNL     1       6.299   6.766   9.835  1.00  0.00    -0.550 OA
ATOM      4  O   UNL     1       6.359   9.038   9.549  1.00  0.00    -0.550 OA
ENDBRANCH   1   2
BRANCH   1   5
ATOM      5  C   UNL     1       7.966   6.715  12.022  1.00  0.00     0.006 C 
BRANCH   5   6
ATOM      6  C   UNL     1       7.372   7.068  13.394  1.00  0.00    -0.003 C 
ATOM      7  C   UNL     1       7.545   5.949  14.419  1.00  0.00     0.004 C 
ENDBRANCH   5   6
ENDBRANCH   1   5
TORSDOF 3
ENDMDL
MODEL 6
REMARK VINA RESULT:    -3.320      1.317      2.178
REMARK INTER + INTRA:          -4.001
REMARK INTER:                  -3.920
REMARK INTRA:                  -0.081
REMARK UNBOUND:                -0.099
REMARK SMILES CCCCC(=O)[O-]
REMARK SMILES IDX 4 1 5 2 6 3 7 4 3 5 2 6 1 7
REMARK H PARENT
REMARK Flexibility Score: inf
ROOT
ATOM      1  C   UNL     1       7.537   6.814  10.485  1.00  0.00     0.053 C 
ENDROOT
BRANCH   1   2
ATOM      2  C   UNL     1       6.486   7.745   9.970  1.00  0.00     0.041 C 
ATOM      3  O   UNL     1       6.734   8.974   9.845  1.00  0.00    -0.550 OA
ATOM      4  O   UNL     1       5.216   7.267   9.674  1.00  0.00    -0.550 OA
ENDBRANCH   1   2
BRANCH   1   5
ATOM      5  C   UNL     1       8.034   7.274  11.860  1.00  0.00     0.006 C 
BRANCH   5   6
ATOM      6  C   UNL     1       6.977   7.093  12.961  1.00  0.00    -0.003 C 
ATOM      7  C   UNL     1       7.521   6.365  14.189  1.00  0.00     0.004 C 
ENDBRANCH   5   6
ENDBRANCH   1   5
TORSDOF 3
ENDMDL
MODEL 7
REMARK VINA RESULT:    -3.230      2.435      3.504
REMARK INTER + INTRA:          -3.896
REMARK INTER:                  -3.767
REMARK INTRA:                  -0.129
REMARK UNBOUND:                -0.099
REMARK SMILES CCCCC(=O)[O-]
REMARK SMILES IDX 4 1 5 2 6 3 7 4 3 5 2 6 1 7
REMARK H PARENT
REMARK Flexibility Score: inf
ROOT
ATOM      1  C   UNL     1       4.627   7.464   9.999  1.00  0.00     0.053 C 
ENDROOT
BRANCH   1   2
ATOM      2  C   UNL     1       6.112   7.611   9.894  1.00  0.00     0.041 C 
ATOM      3  O   UNL     1       6.853   6.593   9.908  1.00  0.00    -0.550 OA
ATOM      4  O   UNL     1       6.683   8.876   9.831  1.00  0.00    -0.550 OA
ENDBRANCH   1   2
BRANCH   1   5
ATOM      5  C   UNL     1       4.255   6.685  11.266  1.00  0.00     0.006 C 
BRANCH   5   6
ATOM      6  C   UNL     1       4.717   7.390  12.550  1.00  0.00    -0.003 C 
ATOM      7  C   UNL     1       5.600   6.503  13.427  1.00  0.00     0.004 C 
ENDBRANCH   5   6
ENDBRANCH   1   5
TORSDOF 3
ENDMDL
MODEL 8
REMARK VINA RESULT:    -3.224      2.316      3.181
REMARK INTER + INTRA:          -3.889
REMARK INTER:                  -3.842
REMARK INTRA:                  -0.047
REMARK UNBOUND:                -0.099
REMARK SMILES CCCCC(=O)[O-]
REMARK SMILES IDX 4 1 5 2 6 3 7 4 3 5 2 6 1 7
REMARK H PARENT
REMARK Flexibility Score: inf
ROOT
ATOM      1  C   UNL     1       6.365   7.098  11.913  1.00  0.00     0.053 C 
ENDROOT
BRANCH   1   2
ATOM      2  C   UNL     1       5.360   7.121  10.805  1.00  0.00     0.041 C 
ATOM      3  O   UNL     1       4.232   6.584  10.961  1.00  0.00    -0.550 OA
ATOM      4  O   UNL     1       5.686   7.693   9.582  1.00  0.00    -0.550 OA
ENDBRANCH   1   2
BRANCH   1   5
ATOM      5  C   UNL     1       5.662   7.112  13.275  1.00  0.00     0.006 C 
BRANCH   5   6
ATOM      6  C   UNL     1       6.136   5.978  14.196  1.00  0.00    -0.003 C 
ATOM      7  C   UNL     1       7.625   6.068  14.527  1.00  0.00     0.004 C 
ENDBRANCH   5   6
ENDBRANCH   1   5
TORSDOF 3
ENDMDL
MODEL 9
REMARK VINA RESULT:    -3.221      2.994      3.825
REMARK INTER + INTRA:          -3.886
REMARK INTER:                  -3.801
REMARK INTRA:                  -0.085
REMARK UNBOUND:                -0.099
REMARK SMILES CCCCC(=O)[O-]
REMARK SMILES IDX 4 1 5 2 6 3 7 4 3 5 2 6 1 7
REMARK H PARENT
REMARK Flexibility Score: inf
ROOT
ATOM      1  C   UNL     1       7.487   7.311  12.825  1.00  0.00     0.053 C 
ENDROOT
BRANCH   1   2
ATOM      2  C   UNL     1       7.008   6.384  13.896  1.00  0.00     0.041 C 
ATOM      3  O   UNL     1       5.837   5.922  13.858  1.00  0.00    -0.550 OA
ATOM      4  O   UNL     1       7.836   6.069  14.966  1.00  0.00    -0.550 OA
ENDBRANCH   1   2
BRANCH   1   5
ATOM      5  C   UNL     1       8.290   6.541  11.770  1.00  0.00     0.006 C 
BRANCH   5   6
ATOM      6  C   UNL     1       7.786   6.799  10.341  1.00  0.00    -0.003 C 
ATOM      7  C   UNL     1       6.270   6.972  10.270  1.00  0.00     0.004 C 
ENDBRANCH   5   6
ENDBRANCH   1   5
TORSDOF 3
ENDMDL
