MODEL 1
REMARK VINA RESULT:    -4.004      0.000      0.000
REMARK INTER + INTRA:          -4.866
REMARK INTER:                  -4.823
REMARK INTRA:                  -0.043
REMARK UNBOUND:                -0.043
REMARK SMILES CC[C@@H](C)[C@H]([NH3+])C(=O)[O-]
REMARK SMILES IDX 3 1 4 2 5 3 6 4 7 8 8 9 9 10 2 11 1 12
REMARK H PARENT 6 5 6 6 6 7
REMARK Flexibility Score: inf
ROOT
ATOM      1  C   UNL     1     141.203 129.793 123.127  1.00  0.00     0.050 C 
ATOM      2  C   UNL     1     142.034 129.256 121.948  1.00  0.00     0.014 C 
ENDROOT
BRANCH   1   3
ATOM      3  C   UNL     1     139.750 129.212 123.153  1.00  0.00     0.230 C 
BRANCH   3   4
ATOM      4  N   UNL     1     138.786 130.139 122.543  1.00  0.00    -0.350 N 
ATOM      5  H   UNL     1     138.865 130.091 121.501  1.00  0.00     0.345 HD
ATOM      6  H   UNL     1     138.997 131.120 122.838  1.00  0.00     0.345 HD
ATOM      7  H   UNL     1     137.807 129.900 122.817  1.00  0.00     0.345 HD
ENDBRANCH   3   4
BRANCH   3   8
ATOM      8  C   UNL     1     139.282 128.763 124.521  1.00  0.00     0.099 C 
ATOM      9  O   UNL     1     139.365 127.550 124.848  1.00  0.00    -0.544 OA
ATOM     10  O   UNL     1     138.708 129.663 125.411  1.00  0.00    -0.544 OA
ENDBRANCH   3   8
ENDBRANCH   1   3
BRANCH   1  11
ATOM     11  C   UNL     1     141.990 129.739 124.463  1.00  0.00     0.006 C 
ATOM     12  C   UNL     1     143.124 130.754 124.605  1.00  0.00     0.004 C 
ENDBRANCH   1  11
TORSDOF 4
ENDMDL
MODEL 2
REMARK VINA RESULT:    -3.943     17.833     18.638
REMARK INTER + INTRA:          -4.793
REMARK INTER:                  -4.716
REMARK INTRA:                  -0.076
REMARK UNBOUND:                -0.043
REMARK SMILES CC[C@@H](C)[C@H]([NH3+])C(=O)[O-]
REMARK SMILES IDX 3 1 4 2 5 3 6 4 7 8 8 9 9 10 2 11 1 12
REMARK H PARENT 6 5 6 6 6 7
REMARK Flexibility Score: inf
ROOT
ATOM      1  C   UNL     1     126.050 142.261 122.952  1.00  0.00     0.050 C 
ATOM      2  C   UNL     1     124.779 143.021 122.534  1.00  0.00     0.014 C 
ENDROOT
BRANCH   1   3
ATOM      3  C   UNL     1     125.894 140.710 122.827  1.00  0.00     0.230 C 
BRANCH   3   4
ATOM      4  N   UNL     1     126.035 140.045 124.131  1.00  0.00    -0.350 N 
ATOM      5  H   UNL     1     125.339 139.267 124.204  1.00  0.00     0.345 HD
ATOM      6  H   UNL     1     125.841 140.726 124.902  1.00  0.00     0.345 HD
ATOM      7  H   UNL     1     126.994 139.651 124.252  1.00  0.00     0.345 HD
ENDBRANCH   3   4
BRANCH   3   8
ATOM      8  C   UNL     1     126.795 140.072 121.791  1.00  0.00     0.099 C 
ATOM      9  O   UNL     1     126.429 140.014 120.587  1.00  0.00    -0.544 OA
ATOM     10  O   UNL     1     128.007 139.496 122.156  1.00  0.00    -0.544 OA
ENDBRANCH   3   8
ENDBRANCH   1   3
BRANCH   1  11
ATOM     11  C   UNL     1     127.327 142.877 122.321  1.00  0.00     0.006 C 
ATOM     12  C   UNL     1     127.767 144.223 122.896  1.00  0.00     0.004 C 
ENDBRANCH   1  11
TORSDOF 4
ENDMDL
MODEL 3
REMARK VINA RESULT:    -3.862     17.861     18.749
REMARK INTER + INTRA:          -4.696
REMARK INTER:                  -4.596
REMARK INTRA:                  -0.100
REMARK UNBOUND:                -0.043
REMARK SMILES CC[C@@H](C)[C@H]([NH3+])C(=O)[O-]
REMARK SMILES IDX 3 1 4 2 5 3 6 4 7 8 8 9 9 10 2 11 1 12
REMARK H PARENT 6 5 6 6 6 7
REMARK Flexibility Score: inf
ROOT
ATOM      1  C   UNL     1     125.842 141.903 122.277  1.00  0.00     0.050 C 
ATOM      2  C   UNL     1     126.834 142.821 123.014  1.00  0.00     0.014 C 
ENDROOT
BRANCH   1   3
ATOM      3  C   UNL     1     126.080 140.388 122.584  1.00  0.00     0.230 C 
BRANCH   3   4
ATOM      4  N   UNL     1     125.746 140.059 123.977  1.00  0.00    -0.350 N 
ATOM      5  H   UNL     1     124.728 140.235 124.145  1.00  0.00     0.345 HD
ATOM      6  H   UNL     1     126.291 140.670 124.629  1.00  0.00     0.345 HD
ATOM      7  H   UNL     1     125.954 139.058 124.190  1.00  0.00     0.345 HD
ENDBRANCH   3   4
BRANCH   3   8
ATOM      8  C   UNL     1     127.461 139.886 122.223  1.00  0.00     0.099 C 
ATOM      9  O   UNL     1     127.805 139.799 121.014  1.00  0.00    -0.544 OA
ATOM     10  O   UNL     1     128.349 139.465 123.207  1.00  0.00    -0.544 OA
ENDBRANCH   3   8
ENDBRANCH   1   3
BRANCH   1  11
ATOM     11  C   UNL     1     124.381 142.410 122.403  1.00  0.00     0.006 C 
ATOM     12  C   UNL     1     124.217 143.834 122.934  1.00  0.00     0.004 C 
ENDBRANCH   1  11
TORSDOF 4
ENDMDL
MODEL 4
REMARK VINA RESULT:    -3.841      2.885      3.807
REMARK INTER + INTRA:          -4.670
REMARK INTER:                  -4.557
REMARK INTRA:                  -0.113
REMARK UNBOUND:                -0.043
REMARK SMILES CC[C@@H](C)[C@H]([NH3+])C(=O)[O-]
REMARK SMILES IDX 3 1 4 2 5 3 6 4 7 8 8 9 9 10 2 11 1 12
REMARK H PARENT 6 5 6 6 6 7
REMARK Flexibility Score: inf
ROOT
ATOM      1  C   UNL     1     139.800 128.911 123.708  1.00  0.00     0.050 C 
ATOM      2  C   UNL     1     139.347 130.379 123.795  1.00  0.00     0.014 C 
ENDROOT
BRANCH   1   3
ATOM      3  C   UNL     1     141.332 128.768 123.427  1.00  0.00     0.230 C 
BRANCH   3   4
ATOM      4  N   UNL     1     142.137 129.339 124.516  1.00  0.00    -0.350 N 
ATOM      5  H   UNL     1     142.030 130.380 124.523  1.00  0.00     0.345 HD
ATOM      6  H   UNL     1     143.149 129.120 124.366  1.00  0.00     0.345 HD
ATOM      7  H   UNL     1     141.838 128.964 125.444  1.00  0.00     0.345 HD
ENDBRANCH   3   4
BRANCH   3   8
ATOM      8  C   UNL     1     141.775 129.306 122.084  1.00  0.00     0.099 C 
ATOM      9  O   UNL     1     141.209 128.913 121.029  1.00  0.00    -0.544 OA
ATOM     10  O   UNL     1     142.838 130.197 121.986  1.00  0.00    -0.544 OA
ENDBRANCH   3   8
ENDBRANCH   1   3
BRANCH   1  11
ATOM     11  C   UNL     1     139.232 128.059 124.874  1.00  0.00     0.006 C 
ATOM     12  C   UNL     1     138.755 128.844 126.096  1.00  0.00     0.004 C 
ENDBRANCH   1  11
TORSDOF 4
ENDMDL
MODEL 5
REMARK VINA RESULT:    -3.771     18.011     18.898
REMARK INTER + INTRA:          -4.586
REMARK INTER:                  -4.483
REMARK INTRA:                  -0.103
REMARK UNBOUND:                -0.043
REMARK SMILES CC[C@@H](C)[C@H]([NH3+])C(=O)[O-]
REMARK SMILES IDX 3 1 4 2 5 3 6 4 7 8 8 9 9 10 2 11 1 12
REMARK H PARENT 6 5 6 6 6 7
REMARK Flexibility Score: inf
ROOT
ATOM      1  C   UNL     1     126.337 140.579 122.346  1.00  0.00     0.050 C 
ATOM      2  C   UNL     1     126.871 140.495 123.787  1.00  0.00     0.014 C 
ENDROOT
BRANCH   1   3
ATOM      3  C   UNL     1     126.132 142.053 121.864  1.00  0.00     0.230 C 
BRANCH   3   4
ATOM      4  N   UNL     1     127.411 142.770 121.758  1.00  0.00    -0.350 N 
ATOM      5  H   UNL     1     127.473 143.489 122.515  1.00  0.00     0.345 HD
ATOM      6  H   UNL     1     127.468 143.264 120.837  1.00  0.00     0.345 HD
ATOM      7  H   UNL     1     128.220 142.115 121.848  1.00  0.00     0.345 HD
ENDBRANCH   3   4
BRANCH   3   8
ATOM      8  C   UNL     1     125.131 142.843 122.678  1.00  0.00     0.099 C 
ATOM      9  O   UNL     1     123.955 142.415 122.820  1.00  0.00    -0.544 OA
ATOM     10  O   UNL     1     125.473 144.071 123.235  1.00  0.00    -0.544 OA
ENDBRANCH   3   8
ENDBRANCH   1   3
BRANCH   1  11
ATOM     11  C   UNL     1     127.116 139.643 121.384  1.00  0.00     0.006 C 
ATOM     12  C   UNL     1     128.577 139.382 121.753  1.00  0.00     0.004 C 
ENDBRANCH   1  11
TORSDOF 4
ENDMDL
MODEL 6
REMARK VINA RESULT:    -3.720      0.715      2.029
REMARK INTER + INTRA:          -4.524
REMARK INTER:                  -4.418
REMARK INTRA:                  -0.107
REMARK UNBOUND:                -0.043
REMARK SMILES CC[C@@H](C)[C@H]([NH3+])C(=O)[O-]
REMARK SMILES IDX 3 1 4 2 5 3 6 4 7 8 8 9 9 10 2 11 1 12
REMARK H PARENT 6 5 6 6 6 7
REMARK Flexibility Score: inf
ROOT
ATOM      1  C   UNL     1     141.283 129.347 123.157  1.00  0.00     0.050 C 
ATOM      2  C   UNL     1     141.678 130.669 123.839  1.00  0.00     0.014 C 
ENDROOT
BRANCH   1   3
ATOM      3  C   UNL     1     139.742 129.083 123.202  1.00  0.00     0.230 C 
BRANCH   3   4
ATOM      4  N   UNL     1     138.983 130.202 122.624  1.00  0.00    -0.350 N 
ATOM      5  H   UNL     1     138.706 129.967 121.643  1.00  0.00     0.345 HD
ATOM      6  H   UNL     1     139.580 131.061 122.595  1.00  0.00     0.345 HD
ATOM      7  H   UNL     1     138.121 130.401 123.179  1.00  0.00     0.345 HD
ENDBRANCH   3   4
BRANCH   3   8
ATOM      8  C   UNL     1     139.210 128.716 124.571  1.00  0.00     0.099 C 
ATOM      9  O   UNL     1     139.268 127.523 124.971  1.00  0.00    -0.544 OA
ATOM     10  O   UNL     1     138.607 129.670 125.383  1.00  0.00    -0.544 OA
ENDBRANCH   3   8
ENDBRANCH   1   3
BRANCH   1  11
ATOM     11  C   UNL     1     141.968 129.181 121.775  1.00  0.00     0.006 C 
ATOM     12  C   UNL     1     141.570 127.934 120.984  1.00  0.00     0.004 C 
ENDBRANCH   1  11
TORSDOF 4
ENDMDL
MODEL 7
REMARK VINA RESULT:    -3.591     18.940     19.810
REMARK INTER + INTRA:          -4.369
REMARK INTER:                  -4.279
REMARK INTRA:                  -0.090
REMARK UNBOUND:                -0.043
REMARK SMILES CC[C@@H](C)[C@H]([NH3+])C(=O)[O-]
REMARK SMILES IDX 3 1 4 2 5 3 6 4 7 8 8 9 9 10 2 11 1 12
REMARK H PARENT 6 5 6 6 6 7
REMARK Flexibility Score: inf
ROOT
ATOM      1  C   UNL     1     125.384 142.059 122.397  1.00  0.00     0.050 C 
ATOM      2  C   UNL     1     126.896 142.225 122.629  1.00  0.00     0.014 C 
ENDROOT
BRANCH   1   3
ATOM      3  C   UNL     1     124.829 140.716 122.978  1.00  0.00     0.230 C 
BRANCH   3   4
ATOM      4  N   UNL     1     125.792 140.083 123.891  1.00  0.00    -0.350 N 
ATOM      5  H   UNL     1     125.576 140.361 124.876  1.00  0.00     0.345 HD
ATOM      6  H   UNL     1     126.762 140.406 123.668  1.00  0.00     0.345 HD
ATOM      7  H   UNL     1     125.752 139.041 123.819  1.00  0.00     0.345 HD
ENDBRANCH   3   4
BRANCH   3   8
ATOM      8  C   UNL     1     124.345 139.735 121.932  1.00  0.00     0.099 C 
ATOM      9  O   UNL     1     123.163 139.304 121.971  1.00  0.00    -0.544 OA
ATOM     10  O   UNL     1     125.205 139.257 120.949  1.00  0.00    -0.544 OA
ENDBRANCH   3   8
ENDBRANCH   1   3
BRANCH   1  11
ATOM     11  C   UNL     1     124.597 143.344 122.765  1.00  0.00     0.006 C 
ATOM     12  C   UNL     1     123.236 143.504 122.086  1.00  0.00     0.004 C 
ENDBRANCH   1  11
TORSDOF 4
ENDMDL
MODEL 8
REMARK VINA RESULT:    -3.584      2.058      3.098
REMARK INTER + INTRA:          -4.361
REMARK INTER:                  -4.318
REMARK INTRA:                  -0.043
REMARK UNBOUND:                -0.043
REMARK SMILES CC[C@@H](C)[C@H]([NH3+])C(=O)[O-]
REMARK SMILES IDX 3 1 4 2 5 3 6 4 7 8 8 9 9 10 2 11 1 12
REMARK H PARENT 6 5 6 6 6 7
REMARK Flexibility Score: inf
ROOT
ATOM      1  C   UNL     1     142.055 129.220 122.328  1.00  0.00     0.050 C 
ATOM      2  C   UNL     1     142.934 130.028 121.357  1.00  0.00     0.014 C 
ENDROOT
BRANCH   1   3
ATOM      3  C   UNL     1     141.715 130.012 123.634  1.00  0.00     0.230 C 
BRANCH   3   4
ATOM      4  N   UNL     1     142.495 129.524 124.781  1.00  0.00    -0.350 N 
ATOM      5  H   UNL     1     142.266 130.093 125.628  1.00  0.00     0.345 HD
ATOM      6  H   UNL     1     143.518 129.628 124.588  1.00  0.00     0.345 HD
ATOM      7  H   UNL     1     142.284 128.520 124.982  1.00  0.00     0.345 HD
ENDBRANCH   3   4
BRANCH   3   8
ATOM      8  C   UNL     1     140.239 130.068 123.965  1.00  0.00     0.099 C 
ATOM      9  O   UNL     1     139.513 130.963 123.458  1.00  0.00    -0.544 OA
ATOM     10  O   UNL     1     139.675 129.173 124.868  1.00  0.00    -0.544 OA
ENDBRANCH   3   8
ENDBRANCH   1   3
BRANCH   1  11
ATOM     11  C   UNL     1     140.861 128.544 121.604  1.00  0.00     0.006 C 
ATOM     12  C   UNL     1     140.909 128.578 120.076  1.00  0.00     0.004 C 
ENDBRANCH   1  11
TORSDOF 4
ENDMDL
MODEL 9
REMARK VINA RESULT:    -3.583      2.103      2.648
REMARK INTER + INTRA:          -4.359
REMARK INTER:                  -4.295
REMARK INTRA:                  -0.064
REMARK UNBOUND:                -0.043
REMARK SMILES CC[C@@H](C)[C@H]([NH3+])C(=O)[O-]
REMARK SMILES IDX 3 1 4 2 5 3 6 4 7 8 8 9 9 10 2 11 1 12
REMARK H PARENT 6 5 6 6 6 7
REMARK Flexibility Score: inf
ROOT
ATOM      1  C   UNL     1     139.677 128.197 123.264  1.00  0.00     0.050 C 
ATOM      2  C   UNL     1     139.301 127.207 122.148  1.00  0.00     0.014 C 
ENDROOT
BRANCH   1   3
ATOM      3  C   UNL     1     139.232 127.707 124.681  1.00  0.00     0.230 C 
BRANCH   3   4
ATOM      4  N   UNL     1     138.126 126.743 124.597  1.00  0.00    -0.350 N 
ATOM      5  H   UNL     1     137.353 127.145 124.018  1.00  0.00     0.345 HD
ATOM      6  H   UNL     1     137.747 126.549 125.553  1.00  0.00     0.345 HD
ATOM      7  H   UNL     1     138.439 125.845 124.162  1.00  0.00     0.345 HD
ENDBRANCH   3   4
BRANCH   3   8
ATOM      8  C   UNL     1     138.910 128.820 125.655  1.00  0.00     0.099 C 
ATOM      9  O   UNL     1     138.994 128.616 126.895  1.00  0.00    -0.544 OA
ATOM     10  O   UNL     1     138.469 130.059 125.204  1.00  0.00    -0.544 OA
ENDBRANCH   3   8
ENDBRANCH   1   3
BRANCH   1  11
ATOM     11  C   UNL     1     141.145 128.685 123.134  1.00  0.00     0.006 C 
ATOM     12  C   UNL     1     141.739 128.629 121.726  1.00  0.00     0.004 C 
ENDBRANCH   1  11
TORSDOF 4
ENDMDL
