MODEL 1
REMARK VINA RESULT:    -3.982      0.000      0.000
REMARK INTER + INTRA:          -4.184
REMARK INTER:                  -4.332
REMARK INTRA:                   0.148
REMARK UNBOUND:                 0.148
REMARK SMILES Cc1ccc(C(C)C)c(O)c1
REMARK SMILES IDX 1 1 2 2 11 3 9 4 5 5 4 6 3 7 10 8 6 10 7 11 8 12
REMARK H PARENT 10 9
REMARK Flexibility Score: inf
ROOT
ATOM      1  C   UNL     1     -29.798 -21.300 -31.787  1.00  0.00     0.044 C 
ATOM      2  C   UNL     1     -30.802 -21.308 -32.901  1.00  0.00    -0.047 A 
ATOM      3  C   UNL     1     -31.178 -22.514 -33.504  1.00  0.00     0.049 A 
ATOM      4  C   UNL     1     -32.149 -22.544 -34.512  1.00  0.00     0.119 A 
ATOM      5  C   UNL     1     -32.734 -21.332 -34.968  1.00  0.00    -0.004 A 
ATOM      6  C   UNL     1     -32.394 -20.134 -34.303  1.00  0.00     0.008 A 
ATOM      7  C   UNL     1     -31.438 -20.123 -33.287  1.00  0.00     0.004 A 
ENDROOT
BRANCH   4   8
ATOM      8  O   UNL     1     -32.513 -23.796 -35.013  1.00  0.00    -0.508 OA
ATOM      9  H   UNL     1     -32.021 -24.655 -34.807  1.00  0.00     0.293 HD
ENDBRANCH   4   8
BRANCH   5  10
ATOM     10  C   UNL     1     -33.765 -21.317 -36.093  1.00  0.00     0.017 C 
ATOM     11  C   UNL     1     -34.124 -19.875 -36.465  1.00  0.00     0.012 C 
ATOM     12  C   UNL     1     -33.320 -22.103 -37.338  1.00  0.00     0.012 C 
ENDBRANCH   5  10
TORSDOF 2
ENDMDL
MODEL 2
REMARK VINA RESULT:    -3.977      1.956      4.026
REMARK INTER + INTRA:          -4.178
REMARK INTER:                  -4.305
REMARK INTRA:                   0.127
REMARK UNBOUND:                 0.148
REMARK SMILES Cc1ccc(C(C)C)c(O)c1
REMARK SMILES IDX 1 1 2 2 11 3 9 4 5 5 4 6 3 7 10 8 6 10 7 11 8 12
REMARK H PARENT 10 9
REMARK Flexibility Score: inf
ROOT
ATOM      1  C   UNL     1     -31.143 -25.552 -38.344  1.00  0.00     0.044 C 
ATOM      2  C   UNL     1     -31.810 -24.386 -37.677  1.00  0.00    -0.047 A 
ATOM      3  C   UNL     1     -32.015 -24.388 -36.293  1.00  0.00     0.049 A 
ATOM      4  C   UNL     1     -32.593 -23.287 -35.648  1.00  0.00     0.119 A 
ATOM      5  C   UNL     1     -33.021 -22.166 -36.409  1.00  0.00    -0.004 A 
ATOM      6  C   UNL     1     -32.743 -22.152 -37.792  1.00  0.00     0.008 A 
ATOM      7  C   UNL     1     -32.150 -23.250 -38.418  1.00  0.00     0.004 A 
ENDROOT
BRANCH   4   8
ATOM      8  O   UNL     1     -32.702 -23.345 -34.257  1.00  0.00    -0.508 OA
ATOM      9  H   UNL     1     -31.994 -23.734 -33.648  1.00  0.00     0.293 HD
ENDBRANCH   4   8
BRANCH   5  10
ATOM     10  C   UNL     1     -33.693 -20.964 -35.750  1.00  0.00     0.017 C 
ATOM     11  C   UNL     1     -32.778 -20.369 -34.675  1.00  0.00     0.012 C 
ATOM     12  C   UNL     1     -34.125 -19.882 -36.754  1.00  0.00     0.012 C 
ENDBRANCH   5  10
TORSDOF 2
ENDMDL
MODEL 3
REMARK VINA RESULT:    -3.821      1.667      2.526
REMARK INTER + INTRA:          -4.009
REMARK INTER:                  -3.817
REMARK INTRA:                  -0.192
REMARK UNBOUND:                 0.148
REMARK SMILES Cc1ccc(C(C)C)c(O)c1
REMARK SMILES IDX 1 1 2 2 11 3 9 4 5 5 4 6 3 7 10 8 6 10 7 11 8 12
REMARK H PARENT 10 9
REMARK Flexibility Score: inf
ROOT
ATOM      1  C   UNL     1     -28.349 -19.876 -30.691  1.00  0.00     0.044 C 
ATOM      2  C   UNL     1     -29.301 -20.553 -31.631  1.00  0.00    -0.047 A 
ATOM      3  C   UNL     1     -29.786 -21.834 -31.344  1.00  0.00     0.049 A 
ATOM      4  C   UNL     1     -30.712 -22.460 -32.187  1.00  0.00     0.119 A 
ATOM      5  C   UNL     1     -31.138 -21.811 -33.377  1.00  0.00    -0.004 A 
ATOM      6  C   UNL     1     -30.694 -20.493 -33.615  1.00  0.00     0.008 A 
ATOM      7  C   UNL     1     -29.784 -19.875 -32.755  1.00  0.00     0.004 A 
ENDROOT
BRANCH   4   8
ATOM      8  O   UNL     1     -31.194 -23.711 -31.792  1.00  0.00    -0.508 OA
ATOM      9  H   UNL     1     -32.140 -23.882 -31.480  1.00  0.00     0.293 HD
ENDBRANCH   4   8
BRANCH   5  10
ATOM     10  C   UNL     1     -32.115 -22.476 -34.344  1.00  0.00     0.017 C 
ATOM     11  C   UNL     1     -32.989 -21.419 -35.024  1.00  0.00     0.012 C 
ATOM     12  C   UNL     1     -31.424 -23.365 -35.392  1.00  0.00     0.012 C 
ENDBRANCH   5  10
TORSDOF 2
ENDMDL
MODEL 4
REMARK VINA RESULT:    -3.813      2.552      4.242
REMARK INTER + INTRA:          -4.000
REMARK INTER:                  -3.818
REMARK INTRA:                  -0.182
REMARK UNBOUND:                 0.148
REMARK SMILES Cc1ccc(C(C)C)c(O)c1
REMARK SMILES IDX 1 1 2 2 11 3 9 4 5 5 4 6 3 7 10 8 6 10 7 11 8 12
REMARK H PARENT 10 9
REMARK Flexibility Score: inf
ROOT
ATOM      1  C   UNL     1     -33.525 -20.169 -34.788  1.00  0.00     0.044 C 
ATOM      2  C   UNL     1     -33.202 -21.394 -35.593  1.00  0.00    -0.047 A 
ATOM      3  C   UNL     1     -33.505 -21.441 -36.959  1.00  0.00     0.049 A 
ATOM      4  C   UNL     1     -33.167 -22.557 -37.734  1.00  0.00     0.119 A 
ATOM      5  C   UNL     1     -32.548 -23.681 -37.124  1.00  0.00    -0.004 A 
ATOM      6  C   UNL     1     -32.187 -23.589 -35.763  1.00  0.00     0.008 A 
ATOM      7  C   UNL     1     -32.515 -22.462 -35.007  1.00  0.00     0.004 A 
ENDROOT
BRANCH   4   8
ATOM      8  O   UNL     1     -33.446 -22.494 -39.101  1.00  0.00    -0.508 OA
ATOM      9  H   UNL     1     -34.358 -22.665 -39.502  1.00  0.00     0.293 HD
ENDBRANCH   4   8
BRANCH   5  10
ATOM     10  C   UNL     1     -32.201 -24.933 -37.925  1.00  0.00     0.017 C 
ATOM     11  C   UNL     1     -30.689 -25.177 -37.899  1.00  0.00     0.012 C 
ATOM     12  C   UNL     1     -32.960 -26.186 -37.457  1.00  0.00     0.012 C 
ENDBRANCH   5  10
TORSDOF 2
ENDMDL
MODEL 5
REMARK VINA RESULT:    -3.700      2.387      3.746
REMARK INTER + INTRA:          -3.877
REMARK INTER:                  -3.695
REMARK INTRA:                  -0.182
REMARK UNBOUND:                 0.148
REMARK SMILES Cc1ccc(C(C)C)c(O)c1
REMARK SMILES IDX 1 1 2 2 11 3 9 4 5 5 4 6 3 7 10 8 6 10 7 11 8 12
REMARK H PARENT 10 9
REMARK Flexibility Score: inf
ROOT
ATOM      1  C   UNL     1     -28.177 -19.877 -29.368  1.00  0.00     0.044 C 
ATOM      2  C   UNL     1     -28.990 -20.164 -30.596  1.00  0.00    -0.047 A 
ATOM      3  C   UNL     1     -28.450 -19.940 -31.868  1.00  0.00     0.049 A 
ATOM      4  C   UNL     1     -29.177 -20.248 -33.024  1.00  0.00     0.119 A 
ATOM      5  C   UNL     1     -30.501 -20.754 -32.914  1.00  0.00    -0.004 A 
ATOM      6  C   UNL     1     -31.002 -21.038 -31.626  1.00  0.00     0.008 A 
ATOM      7  C   UNL     1     -30.258 -20.743 -30.483  1.00  0.00     0.004 A 
ENDROOT
BRANCH   4   8
ATOM      8  O   UNL     1     -28.540 -20.055 -34.252  1.00  0.00    -0.508 OA
ATOM      9  H   UNL     1     -29.022 -19.849 -35.116  1.00  0.00     0.293 HD
ENDBRANCH   4   8
BRANCH   5  10
ATOM     10  C   UNL     1     -31.343 -21.063 -34.149  1.00  0.00     0.017 C 
ATOM     11  C   UNL     1     -31.743 -22.541 -34.161  1.00  0.00     0.012 C 
ATOM     12  C   UNL     1     -32.583 -20.164 -34.282  1.00  0.00     0.012 C 
ENDBRANCH   5  10
TORSDOF 2
ENDMDL
MODEL 6
REMARK VINA RESULT:    -3.661      3.149      5.295
REMARK INTER + INTRA:          -3.835
REMARK INTER:                  -3.649
REMARK INTRA:                  -0.185
REMARK UNBOUND:                 0.148
REMARK SMILES Cc1ccc(C(C)C)c(O)c1
REMARK SMILES IDX 1 1 2 2 11 3 9 4 5 5 4 6 3 7 10 8 6 10 7 11 8 12
REMARK H PARENT 10 9
REMARK Flexibility Score: inf
ROOT
ATOM      1  C   UNL     1     -32.154 -27.144 -39.125  1.00  0.00     0.044 C 
ATOM      2  C   UNL     1     -32.162 -25.900 -38.286  1.00  0.00    -0.047 A 
ATOM      3  C   UNL     1     -31.463 -24.763 -38.705  1.00  0.00     0.049 A 
ATOM      4  C   UNL     1     -31.499 -23.579 -37.958  1.00  0.00     0.119 A 
ATOM      5  C   UNL     1     -32.217 -23.537 -36.732  1.00  0.00    -0.004 A 
ATOM      6  C   UNL     1     -32.972 -24.670 -36.361  1.00  0.00     0.008 A 
ATOM      7  C   UNL     1     -32.940 -25.837 -37.126  1.00  0.00     0.004 A 
ENDROOT
BRANCH   4   8
ATOM      8  O   UNL     1     -30.827 -22.471 -38.481  1.00  0.00    -0.508 OA
ATOM      9  H   UNL     1     -31.239 -21.553 -38.582  1.00  0.00     0.293 HD
ENDBRANCH   4   8
BRANCH   5  10
ATOM     10  C   UNL     1     -32.248 -22.279 -35.868  1.00  0.00     0.017 C 
ATOM     11  C   UNL     1     -33.618 -21.603 -35.965  1.00  0.00     0.012 C 
ATOM     12  C   UNL     1     -31.874 -22.540 -34.399  1.00  0.00     0.012 C 
ENDBRANCH   5  10
TORSDOF 2
ENDMDL
MODEL 7
REMARK VINA RESULT:    -3.601      1.629      2.482
REMARK INTER + INTRA:          -3.769
REMARK INTER:                  -3.721
REMARK INTRA:                  -0.048
REMARK UNBOUND:                 0.148
REMARK SMILES Cc1ccc(C(C)C)c(O)c1
REMARK SMILES IDX 1 1 2 2 11 3 9 4 5 5 4 6 3 7 10 8 6 10 7 11 8 12
REMARK H PARENT 10 9
REMARK Flexibility Score: inf
ROOT
ATOM      1  C   UNL     1     -31.095 -20.067 -32.249  1.00  0.00     0.044 C 
ATOM      2  C   UNL     1     -31.673 -20.829 -33.405  1.00  0.00    -0.047 A 
ATOM      3  C   UNL     1     -32.625 -20.230 -34.239  1.00  0.00     0.049 A 
ATOM      4  C   UNL     1     -33.140 -20.910 -35.350  1.00  0.00     0.119 A 
ATOM      5  C   UNL     1     -32.728 -22.244 -35.616  1.00  0.00    -0.004 A 
ATOM      6  C   UNL     1     -31.718 -22.806 -34.806  1.00  0.00     0.008 A 
ATOM      7  C   UNL     1     -31.202 -22.109 -33.713  1.00  0.00     0.004 A 
ENDROOT
BRANCH   4   8
ATOM      8  O   UNL     1     -34.035 -20.216 -36.166  1.00  0.00    -0.508 OA
ATOM      9  H   UNL     1     -34.569 -19.411 -35.867  1.00  0.00     0.293 HD
ENDBRANCH   4   8
BRANCH   5  10
ATOM     10  C   UNL     1     -33.296 -23.035 -36.792  1.00  0.00     0.017 C 
ATOM     11  C   UNL     1     -32.799 -22.446 -38.115  1.00  0.00     0.012 C 
ATOM     12  C   UNL     1     -32.990 -24.540 -36.719  1.00  0.00     0.012 C 
ENDBRANCH   5  10
TORSDOF 2
ENDMDL
MODEL 8
REMARK VINA RESULT:    -3.421      2.203      4.739
REMARK INTER + INTRA:          -3.574
REMARK INTER:                  -3.761
REMARK INTRA:                   0.187
REMARK UNBOUND:                 0.148
REMARK SMILES Cc1ccc(C(C)C)c(O)c1
REMARK SMILES IDX 1 1 2 2 11 3 9 4 5 5 4 6 3 7 10 8 6 10 7 11 8 12
REMARK H PARENT 10 9
REMARK Flexibility Score: inf
ROOT
ATOM      1  C   UNL     1     -32.068 -22.860 -35.394  1.00  0.00     0.044 C 
ATOM      2  C   UNL     1     -31.692 -22.103 -34.154  1.00  0.00    -0.047 A 
ATOM      3  C   UNL     1     -31.103 -22.768 -33.073  1.00  0.00     0.049 A 
ATOM      4  C   UNL     1     -30.703 -22.068 -31.927  1.00  0.00     0.119 A 
ATOM      5  C   UNL     1     -30.936 -20.669 -31.835  1.00  0.00    -0.004 A 
ATOM      6  C   UNL     1     -31.467 -20.005 -32.961  1.00  0.00     0.008 A 
ATOM      7  C   UNL     1     -31.844 -20.714 -34.102  1.00  0.00     0.004 A 
ENDROOT
BRANCH   4   8
ATOM      8  O   UNL     1     -30.064 -22.798 -30.922  1.00  0.00    -0.508 OA
ATOM      9  H   UNL     1     -29.078 -22.728 -30.711  1.00  0.00     0.293 HD
ENDBRANCH   4   8
BRANCH   5  10
ATOM     10  C   UNL     1     -30.553 -19.877 -30.587  1.00  0.00     0.017 C 
ATOM     11  C   UNL     1     -31.433 -20.293 -29.405  1.00  0.00     0.012 C 
ATOM     12  C   UNL     1     -29.064 -19.997 -30.224  1.00  0.00     0.012 C 
ENDBRANCH   5  10
TORSDOF 2
ENDMDL
MODEL 9
REMARK VINA RESULT:    -3.037      2.551      4.162
REMARK INTER + INTRA:          -3.155
REMARK INTER:                  -3.686
REMARK INTRA:                   0.531
REMARK UNBOUND:                 0.148
REMARK SMILES Cc1ccc(C(C)C)c(O)c1
REMARK SMILES IDX 1 1 2 2 11 3 9 4 5 5 4 6 3 7 10 8 6 10 7 11 8 12
REMARK H PARENT 10 9
REMARK Flexibility Score: inf
ROOT
ATOM      1  C   UNL     1     -30.785 -25.568 -37.850  1.00  0.00     0.044 C 
ATOM      2  C   UNL     1     -31.572 -24.366 -37.418  1.00  0.00    -0.047 A 
ATOM      3  C   UNL     1     -32.354 -23.665 -38.343  1.00  0.00     0.049 A 
ATOM      4  C   UNL     1     -33.132 -22.570 -37.946  1.00  0.00     0.119 A 
ATOM      5  C   UNL     1     -33.098 -22.130 -36.595  1.00  0.00    -0.004 A 
ATOM      6  C   UNL     1     -32.359 -22.890 -35.663  1.00  0.00     0.008 A 
ATOM      7  C   UNL     1     -31.603 -23.990 -36.071  1.00  0.00     0.004 A 
ENDROOT
BRANCH   4   8
ATOM      8  O   UNL     1     -33.934 -21.968 -38.919  1.00  0.00    -0.508 OA
ATOM      9  H   UNL     1     -34.192 -22.408 -39.792  1.00  0.00     0.293 HD
ENDBRANCH   4   8
BRANCH   5  10
ATOM     10  C   UNL     1     -33.899 -20.916 -36.131  1.00  0.00     0.017 C 
ATOM     11  C   UNL     1     -33.227 -20.272 -34.914  1.00  0.00     0.012 C 
ATOM     12  C   UNL     1     -34.125 -19.875 -37.240  1.00  0.00     0.012 C 
ENDBRANCH   5  10
TORSDOF 2
ENDMDL
