MODEL 1
REMARK VINA RESULT:    -3.913      0.000      0.000
REMARK INTER + INTRA:          -4.914
REMARK INTER:                  -4.371
REMARK INTRA:                  -0.543
REMARK UNBOUND:                -0.543
REMARK SMILES CC=C(C)C=CC=C(C)C
REMARK SMILES IDX 5 1 6 2 3 3 1 4 2 5 4 6 7 7 8 8 9 9 10 10
REMARK H PARENT
REMARK Flexibility Score: inf
ROOT
ATOM      1  C   UNL     1       1.460  15.799  17.491  1.00  0.00     0.003 C 
ATOM      2  C   UNL     1       1.863  14.521  17.498  1.00  0.00     0.000 C 
ENDROOT
BRANCH   1   3
ATOM      3  C   UNL     1       0.512  16.382  16.514  1.00  0.00    -0.055 C 
ATOM      4  C   UNL     1       0.157  17.690  14.408  1.00  0.00     0.036 C 
ATOM      5  C   UNL     1       1.009  17.085  15.482  1.00  0.00    -0.027 C 
ATOM      6  C   UNL     1      -0.964  16.085  16.623  1.00  0.00     0.044 C 
ENDBRANCH   1   3
BRANCH   2   7
ATOM      7  C   UNL     1       1.304  13.474  16.609  1.00  0.00    -0.001 C 
ATOM      8  C   UNL     1       1.822  13.165  15.405  1.00  0.00    -0.076 C 
ATOM      9  C   UNL     1       3.018  13.890  14.840  1.00  0.00     0.039 C 
ATOM     10  C   UNL     1       1.171  12.072  14.602  1.00  0.00     0.039 C 
ENDBRANCH   2   7
TORSDOF 2
ENDMDL
MODEL 2
REMARK VINA RESULT:    -3.894      1.334      2.144
REMARK INTER + INTRA:          -4.892
REMARK INTER:                  -4.339
REMARK INTRA:                  -0.553
REMARK UNBOUND:                -0.543
REMARK SMILES CC=C(C)C=CC=C(C)C
REMARK SMILES IDX 5 1 6 2 3 3 1 4 2 5 4 6 7 7 8 8 9 9 10 10
REMARK H PARENT
REMARK Flexibility Score: inf
ROOT
ATOM      1  C   UNL     1       0.797  15.189  17.242  1.00  0.00     0.003 C 
ATOM      2  C   UNL     1       1.486  14.103  16.865  1.00  0.00     0.000 C 
ENDROOT
BRANCH   1   3
ATOM      3  C   UNL     1       1.129  16.579  16.855  1.00  0.00    -0.055 C 
ATOM      4  C   UNL     1       2.424  18.670  17.323  1.00  0.00     0.036 C 
ATOM      5  C   UNL     1       1.981  17.272  17.630  1.00  0.00    -0.027 C 
ATOM      6  C   UNL     1       0.608  17.147  15.558  1.00  0.00     0.044 C 
ENDBRANCH   1   3
BRANCH   2   7
ATOM      7  C   UNL     1       2.601  14.132  15.888  1.00  0.00    -0.001 C 
ATOM      8  C   UNL     1       2.465  13.798  14.591  1.00  0.00    -0.076 C 
ATOM      9  C   UNL     1       1.148  13.332  14.021  1.00  0.00     0.039 C 
ATOM     10  C   UNL     1       3.671  13.882  13.696  1.00  0.00     0.039 C 
ENDBRANCH   2   7
TORSDOF 2
ENDMDL
MODEL 3
REMARK VINA RESULT:    -3.869      0.887      4.018
REMARK INTER + INTRA:          -4.865
REMARK INTER:                  -4.353
REMARK INTRA:                  -0.512
REMARK UNBOUND:                -0.543
REMARK SMILES CC=C(C)C=CC=C(C)C
REMARK SMILES IDX 5 1 6 2 3 3 1 4 2 5 4 6 7 7 8 8 9 9 10 10
REMARK H PARENT
REMARK Flexibility Score: inf
ROOT
ATOM      1  C   UNL     1       1.208  13.184  16.614  1.00  0.00     0.003 C 
ATOM      2  C   UNL     1       0.377  14.152  17.025  1.00  0.00     0.000 C 
ENDROOT
BRANCH   1   3
ATOM      3  C   UNL     1       1.835  13.120  15.274  1.00  0.00    -0.055 C 
ATOM      4  C   UNL     1       3.682  13.848  13.748  1.00  0.00     0.036 C 
ATOM      5  C   UNL     1       2.936  13.857  15.048  1.00  0.00    -0.027 C 
ATOM      6  C   UNL     1       1.307  12.158  14.237  1.00  0.00     0.044 C 
ENDBRANCH   1   3
BRANCH   2   7
ATOM      7  C   UNL     1       0.080  15.373  16.239  1.00  0.00    -0.001 C 
ATOM      8  C   UNL     1       0.709  16.550  16.422  1.00  0.00    -0.076 C 
ATOM      9  C   UNL     1       1.766  16.732  17.482  1.00  0.00     0.039 C 
ATOM     10  C   UNL     1       0.326  17.713  15.549  1.00  0.00     0.039 C 
ENDBRANCH   2   7
TORSDOF 2
ENDMDL
MODEL 4
REMARK VINA RESULT:    -3.844      0.856      1.415
REMARK INTER + INTRA:          -4.837
REMARK INTER:                  -4.270
REMARK INTRA:                  -0.567
REMARK UNBOUND:                -0.543
REMARK SMILES CC=C(C)C=CC=C(C)C
REMARK SMILES IDX 5 1 6 2 3 3 1 4 2 5 4 6 7 7 8 8 9 9 10 10
REMARK H PARENT
REMARK Flexibility Score: inf
ROOT
ATOM      1  C   UNL     1       1.112  16.283  17.267  1.00  0.00     0.003 C 
ATOM      2  C   UNL     1       1.847  15.163  17.299  1.00  0.00     0.000 C 
ENDROOT
BRANCH   1   3
ATOM      3  C   UNL     1       0.372  16.777  16.083  1.00  0.00    -0.055 C 
ATOM      4  C   UNL     1       0.391  18.097  13.956  1.00  0.00     0.036 C 
ATOM      5  C   UNL     1       1.018  17.567  15.210  1.00  0.00    -0.027 C 
ATOM      6  C   UNL     1      -1.035  16.300  15.819  1.00  0.00     0.044 C 
ENDBRANCH   1   3
BRANCH   2   7
ATOM      7  C   UNL     1       1.906  14.184  16.187  1.00  0.00    -0.001 C 
ATOM      8  C   UNL     1       1.119  13.094  16.111  1.00  0.00    -0.076 C 
ATOM      9  C   UNL     1       0.115  12.758  17.184  1.00  0.00     0.039 C 
ATOM     10  C   UNL     1       1.267  12.183  14.923  1.00  0.00     0.039 C 
ENDBRANCH   2   7
TORSDOF 2
ENDMDL
MODEL 5
REMARK VINA RESULT:    -3.833      0.782      4.124
REMARK INTER + INTRA:          -4.825
REMARK INTER:                  -4.270
REMARK INTRA:                  -0.554
REMARK UNBOUND:                -0.543
REMARK SMILES CC=C(C)C=CC=C(C)C
REMARK SMILES IDX 5 1 6 2 3 3 1 4 2 5 4 6 7 7 8 8 9 9 10 10
REMARK H PARENT
REMARK Flexibility Score: inf
ROOT
ATOM      1  C   UNL     1       1.787  14.500  17.230  1.00  0.00     0.003 C 
ATOM      2  C   UNL     1       0.889  15.458  17.498  1.00  0.00     0.000 C 
ENDROOT
BRANCH   1   3
ATOM      3  C   UNL     1       1.884  13.766  15.947  1.00  0.00    -0.055 C 
ATOM      4  C   UNL     1       1.086  11.882  14.504  1.00  0.00     0.036 C 
ATOM      5  C   UNL     1       1.107  12.684  15.770  1.00  0.00    -0.027 C 
ATOM      6  C   UNL     1       2.753  14.300  14.835  1.00  0.00     0.044 C 
ENDBRANCH   1   3
BRANCH   2   7
ATOM      7  C   UNL     1      -0.046  16.017  16.492  1.00  0.00    -0.001 C 
ATOM      8  C   UNL     1       0.178  17.163  15.822  1.00  0.00    -0.076 C 
ATOM      9  C   UNL     1       1.406  18.004  16.066  1.00  0.00     0.039 C 
ATOM     10  C   UNL     1      -0.843  17.618  14.815  1.00  0.00     0.039 C 
ENDBRANCH   2   7
TORSDOF 2
ENDMDL
MODEL 6
REMARK VINA RESULT:    -3.805      1.278      3.982
REMARK INTER + INTRA:          -4.794
REMARK INTER:                  -4.243
REMARK INTRA:                  -0.550
REMARK UNBOUND:                -0.543
REMARK SMILES CC=C(C)C=CC=C(C)C
REMARK SMILES IDX 5 1 6 2 3 3 1 4 2 5 4 6 7 7 8 8 9 9 10 10
REMARK H PARENT
REMARK Flexibility Score: inf
ROOT
ATOM      1  C   UNL     1       1.703  16.892  16.906  1.00  0.00     0.003 C 
ATOM      2  C   UNL     1       1.202  17.948  16.250  1.00  0.00     0.000 C 
ENDROOT
BRANCH   1   3
ATOM      3  C   UNL     1       1.167  15.514  16.825  1.00  0.00    -0.055 C 
ATOM      4  C   UNL     1       1.395  13.187  15.928  1.00  0.00     0.036 C 
ATOM      5  C   UNL     1       1.816  14.620  16.060  1.00  0.00    -0.027 C 
ATOM      6  C   UNL     1      -0.010  15.109  17.679  1.00  0.00     0.044 C 
ENDBRANCH   1   3
BRANCH   2   7
ATOM      7  C   UNL     1       0.123  17.854  15.237  1.00  0.00    -0.001 C 
ATOM      8  C   UNL     1       0.345  17.841  13.910  1.00  0.00    -0.076 C 
ATOM      9  C   UNL     1       1.733  17.953  13.332  1.00  0.00     0.039 C 
ATOM     10  C   UNL     1      -0.836  17.728  12.984  1.00  0.00     0.039 C 
ENDBRANCH   2   7
TORSDOF 2
ENDMDL
MODEL 7
REMARK VINA RESULT:    -3.756      1.270      4.205
REMARK INTER + INTRA:          -4.739
REMARK INTER:                  -4.133
REMARK INTRA:                  -0.606
REMARK UNBOUND:                -0.543
REMARK SMILES CC=C(C)C=CC=C(C)C
REMARK SMILES IDX 5 1 6 2 3 3 1 4 2 5 4 6 7 7 8 8 9 9 10 10
REMARK H PARENT
REMARK Flexibility Score: inf
ROOT
ATOM      1  C   UNL     1       2.253  13.677  15.372  1.00  0.00     0.003 C 
ATOM      2  C   UNL     1       2.272  14.934  14.908  1.00  0.00     0.000 C 
ENDROOT
BRANCH   1   3
ATOM      3  C   UNL     1       1.072  13.014  15.971  1.00  0.00    -0.055 C 
ATOM      4  C   UNL     1      -0.288  12.524  18.016  1.00  0.00     0.036 C 
ATOM      5  C   UNL     1       0.887  13.117  17.298  1.00  0.00    -0.027 C 
ATOM      6  C   UNL     1       0.051  12.343  15.086  1.00  0.00     0.044 C 
ENDBRANCH   1   3
BRANCH   2   7
ATOM      7  C   UNL     1       1.068  15.793  14.804  1.00  0.00    -0.001 C 
ATOM      8  C   UNL     1       0.715  16.700  15.735  1.00  0.00    -0.076 C 
ATOM      9  C   UNL     1       1.515  16.899  16.997  1.00  0.00     0.039 C 
ATOM     10  C   UNL     1      -0.524  17.521  15.505  1.00  0.00     0.039 C 
ENDBRANCH   2   7
TORSDOF 2
ENDMDL
MODEL 8
REMARK VINA RESULT:    -3.731      2.152      3.256
REMARK INTER + INTRA:          -4.710
REMARK INTER:                  -4.417
REMARK INTRA:                  -0.293
REMARK UNBOUND:                -0.543
REMARK SMILES CC=C(C)C=CC=C(C)C
REMARK SMILES IDX 5 1 6 2 3 3 1 4 2 5 4 6 7 7 8 8 9 9 10 10
REMARK H PARENT
REMARK Flexibility Score: inf
ROOT
ATOM      1  C   UNL     1       1.637  14.409  17.333  1.00  0.00     0.003 C 
ATOM      2  C   UNL     1       2.060  13.834  16.198  1.00  0.00     0.000 C 
ENDROOT
BRANCH   1   3
ATOM      3  C   UNL     1       0.373  14.076  18.030  1.00  0.00    -0.055 C 
ATOM      4  C   UNL     1      -0.833  12.634  19.684  1.00  0.00     0.036 C 
ATOM      5  C   UNL     1       0.371  13.045  18.891  1.00  0.00    -0.027 C 
ATOM      6  C   UNL     1      -0.841  14.955  17.854  1.00  0.00     0.044 C 
ENDBRANCH   1   3
BRANCH   2   7
ATOM      7  C   UNL     1       1.385  12.681  15.556  1.00  0.00    -0.001 C 
ATOM      8  C   UNL     1       1.560  12.338  14.266  1.00  0.00    -0.076 C 
ATOM      9  C   UNL     1       2.451  13.132  13.343  1.00  0.00     0.039 C 
ATOM     10  C   UNL     1       0.827  11.136  13.735  1.00  0.00     0.039 C 
ENDBRANCH   2   7
TORSDOF 2
ENDMDL
