MODEL 1
REMARK VINA RESULT:    -7.194      0.000      0.000
REMARK INTER + INTRA:          -9.616
REMARK INTER:                  -9.086
REMARK INTRA:                  -0.530
REMARK UNBOUND:                -0.530
REMARK SMILES CC(C)=CCCC(C)=CCO
REMARK SMILES IDX 7 1 9 2 8 3 6 4 5 5 4 6 1 7 2 8 3 9 10 10 11 11
REMARK H PARENT 11 12
REMARK Flexibility Score: inf
ROOT
ATOM      1  C   UNL     1      -8.824  -9.044  -7.736  1.00  0.00    -0.075 C 
ATOM      2  C   UNL     1      -9.351  -8.519  -8.864  1.00  0.00    -0.000 C 
ATOM      3  C   UNL     1      -7.597  -9.925  -7.772  1.00  0.00     0.039 C 
ENDROOT
BRANCH   1   4
ATOM      4  C   UNL     1      -9.486  -8.753  -6.407  1.00  0.00     0.034 C 
BRANCH   4   5
ATOM      5  C   UNL     1     -10.549  -9.808  -6.086  1.00  0.00     0.032 C 
BRANCH   5   6
ATOM      6  C   UNL     1     -11.906  -9.169  -5.923  1.00  0.00    -0.028 C 
ATOM      7  C   UNL     1     -14.178  -8.489  -6.567  1.00  0.00     0.039 C 
ATOM      8  C   UNL     1     -12.886  -9.211  -6.853  1.00  0.00    -0.080 C 
ATOM      9  C   UNL     1     -12.727  -9.968  -8.150  1.00  0.00     0.039 C 
ENDBRANCH   5   6
ENDBRANCH   4   5
ENDBRANCH   1   4
BRANCH   2  10
ATOM     10  C   UNL     1      -8.784  -8.743 -10.239  1.00  0.00     0.183 C 
BRANCH  10  11
ATOM     11  O   UNL     1      -9.678  -9.503 -11.004  1.00  0.00    -0.392 OA
ATOM     12  H   UNL     1      -9.175 -10.307 -11.295  1.00  0.00     0.210 HD
ENDBRANCH  10  11
ENDBRANCH   2  10
TORSDOF 5
ENDMDL
MODEL 2
REMARK VINA RESULT:    -6.919      2.387      4.518
REMARK INTER + INTRA:          -9.270
REMARK INTER:                  -8.607
REMARK INTRA:                  -0.663
REMARK UNBOUND:                -0.530
REMARK SMILES CC(C)=CCCC(C)=CCO
REMARK SMILES IDX 7 1 9 2 8 3 6 4 5 5 4 6 1 7 2 8 3 9 10 10 11 11
REMARK H PARENT 11 12
REMARK Flexibility Score: inf
ROOT
ATOM      1  C   UNL     1     -11.162  -9.991  -6.583  1.00  0.00    -0.075 C 
ATOM      2  C   UNL     1     -12.343 -10.112  -7.229  1.00  0.00    -0.000 C 
ATOM      3  C   UNL     1     -10.773  -8.710  -5.881  1.00  0.00     0.039 C 
ENDROOT
BRANCH   1   4
ATOM      4  C   UNL     1     -10.202 -11.159  -6.573  1.00  0.00     0.034 C 
BRANCH   4   5
ATOM      5  C   UNL     1      -8.926 -10.823  -7.352  1.00  0.00     0.032 C 
BRANCH   5   6
ATOM      6  C   UNL     1      -9.151 -10.966  -8.837  1.00  0.00    -0.028 C 
ATOM      7  C   UNL     1      -9.548 -10.226 -11.146  1.00  0.00     0.039 C 
ATOM      8  C   UNL     1      -9.286  -9.928  -9.693  1.00  0.00    -0.080 C 
ATOM      9  C   UNL     1      -9.165  -8.494  -9.236  1.00  0.00     0.039 C 
ENDBRANCH   5   6
ENDBRANCH   4   5
ENDBRANCH   1   4
BRANCH   2  10
ATOM     10  C   UNL     1     -13.372  -9.019  -7.310  1.00  0.00     0.183 C 
BRANCH  10  11
ATOM     11  O   UNL     1     -14.257  -9.118  -6.229  1.00  0.00    -0.392 OA
ATOM     12  H   UNL     1     -15.150  -8.869  -6.582  1.00  0.00     0.210 HD
ENDBRANCH  10  11
ENDBRANCH   2  10
TORSDOF 5
ENDMDL
MODEL 3
REMARK VINA RESULT:    -6.415      1.774      2.677
REMARK INTER + INTRA:          -8.632
REMARK INTER:                  -8.269
REMARK INTRA:                  -0.364
REMARK UNBOUND:                -0.530
REMARK SMILES CC(C)=CCCC(C)=CCO
REMARK SMILES IDX 7 1 9 2 8 3 6 4 5 5 4 6 1 7 2 8 3 9 10 10 11 11
REMARK H PARENT 11 12
REMARK Flexibility Score: inf
ROOT
ATOM      1  C   UNL     1      -9.671 -10.491  -8.260  1.00  0.00    -0.075 C 
ATOM      2  C   UNL     1     -10.095  -9.719  -9.285  1.00  0.00    -0.000 C 
ATOM      3  C   UNL     1      -8.237 -10.959  -8.163  1.00  0.00     0.039 C 
ENDROOT
BRANCH   1   4
ATOM      4  C   UNL     1     -10.657 -10.907  -7.191  1.00  0.00     0.034 C 
BRANCH   4   5
ATOM      5  C   UNL     1     -10.528 -10.013  -5.953  1.00  0.00     0.032 C 
BRANCH   5   6
ATOM      6  C   UNL     1     -10.738  -8.563  -6.314  1.00  0.00    -0.028 C 
ATOM      7  C   UNL     1     -10.131  -6.206  -6.651  1.00  0.00     0.039 C 
ATOM      8  C   UNL     1      -9.764  -7.625  -6.305  1.00  0.00    -0.080 C 
ATOM      9  C   UNL     1      -8.329  -7.965  -5.977  1.00  0.00     0.039 C 
ENDBRANCH   5   6
ENDBRANCH   4   5
ENDBRANCH   1   4
BRANCH   2  10
ATOM     10  C   UNL     1      -9.208  -9.249 -10.405  1.00  0.00     0.183 C 
BRANCH  10  11
ATOM     11  O   UNL     1      -9.419 -10.040 -11.541  1.00  0.00    -0.392 OA
ATOM     12  H   UNL     1      -9.993 -10.794 -11.248  1.00  0.00     0.210 HD
ENDBRANCH  10  11
ENDBRANCH   2  10
TORSDOF 5
ENDMDL
MODEL 4
REMARK VINA RESULT:    -6.346      1.639      2.419
REMARK INTER + INTRA:          -8.545
REMARK INTER:                  -8.237
REMARK INTRA:                  -0.308
REMARK UNBOUND:                -0.530
REMARK SMILES CC(C)=CCCC(C)=CCO
REMARK SMILES IDX 7 1 9 2 8 3 6 4 5 5 4 6 1 7 2 8 3 9 10 10 11 11
REMARK H PARENT 11 12
REMARK Flexibility Score: inf
ROOT
ATOM      1  C   UNL     1      -9.224  -8.258  -7.338  1.00  0.00    -0.075 C 
ATOM      2  C   UNL     1      -8.167  -8.851  -6.738  1.00  0.00    -0.000 C 
ATOM      3  C   UNL     1      -9.516  -8.463  -8.806  1.00  0.00     0.039 C 
ENDROOT
BRANCH   1   4
ATOM      4  C   UNL     1     -10.126  -7.358  -6.523  1.00  0.00     0.034 C 
BRANCH   4   5
ATOM      5  C   UNL     1     -11.014  -8.182  -5.584  1.00  0.00     0.032 C 
BRANCH   5   6
ATOM      6  C   UNL     1     -11.555  -9.400  -6.290  1.00  0.00    -0.028 C 
ATOM      7  C   UNL     1     -13.222 -10.798  -7.433  1.00  0.00     0.039 C 
ATOM      8  C   UNL     1     -12.808  -9.501  -6.788  1.00  0.00    -0.080 C 
ATOM      9  C   UNL     1     -13.787  -8.352  -6.729  1.00  0.00     0.039 C 
ENDBRANCH   5   6
ENDBRANCH   4   5
ENDBRANCH   1   4
BRANCH   2  10
ATOM     10  C   UNL     1      -7.200  -9.759  -7.446  1.00  0.00     0.183 C 
BRANCH  10  11
ATOM     11  O   UNL     1      -7.607 -11.091  -7.302  1.00  0.00    -0.392 OA
ATOM     12  H   UNL     1      -7.417 -11.532  -8.170  1.00  0.00     0.210 HD
ENDBRANCH  10  11
ENDBRANCH   2  10
TORSDOF 5
ENDMDL
MODEL 5
REMARK VINA RESULT:    -6.283      2.128      4.354
REMARK INTER + INTRA:          -8.466
REMARK INTER:                  -7.784
REMARK INTRA:                  -0.682
REMARK UNBOUND:                -0.530
REMARK SMILES CC(C)=CCCC(C)=CCO
REMARK SMILES IDX 7 1 9 2 8 3 6 4 5 5 4 6 1 7 2 8 3 9 10 10 11 11
REMARK H PARENT 11 12
REMARK Flexibility Score: inf
ROOT
ATOM      1  C   UNL     1     -10.327 -10.042  -6.595  1.00  0.00    -0.075 C 
ATOM      2  C   UNL     1      -9.772  -8.938  -6.049  1.00  0.00    -0.000 C 
ATOM      3  C   UNL     1     -11.799 -10.103  -6.933  1.00  0.00     0.039 C 
ENDROOT
BRANCH   1   4
ATOM      4  C   UNL     1      -9.458 -11.251  -6.862  1.00  0.00     0.034 C 
BRANCH   4   5
ATOM      5  C   UNL     1      -8.382 -10.928  -7.905  1.00  0.00     0.032 C 
BRANCH   5   6
ATOM      6  C   UNL     1      -8.954 -10.986  -9.300  1.00  0.00    -0.028 C 
ATOM      7  C   UNL     1      -9.864 -10.115 -11.409  1.00  0.00     0.039 C 
ATOM      8  C   UNL     1      -9.260  -9.901 -10.046  1.00  0.00    -0.080 C 
ATOM      9  C   UNL     1      -9.000  -8.496  -9.558  1.00  0.00     0.039 C 
ENDBRANCH   5   6
ENDBRANCH   4   5
ENDBRANCH   1   4
BRANCH   2  10
ATOM     10  C   UNL     1     -10.537  -7.681  -5.734  1.00  0.00     0.183 C 
BRANCH  10  11
ATOM     11  O   UNL     1     -10.204  -6.680  -6.654  1.00  0.00    -0.392 OA
ATOM     12  H   UNL     1      -9.394  -7.001  -7.128  1.00  0.00     0.210 HD
ENDBRANCH  10  11
ENDBRANCH   2  10
TORSDOF 5
ENDMDL
MODEL 6
REMARK VINA RESULT:    -6.018      2.487      2.865
REMARK INTER + INTRA:          -8.131
REMARK INTER:                  -7.580
REMARK INTRA:                  -0.552
REMARK UNBOUND:                -0.530
REMARK SMILES CC(C)=CCCC(C)=CCO
REMARK SMILES IDX 7 1 9 2 8 3 6 4 5 5 4 6 1 7 2 8 3 9 10 10 11 11
REMARK H PARENT 11 12
REMARK Flexibility Score: inf
ROOT
ATOM      1  C   UNL     1      -9.710  -7.658  -7.055  1.00  0.00    -0.075 C 
ATOM      2  C   UNL     1     -10.035  -6.426  -6.604  1.00  0.00    -0.000 C 
ATOM      3  C   UNL     1      -9.594  -7.953  -8.533  1.00  0.00     0.039 C 
ENDROOT
BRANCH   1   4
ATOM      4  C   UNL     1      -9.471  -8.770  -6.058  1.00  0.00     0.034 C 
BRANCH   4   5
ATOM      5  C   UNL     1     -10.545  -9.856  -6.185  1.00  0.00     0.032 C 
BRANCH   5   6
ATOM      6  C   UNL     1     -11.919  -9.282  -5.943  1.00  0.00    -0.028 C 
ATOM      7  C   UNL     1     -14.225  -8.632  -6.485  1.00  0.00     0.039 C 
ATOM      8  C   UNL     1     -12.916  -9.279  -6.856  1.00  0.00    -0.080 C 
ATOM      9  C   UNL     1     -12.759  -9.916  -8.216  1.00  0.00     0.039 C 
ENDBRANCH   5   6
ENDBRANCH   4   5
ENDBRANCH   1   4
BRANCH   2  10
ATOM     10  C   UNL     1     -10.300  -5.247  -7.499  1.00  0.00     0.183 C 
BRANCH  10  11
ATOM     11  O   UNL     1      -9.846  -4.073  -6.885  1.00  0.00    -0.392 OA
ATOM     12  H   UNL     1      -9.121  -4.350  -6.267  1.00  0.00     0.210 HD
ENDBRANCH  10  11
ENDBRANCH   2  10
TORSDOF 5
ENDMDL
MODEL 7
REMARK VINA RESULT:    -5.996      1.517      2.394
REMARK INTER + INTRA:          -8.103
REMARK INTER:                  -7.843
REMARK INTRA:                  -0.261
REMARK UNBOUND:                -0.530
REMARK SMILES CC(C)=CCCC(C)=CCO
REMARK SMILES IDX 7 1 9 2 8 3 6 4 5 5 4 6 1 7 2 8 3 9 10 10 11 11
REMARK H PARENT 11 12
REMARK Flexibility Score: inf
ROOT
ATOM      1  C   UNL     1      -8.363  -9.977  -8.323  1.00  0.00    -0.075 C 
ATOM      2  C   UNL     1      -8.781  -9.153  -9.310  1.00  0.00    -0.000 C 
ATOM      3  C   UNL     1      -8.925 -11.371  -8.165  1.00  0.00     0.039 C 
ENDROOT
BRANCH   1   4
ATOM      4  C   UNL     1      -7.317  -9.486  -7.346  1.00  0.00     0.034 C 
BRANCH   4   5
ATOM      5  C   UNL     1      -7.929  -8.510  -6.337  1.00  0.00     0.032 C 
BRANCH   5   6
ATOM      6  C   UNL     1      -9.347  -8.903  -6.003  1.00  0.00    -0.028 C 
ATOM      7  C   UNL     1     -11.771  -8.610  -5.733  1.00  0.00     0.039 C 
ATOM      8  C   UNL     1     -10.419  -8.092  -6.148  1.00  0.00    -0.080 C 
ATOM      9  C   UNL     1     -10.298  -6.701  -6.724  1.00  0.00     0.039 C 
ENDBRANCH   5   6
ENDBRANCH   4   5
ENDBRANCH   1   4
BRANCH   2  10
ATOM     10  C   UNL     1      -9.817  -9.528 -10.334  1.00  0.00     0.183 C 
BRANCH  10  11
ATOM     11  O   UNL     1      -9.192  -9.869 -11.539  1.00  0.00    -0.392 OA
ATOM     12  H   UNL     1      -9.763  -9.495 -12.260  1.00  0.00     0.210 HD
ENDBRANCH  10  11
ENDBRANCH   2  10
TORSDOF 5
ENDMDL
MODEL 8
REMARK VINA RESULT:    -5.955      2.236      3.924
REMARK INTER + INTRA:          -8.052
REMARK INTER:                  -7.585
REMARK INTRA:                  -0.466
REMARK UNBOUND:                -0.530
REMARK SMILES CC(C)=CCCC(C)=CCO
REMARK SMILES IDX 7 1 9 2 8 3 6 4 5 5 4 6 1 7 2 8 3 9 10 10 11 11
REMARK H PARENT 11 12
REMARK Flexibility Score: inf
ROOT
ATOM      1  C   UNL     1     -10.180  -7.943  -6.535  1.00  0.00    -0.075 C 
ATOM      2  C   UNL     1      -9.148  -8.665  -6.045  1.00  0.00    -0.000 C 
ATOM      3  C   UNL     1     -10.001  -6.510  -6.981  1.00  0.00     0.039 C 
ENDROOT
BRANCH   1   4
ATOM      4  C   UNL     1     -11.549  -8.580  -6.626  1.00  0.00     0.034 C 
BRANCH   4   5
ATOM      5  C   UNL     1     -11.499  -9.862  -7.464  1.00  0.00     0.032 C 
BRANCH   5   6
ATOM      6  C   UNL     1     -10.997  -9.572  -8.857  1.00  0.00    -0.028 C 
ATOM      7  C   UNL     1      -9.449  -9.646 -10.764  1.00  0.00     0.039 C 
ATOM      8  C   UNL     1      -9.842 -10.055  -9.368  1.00  0.00    -0.080 C 
ATOM      9  C   UNL     1      -8.954 -10.996  -8.590  1.00  0.00     0.039 C 
ENDBRANCH   5   6
ENDBRANCH   4   5
ENDBRANCH   1   4
BRANCH   2  10
ATOM     10  C   UNL     1      -7.746  -8.138  -5.902  1.00  0.00     0.183 C 
BRANCH  10  11
ATOM     11  O   UNL     1      -6.841  -9.031  -6.487  1.00  0.00    -0.392 OA
ATOM     12  H   UNL     1      -6.216  -9.301  -5.766  1.00  0.00     0.210 HD
ENDBRANCH  10  11
ENDBRANCH   2  10
TORSDOF 5
ENDMDL
MODEL 9
REMARK VINA RESULT:    -5.938      2.317      4.674
REMARK INTER + INTRA:          -8.030
REMARK INTER:                  -7.431
REMARK INTRA:                  -0.599
REMARK UNBOUND:                -0.530
REMARK SMILES CC(C)=CCCC(C)=CCO
REMARK SMILES IDX 7 1 9 2 8 3 6 4 5 5 4 6 1 7 2 8 3 9 10 10 11 11
REMARK H PARENT 11 12
REMARK Flexibility Score: inf
ROOT
ATOM      1  C   UNL     1     -11.450 -10.111  -7.792  1.00  0.00    -0.075 C 
ATOM      2  C   UNL     1     -12.636  -9.465  -7.834  1.00  0.00    -0.000 C 
ATOM      3  C   UNL     1     -11.078 -11.007  -6.633  1.00  0.00     0.039 C 
ENDROOT
BRANCH   1   4
ATOM      4  C   UNL     1     -10.466  -9.922  -8.925  1.00  0.00     0.034 C 
BRANCH   4   5
ATOM      5  C   UNL     1      -9.695  -8.608  -8.764  1.00  0.00     0.032 C 
BRANCH   5   6
ATOM      6  C   UNL     1      -8.479  -8.802  -7.894  1.00  0.00    -0.028 C 
ATOM      7  C   UNL     1      -7.089  -8.620  -5.875  1.00  0.00     0.039 C 
ATOM      8  C   UNL     1      -8.385  -8.392  -6.609  1.00  0.00    -0.080 C 
ATOM      9  C   UNL     1      -9.541  -7.734  -5.893  1.00  0.00     0.039 C 
ENDBRANCH   5   6
ENDBRANCH   4   5
ENDBRANCH   1   4
BRANCH   2  10
ATOM     10  C   UNL     1     -13.689  -9.571  -6.765  1.00  0.00     0.183 C 
BRANCH  10  11
ATOM     11  O   UNL     1     -14.347  -8.344  -6.623  1.00  0.00    -0.392 OA
ATOM     12  H   UNL     1     -13.641  -7.675  -6.428  1.00  0.00     0.210 HD
ENDBRANCH  10  11
ENDBRANCH   2  10
TORSDOF 5
ENDMDL
