MODEL 1
REMARK VINA RESULT:    -4.626      0.000      0.000
REMARK INTER + INTRA:          -7.572
REMARK INTER:                  -7.060
REMARK INTRA:                  -0.512
REMARK UNBOUND:                -0.512
REMARK SMILES O=C([O-])CCCCCCCCC(=O)[O-]
REMARK SMILES IDX 7 1 6 2 5 3 4 4 2 5 1 6 3 7 8 8 9 9 10 10 11 11 12 12 13 13
REMARK SMILES IDX 14 14
REMARK H PARENT
REMARK Flexibility Score: inf
ROOT
ATOM      1  C   UNL     1       7.491  26.561 -12.990  1.00  0.00     0.000 C 
ENDROOT
BRANCH   1   2
ATOM      2  C   UNL     1       7.421  25.056 -12.672  1.00  0.00     0.000 C 
BRANCH   2   3
ATOM      3  C   UNL     1       8.720  24.444 -12.115  1.00  0.00     0.006 C 
BRANCH   3   4
ATOM      4  C   UNL     1       8.711  24.309 -10.587  1.00  0.00     0.053 C 
BRANCH   4   5
ATOM      5  C   UNL     1       8.157  22.979 -10.184  1.00  0.00     0.041 C 
ATOM      6  O   UNL     1       7.644  22.826  -9.044  1.00  0.00    -0.550 OA
ATOM      7  O   UNL     1       8.161  21.921 -11.084  1.00  0.00    -0.550 OA
ENDBRANCH   4   5
ENDBRANCH   3   4
ENDBRANCH   2   3
ENDBRANCH   1   2
BRANCH   1   8
ATOM      8  C   UNL     1       8.931  27.069 -13.173  1.00  0.00     0.000 C 
BRANCH   8   9
ATOM      9  C   UNL     1       9.032  28.600 -13.086  1.00  0.00     0.000 C 
BRANCH   9  10
ATOM     10  C   UNL     1       7.679  29.269 -12.795  1.00  0.00     0.006 C 
BRANCH  10  11
ATOM     11  C   UNL     1       7.596  30.647 -13.457  1.00  0.00     0.053 C 
BRANCH  11  12
ATOM     12  C   UNL     1       6.812  30.571 -14.729  1.00  0.00     0.041 C 
ATOM     13  O   UNL     1       6.221  29.505 -15.047  1.00  0.00    -0.550 OA
ATOM     14  O   UNL     1       6.691  31.693 -15.540  1.00  0.00    -0.550 OA
ENDBRANCH  11  12
ENDBRANCH  10  11
ENDBRANCH   9  10
ENDBRANCH   8   9
ENDBRANCH   1   8
TORSDOF 9
ENDMDL
MODEL 2
REMARK VINA RESULT:    -4.620      1.887      5.984
REMARK INTER + INTRA:          -7.564
REMARK INTER:                  -6.718
REMARK INTRA:                  -0.846
REMARK UNBOUND:                -0.512
REMARK SMILES O=C([O-])CCCCCCCCC(=O)[O-]
REMARK SMILES IDX 7 1 6 2 5 3 4 4 2 5 1 6 3 7 8 8 9 9 10 10 11 11 12 12 13 13
REMARK SMILES IDX 14 14
REMARK H PARENT
REMARK Flexibility Score: inf
ROOT
ATOM      1  C   UNL     1      10.769  27.225 -15.040  1.00  0.00     0.000 C 
ENDROOT
BRANCH   1   2
ATOM      2  C   UNL     1       9.819  28.384 -14.683  1.00  0.00     0.000 C 
BRANCH   2   3
ATOM      3  C   UNL     1       9.420  28.471 -13.198  1.00  0.00     0.006 C 
BRANCH   3   4
ATOM      4  C   UNL     1       7.974  28.939 -12.993  1.00  0.00     0.053 C 
BRANCH   4   5
ATOM      5  C   UNL     1       7.029  28.062 -13.752  1.00  0.00     0.041 C 
ATOM      6  O   UNL     1       6.817  26.880 -13.371  1.00  0.00    -0.550 OA
ATOM      7  O   UNL     1       6.343  28.564 -14.850  1.00  0.00    -0.550 OA
ENDBRANCH   4   5
ENDBRANCH   3   4
ENDBRANCH   2   3
ENDBRANCH   1   2
BRANCH   1   8
ATOM      8  C   UNL     1      10.721  26.076 -14.018  1.00  0.00     0.000 C 
BRANCH   8   9
ATOM      9  C   UNL     1      10.029  24.821 -14.575  1.00  0.00     0.000 C 
BRANCH   9  10
ATOM     10  C   UNL     1       9.236  24.057 -13.504  1.00  0.00     0.006 C 
BRANCH  10  11
ATOM     11  C   UNL     1       9.218  24.829 -12.181  1.00  0.00     0.053 C 
BRANCH  11  12
ATOM     12  C   UNL     1       8.254  24.205 -11.223  1.00  0.00     0.041 C 
ATOM     13  O   UNL     1       8.631  23.877 -10.066  1.00  0.00    -0.550 OA
ATOM     14  O   UNL     1       6.925  24.029 -11.588  1.00  0.00    -0.550 OA
ENDBRANCH  11  12
ENDBRANCH  10  11
ENDBRANCH   9  10
ENDBRANCH   8   9
ENDBRANCH   1   8
TORSDOF 9
ENDMDL
MODEL 3
REMARK VINA RESULT:    -4.523      1.637      6.311
REMARK INTER + INTRA:          -7.415
REMARK INTER:                  -6.666
REMARK INTRA:                  -0.748
REMARK UNBOUND:                -0.512
REMARK SMILES O=C([O-])CCCCCCCCC(=O)[O-]
REMARK SMILES IDX 7 1 6 2 5 3 4 4 2 5 1 6 3 7 8 8 9 9 10 10 11 11 12 12 13 13
REMARK SMILES IDX 14 14
REMARK H PARENT
REMARK Flexibility Score: inf
ROOT
ATOM      1  C   UNL     1       9.735  27.753 -14.308  1.00  0.00     0.000 C 
ENDROOT
BRANCH   1   2
ATOM      2  C   UNL     1       9.336  28.543 -13.048  1.00  0.00     0.000 C 
BRANCH   2   3
ATOM      3  C   UNL     1       7.872  29.019 -13.011  1.00  0.00     0.006 C 
BRANCH   3   4
ATOM      4  C   UNL     1       6.996  28.344 -14.074  1.00  0.00     0.053 C 
BRANCH   4   5
ATOM      5  C   UNL     1       6.522  29.350 -15.075  1.00  0.00     0.041 C 
ATOM      6  O   UNL     1       6.446  29.042 -16.294  1.00  0.00    -0.550 OA
ATOM      7  O   UNL     1       6.117  30.611 -14.658  1.00  0.00    -0.550 OA
ENDBRANCH   4   5
ENDBRANCH   3   4
ENDBRANCH   2   3
ENDBRANCH   1   2
BRANCH   1   8
ATOM      8  C   UNL     1      10.013  26.268 -14.020  1.00  0.00     0.000 C 
BRANCH   8   9
ATOM      9  C   UNL     1      10.235  25.988 -12.524  1.00  0.00     0.000 C 
BRANCH   9  10
ATOM     10  C   UNL     1       9.219  24.987 -11.951  1.00  0.00     0.006 C 
BRANCH  10  11
ATOM     11  C   UNL     1       7.852  25.151 -12.621  1.00  0.00     0.053 C 
BRANCH  11  12
ATOM     12  C   UNL     1       6.814  24.353 -11.897  1.00  0.00     0.041 C 
ATOM     13  O   UNL     1       7.139  23.629 -10.919  1.00  0.00    -0.550 OA
ATOM     14  O   UNL     1       5.479  24.446 -12.271  1.00  0.00    -0.550 OA
ENDBRANCH  11  12
ENDBRANCH  10  11
ENDBRANCH   9  10
ENDBRANCH   8   9
ENDBRANCH   1   8
TORSDOF 9
ENDMDL
MODEL 4
REMARK VINA RESULT:    -4.484      1.297      1.718
REMARK INTER + INTRA:          -7.355
REMARK INTER:                  -6.816
REMARK INTRA:                  -0.540
REMARK UNBOUND:                -0.512
REMARK SMILES O=C([O-])CCCCCCCCC(=O)[O-]
REMARK SMILES IDX 7 1 6 2 5 3 4 4 2 5 1 6 3 7 8 8 9 9 10 10 11 11 12 12 13 13
REMARK SMILES IDX 14 14
REMARK H PARENT
REMARK Flexibility Score: inf
ROOT
ATOM      1  C   UNL     1      10.334  26.956 -12.716  1.00  0.00     0.000 C 
ENDROOT
BRANCH   1   2
ATOM      2  C   UNL     1       9.954  25.469 -12.849  1.00  0.00     0.000 C 
BRANCH   2   3
ATOM      3  C   UNL     1       8.672  25.052 -12.103  1.00  0.00     0.006 C 
BRANCH   3   4
ATOM      4  C   UNL     1       8.959  24.313 -10.789  1.00  0.00     0.053 C 
BRANCH   4   5
ATOM      5  C   UNL     1       7.756  23.540 -10.352  1.00  0.00     0.041 C 
ATOM      6  O   UNL     1       7.810  22.809  -9.328  1.00  0.00    -0.550 OA
ATOM      7  O   UNL     1       6.558  23.665 -11.045  1.00  0.00    -0.550 OA
ENDBRANCH   4   5
ENDBRANCH   3   4
ENDBRANCH   2   3
ENDBRANCH   1   2
BRANCH   1   8
ATOM      8  C   UNL     1       9.533  27.866 -13.663  1.00  0.00     0.000 C 
BRANCH   8   9
ATOM      9  C   UNL     1       9.127  29.193 -13.001  1.00  0.00     0.000 C 
BRANCH   9  10
ATOM     10  C   UNL     1       7.605  29.405 -12.982  1.00  0.00     0.006 C 
BRANCH  10  11
ATOM     11  C   UNL     1       6.901  28.399 -13.898  1.00  0.00     0.053 C 
BRANCH  11  12
ATOM     12  C   UNL     1       6.288  29.097 -15.070  1.00  0.00     0.041 C 
ATOM     13  O   UNL     1       5.378  29.950 -14.896  1.00  0.00    -0.550 OA
ATOM     14  O   UNL     1       6.756  28.842 -16.354  1.00  0.00    -0.550 OA
ENDBRANCH  11  12
ENDBRANCH  10  11
ENDBRANCH   9  10
ENDBRANCH   8   9
ENDBRANCH   1   8
TORSDOF 9
ENDMDL
MODEL 5
REMARK VINA RESULT:    -4.471      0.915      7.293
REMARK INTER + INTRA:          -7.335
REMARK INTER:                  -6.874
REMARK INTRA:                  -0.461
REMARK UNBOUND:                -0.512
REMARK SMILES O=C([O-])CCCCCCCCC(=O)[O-]
REMARK SMILES IDX 7 1 6 2 5 3 4 4 2 5 1 6 3 7 8 8 9 9 10 10 11 11 12 12 13 13
REMARK SMILES IDX 14 14
REMARK H PARENT
REMARK Flexibility Score: inf
ROOT
ATOM      1  C   UNL     1       8.227  27.844 -13.089  1.00  0.00     0.000 C 
ENDROOT
BRANCH   1   2
ATOM      2  C   UNL     1       7.885  29.333 -12.891  1.00  0.00     0.000 C 
BRANCH   2   3
ATOM      3  C   UNL     1       8.149  30.233 -14.113  1.00  0.00     0.006 C 
BRANCH   3   4
ATOM      4  C   UNL     1       6.949  31.118 -14.473  1.00  0.00     0.053 C 
BRANCH   4   5
ATOM      5  C   UNL     1       6.304  30.635 -15.734  1.00  0.00     0.041 C 
ATOM      6  O   UNL     1       5.826  31.459 -16.557  1.00  0.00    -0.550 OA
ATOM      7  O   UNL     1       6.275  29.277 -16.025  1.00  0.00    -0.550 OA
ENDBRANCH   4   5
ENDBRANCH   3   4
ENDBRANCH   2   3
ENDBRANCH   1   2
BRANCH   1   8
ATOM      8  C   UNL     1       6.980  26.946 -13.144  1.00  0.00     0.000 C 
BRANCH   8   9
ATOM      9  C   UNL     1       7.286  25.488 -12.763  1.00  0.00     0.000 C 
BRANCH   9  10
ATOM     10  C   UNL     1       8.792  25.183 -12.747  1.00  0.00     0.006 C 
BRANCH  10  11
ATOM     11  C   UNL     1       9.255  24.786 -11.342  1.00  0.00     0.053 C 
BRANCH  11  12
ATOM     12  C   UNL     1       8.509  23.580 -10.866  1.00  0.00     0.041 C 
ATOM     13  O   UNL     1       7.852  23.624  -9.792  1.00  0.00    -0.550 OA
ATOM     14  O   UNL     1       8.498  22.422 -11.632  1.00  0.00    -0.550 OA
ENDBRANCH  11  12
ENDBRANCH  10  11
ENDBRANCH   9  10
ENDBRANCH   8   9
ENDBRANCH   1   8
TORSDOF 9
ENDMDL
MODEL 6
REMARK VINA RESULT:    -4.423     13.297     15.882
REMARK INTER + INTRA:          -7.262
REMARK INTER:                  -6.372
REMARK INTRA:                  -0.890
REMARK UNBOUND:                -0.512
REMARK SMILES O=C([O-])CCCCCCCCC(=O)[O-]
REMARK SMILES IDX 7 1 6 2 5 3 4 4 2 5 1 6 3 7 8 8 9 9 10 10 11 11 12 12 13 13
REMARK SMILES IDX 14 14
REMARK H PARENT
REMARK Flexibility Score: inf
ROOT
ATOM      1  C   UNL     1      -6.277  31.764 -16.708  1.00  0.00     0.000 C 
ENDROOT
BRANCH   1   2
ATOM      2  C   UNL     1      -6.044  31.852 -18.228  1.00  0.00     0.000 C 
BRANCH   2   3
ATOM      3  C   UNL     1      -4.660  31.374 -18.706  1.00  0.00     0.006 C 
BRANCH   3   4
ATOM      4  C   UNL     1      -3.698  32.530 -19.005  1.00  0.00     0.053 C 
BRANCH   4   5
ATOM      5  C   UNL     1      -2.493  32.448 -18.123  1.00  0.00     0.041 C 
ATOM      6  O   UNL     1      -2.628  32.306 -16.879  1.00  0.00    -0.550 OA
ATOM      7  O   UNL     1      -1.220  32.477 -18.678  1.00  0.00    -0.550 OA
ENDBRANCH   4   5
ENDBRANCH   3   4
ENDBRANCH   2   3
ENDBRANCH   1   2
BRANCH   1   8
ATOM      8  C   UNL     1      -7.549  32.499 -16.254  1.00  0.00     0.000 C 
BRANCH   8   9
ATOM      9  C   UNL     1      -8.104  33.441 -17.335  1.00  0.00     0.000 C 
BRANCH   9  10
ATOM     10  C   UNL     1      -7.967  34.924 -16.959  1.00  0.00     0.006 C 
BRANCH  10  11
ATOM     11  C   UNL     1      -6.685  35.521 -17.547  1.00  0.00     0.053 C 
BRANCH  11  12
ATOM     12  C   UNL     1      -5.659  35.718 -16.477  1.00  0.00     0.041 C 
ATOM     13  O   UNL     1      -4.764  34.853 -16.289  1.00  0.00    -0.550 OA
ATOM     14  O   UNL     1      -5.662  36.882 -15.717  1.00  0.00    -0.550 OA
ENDBRANCH  11  12
ENDBRANCH  10  11
ENDBRANCH   9  10
ENDBRANCH   8   9
ENDBRANCH   1   8
TORSDOF 9
ENDMDL
MODEL 7
REMARK VINA RESULT:    -4.390      1.410      2.185
REMARK INTER + INTRA:          -7.212
REMARK INTER:                  -6.828
REMARK INTRA:                  -0.384
REMARK UNBOUND:                -0.512
REMARK SMILES O=C([O-])CCCCCCCCC(=O)[O-]
REMARK SMILES IDX 7 1 6 2 5 3 4 4 2 5 1 6 3 7 8 8 9 9 10 10 11 11 12 12 13 13
REMARK SMILES IDX 14 14
REMARK H PARENT
REMARK Flexibility Score: inf
ROOT
ATOM      1  C   UNL     1       7.424  27.620 -13.106  1.00  0.00     0.000 C 
ENDROOT
BRANCH   1   2
ATOM      2  C   UNL     1       8.728  26.801 -13.057  1.00  0.00     0.000 C 
BRANCH   2   3
ATOM      3  C   UNL     1       8.540  25.273 -13.026  1.00  0.00     0.006 C 
BRANCH   3   4
ATOM      4  C   UNL     1       8.785  24.668 -11.638  1.00  0.00     0.053 C 
BRANCH   4   5
ATOM      5  C   UNL     1       7.660  23.757 -11.259  1.00  0.00     0.041 C 
ATOM      6  O   UNL     1       6.469  24.090 -11.497  1.00  0.00    -0.550 OA
ATOM      7  O   UNL     1       7.928  22.519 -10.690  1.00  0.00    -0.550 OA
ENDBRANCH   4   5
ENDBRANCH   3   4
ENDBRANCH   2   3
ENDBRANCH   1   2
BRANCH   1   8
ATOM      8  C   UNL     1       7.666  29.137 -13.044  1.00  0.00     0.000 C 
BRANCH   8   9
ATOM      9  C   UNL     1       7.587  29.804 -14.427  1.00  0.00     0.000 C 
BRANCH   9  10
ATOM     10  C   UNL     1       6.222  29.604 -15.104  1.00  0.00     0.006 C 
BRANCH  10  11
ATOM     11  C   UNL     1       5.361  30.865 -14.984  1.00  0.00     0.053 C 
BRANCH  11  12
ATOM     12  C   UNL     1       5.867  31.934 -15.901  1.00  0.00     0.041 C 
ATOM     13  O   UNL     1       6.293  33.023 -15.432  1.00  0.00    -0.550 OA
ATOM     14  O   UNL     1       5.914  31.709 -17.271  1.00  0.00    -0.550 OA
ENDBRANCH  11  12
ENDBRANCH  10  11
ENDBRANCH   9  10
ENDBRANCH   8   9
ENDBRANCH   1   8
TORSDOF 9
ENDMDL
MODEL 8
REMARK VINA RESULT:    -4.349      1.548      2.317
REMARK INTER + INTRA:          -7.149
REMARK INTER:                  -6.611
REMARK INTRA:                  -0.539
REMARK UNBOUND:                -0.512
REMARK SMILES O=C([O-])CCCCCCCCC(=O)[O-]
REMARK SMILES IDX 7 1 6 2 5 3 4 4 2 5 1 6 3 7 8 8 9 9 10 10 11 11 12 12 13 13
REMARK SMILES IDX 14 14
REMARK H PARENT
REMARK Flexibility Score: inf
ROOT
ATOM      1  C   UNL     1       7.696  28.466 -13.055  1.00  0.00     0.000 C 
ENDROOT
BRANCH   1   2
ATOM      2  C   UNL     1       7.995  26.956 -13.114  1.00  0.00     0.000 C 
BRANCH   2   3
ATOM      3  C   UNL     1       9.484  26.579 -12.992  1.00  0.00     0.006 C 
BRANCH   3   4
ATOM      4  C   UNL     1       9.726  25.402 -12.038  1.00  0.00     0.053 C 
BRANCH   4   5
ATOM      5  C   UNL     1       9.009  24.181 -12.523  1.00  0.00     0.041 C 
ATOM      6  O   UNL     1       9.307  23.672 -13.636  1.00  0.00    -0.550 OA
ATOM      7  O   UNL     1       8.048  23.576 -11.724  1.00  0.00    -0.550 OA
ENDBRANCH   4   5
ENDBRANCH   3   4
ENDBRANCH   2   3
ENDBRANCH   1   2
BRANCH   1   8
ATOM      8  C   UNL     1       8.962  29.321 -12.878  1.00  0.00     0.000 C 
BRANCH   8   9
ATOM      9  C   UNL     1       8.660  30.828 -12.878  1.00  0.00     0.000 C 
BRANCH   9  10
ATOM     10  C   UNL     1       7.185  31.138 -13.176  1.00  0.00     0.006 C 
BRANCH  10  11
ATOM     11  C   UNL     1       7.044  31.916 -14.488  1.00  0.00     0.053 C 
BRANCH  11  12
ATOM     12  C   UNL     1       6.076  31.232 -15.402  1.00  0.00     0.041 C 
ATOM     13  O   UNL     1       5.424  30.232 -15.001  1.00  0.00    -0.550 OA
ATOM     14  O   UNL     1       5.857  31.729 -16.681  1.00  0.00    -0.550 OA
ENDBRANCH  11  12
ENDBRANCH  10  11
ENDBRANCH   9  10
ENDBRANCH   8   9
ENDBRANCH   1   8
TORSDOF 9
ENDMDL
MODEL 9
REMARK VINA RESULT:    -4.317      8.480      9.885
REMARK INTER + INTRA:          -7.101
REMARK INTER:                  -6.691
REMARK INTRA:                  -0.409
REMARK UNBOUND:                -0.512
REMARK SMILES O=C([O-])CCCCCCCCC(=O)[O-]
REMARK SMILES IDX 7 1 6 2 5 3 4 4 2 5 1 6 3 7 8 8 9 9 10 10 11 11 12 12 13 13
REMARK SMILES IDX 14 14
REMARK H PARENT
REMARK Flexibility Score: inf
ROOT
ATOM      1  C   UNL     1       3.587  22.124 -16.418  1.00  0.00     0.000 C 
ENDROOT
BRANCH   1   2
ATOM      2  C   UNL     1       2.883  22.123 -15.049  1.00  0.00     0.000 C 
BRANCH   2   3
ATOM      3  C   UNL     1       2.488  20.732 -14.517  1.00  0.00     0.006 C 
BRANCH   3   4
ATOM      4  C   UNL     1       2.107  20.745 -13.031  1.00  0.00     0.053 C 
BRANCH   4   5
ATOM      5  C   UNL     1       1.639  19.392 -12.599  1.00  0.00     0.041 C 
ATOM      6  O   UNL     1       0.480  19.242 -12.132  1.00  0.00    -0.550 OA
ATOM      7  O   UNL     1       2.465  18.286 -12.760  1.00  0.00    -0.550 OA
ENDBRANCH   4   5
ENDBRANCH   3   4
ENDBRANCH   2   3
ENDBRANCH   1   2
BRANCH   1   8
ATOM      8  C   UNL     1       2.722  22.731 -17.536  1.00  0.00     0.000 C 
BRANCH   8   9
ATOM      9  C   UNL     1       1.493  21.868 -17.865  1.00  0.00     0.000 C 
BRANCH   9  10
ATOM     10  C   UNL     1       1.302  21.658 -19.375  1.00  0.00     0.006 C 
BRANCH  10  11
ATOM     11  C   UNL     1       1.774  20.263 -19.797  1.00  0.00     0.053 C 
BRANCH  11  12
ATOM     12  C   UNL     1       2.986  20.362 -20.668  1.00  0.00     0.041 C 
ATOM     13  O   UNL     1       3.414  21.488 -21.035  1.00  0.00    -0.550 OA
ATOM     14  O   UNL     1       3.674  19.212 -21.035  1.00  0.00    -0.550 OA
ENDBRANCH  11  12
ENDBRANCH  10  11
ENDBRANCH   9  10
ENDBRANCH   8   9
ENDBRANCH   1   8
TORSDOF 9
ENDMDL
