MODEL 1
REMARK VINA RESULT:    -3.209      0.000      0.000
REMARK INTER + INTRA:          -3.959
REMARK INTER:                  -3.866
REMARK INTRA:                  -0.094
REMARK UNBOUND:                -0.094
REMARK SMILES CC[C@@H](C)[C@@H]([NH3+])C(=O)[O-]
REMARK SMILES IDX 3 1 4 2 5 3 6 4 7 8 8 9 9 10 2 11 1 12
REMARK H PARENT 6 5 6 6 6 7
REMARK Flexibility Score: inf
ROOT
ATOM      1  C   UNL     1      23.773  42.744  38.611  1.00  0.00     0.050 C 
ATOM      2  C   UNL     1      22.374  42.379  38.084  1.00  0.00     0.014 C 
ENDROOT
BRANCH   1   3
ATOM      3  C   UNL     1      23.700  43.184  40.112  1.00  0.00     0.230 C 
BRANCH   3   4
ATOM      4  N   UNL     1      24.943  42.900  40.850  1.00  0.00    -0.350 N 
ATOM      5  H   UNL     1      25.303  41.957  40.574  1.00  0.00     0.345 HD
ATOM      6  H   UNL     1      24.783  42.905  41.882  1.00  0.00     0.345 HD
ATOM      7  H   UNL     1      25.679  43.601  40.610  1.00  0.00     0.345 HD
ENDBRANCH   3   4
BRANCH   3   8
ATOM      8  C   UNL     1      23.287  44.631  40.253  1.00  0.00     0.099 C 
ATOM      9  O   UNL     1      24.137  45.560  40.189  1.00  0.00    -0.544 OA
ATOM     10  O   UNL     1      21.955  44.947  40.492  1.00  0.00    -0.544 OA
ENDBRANCH   3   8
ENDBRANCH   1   3
BRANCH   1  11
ATOM     11  C   UNL     1      24.754  41.582  38.307  1.00  0.00     0.006 C 
ATOM     12  C   UNL     1      24.149  40.195  38.524  1.00  0.00     0.004 C 
ENDBRANCH   1  11
TORSDOF 4
ENDMDL
MODEL 2
REMARK VINA RESULT:    -3.178      3.375      4.399
REMARK INTER + INTRA:          -3.922
REMARK INTER:                  -3.886
REMARK INTRA:                  -0.036
REMARK UNBOUND:                -0.094
REMARK SMILES CC[C@@H](C)[C@@H]([NH3+])C(=O)[O-]
REMARK SMILES IDX 3 1 4 2 5 3 6 4 7 8 8 9 9 10 2 11 1 12
REMARK H PARENT 6 5 6 6 6 7
REMARK Flexibility Score: inf
ROOT
ATOM      1  C   UNL     1      24.413  45.008  41.174  1.00  0.00     0.050 C 
ATOM      2  C   UNL     1      24.503  45.746  42.522  1.00  0.00     0.014 C 
ENDROOT
BRANCH   1   3
ATOM      3  C   UNL     1      24.469  43.458  41.389  1.00  0.00     0.230 C 
BRANCH   3   4
ATOM      4  N   UNL     1      24.599  42.712  40.126  1.00  0.00    -0.350 N 
ATOM      5  H   UNL     1      24.765  41.701  40.335  1.00  0.00     0.345 HD
ATOM      6  H   UNL     1      25.399  43.067  39.555  1.00  0.00     0.345 HD
ATOM      7  H   UNL     1      23.719  42.779  39.569  1.00  0.00     0.345 HD
ENDBRANCH   3   4
BRANCH   3   8
ATOM      8  C   UNL     1      25.543  43.067  42.379  1.00  0.00     0.099 C 
ATOM      9  O   UNL     1      26.760  43.285  42.139  1.00  0.00    -0.544 OA
ATOM     10  O   UNL     1      25.189  42.425  43.560  1.00  0.00    -0.544 OA
ENDBRANCH   3   8
ENDBRANCH   1   3
BRANCH   1  11
ATOM     11  C   UNL     1      23.179  45.524  40.390  1.00  0.00     0.006 C 
ATOM     12  C   UNL     1      22.092  46.125  41.281  1.00  0.00     0.004 C 
ENDBRANCH   1  11
TORSDOF 4
ENDMDL
MODEL 3
REMARK VINA RESULT:    -3.152      2.343      3.594
REMARK INTER + INTRA:          -3.891
REMARK INTER:                  -3.833
REMARK INTRA:                  -0.058
REMARK UNBOUND:                -0.094
REMARK SMILES CC[C@@H](C)[C@@H]([NH3+])C(=O)[O-]
REMARK SMILES IDX 3 1 4 2 5 3 6 4 7 8 8 9 9 10 2 11 1 12
REMARK H PARENT 6 5 6 6 6 7
REMARK Flexibility Score: inf
ROOT
ATOM      1  C   UNL     1      24.764  43.666  42.138  1.00  0.00     0.050 C 
ATOM      2  C   UNL     1      25.167  45.066  42.636  1.00  0.00     0.014 C 
ENDROOT
BRANCH   1   3
ATOM      3  C   UNL     1      24.227  43.737  40.669  1.00  0.00     0.230 C 
BRANCH   3   4
ATOM      4  N   UNL     1      24.531  42.524  39.892  1.00  0.00    -0.350 N 
ATOM      5  H   UNL     1      24.691  42.783  38.892  1.00  0.00     0.345 HD
ATOM      6  H   UNL     1      23.744  41.837  39.934  1.00  0.00     0.345 HD
ATOM      7  H   UNL     1      25.404  42.072  40.245  1.00  0.00     0.345 HD
ENDBRANCH   3   4
BRANCH   3   8
ATOM      8  C   UNL     1      22.752  44.069  40.627  1.00  0.00     0.099 C 
ATOM      9  O   UNL     1      21.886  43.171  40.450  1.00  0.00    -0.544 OA
ATOM     10  O   UNL     1      22.341  45.391  40.752  1.00  0.00    -0.544 OA
ENDBRANCH   3   8
ENDBRANCH   1   3
BRANCH   1  11
ATOM     11  C   UNL     1      25.943  42.684  42.366  1.00  0.00     0.006 C 
ATOM     12  C   UNL     1      27.318  43.317  42.164  1.00  0.00     0.004 C 
ENDBRANCH   1  11
TORSDOF 4
ENDMDL
MODEL 4
REMARK VINA RESULT:    -3.088      2.852      3.893
REMARK INTER + INTRA:          -3.813
REMARK INTER:                  -3.784
REMARK INTRA:                  -0.029
REMARK UNBOUND:                -0.094
REMARK SMILES CC[C@@H](C)[C@@H]([NH3+])C(=O)[O-]
REMARK SMILES IDX 3 1 4 2 5 3 6 4 7 8 8 9 9 10 2 11 1 12
REMARK H PARENT 6 5 6 6 6 7
REMARK Flexibility Score: inf
ROOT
ATOM      1  C   UNL     1      24.088  44.868  41.052  1.00  0.00     0.050 C 
ATOM      2  C   UNL     1      23.263  46.113  41.429  1.00  0.00     0.014 C 
ENDROOT
BRANCH   1   3
ATOM      3  C   UNL     1      25.199  44.597  42.120  1.00  0.00     0.230 C 
BRANCH   3   4
ATOM      4  N   UNL     1      24.983  45.346  43.370  1.00  0.00    -0.350 N 
ATOM      5  H   UNL     1      23.979  45.634  43.432  1.00  0.00     0.345 HD
ATOM      6  H   UNL     1      25.577  46.205  43.407  1.00  0.00     0.345 HD
ATOM      7  H   UNL     1      25.190  44.745  44.197  1.00  0.00     0.345 HD
ENDBRANCH   3   4
BRANCH   3   8
ATOM      8  C   UNL     1      25.376  43.118  42.382  1.00  0.00     0.099 C 
ATOM      9  O   UNL     1      24.925  42.583  43.430  1.00  0.00    -0.544 OA
ATOM     10  O   UNL     1      26.079  42.338  41.471  1.00  0.00    -0.544 OA
ENDBRANCH   3   8
ENDBRANCH   1   3
BRANCH   1  11
ATOM     11  C   UNL     1      23.127  43.681  40.778  1.00  0.00     0.006 C 
ATOM     12  C   UNL     1      23.213  43.139  39.352  1.00  0.00     0.004 C 
ENDBRANCH   1  11
TORSDOF 4
ENDMDL
MODEL 5
REMARK VINA RESULT:    -3.079      2.195      3.908
REMARK INTER + INTRA:          -3.803
REMARK INTER:                  -3.855
REMARK INTRA:                   0.053
REMARK UNBOUND:                -0.094
REMARK SMILES CC[C@@H](C)[C@@H]([NH3+])C(=O)[O-]
REMARK SMILES IDX 3 1 4 2 5 3 6 4 7 8 8 9 9 10 2 11 1 12
REMARK H PARENT 6 5 6 6 6 7
REMARK Flexibility Score: inf
ROOT
ATOM      1  C   UNL     1      23.832  44.332  41.155  1.00  0.00     0.050 C 
ATOM      2  C   UNL     1      23.525  45.743  40.621  1.00  0.00     0.014 C 
ENDROOT
BRANCH   1   3
ATOM      3  C   UNL     1      24.245  43.378  39.985  1.00  0.00     0.230 C 
BRANCH   3   4
ATOM      4  N   UNL     1      25.239  42.372  40.394  1.00  0.00    -0.350 N 
ATOM      5  H   UNL     1      25.150  41.527  39.783  1.00  0.00     0.345 HD
ATOM      6  H   UNL     1      25.099  42.079  41.387  1.00  0.00     0.345 HD
ATOM      7  H   UNL     1      26.207  42.745  40.275  1.00  0.00     0.345 HD
ENDBRANCH   3   4
BRANCH   3   8
ATOM      8  C   UNL     1      23.040  42.736  39.333  1.00  0.00     0.099 C 
ATOM      9  O   UNL     1      21.875  43.161  39.558  1.00  0.00    -0.544 OA
ATOM     10  O   UNL     1      23.212  41.638  38.500  1.00  0.00    -0.544 OA
ENDBRANCH   3   8
ENDBRANCH   1   3
BRANCH   1  11
ATOM     11  C   UNL     1      24.854  44.436  42.318  1.00  0.00     0.006 C 
ATOM     12  C   UNL     1      24.889  45.811  42.983  1.00  0.00     0.004 C 
ENDBRANCH   1  11
TORSDOF 4
ENDMDL
MODEL 6
REMARK VINA RESULT:    -3.006      3.049      3.856
REMARK INTER + INTRA:          -3.714
REMARK INTER:                  -3.567
REMARK INTRA:                  -0.147
REMARK UNBOUND:                -0.094
REMARK SMILES CC[C@@H](C)[C@@H]([NH3+])C(=O)[O-]
REMARK SMILES IDX 3 1 4 2 5 3 6 4 7 8 8 9 9 10 2 11 1 12
REMARK H PARENT 6 5 6 6 6 7
REMARK Flexibility Score: inf
ROOT
ATOM      1  C   UNL     1      23.168  42.409  38.913  1.00  0.00     0.050 C 
ATOM      2  C   UNL     1      21.878  42.672  38.114  1.00  0.00     0.014 C 
ENDROOT
BRANCH   1   3
ATOM      3  C   UNL     1      24.207  41.626  38.042  1.00  0.00     0.230 C 
BRANCH   3   4
ATOM      4  N   UNL     1      25.133  42.516  37.323  1.00  0.00    -0.350 N 
ATOM      5  H   UNL     1      24.746  42.727  36.374  1.00  0.00     0.345 HD
ATOM      6  H   UNL     1      26.073  42.075  37.207  1.00  0.00     0.345 HD
ATOM      7  H   UNL     1      25.236  43.423  37.829  1.00  0.00     0.345 HD
ENDBRANCH   3   4
BRANCH   3   8
ATOM      8  C   UNL     1      24.949  40.588  38.853  1.00  0.00     0.099 C 
ATOM      9  O   UNL     1      25.987  40.889  39.501  1.00  0.00    -0.544 OA
ATOM     10  O   UNL     1      24.504  39.272  38.859  1.00  0.00    -0.544 OA
ENDBRANCH   3   8
ENDBRANCH   1   3
BRANCH   1  11
ATOM     11  C   UNL     1      23.678  43.744  39.514  1.00  0.00     0.006 C 
ATOM     12  C   UNL     1      24.092  43.638  40.982  1.00  0.00     0.004 C 
ENDBRANCH   1  11
TORSDOF 4
ENDMDL
MODEL 7
REMARK VINA RESULT:    -2.961      2.826      4.175
REMARK INTER + INTRA:          -3.661
REMARK INTER:                  -3.584
REMARK INTRA:                  -0.076
REMARK UNBOUND:                -0.094
REMARK SMILES CC[C@@H](C)[C@@H]([NH3+])C(=O)[O-]
REMARK SMILES IDX 3 1 4 2 5 3 6 4 7 8 8 9 9 10 2 11 1 12
REMARK H PARENT 6 5 6 6 6 7
REMARK Flexibility Score: inf
ROOT
ATOM      1  C   UNL     1      23.235  43.560  39.494  1.00  0.00     0.050 C 
ATOM      2  C   UNL     1      24.156  43.488  40.726  1.00  0.00     0.014 C 
ENDROOT
BRANCH   1   3
ATOM      3  C   UNL     1      23.143  42.163  38.793  1.00  0.00     0.230 C 
BRANCH   3   4
ATOM      4  N   UNL     1      22.137  42.131  37.717  1.00  0.00    -0.350 N 
ATOM      5  H   UNL     1      21.184  42.033  38.137  1.00  0.00     0.345 HD
ATOM      6  H   UNL     1      22.298  41.328  37.069  1.00  0.00     0.345 HD
ATOM      7  H   UNL     1      22.153  43.023  37.175  1.00  0.00     0.345 HD
ENDBRANCH   3   4
BRANCH   3   8
ATOM      8  C   UNL     1      24.494  41.690  38.305  1.00  0.00     0.099 C 
ATOM      9  O   UNL     1      25.074  40.709  38.843  1.00  0.00    -0.544 OA
ATOM     10  O   UNL     1      25.127  42.366  37.269  1.00  0.00    -0.544 OA
ENDBRANCH   3   8
ENDBRANCH   1   3
BRANCH   1  11
ATOM     11  C   UNL     1      21.878  44.186  39.906  1.00  0.00     0.006 C 
ATOM     12  C   UNL     1      22.007  45.575  40.529  1.00  0.00     0.004 C 
ENDBRANCH   1  11
TORSDOF 4
ENDMDL
MODEL 8
REMARK VINA RESULT:    -2.892      3.798      5.070
REMARK INTER + INTRA:          -3.578
REMARK INTER:                  -3.489
REMARK INTRA:                  -0.088
REMARK UNBOUND:                -0.094
REMARK SMILES CC[C@@H](C)[C@@H]([NH3+])C(=O)[O-]
REMARK SMILES IDX 3 1 4 2 5 3 6 4 7 8 8 9 9 10 2 11 1 12
REMARK H PARENT 6 5 6 6 6 7
REMARK Flexibility Score: inf
ROOT
ATOM      1  C   UNL     1      24.831  43.580  42.149  1.00  0.00     0.050 C 
ATOM      2  C   UNL     1      24.093  43.584  40.798  1.00  0.00     0.014 C 
ENDROOT
BRANCH   1   3
ATOM      3  C   UNL     1      26.121  42.696  42.071  1.00  0.00     0.230 C 
BRANCH   3   4
ATOM      4  N   UNL     1      27.346  43.492  41.893  1.00  0.00    -0.350 N 
ATOM      5  H   UNL     1      27.146  44.494  42.120  1.00  0.00     0.345 HD
ATOM      6  H   UNL     1      27.696  43.440  40.910  1.00  0.00     0.345 HD
ATOM      7  H   UNL     1      28.094  43.164  42.544  1.00  0.00     0.345 HD
ENDBRANCH   3   4
BRANCH   3   8
ATOM      8  C   UNL     1      26.232  41.760  43.253  1.00  0.00     0.099 C 
ATOM      9  O   UNL     1      25.273  41.609  44.057  1.00  0.00    -0.544 OA
ATOM     10  O   UNL     1      27.421  41.079  43.482  1.00  0.00    -0.544 OA
ENDBRANCH   3   8
ENDBRANCH   1   3
BRANCH   1  11
ATOM     11  C   UNL     1      25.056  45.042  42.614  1.00  0.00     0.006 C 
ATOM     12  C   UNL     1      24.131  46.051  41.934  1.00  0.00     0.004 C 
ENDBRANCH   1  11
TORSDOF 4
ENDMDL
