MODEL 1
REMARK VINA RESULT:    -5.421      0.000      0.000
REMARK INTER + INTRA:         -17.309
REMARK INTER:                 -14.295
REMARK INTRA:                  -3.015
REMARK UNBOUND:                -3.015
REMARK SMILES CCCCCCCCCCCCCCCCCCCCCCCCCCCCCC(=O)[O-]
REMARK SMILES IDX 16 1 17 2 18 3 19 4 20 5 21 6 22 7 23 8 24 9 25 10 26 11
REMARK SMILES IDX 27 12 28 13 29 14 30 15 31 16 32 17 15 18 14 19 13 20 12 21
REMARK SMILES IDX 11 22 10 23 9 24 8 25 7 26 6 27 5 28 4 29 3 30 2 31 1 32
REMARK H PARENT
REMARK Flexibility Score: inf
ROOT
ATOM      1  C   UNL     1      10.211  52.186  22.649  1.00  0.00     0.000 C 
ENDROOT
BRANCH   1   2
ATOM      2  C   UNL     1      10.632  53.566  23.177  1.00  0.00     0.000 C 
BRANCH   2   3
ATOM      3  C   UNL     1      10.359  53.728  24.682  1.00  0.00     0.000 C 
BRANCH   3   4
ATOM      4  C   UNL     1       9.371  54.867  24.995  1.00  0.00     0.000 C 
BRANCH   4   5
ATOM      5  C   UNL     1       8.022  54.425  25.591  1.00  0.00     0.000 C 
BRANCH   5   6
ATOM      6  C   UNL     1       7.273  53.420  24.699  1.00  0.00     0.000 C 
BRANCH   6   7
ATOM      7  C   UNL     1       6.502  54.093  23.549  1.00  0.00     0.000 C 
BRANCH   7   8
ATOM      8  C   UNL     1       7.135  53.944  22.149  1.00  0.00     0.000 C 
BRANCH   8   9
ATOM      9  C   UNL     1       7.727  55.237  21.559  1.00  0.00     0.000 C 
BRANCH   9  10
ATOM     10  C   UNL     1       7.337  56.489  22.363  1.00  0.00     0.000 C 
BRANCH  10  11
ATOM     11  C   UNL     1       6.227  57.313  21.683  1.00  0.00     0.000 C 
BRANCH  11  12
ATOM     12  C   UNL     1       4.848  57.232  22.365  1.00  0.00     0.000 C 
BRANCH  12  13
ATOM     13  C   UNL     1       3.947  58.437  22.039  1.00  0.00     0.006 C 
BRANCH  13  14
ATOM     14  C   UNL     1       2.475  58.036  21.884  1.00  0.00     0.053 C 
BRANCH  14  15
ATOM     15  C   UNL     1       1.764  58.888  20.878  1.00  0.00     0.041 C 
ATOM     16  O   UNL     1       0.831  59.654  21.241  1.00  0.00    -0.550 OA
ATOM     17  O   UNL     1       2.144  58.852  19.542  1.00  0.00    -0.550 OA
ENDBRANCH  14  15
ENDBRANCH  13  14
ENDBRANCH  12  13
ENDBRANCH  11  12
ENDBRANCH  10  11
ENDBRANCH   9  10
ENDBRANCH   8   9
ENDBRANCH   7   8
ENDBRANCH   6   7
ENDBRANCH   5   6
ENDBRANCH   4   5
ENDBRANCH   3   4
ENDBRANCH   2   3
ENDBRANCH   1   2
BRANCH   1  18
ATOM     18  C   UNL     1       9.886  51.192  23.779  1.00  0.00     0.000 C 
BRANCH  18  19
ATOM     19  C   UNL     1      10.771  49.936  23.730  1.00  0.00     0.000 C 
BRANCH  19  20
ATOM     20  C   UNL     1      10.370  48.890  24.784  1.00  0.00     0.000 C 
BRANCH  20  21
ATOM     21  C   UNL     1      10.260  47.473  24.199  1.00  0.00     0.000 C 
BRANCH  21  22
ATOM     22  C   UNL     1       9.030  46.713  24.719  1.00  0.00     0.000 C 
BRANCH  22  23
ATOM     23  C   UNL     1       9.360  45.236  24.966  1.00  0.00     0.000 C 
BRANCH  23  24
ATOM     24  C   UNL     1      10.878  45.001  24.938  1.00  0.00    -0.000 C 
BRANCH  24  25
ATOM     25  C   UNL     1      11.368  44.148  26.119  1.00  0.00    -0.000 C 
BRANCH  25  26
ATOM     26  C   UNL     1      10.887  44.691  27.478  1.00  0.00    -0.000 C 
BRANCH  26  27
ATOM     27  C   UNL     1      11.944  45.565  28.170  1.00  0.00    -0.000 C 
BRANCH  27  28
ATOM     28  C   UNL     1      13.219  45.729  27.330  1.00  0.00    -0.000 C 
BRANCH  28  29
ATOM     29  C   UNL     1      14.057  46.913  27.830  1.00  0.00    -0.000 C 
BRANCH  29  30
ATOM     30  C   UNL     1      13.881  47.179  29.334  1.00  0.00    -0.000 C 
BRANCH  30  31
ATOM     31  C   UNL     1      13.444  48.623  29.659  1.00  0.00    -0.003 C 
ATOM     32  C   UNL     1      12.177  48.669  30.512  1.00  0.00     0.004 C 
ENDBRANCH  30  31
ENDBRANCH  29  30
ENDBRANCH  28  29
ENDBRANCH  27  28
ENDBRANCH  26  27
ENDBRANCH  25  26
ENDBRANCH  24  25
ENDBRANCH  23  24
ENDBRANCH  22  23
ENDBRANCH  21  22
ENDBRANCH  20  21
ENDBRANCH  19  20
ENDBRANCH  18  19
ENDBRANCH   1  18
TORSDOF 28
ENDMDL
MODEL 2
REMARK VINA RESULT:    -5.420      4.507      8.019
REMARK INTER + INTRA:         -17.306
REMARK INTER:                 -14.104
REMARK INTRA:                  -3.202
REMARK UNBOUND:                -3.015
REMARK SMILES CCCCCCCCCCCCCCCCCCCCCCCCCCCCCC(=O)[O-]
REMARK SMILES IDX 16 1 17 2 18 3 19 4 20 5 21 6 22 7 23 8 24 9 25 10 26 11
REMARK SMILES IDX 27 12 28 13 29 14 30 15 31 16 32 17 15 18 14 19 13 20 12 21
REMARK SMILES IDX 11 22 10 23 9 24 8 25 7 26 6 27 5 28 4 29 3 30 2 31 1 32
REMARK H PARENT
REMARK Flexibility Score: inf
ROOT
ATOM      1  C   UNL     1       7.047  56.983  22.580  1.00  0.00     0.000 C 
ENDROOT
BRANCH   1   2
ATOM      2  C   UNL     1       5.561  56.738  22.274  1.00  0.00     0.000 C 
BRANCH   2   3
ATOM      3  C   UNL     1       4.678  57.941  22.651  1.00  0.00     0.000 C 
BRANCH   3   4
ATOM      4  C   UNL     1       3.524  58.173  21.659  1.00  0.00     0.000 C 
BRANCH   4   5
ATOM      5  C   UNL     1       2.195  58.633  22.288  1.00  0.00     0.000 C 
BRANCH   5   6
ATOM      6  C   UNL     1       2.352  59.880  23.174  1.00  0.00     0.000 C 
BRANCH   6   7
ATOM      7  C   UNL     1       1.005  60.433  23.678  1.00  0.00     0.000 C 
BRANCH   7   8
ATOM      8  C   UNL     1      -0.070  59.373  23.996  1.00  0.00     0.000 C 
BRANCH   8   9
ATOM      9  C   UNL     1      -1.370  59.497  23.180  1.00  0.00     0.000 C 
BRANCH   9  10
ATOM     10  C   UNL     1      -1.327  60.653  22.166  1.00  0.00     0.000 C 
BRANCH  10  11
ATOM     11  C   UNL     1      -1.372  60.167  20.705  1.00  0.00     0.000 C 
BRANCH  11  12
ATOM     12  C   UNL     1       0.002  60.044  20.019  1.00  0.00     0.000 C 
BRANCH  12  13
ATOM     13  C   UNL     1       0.196  61.062  18.881  1.00  0.00     0.006 C 
BRANCH  13  14
ATOM     14  C   UNL     1      -0.071  60.447  17.501  1.00  0.00     0.053 C 
BRANCH  14  15
ATOM     15  C   UNL     1       0.594  59.114  17.343  1.00  0.00     0.041 C 
ATOM     16  O   UNL     1      -0.093  58.057  17.363  1.00  0.00    -0.550 OA
ATOM     17  O   UNL     1       1.968  59.039  17.153  1.00  0.00    -0.550 OA
ENDBRANCH  14  15
ENDBRANCH  13  14
ENDBRANCH  12  13
ENDBRANCH  11  12
ENDBRANCH  10  11
ENDBRANCH   9  10
ENDBRANCH   8   9
ENDBRANCH   7   8
ENDBRANCH   6   7
ENDBRANCH   5   6
ENDBRANCH   4   5
ENDBRANCH   3   4
ENDBRANCH   2   3
ENDBRANCH   1   2
BRANCH   1  18
ATOM     18  C   UNL     1       7.960  56.661  21.382  1.00  0.00     0.000 C 
BRANCH  18  19
ATOM     19  C   UNL     1       7.193  56.010  20.219  1.00  0.00     0.000 C 
BRANCH  19  20
ATOM     20  C   UNL     1       7.624  54.554  19.973  1.00  0.00     0.000 C 
BRANCH  20  21
ATOM     21  C   UNL     1       6.436  53.578  19.975  1.00  0.00     0.000 C 
BRANCH  21  22
ATOM     22  C   UNL     1       5.968  53.222  21.394  1.00  0.00     0.000 C 
BRANCH  22  23
ATOM     23  C   UNL     1       7.103  53.399  22.410  1.00  0.00     0.000 C 
BRANCH  23  24
ATOM     24  C   UNL     1       6.556  53.425  23.845  1.00  0.00    -0.000 C 
BRANCH  24  25
ATOM     25  C   UNL     1       7.216  54.509  24.712  1.00  0.00    -0.000 C 
BRANCH  25  26
ATOM     26  C   UNL     1       7.907  53.928  25.959  1.00  0.00    -0.000 C 
BRANCH  26  27
ATOM     27  C   UNL     1       9.042  54.827  26.476  1.00  0.00    -0.000 C 
BRANCH  27  28
ATOM     28  C   UNL     1      10.053  55.193  25.378  1.00  0.00    -0.000 C 
BRANCH  28  29
ATOM     29  C   UNL     1      10.666  53.931  24.756  1.00  0.00    -0.000 C 
BRANCH  29  30
ATOM     30  C   UNL     1      10.646  53.950  23.219  1.00  0.00    -0.000 C 
BRANCH  30  31
ATOM     31  C   UNL     1      10.067  52.664  22.592  1.00  0.00    -0.003 C 
ATOM     32  C   UNL     1      10.183  51.460  23.526  1.00  0.00     0.004 C 
ENDBRANCH  30  31
ENDBRANCH  29  30
ENDBRANCH  28  29
ENDBRANCH  27  28
ENDBRANCH  26  27
ENDBRANCH  25  26
ENDBRANCH  24  25
ENDBRANCH  23  24
ENDBRANCH  22  23
ENDBRANCH  21  22
ENDBRANCH  20  21
ENDBRANCH  19  20
ENDBRANCH  18  19
ENDBRANCH   1  18
TORSDOF 28
ENDMDL
MODEL 3
REMARK VINA RESULT:    -5.333      1.491      3.983
REMARK INTER + INTRA:         -17.077
REMARK INTER:                 -14.461
REMARK INTRA:                  -2.615
REMARK UNBOUND:                -3.015
REMARK SMILES CCCCCCCCCCCCCCCCCCCCCCCCCCCCCC(=O)[O-]
REMARK SMILES IDX 16 1 17 2 18 3 19 4 20 5 21 6 22 7 23 8 24 9 25 10 26 11
REMARK SMILES IDX 27 12 28 13 29 14 30 15 31 16 32 17 15 18 14 19 13 20 12 21
REMARK SMILES IDX 11 22 10 23 9 24 8 25 7 26 6 27 5 28 4 29 3 30 2 31 1 32
REMARK H PARENT
REMARK Flexibility Score: inf
ROOT
ATOM      1  C   UNL     1       7.736  53.975  25.229  1.00  0.00     0.000 C 
ENDROOT
BRANCH   1   2
ATOM      2  C   UNL     1       6.724  54.249  24.106  1.00  0.00     0.000 C 
BRANCH   2   3
ATOM      3  C   UNL     1       7.054  53.479  22.816  1.00  0.00     0.000 C 
BRANCH   3   4
ATOM      4  C   UNL     1       7.004  54.364  21.557  1.00  0.00     0.000 C 
BRANCH   4   5
ATOM      5  C   UNL     1       7.920  55.601  21.583  1.00  0.00     0.000 C 
BRANCH   5   6
ATOM      6  C   UNL     1       7.154  56.908  21.851  1.00  0.00     0.000 C 
BRANCH   6   7
ATOM      7  C   UNL     1       5.627  56.716  21.881  1.00  0.00     0.000 C 
BRANCH   7   8
ATOM      8  C   UNL     1       4.838  57.788  22.662  1.00  0.00     0.000 C 
BRANCH   8   9
ATOM      9  C   UNL     1       3.605  58.352  21.933  1.00  0.00     0.000 C 
BRANCH   9  10
ATOM     10  C   UNL     1       3.096  59.664  22.554  1.00  0.00     0.000 C 
BRANCH  10  11
ATOM     11  C   UNL     1       2.000  59.437  23.612  1.00  0.00     0.000 C 
BRANCH  11  12
ATOM     12  C   UNL     1       0.765  60.347  23.473  1.00  0.00     0.000 C 
BRANCH  12  13
ATOM     13  C   UNL     1      -0.451  59.618  22.874  1.00  0.00     0.006 C 
BRANCH  13  14
ATOM     14  C   UNL     1      -0.965  60.298  21.599  1.00  0.00     0.053 C 
BRANCH  14  15
ATOM     15  C   UNL     1       0.128  60.515  20.598  1.00  0.00     0.041 C 
ATOM     16  O   UNL     1       0.696  59.528  20.056  1.00  0.00    -0.550 OA
ATOM     17  O   UNL     1       0.506  61.805  20.248  1.00  0.00    -0.550 OA
ENDBRANCH  14  15
ENDBRANCH  13  14
ENDBRANCH  12  13
ENDBRANCH  11  12
ENDBRANCH  10  11
ENDBRANCH   9  10
ENDBRANCH   8   9
ENDBRANCH   7   8
ENDBRANCH   6   7
ENDBRANCH   5   6
ENDBRANCH   4   5
ENDBRANCH   3   4
ENDBRANCH   2   3
ENDBRANCH   1   2
BRANCH   1  18
ATOM     18  C   UNL     1       8.981  54.876  25.139  1.00  0.00     0.000 C 
BRANCH  18  19
ATOM     19  C   UNL     1      10.263  54.080  24.845  1.00  0.00     0.000 C 
BRANCH  19  20
ATOM     20  C   UNL     1      10.576  54.003  23.341  1.00  0.00     0.000 C 
BRANCH  20  21
ATOM     21  C   UNL     1      10.530  52.565  22.800  1.00  0.00     0.000 C 
BRANCH  21  22
ATOM     22  C   UNL     1      10.037  51.555  23.848  1.00  0.00     0.000 C 
BRANCH  22  23
ATOM     23  C   UNL     1      10.252  50.114  23.369  1.00  0.00     0.000 C 
BRANCH  23  24
ATOM     24  C   UNL     1      10.603  49.192  24.546  1.00  0.00    -0.000 C 
BRANCH  24  25
ATOM     25  C   UNL     1      11.243  47.870  24.093  1.00  0.00    -0.000 C 
BRANCH  25  26
ATOM     26  C   UNL     1      10.509  46.637  24.651  1.00  0.00    -0.000 C 
BRANCH  26  27
ATOM     27  C   UNL     1      10.582  46.550  26.183  1.00  0.00    -0.000 C 
BRANCH  27  28
ATOM     28  C   UNL     1      12.014  46.711  26.717  1.00  0.00    -0.000 C 
BRANCH  28  29
ATOM     29  C   UNL     1      12.110  47.907  27.673  1.00  0.00    -0.000 C 
BRANCH  29  30
ATOM     30  C   UNL     1      13.555  48.226  28.092  1.00  0.00    -0.000 C 
BRANCH  30  31
ATOM     31  C   UNL     1      13.656  48.993  29.427  1.00  0.00    -0.003 C 
ATOM     32  C   UNL     1      12.493  48.679  30.366  1.00  0.00     0.004 C 
ENDBRANCH  30  31
ENDBRANCH  29  30
ENDBRANCH  28  29
ENDBRANCH  27  28
ENDBRANCH  26  27
ENDBRANCH  25  26
ENDBRANCH  24  25
ENDBRANCH  23  24
ENDBRANCH  22  23
ENDBRANCH  21  22
ENDBRANCH  20  21
ENDBRANCH  19  20
ENDBRANCH  18  19
ENDBRANCH   1  18
TORSDOF 28
ENDMDL
MODEL 4
REMARK VINA RESULT:    -5.303      4.342     10.106
REMARK INTER + INTRA:         -16.999
REMARK INTER:                 -14.341
REMARK INTRA:                  -2.658
REMARK UNBOUND:                -3.015
REMARK SMILES CCCCCCCCCCCCCCCCCCCCCCCCCCCCCC(=O)[O-]
REMARK SMILES IDX 16 1 17 2 18 3 19 4 20 5 21 6 22 7 23 8 24 9 25 10 26 11
REMARK SMILES IDX 27 12 28 13 29 14 30 15 31 16 32 17 15 18 14 19 13 20 12 21
REMARK SMILES IDX 11 22 10 23 9 24 8 25 7 26 6 27 5 28 4 29 3 30 2 31 1 32
REMARK H PARENT
REMARK Flexibility Score: inf
ROOT
ATOM      1  C   UNL     1      10.455  49.173  24.532  1.00  0.00     0.000 C 
ENDROOT
BRANCH   1   2
ATOM      2  C   UNL     1      10.932  47.766  24.141  1.00  0.00     0.000 C 
BRANCH   2   3
ATOM      3  C   UNL     1       9.913  46.675  24.512  1.00  0.00     0.000 C 
BRANCH   3   4
ATOM      4  C   UNL     1      10.575  45.363  24.969  1.00  0.00     0.000 C 
BRANCH   4   5
ATOM      5  C   UNL     1       9.681  44.111  24.895  1.00  0.00     0.000 C 
BRANCH   5   6
ATOM      6  C   UNL     1       8.338  44.290  25.624  1.00  0.00     0.000 C 
BRANCH   6   7
ATOM      7  C   UNL     1       7.124  44.196  24.681  1.00  0.00     0.000 C 
BRANCH   7   8
ATOM      8  C   UNL     1       6.371  45.520  24.434  1.00  0.00     0.000 C 
BRANCH   8   9
ATOM      9  C   UNL     1       5.699  46.130  25.678  1.00  0.00     0.000 C 
BRANCH   9  10
ATOM     10  C   UNL     1       4.187  45.850  25.732  1.00  0.00     0.000 C 
BRANCH  10  11
ATOM     11  C   UNL     1       3.614  45.401  24.375  1.00  0.00     0.000 C 
BRANCH  11  12
ATOM     12  C   UNL     1       2.956  46.520  23.546  1.00  0.00     0.000 C 
BRANCH  12  13
ATOM     13  C   UNL     1       1.476  46.741  23.905  1.00  0.00     0.006 C 
BRANCH  13  14
ATOM     14  C   UNL     1       1.082  48.223  23.856  1.00  0.00     0.053 C 
BRANCH  14  15
ATOM     15  C   UNL     1       0.979  48.822  25.224  1.00  0.00     0.041 C 
ATOM     16  O   UNL     1       0.885  48.077  26.237  1.00  0.00    -0.550 OA
ATOM     17  O   UNL     1       1.009  50.202  25.385  1.00  0.00    -0.550 OA
ENDBRANCH  14  15
ENDBRANCH  13  14
ENDBRANCH  12  13
ENDBRANCH  11  12
ENDBRANCH  10  11
ENDBRANCH   9  10
ENDBRANCH   8   9
ENDBRANCH   7   8
ENDBRANCH   6   7
ENDBRANCH   5   6
ENDBRANCH   4   5
ENDBRANCH   3   4
ENDBRANCH   2   3
ENDBRANCH   1   2
BRANCH   1  18
ATOM     18  C   UNL     1      10.557  50.178  23.369  1.00  0.00     0.000 C 
BRANCH  18  19
ATOM     19  C   UNL     1       9.939  51.542  23.716  1.00  0.00     0.000 C 
BRANCH  19  20
ATOM     20  C   UNL     1      10.240  52.613  22.653  1.00  0.00     0.000 C 
BRANCH  20  21
ATOM     21  C   UNL     1      10.608  53.971  23.271  1.00  0.00     0.000 C 
BRANCH  21  22
ATOM     22  C   UNL     1      10.646  53.931  24.806  1.00  0.00     0.000 C 
BRANCH  22  23
ATOM     23  C   UNL     1      10.108  55.237  25.405  1.00  0.00     0.000 C 
BRANCH  23  24
ATOM     24  C   UNL     1       8.717  55.024  26.023  1.00  0.00    -0.000 C 
BRANCH  24  25
ATOM     25  C   UNL     1       7.962  53.844  25.390  1.00  0.00    -0.000 C 
BRANCH  25  26
ATOM     26  C   UNL     1       6.693  54.290  24.641  1.00  0.00    -0.000 C 
BRANCH  26  27
ATOM     27  C   UNL     1       6.881  54.297  23.116  1.00  0.00    -0.000 C 
BRANCH  27  28
ATOM     28  C   UNL     1       7.473  55.617  22.599  1.00  0.00    -0.000 C 
BRANCH  28  29
ATOM     29  C   UNL     1       7.512  55.636  21.065  1.00  0.00    -0.000 C 
BRANCH  29  30
ATOM     30  C   UNL     1       7.832  54.261  20.455  1.00  0.00    -0.000 C 
BRANCH  30  31
ATOM     31  C   UNL     1       6.758  53.757  19.469  1.00  0.00    -0.003 C 
ATOM     32  C   UNL     1       6.615  54.667  18.250  1.00  0.00     0.004 C 
ENDBRANCH  30  31
ENDBRANCH  29  30
ENDBRANCH  28  29
ENDBRANCH  27  28
ENDBRANCH  26  27
ENDBRANCH  25  26
ENDBRANCH  24  25
ENDBRANCH  23  24
ENDBRANCH  22  23
ENDBRANCH  21  22
ENDBRANCH  20  21
ENDBRANCH  19  20
ENDBRANCH  18  19
ENDBRANCH   1  18
TORSDOF 28
ENDMDL
MODEL 5
REMARK VINA RESULT:    -5.294      4.854     13.602
REMARK INTER + INTRA:         -16.974
REMARK INTER:                 -14.505
REMARK INTRA:                  -2.469
REMARK UNBOUND:                -3.015
REMARK SMILES CCCCCCCCCCCCCCCCCCCCCCCCCCCCCC(=O)[O-]
REMARK SMILES IDX 16 1 17 2 18 3 19 4 20 5 21 6 22 7 23 8 24 9 25 10 26 11
REMARK SMILES IDX 27 12 28 13 29 14 30 15 31 16 32 17 15 18 14 19 13 20 12 21
REMARK SMILES IDX 11 22 10 23 9 24 8 25 7 26 6 27 5 28 4 29 3 30 2 31 1 32
REMARK H PARENT
REMARK Flexibility Score: inf
ROOT
ATOM      1  C   UNL     1       7.703  53.917  25.111  1.00  0.00     0.000 C 
ENDROOT
BRANCH   1   2
ATOM      2  C   UNL     1       8.944  54.819  25.170  1.00  0.00     0.000 C 
BRANCH   2   3
ATOM      3  C   UNL     1      10.243  54.055  24.857  1.00  0.00     0.000 C 
BRANCH   3   4
ATOM      4  C   UNL     1      10.545  53.975  23.349  1.00  0.00     0.000 C 
BRANCH   4   5
ATOM      5  C   UNL     1      10.234  52.622  22.685  1.00  0.00     0.000 C 
BRANCH   5   6
ATOM      6  C   UNL     1       9.878  51.523  23.701  1.00  0.00     0.000 C 
BRANCH   6   7
ATOM      7  C   UNL     1      10.716  50.243  23.522  1.00  0.00     0.000 C 
BRANCH   7   8
ATOM      8  C   UNL     1      10.271  49.034  24.373  1.00  0.00     0.000 C 
BRANCH   8   9
ATOM      9  C   UNL     1      11.057  47.735  24.121  1.00  0.00     0.000 C 
BRANCH   9  10
ATOM     10  C   UNL     1      10.418  46.513  24.803  1.00  0.00     0.000 C 
BRANCH  10  11
ATOM     11  C   UNL     1      11.169  46.080  26.076  1.00  0.00     0.000 C 
BRANCH  11  12
ATOM     12  C   UNL     1      12.309  47.022  26.510  1.00  0.00     0.000 C 
BRANCH  12  13
ATOM     13  C   UNL     1      11.879  48.019  27.601  1.00  0.00     0.006 C 
BRANCH  13  14
ATOM     14  C   UNL     1      12.720  47.880  28.876  1.00  0.00     0.053 C 
BRANCH  14  15
ATOM     15  C   UNL     1      14.012  48.632  28.781  1.00  0.00     0.041 C 
ATOM     16  O   UNL     1      15.007  48.112  28.208  1.00  0.00    -0.550 OA
ATOM     17  O   UNL     1      14.112  49.915  29.305  1.00  0.00    -0.550 OA
ENDBRANCH  14  15
ENDBRANCH  13  14
ENDBRANCH  12  13
ENDBRANCH  11  12
ENDBRANCH  10  11
ENDBRANCH   9  10
ENDBRANCH   8   9
ENDBRANCH   7   8
ENDBRANCH   6   7
ENDBRANCH   5   6
ENDBRANCH   4   5
ENDBRANCH   3   4
ENDBRANCH   2   3
ENDBRANCH   1   2
BRANCH   1  18
ATOM     18  C   UNL     1       6.637  54.438  24.129  1.00  0.00     0.000 C 
BRANCH  18  19
ATOM     19  C   UNL     1       6.861  53.932  22.695  1.00  0.00     0.000 C 
BRANCH  19  20
ATOM     20  C   UNL     1       7.356  55.041  21.750  1.00  0.00     0.000 C 
BRANCH  20  21
ATOM     21  C   UNL     1       7.264  56.439  22.381  1.00  0.00     0.000 C 
BRANCH  21  22
ATOM     22  C   UNL     1       6.196  57.319  21.713  1.00  0.00     0.000 C 
BRANCH  22  23
ATOM     23  C   UNL     1       4.892  57.311  22.522  1.00  0.00     0.000 C 
BRANCH  23  24
ATOM     24  C   UNL     1       3.916  58.375  21.998  1.00  0.00    -0.000 C 
BRANCH  24  25
ATOM     25  C   UNL     1       3.192  59.123  23.128  1.00  0.00    -0.000 C 
BRANCH  25  26
ATOM     26  C   UNL     1       2.701  60.517  22.695  1.00  0.00    -0.000 C 
BRANCH  26  27
ATOM     27  C   UNL     1       1.294  60.481  22.079  1.00  0.00    -0.000 C 
BRANCH  27  28
ATOM     28  C   UNL     1       1.304  60.760  20.568  1.00  0.00    -0.000 C 
BRANCH  28  29
ATOM     29  C   UNL     1       0.993  59.484  19.774  1.00  0.00    -0.000 C 
BRANCH  29  30
ATOM     30  C   UNL     1       1.975  59.243  18.616  1.00  0.00    -0.000 C 
BRANCH  30  31
ATOM     31  C   UNL     1       1.283  58.949  17.269  1.00  0.00    -0.003 C 
ATOM     32  C   UNL     1       2.282  58.805  16.121  1.00  0.00     0.004 C 
ENDBRANCH  30  31
ENDBRANCH  29  30
ENDBRANCH  28  29
ENDBRANCH  27  28
ENDBRANCH  26  27
ENDBRANCH  25  26
ENDBRANCH  24  25
ENDBRANCH  23  24
ENDBRANCH  22  23
ENDBRANCH  21  22
ENDBRANCH  20  21
ENDBRANCH  19  20
ENDBRANCH  18  19
ENDBRANCH   1  18
TORSDOF 28
ENDMDL
MODEL 6
REMARK VINA RESULT:    -5.254      4.673     12.371
REMARK INTER + INTRA:         -16.869
REMARK INTER:                 -14.063
REMARK INTRA:                  -2.805
REMARK UNBOUND:                -3.015
REMARK SMILES CCCCCCCCCCCCCCCCCCCCCCCCCCCCCC(=O)[O-]
REMARK SMILES IDX 16 1 17 2 18 3 19 4 20 5 21 6 22 7 23 8 24 9 25 10 26 11
REMARK SMILES IDX 27 12 28 13 29 14 30 15 31 16 32 17 15 18 14 19 13 20 12 21
REMARK SMILES IDX 11 22 10 23 9 24 8 25 7 26 6 27 5 28 4 29 3 30 2 31 1 32
REMARK H PARENT
REMARK Flexibility Score: inf
ROOT
ATOM      1  C   UNL     1      10.618  52.457  22.882  1.00  0.00     0.000 C 
ENDROOT
BRANCH   1   2
ATOM      2  C   UNL     1       9.953  51.517  23.900  1.00  0.00     0.000 C 
BRANCH   2   3
ATOM      3  C   UNL     1      10.112  50.035  23.522  1.00  0.00     0.000 C 
BRANCH   3   4
ATOM      4  C   UNL     1      11.034  49.264  24.484  1.00  0.00     0.000 C 
BRANCH   4   5
ATOM      5  C   UNL     1      10.474  47.929  25.008  1.00  0.00     0.000 C 
BRANCH   5   6
ATOM      6  C   UNL     1      11.173  46.704  24.395  1.00  0.00     0.000 C 
BRANCH   6   7
ATOM      7  C   UNL     1      10.499  45.373  24.777  1.00  0.00     0.000 C 
BRANCH   7   8
ATOM      8  C   UNL     1       9.278  45.492  25.713  1.00  0.00     0.000 C 
BRANCH   8   9
ATOM      9  C   UNL     1       9.343  44.627  26.985  1.00  0.00     0.000 C 
BRANCH   9  10
ATOM     10  C   UNL     1      10.786  44.324  27.423  1.00  0.00     0.000 C 
BRANCH  10  11
ATOM     11  C   UNL     1      11.014  44.555  28.929  1.00  0.00     0.000 C 
BRANCH  11  12
ATOM     12  C   UNL     1      11.870  45.788  29.275  1.00  0.00     0.000 C 
BRANCH  12  13
ATOM     13  C   UNL     1      12.376  46.535  28.028  1.00  0.00     0.006 C 
BRANCH  13  14
ATOM     14  C   UNL     1      12.287  48.057  28.187  1.00  0.00     0.053 C 
BRANCH  14  15
ATOM     15  C   UNL     1      13.249  48.572  29.213  1.00  0.00     0.041 C 
ATOM     16  O   UNL     1      14.488  48.568  28.978  1.00  0.00    -0.550 OA
ATOM     17  O   UNL     1      12.778  49.076  30.419  1.00  0.00    -0.550 OA
ENDBRANCH  14  15
ENDBRANCH  13  14
ENDBRANCH  12  13
ENDBRANCH  11  12
ENDBRANCH  10  11
ENDBRANCH   9  10
ENDBRANCH   8   9
ENDBRANCH   7   8
ENDBRANCH   6   7
ENDBRANCH   5   6
ENDBRANCH   4   5
ENDBRANCH   3   4
ENDBRANCH   2   3
ENDBRANCH   1   2
BRANCH   1  18
ATOM     18  C   UNL     1      10.697  53.912  23.382  1.00  0.00     0.000 C 
BRANCH  18  19
ATOM     19  C   UNL     1      10.557  54.016  24.910  1.00  0.00     0.000 C 
BRANCH  19  20
ATOM     20  C   UNL     1       9.514  55.063  25.336  1.00  0.00     0.000 C 
BRANCH  20  21
ATOM     21  C   UNL     1       8.262  54.429  25.962  1.00  0.00     0.000 C 
BRANCH  21  22
ATOM     22  C   UNL     1       7.600  53.394  25.040  1.00  0.00     0.000 C 
BRANCH  22  23
ATOM     23  C   UNL     1       6.618  54.066  24.073  1.00  0.00     0.000 C 
BRANCH  23  24
ATOM     24  C   UNL     1       7.102  53.935  22.621  1.00  0.00    -0.000 C 
BRANCH  24  25
ATOM     25  C   UNL     1       7.938  55.141  22.164  1.00  0.00    -0.000 C 
BRANCH  25  26
ATOM     26  C   UNL     1       7.223  55.982  21.091  1.00  0.00    -0.000 C 
BRANCH  26  27
ATOM     27  C   UNL     1       6.504  57.204  21.682  1.00  0.00    -0.000 C 
BRANCH  27  28
ATOM     28  C   UNL     1       5.125  56.855  22.264  1.00  0.00    -0.000 C 
BRANCH  28  29
ATOM     29  C   UNL     1       4.270  58.116  22.441  1.00  0.00    -0.000 C 
BRANCH  29  30
ATOM     30  C   UNL     1       2.864  57.978  21.833  1.00  0.00    -0.000 C 
BRANCH  30  31
ATOM     31  C   UNL     1       2.518  59.087  20.817  1.00  0.00    -0.003 C 
ATOM     32  C   UNL     1       2.935  60.473  21.306  1.00  0.00     0.004 C 
ENDBRANCH  30  31
ENDBRANCH  29  30
ENDBRANCH  28  29
ENDBRANCH  27  28
ENDBRANCH  26  27
ENDBRANCH  25  26
ENDBRANCH  24  25
ENDBRANCH  23  24
ENDBRANCH  22  23
ENDBRANCH  21  22
ENDBRANCH  20  21
ENDBRANCH  19  20
ENDBRANCH  18  19
ENDBRANCH   1  18
TORSDOF 28
ENDMDL
MODEL 7
REMARK VINA RESULT:    -5.237      4.798     14.183
REMARK INTER + INTRA:         -16.824
REMARK INTER:                 -13.910
REMARK INTRA:                  -2.914
REMARK UNBOUND:                -3.015
REMARK SMILES CCCCCCCCCCCCCCCCCCCCCCCCCCCCCC(=O)[O-]
REMARK SMILES IDX 16 1 17 2 18 3 19 4 20 5 21 6 22 7 23 8 24 9 25 10 26 11
REMARK SMILES IDX 27 12 28 13 29 14 30 15 31 16 32 17 15 18 14 19 13 20 12 21
REMARK SMILES IDX 11 22 10 23 9 24 8 25 7 26 6 27 5 28 4 29 3 30 2 31 1 32
REMARK H PARENT
REMARK Flexibility Score: inf
ROOT
ATOM      1  C   UNL     1       7.536  55.787  21.905  1.00  0.00     0.000 C 
ENDROOT
BRANCH   1   2
ATOM      2  C   UNL     1       6.753  54.475  21.737  1.00  0.00     0.000 C 
BRANCH   2   3
ATOM      3  C   UNL     1       6.921  53.532  22.941  1.00  0.00     0.000 C 
BRANCH   3   4
ATOM      4  C   UNL     1       6.910  54.273  24.291  1.00  0.00     0.000 C 
BRANCH   4   5
ATOM      5  C   UNL     1       7.933  53.772  25.327  1.00  0.00     0.000 C 
BRANCH   5   6
ATOM      6  C   UNL     1       9.189  54.658  25.406  1.00  0.00     0.000 C 
BRANCH   6   7
ATOM      7  C   UNL     1      10.435  53.991  24.794  1.00  0.00     0.000 C 
BRANCH   7   8
ATOM      8  C   UNL     1      10.438  53.878  23.254  1.00  0.00     0.000 C 
BRANCH   8   9
ATOM      9  C   UNL     1      10.393  52.440  22.706  1.00  0.00     0.000 C 
BRANCH   9  10
ATOM     10  C   UNL     1       9.945  51.415  23.762  1.00  0.00     0.000 C 
BRANCH  10  11
ATOM     11  C   UNL     1      10.707  50.081  23.660  1.00  0.00     0.000 C 
BRANCH  11  12
ATOM     12  C   UNL     1      10.262  49.000  24.663  1.00  0.00     0.000 C 
BRANCH  12  13
ATOM     13  C   UNL     1      10.423  47.571  24.115  1.00  0.00     0.006 C 
BRANCH  13  14
ATOM     14  C   UNL     1      11.698  46.892  24.630  1.00  0.00     0.053 C 
BRANCH  14  15
ATOM     15  C   UNL     1      11.430  46.031  25.827  1.00  0.00     0.041 C 
ATOM     16  O   UNL     1      11.216  44.797  25.685  1.00  0.00    -0.550 OA
ATOM     17  O   UNL     1      11.438  46.587  27.101  1.00  0.00    -0.550 OA
ENDBRANCH  14  15
ENDBRANCH  13  14
ENDBRANCH  12  13
ENDBRANCH  11  12
ENDBRANCH  10  11
ENDBRANCH   9  10
ENDBRANCH   8   9
ENDBRANCH   7   8
ENDBRANCH   6   7
ENDBRANCH   5   6
ENDBRANCH   4   5
ENDBRANCH   3   4
ENDBRANCH   2   3
ENDBRANCH   1   2
BRANCH   1  18
ATOM     18  C   UNL     1       6.635  57.032  21.810  1.00  0.00     0.000 C 
BRANCH  18  19
ATOM     19  C   UNL     1       5.294  56.843  22.538  1.00  0.00     0.000 C 
BRANCH  19  20
ATOM     20  C   UNL     1       4.479  58.145  22.618  1.00  0.00     0.000 C 
BRANCH  20  21
ATOM     21  C   UNL     1       3.215  58.105  21.745  1.00  0.00     0.000 C 
BRANCH  21  22
ATOM     22  C   UNL     1       2.697  59.508  21.392  1.00  0.00     0.000 C 
BRANCH  22  23
ATOM     23  C   UNL     1       2.660  60.410  22.632  1.00  0.00     0.000 C 
BRANCH  23  24
ATOM     24  C   UNL     1       1.457  60.066  23.524  1.00  0.00    -0.000 C 
BRANCH  24  25
ATOM     25  C   UNL     1       0.171  59.822  22.717  1.00  0.00    -0.000 C 
BRANCH  25  26
ATOM     26  C   UNL     1      -0.611  61.119  22.445  1.00  0.00    -0.000 C 
BRANCH  26  27
ATOM     27  C   UNL     1      -1.144  61.196  21.006  1.00  0.00    -0.000 C 
BRANCH  27  28
ATOM     28  C   UNL     1      -0.322  62.144  20.120  1.00  0.00    -0.000 C 
BRANCH  28  29
ATOM     29  C   UNL     1       0.183  61.421  18.864  1.00  0.00    -0.000 C 
BRANCH  29  30
ATOM     30  C   UNL     1      -0.553  60.098  18.597  1.00  0.00    -0.000 C 
BRANCH  30  31
ATOM     31  C   UNL     1       0.142  59.204  17.550  1.00  0.00    -0.003 C 
ATOM     32  C   UNL     1       1.633  59.027  17.836  1.00  0.00     0.004 C 
ENDBRANCH  30  31
ENDBRANCH  29  30
ENDBRANCH  28  29
ENDBRANCH  27  28
ENDBRANCH  26  27
ENDBRANCH  25  26
ENDBRANCH  24  25
ENDBRANCH  23  24
ENDBRANCH  22  23
ENDBRANCH  21  22
ENDBRANCH  20  21
ENDBRANCH  19  20
ENDBRANCH  18  19
ENDBRANCH   1  18
TORSDOF 28
ENDMDL
MODEL 8
REMARK VINA RESULT:    -5.235      1.765      3.501
REMARK INTER + INTRA:         -16.819
REMARK INTER:                 -14.195
REMARK INTRA:                  -2.624
REMARK UNBOUND:                -3.015
REMARK SMILES CCCCCCCCCCCCCCCCCCCCCCCCCCCCCC(=O)[O-]
REMARK SMILES IDX 16 1 17 2 18 3 19 4 20 5 21 6 22 7 23 8 24 9 25 10 26 11
REMARK SMILES IDX 27 12 28 13 29 14 30 15 31 16 32 17 15 18 14 19 13 20 12 21
REMARK SMILES IDX 11 22 10 23 9 24 8 25 7 26 6 27 5 28 4 29 3 30 2 31 1 32
REMARK H PARENT
REMARK Flexibility Score: inf
ROOT
ATOM      1  C   UNL     1       9.079  55.093  24.938  1.00  0.00     0.000 C 
ENDROOT
BRANCH   1   2
ATOM      2  C   UNL     1       7.909  54.311  25.554  1.00  0.00     0.000 C 
BRANCH   2   3
ATOM      3  C   UNL     1       7.202  53.406  24.530  1.00  0.00     0.000 C 
BRANCH   3   4
ATOM      4  C   UNL     1       6.374  54.195  23.500  1.00  0.00     0.000 C 
BRANCH   4   5
ATOM      5  C   UNL     1       6.620  53.819  22.027  1.00  0.00     0.000 C 
BRANCH   5   6
ATOM      6  C   UNL     1       7.292  54.947  21.225  1.00  0.00     0.000 C 
BRANCH   6   7
ATOM      7  C   UNL     1       7.370  56.274  22.003  1.00  0.00     0.000 C 
BRANCH   7   8
ATOM      8  C   UNL     1       6.274  57.307  21.663  1.00  0.00     0.000 C 
BRANCH   8   9
ATOM      9  C   UNL     1       5.019  57.243  22.553  1.00  0.00     0.000 C 
BRANCH   9  10
ATOM     10  C   UNL     1       3.778  57.845  21.872  1.00  0.00     0.000 C 
BRANCH  10  11
ATOM     11  C   UNL     1       3.531  59.312  22.272  1.00  0.00     0.000 C 
BRANCH  11  12
ATOM     12  C   UNL     1       2.345  59.533  23.230  1.00  0.00     0.000 C 
BRANCH  12  13
ATOM     13  C   UNL     1       1.112  58.689  22.862  1.00  0.00     0.006 C 
BRANCH  13  14
ATOM     14  C   UNL     1      -0.203  59.395  23.216  1.00  0.00     0.053 C 
BRANCH  14  15
ATOM     15  C   UNL     1      -0.167  59.989  24.591  1.00  0.00     0.041 C 
ATOM     16  O   UNL     1      -0.114  59.240  25.604  1.00  0.00    -0.550 OA
ATOM     17  O   UNL     1      -0.171  61.369  24.754  1.00  0.00    -0.550 OA
ENDBRANCH  14  15
ENDBRANCH  13  14
ENDBRANCH  12  13
ENDBRANCH  11  12
ENDBRANCH  10  11
ENDBRANCH   9  10
ENDBRANCH   8   9
ENDBRANCH   7   8
ENDBRANCH   6   7
ENDBRANCH   5   6
ENDBRANCH   4   5
ENDBRANCH   3   4
ENDBRANCH   2   3
ENDBRANCH   1   2
BRANCH   1  18
ATOM     18  C   UNL     1      10.260  54.184  24.549  1.00  0.00     0.000 C 
BRANCH  18  19
ATOM     19  C   UNL     1      10.383  53.999  23.028  1.00  0.00     0.000 C 
BRANCH  19  20
ATOM     20  C   UNL     1      10.329  52.519  22.609  1.00  0.00     0.000 C 
BRANCH  20  21
ATOM     21  C   UNL     1       9.887  51.596  23.756  1.00  0.00     0.000 C 
BRANCH  21  22
ATOM     22  C   UNL     1      10.586  50.228  23.715  1.00  0.00     0.000 C 
BRANCH  22  23
ATOM     23  C   UNL     1       9.963  49.262  24.730  1.00  0.00     0.000 C 
BRANCH  23  24
ATOM     24  C   UNL     1      10.471  47.829  24.505  1.00  0.00    -0.000 C 
BRANCH  24  25
ATOM     25  C   UNL     1      11.937  47.786  24.044  1.00  0.00    -0.000 C 
BRANCH  25  26
ATOM     26  C   UNL     1      12.847  47.043  25.039  1.00  0.00    -0.000 C 
BRANCH  26  27
ATOM     27  C   UNL     1      12.206  46.895  26.428  1.00  0.00    -0.000 C 
BRANCH  27  28
ATOM     28  C   UNL     1      12.899  45.828  27.288  1.00  0.00    -0.000 C 
BRANCH  28  29
ATOM     29  C   UNL     1      14.113  46.417  28.019  1.00  0.00    -0.000 C 
BRANCH  29  30
ATOM     30  C   UNL     1      13.769  47.673  28.837  1.00  0.00    -0.000 C 
BRANCH  30  31
ATOM     31  C   UNL     1      12.712  47.426  29.933  1.00  0.00    -0.003 C 
ATOM     32  C   UNL     1      12.235  48.724  30.583  1.00  0.00     0.004 C 
ENDBRANCH  30  31
ENDBRANCH  29  30
ENDBRANCH  28  29
ENDBRANCH  27  28
ENDBRANCH  26  27
ENDBRANCH  25  26
ENDBRANCH  24  25
ENDBRANCH  23  24
ENDBRANCH  22  23
ENDBRANCH  21  22
ENDBRANCH  20  21
ENDBRANCH  19  20
ENDBRANCH  18  19
ENDBRANCH   1  18
TORSDOF 28
ENDMDL
MODEL 9
REMARK VINA RESULT:    -5.142      4.716     13.731
REMARK INTER + INTRA:         -16.574
REMARK INTER:                 -14.095
REMARK INTRA:                  -2.479
REMARK UNBOUND:                -3.015
REMARK SMILES CCCCCCCCCCCCCCCCCCCCCCCCCCCCCC(=O)[O-]
REMARK SMILES IDX 16 1 17 2 18 3 19 4 20 5 21 6 22 7 23 8 24 9 25 10 26 11
REMARK SMILES IDX 27 12 28 13 29 14 30 15 31 16 32 17 15 18 14 19 13 20 12 21
REMARK SMILES IDX 11 22 10 23 9 24 8 25 7 26 6 27 5 28 4 29 3 30 2 31 1 32
REMARK H PARENT
REMARK Flexibility Score: inf
ROOT
ATOM      1  C   UNL     1       6.881  53.840  22.050  1.00  0.00     0.000 C 
ENDROOT
BRANCH   1   2
ATOM      2  C   UNL     1       6.448  54.129  23.496  1.00  0.00     0.000 C 
BRANCH   2   3
ATOM      3  C   UNL     1       7.220  53.280  24.521  1.00  0.00     0.000 C 
BRANCH   3   4
ATOM      4  C   UNL     1       8.088  54.126  25.471  1.00  0.00     0.000 C 
BRANCH   4   5
ATOM      5  C   UNL     1       9.260  54.872  24.806  1.00  0.00     0.000 C 
BRANCH   5   6
ATOM      6  C   UNL     1      10.477  53.967  24.549  1.00  0.00     0.000 C 
BRANCH   6   7
ATOM      7  C   UNL     1      10.548  53.451  23.099  1.00  0.00     0.000 C 
BRANCH   7   8
ATOM      8  C   UNL     1      10.017  52.018  22.879  1.00  0.00     0.000 C 
BRANCH   8   9
ATOM      9  C   UNL     1      10.212  51.060  24.067  1.00  0.00     0.000 C 
BRANCH   9  10
ATOM     10  C   UNL     1      10.721  49.674  23.635  1.00  0.00     0.000 C 
BRANCH  10  11
ATOM     11  C   UNL     1      10.671  48.637  24.773  1.00  0.00     0.000 C 
BRANCH  11  12
ATOM     12  C   UNL     1      10.030  47.288  24.394  1.00  0.00     0.000 C 
BRANCH  12  13
ATOM     13  C   UNL     1      10.782  46.082  24.984  1.00  0.00     0.006 C 
BRANCH  13  14
ATOM     14  C   UNL     1      10.037  44.762  24.749  1.00  0.00     0.053 C 
BRANCH  14  15
ATOM     15  C   UNL     1       8.608  44.839  25.193  1.00  0.00     0.041 C 
ATOM     16  O   UNL     1       8.320  45.315  26.324  1.00  0.00    -0.550 OA
ATOM     17  O   UNL     1       7.592  44.405  24.349  1.00  0.00    -0.550 OA
ENDBRANCH  14  15
ENDBRANCH  13  14
ENDBRANCH  12  13
ENDBRANCH  11  12
ENDBRANCH  10  11
ENDBRANCH   9  10
ENDBRANCH   8   9
ENDBRANCH   7   8
ENDBRANCH   6   7
ENDBRANCH   5   6
ENDBRANCH   4   5
ENDBRANCH   3   4
ENDBRANCH   2   3
ENDBRANCH   1   2
BRANCH   1  18
ATOM     18  C   UNL     1       7.465  55.080  21.347  1.00  0.00     0.000 C 
BRANCH  18  19
ATOM     19  C   UNL     1       7.379  56.344  22.219  1.00  0.00     0.000 C 
BRANCH  19  20
ATOM     20  C   UNL     1       6.299  57.324  21.731  1.00  0.00     0.000 C 
BRANCH  20  21
ATOM     21  C   UNL     1       5.082  57.378  22.668  1.00  0.00     0.000 C 
BRANCH  21  22
ATOM     22  C   UNL     1       3.814  57.880  21.961  1.00  0.00     0.000 C 
BRANCH  22  23
ATOM     23  C   UNL     1       3.418  59.273  22.465  1.00  0.00     0.000 C 
BRANCH  23  24
ATOM     24  C   UNL     1       2.199  59.192  23.397  1.00  0.00    -0.000 C 
BRANCH  24  25
ATOM     25  C   UNL     1       1.276  60.415  23.274  1.00  0.00    -0.000 C 
BRANCH  25  26
ATOM     26  C   UNL     1       0.097  60.171  22.314  1.00  0.00    -0.000 C 
BRANCH  26  27
ATOM     27  C   UNL     1      -0.333  61.447  21.573  1.00  0.00    -0.000 C 
BRANCH  27  28
ATOM     28  C   UNL     1       0.104  61.450  20.100  1.00  0.00    -0.000 C 
BRANCH  28  29
ATOM     29  C   UNL     1       0.516  60.042  19.648  1.00  0.00    -0.000 C 
BRANCH  29  30
ATOM     30  C   UNL     1       0.007  59.691  18.241  1.00  0.00    -0.000 C 
BRANCH  30  31
ATOM     31  C   UNL     1       0.830  58.587  17.544  1.00  0.00    -0.003 C 
ATOM     32  C   UNL     1       2.011  59.153  16.755  1.00  0.00     0.004 C 
ENDBRANCH  30  31
ENDBRANCH  29  30
ENDBRANCH  28  29
ENDBRANCH  27  28
ENDBRANCH  26  27
ENDBRANCH  25  26
ENDBRANCH  24  25
ENDBRANCH  23  24
ENDBRANCH  22  23
ENDBRANCH  21  22
ENDBRANCH  20  21
ENDBRANCH  19  20
ENDBRANCH  18  19
ENDBRANCH   1  18
TORSDOF 28
ENDMDL
