MODEL 1
REMARK VINA RESULT:    -5.248      0.000      0.000
REMARK INTER + INTRA:          -6.061
REMARK INTER:                  -6.015
REMARK INTRA:                  -0.046
REMARK UNBOUND:                -0.046
REMARK SMILES O=C([O-])c1cc(O)c(O)c(O)c1
REMARK SMILES IDX 4 1 5 2 12 3 6 4 10 5 8 6 2 7 1 8 3 9 7 10 11 12 9 14
REMARK H PARENT 7 11 11 13 9 15
REMARK Flexibility Score: inf
ROOT
ATOM      1  C   UNL     1       9.077  10.617  17.590  1.00  0.00     0.005 A 
ATOM      2  C   UNL     1       8.790   9.558  16.713  1.00  0.00     0.060 A 
ATOM      3  C   UNL     1      10.343  11.227  17.533  1.00  0.00     0.060 A 
ATOM      4  C   UNL     1       9.750   9.113  15.795  1.00  0.00     0.162 A 
ATOM      5  C   UNL     1      11.307  10.786  16.615  1.00  0.00     0.162 A 
ATOM      6  C   UNL     1      11.009   9.725  15.743  1.00  0.00     0.200 A 
ENDROOT
BRANCH   1   7
ATOM      7  C   UNL     1       8.058  11.083  18.557  1.00  0.00     0.072 C 
ATOM      8  O   UNL     1       7.592  12.251  18.485  1.00  0.00    -0.545 OA
ATOM      9  O   UNL     1       7.602  10.237  19.562  1.00  0.00    -0.545 OA
ENDBRANCH   1   7
BRANCH   4  10
ATOM     10  O   UNL     1       9.461   8.061  14.926  1.00  0.00    -0.504 OA
ATOM     11  H   UNL     1       9.442   8.193  13.922  1.00  0.00     0.293 HD
ENDBRANCH   4  10
BRANCH   5  12
ATOM     12  O   UNL     1      12.558  11.398  16.568  1.00  0.00    -0.504 OA
ATOM     13  H   UNL     1      13.241  11.159  15.859  1.00  0.00     0.293 HD
ENDBRANCH   5  12
BRANCH   6  14
ATOM     14  O   UNL     1      11.952   9.268  14.822  1.00  0.00    -0.502 OA
ATOM     15  H   UNL     1      12.948   9.314  15.002  1.00  0.00     0.293 HD
ENDBRANCH   6  14
TORSDOF 4
ENDMDL
MODEL 2
REMARK VINA RESULT:    -5.236      0.137      2.423
REMARK INTER + INTRA:          -6.048
REMARK INTER:                  -6.002
REMARK INTRA:                  -0.046
REMARK UNBOUND:                -0.046
REMARK SMILES O=C([O-])c1cc(O)c(O)c(O)c1
REMARK SMILES IDX 4 1 5 2 12 3 6 4 10 5 8 6 2 7 1 8 3 9 7 10 11 12 9 14
REMARK H PARENT 7 11 11 13 9 15
REMARK Flexibility Score: inf
ROOT
ATOM      1  C   UNL     1       9.100  10.623  17.618  1.00  0.00     0.005 A 
ATOM      2  C   UNL     1      10.394  11.170  17.637  1.00  0.00     0.060 A 
ATOM      3  C   UNL     1       8.807   9.596  16.704  1.00  0.00     0.060 A 
ATOM      4  C   UNL     1      11.380  10.701  16.760  1.00  0.00     0.162 A 
ATOM      5  C   UNL     1       9.790   9.122  15.824  1.00  0.00     0.162 A 
ATOM      6  C   UNL     1      11.081   9.676  15.852  1.00  0.00     0.200 A 
ENDROOT
BRANCH   1   7
ATOM      7  C   UNL     1       8.063  11.124  18.548  1.00  0.00     0.072 C 
ATOM      8  O   UNL     1       7.664  12.316  18.481  1.00  0.00    -0.545 OA
ATOM      9  O   UNL     1       7.515  10.283  19.511  1.00  0.00    -0.545 OA
ENDBRANCH   1   7
BRANCH   4  10
ATOM     10  O   UNL     1      12.662  11.247  16.783  1.00  0.00    -0.504 OA
ATOM     11  H   UNL     1      13.410  10.821  17.319  1.00  0.00     0.293 HD
ENDBRANCH   4  10
BRANCH   5  12
ATOM     12  O   UNL     1       9.488   8.103  14.923  1.00  0.00    -0.504 OA
ATOM     13  H   UNL     1       9.734   8.169  13.942  1.00  0.00     0.293 HD
ENDBRANCH   5  12
BRANCH   6  14
ATOM     14  O   UNL     1      12.075   9.221  14.985  1.00  0.00    -0.502 OA
ATOM     15  H   UNL     1      12.440   9.795  14.235  1.00  0.00     0.293 HD
ENDBRANCH   6  14
TORSDOF 4
ENDMDL
MODEL 3
REMARK VINA RESULT:    -5.230      1.383      4.505
REMARK INTER + INTRA:          -6.040
REMARK INTER:                  -5.993
REMARK INTRA:                  -0.047
REMARK UNBOUND:                -0.046
REMARK SMILES O=C([O-])c1cc(O)c(O)c(O)c1
REMARK SMILES IDX 4 1 5 2 12 3 6 4 10 5 8 6 2 7 1 8 3 9 7 10 11 12 9 14
REMARK H PARENT 7 11 11 13 9 15
REMARK Flexibility Score: inf
ROOT
ATOM      1  C   UNL     1      10.094  10.510  16.895  1.00  0.00     0.005 A 
ATOM      2  C   UNL     1      10.396   9.787  18.060  1.00  0.00     0.060 A 
ATOM      3  C   UNL     1       8.808  11.059  16.745  1.00  0.00     0.060 A 
ATOM      4  C   UNL     1       9.431   9.614  19.062  1.00  0.00     0.162 A 
ATOM      5  C   UNL     1       7.839  10.889  17.745  1.00  0.00     0.162 A 
ATOM      6  C   UNL     1       8.152  10.164  18.907  1.00  0.00     0.200 A 
ENDROOT
BRANCH   1   7
ATOM      7  C   UNL     1      11.117  10.690  15.840  1.00  0.00     0.072 C 
ATOM      8  O   UNL     1      11.482  11.843  15.491  1.00  0.00    -0.545 OA
ATOM      9  O   UNL     1      11.691   9.586  15.219  1.00  0.00    -0.545 OA
ENDBRANCH   1   7
BRANCH   4  10
ATOM     10  O   UNL     1       9.736   8.896  20.217  1.00  0.00    -0.504 OA
ATOM     11  H   UNL     1       9.010   8.483  20.791  1.00  0.00     0.293 HD
ENDBRANCH   4  10
BRANCH   5  12
ATOM     12  O   UNL     1       6.568  11.438  17.586  1.00  0.00    -0.504 OA
ATOM     13  H   UNL     1       6.303  12.305  18.038  1.00  0.00     0.293 HD
ENDBRANCH   5  12
BRANCH   6  14
ATOM     14  O   UNL     1       7.205   9.981  19.915  1.00  0.00    -0.502 OA
ATOM     15  H   UNL     1       6.378  10.561  19.988  1.00  0.00     0.293 HD
ENDBRANCH   6  14
TORSDOF 4
ENDMDL
MODEL 4
REMARK VINA RESULT:    -5.217      1.392      4.342
REMARK INTER + INTRA:          -6.025
REMARK INTER:                  -5.979
REMARK INTRA:                  -0.047
REMARK UNBOUND:                -0.046
REMARK SMILES O=C([O-])c1cc(O)c(O)c(O)c1
REMARK SMILES IDX 4 1 5 2 12 3 6 4 10 5 8 6 2 7 1 8 3 9 7 10 11 12 9 14
REMARK H PARENT 7 11 11 13 9 15
REMARK Flexibility Score: inf
ROOT
ATOM      1  C   UNL     1      10.128  10.453  16.923  1.00  0.00     0.005 A 
ATOM      2  C   UNL     1       8.838  10.987  16.770  1.00  0.00     0.060 A 
ATOM      3  C   UNL     1      10.441   9.751  18.100  1.00  0.00     0.060 A 
ATOM      4  C   UNL     1       7.875  10.824  17.774  1.00  0.00     0.162 A 
ATOM      5  C   UNL     1       9.480   9.584  19.108  1.00  0.00     0.162 A 
ATOM      6  C   UNL     1       8.193  10.123  18.945  1.00  0.00     0.200 A 
ENDROOT
BRANCH   1   7
ATOM      7  C   UNL     1      11.141  10.629  15.858  1.00  0.00     0.072 C 
ATOM      8  O   UNL     1      11.479  11.781  15.478  1.00  0.00    -0.545 OA
ATOM      9  O   UNL     1      11.734   9.522  15.260  1.00  0.00    -0.545 OA
ENDBRANCH   1   7
BRANCH   4  10
ATOM     10  O   UNL     1       6.596  11.356  17.617  1.00  0.00    -0.504 OA
ATOM     11  H   UNL     1       5.768  10.833  17.878  1.00  0.00     0.293 HD
ENDBRANCH   4  10
BRANCH   5  12
ATOM     12  O   UNL     1       9.802   8.886  20.270  1.00  0.00    -0.504 OA
ATOM     13  H   UNL     1      10.220   7.964  20.239  1.00  0.00     0.293 HD
ENDBRANCH   5  12
BRANCH   6  14
ATOM     14  O   UNL     1       7.221   9.970  19.934  1.00  0.00    -0.502 OA
ATOM     15  H   UNL     1       6.636   9.146  19.991  1.00  0.00     0.293 HD
ENDBRANCH   6  14
TORSDOF 4
ENDMDL
MODEL 5
REMARK VINA RESULT:    -5.076      2.239      3.746
REMARK INTER + INTRA:          -5.864
REMARK INTER:                  -5.818
REMARK INTRA:                  -0.046
REMARK UNBOUND:                -0.046
REMARK SMILES O=C([O-])c1cc(O)c(O)c(O)c1
REMARK SMILES IDX 4 1 5 2 12 3 6 4 10 5 8 6 2 7 1 8 3 9 7 10 11 12 9 14
REMARK H PARENT 7 11 11 13 9 15
REMARK Flexibility Score: inf
ROOT
ATOM      1  C   UNL     1      12.573  11.692  17.389  1.00  0.00     0.005 A 
ATOM      2  C   UNL     1      11.435  10.993  17.821  1.00  0.00     0.060 A 
ATOM      3  C   UNL     1      13.083  11.440  16.103  1.00  0.00     0.060 A 
ATOM      4  C   UNL     1      10.813  10.056  16.985  1.00  0.00     0.162 A 
ATOM      5  C   UNL     1      12.464  10.503  15.262  1.00  0.00     0.162 A 
ATOM      6  C   UNL     1      11.326   9.809  15.705  1.00  0.00     0.200 A 
ENDROOT
BRANCH   1   7
ATOM      7  C   UNL     1      13.225  12.681  18.277  1.00  0.00     0.072 C 
ATOM      8  O   UNL     1      12.600  13.703  18.666  1.00  0.00    -0.545 OA
ATOM      9  O   UNL     1      14.538  12.496  18.694  1.00  0.00    -0.545 OA
ENDBRANCH   1   7
BRANCH   4  10
ATOM     10  O   UNL     1       9.683   9.364  17.419  1.00  0.00    -0.504 OA
ATOM     11  H   UNL     1       9.505   8.408  17.133  1.00  0.00     0.293 HD
ENDBRANCH   4  10
BRANCH   5  12
ATOM     12  O   UNL     1      12.978  10.261  13.989  1.00  0.00    -0.504 OA
ATOM     13  H   UNL     1      12.628  10.748  13.173  1.00  0.00     0.293 HD
ENDBRANCH   5  12
BRANCH   6  14
ATOM     14  O   UNL     1      10.694   8.872  14.886  1.00  0.00    -0.502 OA
ATOM     15  H   UNL     1      10.014   9.141  14.186  1.00  0.00     0.293 HD
ENDBRANCH   6  14
TORSDOF 4
ENDMDL
MODEL 6
REMARK VINA RESULT:    -5.064      2.318      4.174
REMARK INTER + INTRA:          -5.850
REMARK INTER:                  -5.805
REMARK INTRA:                  -0.045
REMARK UNBOUND:                -0.046
REMARK SMILES O=C([O-])c1cc(O)c(O)c(O)c1
REMARK SMILES IDX 4 1 5 2 12 3 6 4 10 5 8 6 2 7 1 8 3 9 7 10 11 12 9 14
REMARK H PARENT 7 11 11 13 9 15
REMARK Flexibility Score: inf
ROOT
ATOM      1  C   UNL     1      12.863  11.756  17.308  1.00  0.00     0.005 A 
ATOM      2  C   UNL     1      13.285  11.475  15.998  1.00  0.00     0.060 A 
ATOM      3  C   UNL     1      11.734  11.093  17.819  1.00  0.00     0.060 A 
ATOM      4  C   UNL     1      12.591  10.547  15.210  1.00  0.00     0.162 A 
ATOM      5  C   UNL     1      11.036  10.163  17.034  1.00  0.00     0.162 A 
ATOM      6  C   UNL     1      11.466   9.889  15.725  1.00  0.00     0.200 A 
ENDROOT
BRANCH   1   7
ATOM      7  C   UNL     1      13.600  12.737  18.136  1.00  0.00     0.072 C 
ATOM      8  O   UNL     1      13.198  13.926  18.230  1.00  0.00    -0.545 OA
ATOM      9  O   UNL     1      14.749  12.358  18.822  1.00  0.00    -0.545 OA
ENDBRANCH   1   7
BRANCH   4  10
ATOM     10  O   UNL     1      13.014  10.271  13.910  1.00  0.00    -0.504 OA
ATOM     11  H   UNL     1      12.355  10.026  13.180  1.00  0.00     0.293 HD
ENDBRANCH   4  10
BRANCH   5  12
ATOM     12  O   UNL     1       9.918   9.511  17.552  1.00  0.00    -0.504 OA
ATOM     13  H   UNL     1       9.626   8.604  17.210  1.00  0.00     0.293 HD
ENDBRANCH   5  12
BRANCH   6  14
ATOM     14  O   UNL     1      10.789   8.969  14.925  1.00  0.00    -0.502 OA
ATOM     15  H   UNL     1      10.270   8.193  15.318  1.00  0.00     0.293 HD
ENDBRANCH   6  14
TORSDOF 4
ENDMDL
MODEL 7
REMARK VINA RESULT:    -5.035      2.281      3.195
REMARK INTER + INTRA:          -5.817
REMARK INTER:                  -5.772
REMARK INTRA:                  -0.045
REMARK UNBOUND:                -0.046
REMARK SMILES O=C([O-])c1cc(O)c(O)c(O)c1
REMARK SMILES IDX 4 1 5 2 12 3 6 4 10 5 8 6 2 7 1 8 3 9 7 10 11 12 9 14
REMARK H PARENT 7 11 11 13 9 15
REMARK Flexibility Score: inf
ROOT
ATOM      1  C   UNL     1      11.677  10.550  17.233  1.00  0.00     0.005 A 
ATOM      2  C   UNL     1      11.694  10.376  15.840  1.00  0.00     0.060 A 
ATOM      3  C   UNL     1      12.895  10.711  17.916  1.00  0.00     0.060 A 
ATOM      4  C   UNL     1      12.906  10.362  15.137  1.00  0.00     0.162 A 
ATOM      5  C   UNL     1      14.112  10.698  17.218  1.00  0.00     0.162 A 
ATOM      6  C   UNL     1      14.117  10.523  15.824  1.00  0.00     0.200 A 
ENDROOT
BRANCH   1   7
ATOM      7  C   UNL     1      10.393  10.564  17.969  1.00  0.00     0.072 C 
ATOM      8  O   UNL     1       9.979   9.529  18.556  1.00  0.00    -0.545 OA
ATOM      9  O   UNL     1       9.624  11.721  18.022  1.00  0.00    -0.545 OA
ENDBRANCH   1   7
BRANCH   4  10
ATOM     10  O   UNL     1      12.918  10.189  13.754  1.00  0.00    -0.504 OA
ATOM     11  H   UNL     1      12.168   9.705  13.274  1.00  0.00     0.293 HD
ENDBRANCH   4  10
BRANCH   5  12
ATOM     12  O   UNL     1      15.313  10.859  17.906  1.00  0.00    -0.504 OA
ATOM     13  H   UNL     1      15.928  10.076  18.093  1.00  0.00     0.293 HD
ENDBRANCH   5  12
BRANCH   6  14
ATOM     14  O   UNL     1      15.314  10.507  15.108  1.00  0.00    -0.502 OA
ATOM     15  H   UNL     1      15.339  10.387  14.103  1.00  0.00     0.293 HD
ENDBRANCH   6  14
TORSDOF 4
ENDMDL
MODEL 8
REMARK VINA RESULT:    -5.035      2.347      3.741
REMARK INTER + INTRA:          -5.817
REMARK INTER:                  -5.772
REMARK INTRA:                  -0.045
REMARK UNBOUND:                -0.046
REMARK SMILES O=C([O-])c1cc(O)c(O)c(O)c1
REMARK SMILES IDX 4 1 5 2 12 3 6 4 10 5 8 6 2 7 1 8 3 9 7 10 11 12 9 14
REMARK H PARENT 7 11 11 13 9 15
REMARK Flexibility Score: inf
ROOT
ATOM      1  C   UNL     1      11.762  10.581  17.212  1.00  0.00     0.005 A 
ATOM      2  C   UNL     1      12.982  10.736  17.889  1.00  0.00     0.060 A 
ATOM      3  C   UNL     1      11.772  10.395  15.818  1.00  0.00     0.060 A 
ATOM      4  C   UNL     1      14.195  10.705  17.188  1.00  0.00     0.162 A 
ATOM      5  C   UNL     1      12.983  10.364  15.112  1.00  0.00     0.162 A 
ATOM      6  C   UNL     1      14.199  10.519  15.799  1.00  0.00     0.200 A 
ENDROOT
BRANCH   1   7
ATOM      7  C   UNL     1      10.484  10.614  17.958  1.00  0.00     0.072 C 
ATOM      8  O   UNL     1       9.787  11.663  17.992  1.00  0.00    -0.545 OA
ATOM      9  O   UNL     1      10.034   9.486  18.635  1.00  0.00    -0.545 OA
ENDBRANCH   1   7
BRANCH   4  10
ATOM     10  O   UNL     1      15.405  10.859  17.865  1.00  0.00    -0.504 OA
ATOM     11  H   UNL     1      16.223  10.317  17.616  1.00  0.00     0.293 HD
ENDBRANCH   4  10
BRANCH   5  12
ATOM     12  O   UNL     1      12.982  10.178  13.731  1.00  0.00    -0.504 OA
ATOM     13  H   UNL     1      12.143   9.908  13.231  1.00  0.00     0.293 HD
ENDBRANCH   5  12
BRANCH   6  14
ATOM     14  O   UNL     1      15.416  10.492  15.118  1.00  0.00    -0.502 OA
ATOM     15  H   UNL     1      15.476  10.277  14.131  1.00  0.00     0.293 HD
ENDBRANCH   6  14
TORSDOF 4
ENDMDL
MODEL 9
REMARK VINA RESULT:    -4.942      2.461      5.585
REMARK INTER + INTRA:          -5.710
REMARK INTER:                  -5.665
REMARK INTRA:                  -0.045
REMARK UNBOUND:                -0.046
REMARK SMILES O=C([O-])c1cc(O)c(O)c(O)c1
REMARK SMILES IDX 4 1 5 2 12 3 6 4 10 5 8 6 2 7 1 8 3 9 7 10 11 12 9 14
REMARK H PARENT 7 11 11 13 9 15
REMARK Flexibility Score: inf
ROOT
ATOM      1  C   UNL     1       7.758  10.511  17.166  1.00  0.00     0.005 A 
ATOM      2  C   UNL     1       7.753  10.668  18.562  1.00  0.00     0.060 A 
ATOM      3  C   UNL     1       6.536  10.541  16.471  1.00  0.00     0.060 A 
ATOM      4  C   UNL     1       6.550  10.851  19.255  1.00  0.00     0.162 A 
ATOM      5  C   UNL     1       5.328  10.725  17.160  1.00  0.00     0.162 A 
ATOM      6  C   UNL     1       5.335  10.880  18.557  1.00  0.00     0.200 A 
ENDROOT
BRANCH   1   7
ATOM      7  C   UNL     1       9.033  10.318  16.440  1.00  0.00     0.072 C 
ATOM      8  O   UNL     1       9.381   9.173  16.048  1.00  0.00    -0.545 OA
ATOM      9  O   UNL     1       9.867  11.400  16.179  1.00  0.00    -0.545 OA
ENDBRANCH   1   7
BRANCH   4  10
ATOM     10  O   UNL     1       6.550  11.006  20.640  1.00  0.00    -0.504 OA
ATOM     11  H   UNL     1       6.503  11.922  21.071  1.00  0.00     0.293 HD
ENDBRANCH   4  10
BRANCH   5  12
ATOM     12  O   UNL     1       4.123  10.754  16.461  1.00  0.00    -0.504 OA
ATOM     13  H   UNL     1       3.237  10.581  16.921  1.00  0.00     0.293 HD
ENDBRANCH   5  12
BRANCH   6  14
ATOM     14  O   UNL     1       4.146  11.064  19.264  1.00  0.00    -0.502 OA
ATOM     15  H   UNL     1       3.741  10.333  19.835  1.00  0.00     0.293 HD
ENDBRANCH   6  14
TORSDOF 4
ENDMDL
