MODEL 1
REMARK VINA RESULT:    -8.058      0.000      0.000
REMARK INTER + INTRA:          -9.783
REMARK INTER:                  -9.471
REMARK INTRA:                  -0.312
REMARK UNBOUND:                -0.312
REMARK SMILES O=c1cc(-c2ccc(O)c(O)c2)oc2cc(O)cc(O)c12
REMARK SMILES IDX 4 1 3 2 2 3 1 4 21 5 19 6 18 7 16 8 15 9 14 10 13 11 5 12
REMARK SMILES IDX 6 13 7 14 8 15 12 16 10 17 9 18 11 20 20 22 17 24
REMARK H PARENT 9 19 11 21 20 23 17 25
REMARK Flexibility Score: inf
ROOT
ATOM      1  C   UNL     1      82.968  63.627   8.900  1.00  0.00     0.138 A 
ATOM      2  C   UNL     1      83.127  64.924   9.409  1.00  0.00     0.100 A 
ATOM      3  C   UNL     1      84.219  65.216  10.226  1.00  0.00     0.197 A 
ATOM      4  O   UNL     1      84.305  66.373  10.712  1.00  0.00    -0.289 OA
ATOM      5  C   UNL     1      85.177  64.211  10.507  1.00  0.00     0.107 A 
ATOM      6  C   UNL     1      86.349  64.403  11.299  1.00  0.00     0.134 A 
ATOM      7  C   UNL     1      87.172  63.307  11.588  1.00  0.00     0.093 A 
ATOM      8  C   UNL     1      86.899  62.042  11.068  1.00  0.00     0.123 A 
ATOM      9  C   UNL     1      85.784  61.854  10.251  1.00  0.00     0.094 A 
ATOM     10  C   UNL     1      84.924  62.919   9.973  1.00  0.00     0.146 A 
ATOM     11  O   UNL     1      83.864  62.694   9.204  1.00  0.00    -0.456 OA
ENDROOT
BRANCH   1  12
ATOM     12  C   UNL     1      81.826  63.262   8.024  1.00  0.00     0.021 A 
ATOM     13  C   UNL     1      80.625  63.997   8.026  1.00  0.00     0.016 A 
ATOM     14  C   UNL     1      79.564  63.624   7.198  1.00  0.00     0.051 A 
ATOM     15  C   UNL     1      79.680  62.508   6.359  1.00  0.00     0.157 A 
ATOM     16  C   UNL     1      81.928  62.136   7.189  1.00  0.00     0.062 A 
ATOM     17  C   UNL     1      80.868  61.760   6.357  1.00  0.00     0.158 A 
BRANCH  15  18
ATOM     18  O   UNL     1      78.618  62.141   5.533  1.00  0.00    -0.504 OA
ATOM     19  H   UNL     1      78.770  61.655   4.658  1.00  0.00     0.293 HD
ENDBRANCH  15  18
BRANCH  17  20
ATOM     20  O   UNL     1      81.013  60.641   5.537  1.00  0.00    -0.504 OA
ATOM     21  H   UNL     1      81.921  60.317   5.225  1.00  0.00     0.293 HD
ENDBRANCH  17  20
ENDBRANCH   1  12
BRANCH   6  22
ATOM     22  O   UNL     1      86.761  65.639  11.804  1.00  0.00    -0.507 OA
ATOM     23  H   UNL     1      87.615  65.802  12.315  1.00  0.00     0.293 HD
ENDBRANCH   6  22
BRANCH   8  24
ATOM     24  O   UNL     1      87.749  60.980  11.365  1.00  0.00    -0.508 OA
ATOM     25  H   UNL     1      88.749  61.042  11.212  1.00  0.00     0.293 HD
ENDBRANCH   8  24
TORSDOF 5
ENDMDL
MODEL 2
REMARK VINA RESULT:    -7.779      0.875      1.446
REMARK INTER + INTRA:          -9.455
REMARK INTER:                  -9.163
REMARK INTRA:                  -0.292
REMARK UNBOUND:                -0.312
REMARK SMILES O=c1cc(-c2ccc(O)c(O)c2)oc2cc(O)cc(O)c12
REMARK SMILES IDX 4 1 3 2 2 3 1 4 21 5 19 6 18 7 16 8 15 9 14 10 13 11 5 12
REMARK SMILES IDX 6 13 7 14 8 15 12 16 10 17 9 18 11 20 20 22 17 24
REMARK H PARENT 9 19 11 21 20 23 17 25
REMARK Flexibility Score: inf
ROOT
ATOM      1  C   UNL     1      83.150  63.465   8.568  1.00  0.00     0.138 A 
ATOM      2  C   UNL     1      83.262  64.780   9.039  1.00  0.00     0.100 A 
ATOM      3  C   UNL     1      84.255  65.099   9.965  1.00  0.00     0.197 A 
ATOM      4  O   UNL     1      84.295  66.275  10.411  1.00  0.00    -0.289 OA
ATOM      5  C   UNL     1      85.163  64.101  10.396  1.00  0.00     0.107 A 
ATOM      6  C   UNL     1      86.237  64.318  11.311  1.00  0.00     0.134 A 
ATOM      7  C   UNL     1      87.009  63.230  11.737  1.00  0.00     0.093 A 
ATOM      8  C   UNL     1      86.786  61.947  11.240  1.00  0.00     0.123 A 
ATOM      9  C   UNL     1      85.772  61.732  10.307  1.00  0.00     0.094 A 
ATOM     10  C   UNL     1      84.961  62.790   9.888  1.00  0.00     0.146 A 
ATOM     11  O   UNL     1      83.995  62.540   9.011  1.00  0.00    -0.456 OA
ENDROOT
BRANCH   1  12
ATOM     12  C   UNL     1      82.113  63.070   7.580  1.00  0.00     0.021 A 
ATOM     13  C   UNL     1      81.796  61.720   7.337  1.00  0.00     0.016 A 
ATOM     14  C   UNL     1      80.823  61.379   6.394  1.00  0.00     0.051 A 
ATOM     15  C   UNL     1      80.155  62.378   5.674  1.00  0.00     0.157 A 
ATOM     16  C   UNL     1      81.447  64.065   6.843  1.00  0.00     0.062 A 
ATOM     17  C   UNL     1      80.471  63.727   5.899  1.00  0.00     0.158 A 
BRANCH  15  18
ATOM     18  O   UNL     1      79.183  62.032   4.735  1.00  0.00    -0.504 OA
ATOM     19  H   UNL     1      79.091  61.085   4.390  1.00  0.00     0.293 HD
ENDBRANCH  15  18
BRANCH  17  20
ATOM     20  O   UNL     1      79.827  64.745   5.196  1.00  0.00    -0.504 OA
ATOM     21  H   UNL     1      80.270  65.638   5.015  1.00  0.00     0.293 HD
ENDBRANCH  17  20
ENDBRANCH   1  12
BRANCH   6  22
ATOM     22  O   UNL     1      86.601  65.572  11.810  1.00  0.00    -0.507 OA
ATOM     23  H   UNL     1      86.114  66.070  12.539  1.00  0.00     0.293 HD
ENDBRANCH   6  22
BRANCH   8  24
ATOM     24  O   UNL     1      87.585  60.893  11.676  1.00  0.00    -0.508 OA
ATOM     25  H   UNL     1      87.478  60.494  12.602  1.00  0.00     0.293 HD
ENDBRANCH   8  24
TORSDOF 5
ENDMDL
MODEL 3
REMARK VINA RESULT:    -7.750      5.876     12.068
REMARK INTER + INTRA:          -9.421
REMARK INTER:                  -9.110
REMARK INTRA:                  -0.311
REMARK UNBOUND:                -0.312
REMARK SMILES O=c1cc(-c2ccc(O)c(O)c2)oc2cc(O)cc(O)c12
REMARK SMILES IDX 4 1 3 2 2 3 1 4 21 5 19 6 18 7 16 8 15 9 14 10 13 11 5 12
REMARK SMILES IDX 6 13 7 14 8 15 12 16 10 17 9 18 11 20 20 22 17 24
REMARK H PARENT 9 19 11 21 20 23 17 25
REMARK Flexibility Score: inf
ROOT
ATOM      1  C   UNL     1      76.892  61.339   2.893  1.00  0.00     0.138 A 
ATOM      2  C   UNL     1      77.168  61.039   1.552  1.00  0.00     0.100 A 
ATOM      3  C   UNL     1      76.116  60.855   0.654  1.00  0.00     0.197 A 
ATOM      4  O   UNL     1      76.396  60.533  -0.529  1.00  0.00    -0.289 OA
ATOM      5  C   UNL     1      74.780  61.005   1.097  1.00  0.00     0.107 A 
ATOM      6  C   UNL     1      73.627  60.873   0.264  1.00  0.00     0.134 A 
ATOM      7  C   UNL     1      72.351  60.948   0.836  1.00  0.00     0.093 A 
ATOM      8  C   UNL     1      72.184  61.204   2.197  1.00  0.00     0.123 A 
ATOM      9  C   UNL     1      73.302  61.384   3.010  1.00  0.00     0.094 A 
ATOM     10  C   UNL     1      74.589  61.282   2.477  1.00  0.00     0.146 A 
ATOM     11  O   UNL     1      75.628  61.443   3.290  1.00  0.00    -0.456 OA
ENDROOT
BRANCH   1  12
ATOM     12  C   UNL     1      77.972  61.548   3.890  1.00  0.00     0.021 A 
ATOM     13  C   UNL     1      79.257  60.999   3.717  1.00  0.00     0.016 A 
ATOM     14  C   UNL     1      80.251  61.205   4.677  1.00  0.00     0.051 A 
ATOM     15  C   UNL     1      79.979  61.955   5.828  1.00  0.00     0.157 A 
ATOM     16  C   UNL     1      77.704  62.288   5.055  1.00  0.00     0.062 A 
ATOM     17  C   UNL     1      78.698  62.496   6.018  1.00  0.00     0.158 A 
BRANCH  15  18
ATOM     18  O   UNL     1      80.975  62.159   6.782  1.00  0.00    -0.504 OA
ATOM     19  H   UNL     1      81.591  61.410   7.075  1.00  0.00     0.293 HD
ENDBRANCH  15  18
BRANCH  17  20
ATOM     20  O   UNL     1      78.393  63.244   7.155  1.00  0.00    -0.504 OA
ATOM     21  H   UNL     1      78.907  63.139   8.022  1.00  0.00     0.293 HD
ENDBRANCH  17  20
ENDBRANCH   1  12
BRANCH   6  22
ATOM     22  O   UNL     1      73.678  60.695  -1.122  1.00  0.00    -0.507 OA
ATOM     23  H   UNL     1      73.330  61.351  -1.804  1.00  0.00     0.293 HD
ENDBRANCH   6  22
BRANCH   8  24
ATOM     24  O   UNL     1      70.899  61.286   2.727  1.00  0.00    -0.508 OA
ATOM     25  H   UNL     1      70.536  60.573   3.349  1.00  0.00     0.293 HD
ENDBRANCH   8  24
TORSDOF 5
ENDMDL
MODEL 4
REMARK VINA RESULT:    -7.596      6.560     10.135
REMARK INTER + INTRA:          -9.240
REMARK INTER:                  -8.961
REMARK INTRA:                  -0.279
REMARK UNBOUND:                -0.312
REMARK SMILES O=c1cc(-c2ccc(O)c(O)c2)oc2cc(O)cc(O)c12
REMARK SMILES IDX 4 1 3 2 2 3 1 4 21 5 19 6 18 7 16 8 15 9 14 10 13 11 5 12
REMARK SMILES IDX 6 13 7 14 8 15 12 16 10 17 9 18 11 20 20 22 17 24
REMARK H PARENT 9 19 11 21 20 23 17 25
REMARK Flexibility Score: inf
ROOT
ATOM      1  C   UNL     1      75.860  62.044   2.073  1.00  0.00     0.138 A 
ATOM      2  C   UNL     1      76.523  62.785   1.084  1.00  0.00     0.100 A 
ATOM      3  C   UNL     1      77.837  63.203   1.299  1.00  0.00     0.197 A 
ATOM      4  O   UNL     1      78.385  63.912   0.417  1.00  0.00    -0.289 OA
ATOM      5  C   UNL     1      78.501  62.846   2.497  1.00  0.00     0.107 A 
ATOM      6  C   UNL     1      79.852  63.187   2.812  1.00  0.00     0.134 A 
ATOM      7  C   UNL     1      80.369  62.862   4.072  1.00  0.00     0.093 A 
ATOM      8  C   UNL     1      79.608  62.161   5.006  1.00  0.00     0.123 A 
ATOM      9  C   UNL     1      78.305  61.779   4.691  1.00  0.00     0.094 A 
ATOM     10  C   UNL     1      77.747  62.118   3.456  1.00  0.00     0.146 A 
ATOM     11  O   UNL     1      76.496  61.750   3.202  1.00  0.00    -0.456 OA
ENDROOT
BRANCH   1  12
ATOM     12  C   UNL     1      74.463  61.572   1.896  1.00  0.00     0.021 A 
ATOM     13  C   UNL     1      73.533  61.597   2.952  1.00  0.00     0.016 A 
ATOM     14  C   UNL     1      72.228  61.137   2.758  1.00  0.00     0.051 A 
ATOM     15  C   UNL     1      71.831  60.639   1.510  1.00  0.00     0.157 A 
ATOM     16  C   UNL     1      74.060  61.058   0.651  1.00  0.00     0.062 A 
ATOM     17  C   UNL     1      72.754  60.598   0.453  1.00  0.00     0.158 A 
BRANCH  15  18
ATOM     18  O   UNL     1      70.527  60.183   1.321  1.00  0.00    -0.504 OA
ATOM     19  H   UNL     1      69.800  60.354   2.004  1.00  0.00     0.293 HD
ENDBRANCH  15  18
BRANCH  17  20
ATOM     20  O   UNL     1      72.392  60.103  -0.800  1.00  0.00    -0.504 OA
ATOM     21  H   UNL     1      71.430  59.893  -1.038  1.00  0.00     0.293 HD
ENDBRANCH  17  20
ENDBRANCH   1  12
BRANCH   6  22
ATOM     22  O   UNL     1      80.728  63.818   1.923  1.00  0.00    -0.507 OA
ATOM     23  H   UNL     1      81.395  64.530   2.174  1.00  0.00     0.293 HD
ENDBRANCH   6  22
BRANCH   8  24
ATOM     24  O   UNL     1      80.163  61.842   6.243  1.00  0.00    -0.508 OA
ATOM     25  H   UNL     1      79.619  61.385   6.966  1.00  0.00     0.293 HD
ENDBRANCH   8  24
TORSDOF 5
ENDMDL
MODEL 5
REMARK VINA RESULT:    -7.439      1.903      6.956
REMARK INTER + INTRA:          -9.055
REMARK INTER:                  -8.775
REMARK INTRA:                  -0.280
REMARK UNBOUND:                -0.312
REMARK SMILES O=c1cc(-c2ccc(O)c(O)c2)oc2cc(O)cc(O)c12
REMARK SMILES IDX 4 1 3 2 2 3 1 4 21 5 19 6 18 7 16 8 15 9 14 10 13 11 5 12
REMARK SMILES IDX 6 13 7 14 8 15 12 16 10 17 9 18 11 20 20 22 17 24
REMARK H PARENT 9 19 11 21 20 23 17 25
REMARK Flexibility Score: inf
ROOT
ATOM      1  C   UNL     1      84.148  63.595   8.634  1.00  0.00     0.138 A 
ATOM      2  C   UNL     1      84.379  64.756   7.883  1.00  0.00     0.100 A 
ATOM      3  C   UNL     1      83.472  65.129   6.891  1.00  0.00     0.197 A 
ATOM      4  O   UNL     1      83.736  66.145   6.197  1.00  0.00    -0.289 OA
ATOM      5  C   UNL     1      82.309  64.352   6.673  1.00  0.00     0.107 A 
ATOM      6  C   UNL     1      81.297  64.653   5.712  1.00  0.00     0.134 A 
ATOM      7  C   UNL     1      80.239  63.756   5.521  1.00  0.00     0.093 A 
ATOM      8  C   UNL     1      80.124  62.600   6.291  1.00  0.00     0.123 A 
ATOM      9  C   UNL     1      81.080  62.320   7.268  1.00  0.00     0.094 A 
ATOM     10  C   UNL     1      82.166  63.178   7.460  1.00  0.00     0.146 A 
ATOM     11  O   UNL     1      83.064  62.866   8.388  1.00  0.00    -0.456 OA
ENDROOT
BRANCH   1  12
ATOM     12  C   UNL     1      85.078  63.153   9.703  1.00  0.00     0.021 A 
ATOM     13  C   UNL     1      85.367  61.792   9.919  1.00  0.00     0.016 A 
ATOM     14  C   UNL     1      86.240  61.406  10.940  1.00  0.00     0.051 A 
ATOM     15  C   UNL     1      86.833  62.369  11.766  1.00  0.00     0.157 A 
ATOM     16  C   UNL     1      85.668  64.112  10.546  1.00  0.00     0.062 A 
ATOM     17  C   UNL     1      86.543  63.728  11.568  1.00  0.00     0.158 A 
BRANCH  15  18
ATOM     18  O   UNL     1      87.704  61.978  12.782  1.00  0.00    -0.504 OA
ATOM     19  H   UNL     1      88.313  61.176  12.680  1.00  0.00     0.293 HD
ENDBRANCH  15  18
BRANCH  17  20
ATOM     20  O   UNL     1      87.114  64.712  12.376  1.00  0.00    -0.504 OA
ATOM     21  H   UNL     1      87.419  64.520  13.323  1.00  0.00     0.293 HD
ENDBRANCH  17  20
ENDBRANCH   1  12
BRANCH   6  22
ATOM     22  O   UNL     1      81.268  65.821   4.943  1.00  0.00    -0.507 OA
ATOM     23  H   UNL     1      81.751  66.676   5.170  1.00  0.00     0.293 HD
ENDBRANCH   6  22
BRANCH   8  24
ATOM     24  O   UNL     1      79.050  61.739   6.083  1.00  0.00    -0.508 OA
ATOM     25  H   UNL     1      78.217  62.040   5.590  1.00  0.00     0.293 HD
ENDBRANCH   8  24
TORSDOF 5
ENDMDL
MODEL 6
REMARK VINA RESULT:    -7.436      7.979     11.173
REMARK INTER + INTRA:          -9.052
REMARK INTER:                  -8.779
REMARK INTRA:                  -0.273
REMARK UNBOUND:                -0.312
REMARK SMILES O=c1cc(-c2ccc(O)c(O)c2)oc2cc(O)cc(O)c12
REMARK SMILES IDX 4 1 3 2 2 3 1 4 21 5 19 6 18 7 16 8 15 9 14 10 13 11 5 12
REMARK SMILES IDX 6 13 7 14 8 15 12 16 10 17 9 18 11 20 20 22 17 24
REMARK H PARENT 9 19 11 21 20 23 17 25
REMARK Flexibility Score: inf
ROOT
ATOM      1  C   UNL     1      75.679  61.708   1.452  1.00  0.00     0.138 A 
ATOM      2  C   UNL     1      76.256  61.108   2.580  1.00  0.00     0.100 A 
ATOM      3  C   UNL     1      77.446  61.618   3.101  1.00  0.00     0.197 A 
ATOM      4  O   UNL     1      77.967  61.024   4.080  1.00  0.00    -0.289 OA
ATOM      5  C   UNL     1      78.042  62.757   2.509  1.00  0.00     0.107 A 
ATOM      6  C   UNL     1      79.237  63.385   2.975  1.00  0.00     0.134 A 
ATOM      7  C   UNL     1      79.785  64.449   2.247  1.00  0.00     0.093 A 
ATOM      8  C   UNL     1      79.154  64.944   1.107  1.00  0.00     0.123 A 
ATOM      9  C   UNL     1      77.960  64.371   0.671  1.00  0.00     0.094 A 
ATOM     10  C   UNL     1      77.405  63.286   1.355  1.00  0.00     0.146 A 
ATOM     11  O   UNL     1      76.276  62.758   0.896  1.00  0.00    -0.456 OA
ENDROOT
BRANCH   1  12
ATOM     12  C   UNL     1      74.413  61.209   0.858  1.00  0.00     0.021 A 
ATOM     13  C   UNL     1      74.282  60.984  -0.526  1.00  0.00     0.016 A 
ATOM     14  C   UNL     1      73.075  60.523  -1.057  1.00  0.00     0.051 A 
ATOM     15  C   UNL     1      71.978  60.284  -0.220  1.00  0.00     0.157 A 
ATOM     16  C   UNL     1      73.303  60.979   1.689  1.00  0.00     0.062 A 
ATOM     17  C   UNL     1      72.094  60.516   1.160  1.00  0.00     0.158 A 
BRANCH  15  18
ATOM     18  O   UNL     1      70.776  59.822  -0.756  1.00  0.00    -0.504 OA
ATOM     19  H   UNL     1      70.030  59.478  -0.165  1.00  0.00     0.293 HD
ENDBRANCH  15  18
BRANCH  17  20
ATOM     20  O   UNL     1      71.018  60.292   2.020  1.00  0.00    -0.504 OA
ATOM     21  H   UNL     1      71.099  60.408   3.023  1.00  0.00     0.293 HD
ENDBRANCH  17  20
ENDBRANCH   1  12
BRANCH   6  22
ATOM     22  O   UNL     1      79.906  63.024   4.148  1.00  0.00    -0.507 OA
ATOM     23  H   UNL     1      80.743  63.464   4.497  1.00  0.00     0.293 HD
ENDBRANCH   6  22
BRANCH   8  24
ATOM     24  O   UNL     1      79.721  66.014   0.418  1.00  0.00    -0.508 OA
ATOM     25  H   UNL     1      79.929  66.892   0.880  1.00  0.00     0.293 HD
ENDBRANCH   8  24
TORSDOF 5
ENDMDL
MODEL 7
REMARK VINA RESULT:    -7.311      1.928      2.276
REMARK INTER + INTRA:          -8.905
REMARK INTER:                  -8.626
REMARK INTRA:                  -0.278
REMARK UNBOUND:                -0.312
REMARK SMILES O=c1cc(-c2ccc(O)c(O)c2)oc2cc(O)cc(O)c12
REMARK SMILES IDX 4 1 3 2 2 3 1 4 21 5 19 6 18 7 16 8 15 9 14 10 13 11 5 12
REMARK SMILES IDX 6 13 7 14 8 15 12 16 10 17 9 18 11 20 20 22 17 24
REMARK H PARENT 9 19 11 21 20 23 17 25
REMARK Flexibility Score: inf
ROOT
ATOM      1  C   UNL     1      84.443  64.476   8.796  1.00  0.00     0.138 A 
ATOM      2  C   UNL     1      84.766  65.568   9.613  1.00  0.00     0.100 A 
ATOM      3  C   UNL     1      85.561  65.373  10.743  1.00  0.00     0.197 A 
ATOM      4  O   UNL     1      85.789  66.362  11.486  1.00  0.00    -0.289 OA
ATOM      5  C   UNL     1      86.063  64.082  11.036  1.00  0.00     0.107 A 
ATOM      6  C   UNL     1      86.910  63.770  12.142  1.00  0.00     0.134 A 
ATOM      7  C   UNL     1      87.263  62.436  12.385  1.00  0.00     0.093 A 
ATOM      8  C   UNL     1      86.849  61.413  11.533  1.00  0.00     0.123 A 
ATOM      9  C   UNL     1      86.062  61.713  10.422  1.00  0.00     0.094 A 
ATOM     10  C   UNL     1      85.664  63.028  10.171  1.00  0.00     0.146 A 
ATOM     11  O   UNL     1      84.900  63.269   9.110  1.00  0.00    -0.456 OA
ENDROOT
BRANCH   1  12
ATOM     12  C   UNL     1      83.603  64.627   7.580  1.00  0.00     0.021 A 
ATOM     13  C   UNL     1      83.978  65.473   6.520  1.00  0.00     0.016 A 
ATOM     14  C   UNL     1      83.163  65.602   5.393  1.00  0.00     0.051 A 
ATOM     15  C   UNL     1      81.957  64.895   5.307  1.00  0.00     0.157 A 
ATOM     16  C   UNL     1      82.384  63.931   7.491  1.00  0.00     0.062 A 
ATOM     17  C   UNL     1      81.566  64.057   6.363  1.00  0.00     0.158 A 
BRANCH  15  18
ATOM     18  O   UNL     1      81.148  65.025   4.179  1.00  0.00    -0.504 OA
ATOM     19  H   UNL     1      81.281  65.776   3.514  1.00  0.00     0.293 HD
ENDBRANCH  15  18
BRANCH  17  20
ATOM     20  O   UNL     1      80.370  63.342   6.311  1.00  0.00    -0.504 OA
ATOM     21  H   UNL     1      80.280  62.412   6.703  1.00  0.00     0.293 HD
ENDBRANCH  17  20
ENDBRANCH   1  12
BRANCH   6  22
ATOM     22  O   UNL     1      87.449  64.723  13.011  1.00  0.00    -0.507 OA
ATOM     23  H   UNL     1      87.822  65.617  12.732  1.00  0.00     0.293 HD
ENDBRANCH   6  22
BRANCH   8  24
ATOM     24  O   UNL     1      87.233  60.101  11.799  1.00  0.00    -0.508 OA
ATOM     25  H   UNL     1      87.899  59.881  12.530  1.00  0.00     0.293 HD
ENDBRANCH   8  24
TORSDOF 5
ENDMDL
MODEL 8
REMARK VINA RESULT:    -7.151      6.096      9.093
REMARK INTER + INTRA:          -8.716
REMARK INTER:                  -8.404
REMARK INTRA:                  -0.313
REMARK UNBOUND:                -0.312
REMARK SMILES O=c1cc(-c2ccc(O)c(O)c2)oc2cc(O)cc(O)c12
REMARK SMILES IDX 4 1 3 2 2 3 1 4 21 5 19 6 18 7 16 8 15 9 14 10 13 11 5 12
REMARK SMILES IDX 6 13 7 14 8 15 12 16 10 17 9 18 11 20 20 22 17 24
REMARK H PARENT 9 19 11 21 20 23 17 25
REMARK Flexibility Score: inf
ROOT
ATOM      1  C   UNL     1      76.732  61.926   3.070  1.00  0.00     0.138 A 
ATOM      2  C   UNL     1      76.811  61.823   4.466  1.00  0.00     0.100 A 
ATOM      3  C   UNL     1      78.008  62.129   5.114  1.00  0.00     0.197 A 
ATOM      4  O   UNL     1      78.064  61.974   6.361  1.00  0.00    -0.289 OA
ATOM      5  C   UNL     1      79.122  62.574   4.362  1.00  0.00     0.107 A 
ATOM      6  C   UNL     1      80.383  62.946   4.918  1.00  0.00     0.134 A 
ATOM      7  C   UNL     1      81.442  63.278   4.063  1.00  0.00     0.093 A 
ATOM      8  C   UNL     1      81.272  63.305   2.680  1.00  0.00     0.123 A 
ATOM      9  C   UNL     1      80.030  62.992   2.128  1.00  0.00     0.094 A 
ATOM     10  C   UNL     1      78.963  62.624   2.951  1.00  0.00     0.146 A 
ATOM     11  O   UNL     1      77.802  62.316   2.384  1.00  0.00    -0.456 OA
ENDROOT
BRANCH   1  12
ATOM     12  C   UNL     1      75.483  61.615   2.329  1.00  0.00     0.021 A 
ATOM     13  C   UNL     1      74.228  61.594   2.967  1.00  0.00     0.016 A 
ATOM     14  C   UNL     1      73.071  61.289   2.246  1.00  0.00     0.051 A 
ATOM     15  C   UNL     1      73.147  60.994   0.879  1.00  0.00     0.157 A 
ATOM     16  C   UNL     1      75.551  61.305   0.960  1.00  0.00     0.062 A 
ATOM     17  C   UNL     1      74.394  61.000   0.234  1.00  0.00     0.158 A 
BRANCH  15  18
ATOM     18  O   UNL     1      71.989  60.692   0.163  1.00  0.00    -0.504 OA
ATOM     19  H   UNL     1      71.878  59.809  -0.319  1.00  0.00     0.293 HD
ENDBRANCH  15  18
BRANCH  17  20
ATOM     20  O   UNL     1      74.504  60.707  -1.125  1.00  0.00    -0.504 OA
ATOM     21  H   UNL     1      74.286  61.388  -1.842  1.00  0.00     0.293 HD
ENDBRANCH  17  20
ENDBRANCH   1  12
BRANCH   6  22
ATOM     22  O   UNL     1      80.641  63.031   6.289  1.00  0.00    -0.507 OA
ATOM     23  H   UNL     1      80.341  63.782   6.891  1.00  0.00     0.293 HD
ENDBRANCH   6  22
BRANCH   8  24
ATOM     24  O   UNL     1      82.345  63.654   1.863  1.00  0.00    -0.508 OA
ATOM     25  H   UNL     1      83.302  63.456   2.131  1.00  0.00     0.293 HD
ENDBRANCH   8  24
TORSDOF 5
ENDMDL
MODEL 9
REMARK VINA RESULT:    -7.034      1.934      3.509
REMARK INTER + INTRA:          -8.579
REMARK INTER:                  -8.312
REMARK INTRA:                  -0.267
REMARK UNBOUND:                -0.312
REMARK SMILES O=c1cc(-c2ccc(O)c(O)c2)oc2cc(O)cc(O)c12
REMARK SMILES IDX 4 1 3 2 2 3 1 4 21 5 19 6 18 7 16 8 15 9 14 10 13 11 5 12
REMARK SMILES IDX 6 13 7 14 8 15 12 16 10 17 9 18 11 20 20 22 17 24
REMARK H PARENT 9 19 11 21 20 23 17 25
REMARK Flexibility Score: inf
ROOT
ATOM      1  C   UNL     1      81.605  63.133   7.494  1.00  0.00     0.138 A 
ATOM      2  C   UNL     1      82.425  62.170   8.098  1.00  0.00     0.100 A 
ATOM      3  C   UNL     1      83.500  62.576   8.889  1.00  0.00     0.197 A 
ATOM      4  O   UNL     1      84.249  61.689   9.372  1.00  0.00    -0.289 OA
ATOM      5  C   UNL     1      83.734  63.956   9.104  1.00  0.00     0.107 A 
ATOM      6  C   UNL     1      84.779  64.487   9.919  1.00  0.00     0.134 A 
ATOM      7  C   UNL     1      84.970  65.873   9.977  1.00  0.00     0.093 A 
ATOM      8  C   UNL     1      84.123  66.748   9.298  1.00  0.00     0.123 A 
ATOM      9  C   UNL     1      83.068  66.243   8.539  1.00  0.00     0.094 A 
ATOM     10  C   UNL     1      82.871  64.864   8.433  1.00  0.00     0.146 A 
ATOM     11  O   UNL     1      81.865  64.422   7.686  1.00  0.00    -0.456 OA
ENDROOT
BRANCH   1  12
ATOM     12  C   UNL     1      80.446  62.757   6.644  1.00  0.00     0.021 A 
ATOM     13  C   UNL     1      79.139  63.185   6.942  1.00  0.00     0.016 A 
ATOM     14  C   UNL     1      78.067  62.807   6.130  1.00  0.00     0.051 A 
ATOM     15  C   UNL     1      78.280  61.992   5.011  1.00  0.00     0.157 A 
ATOM     16  C   UNL     1      80.649  61.929   5.527  1.00  0.00     0.062 A 
ATOM     17  C   UNL     1      79.578  61.550   4.710  1.00  0.00     0.158 A 
BRANCH  15  18
ATOM     18  O   UNL     1      77.207  61.619   4.202  1.00  0.00    -0.504 OA
ATOM     19  H   UNL     1      76.859  60.669   4.187  1.00  0.00     0.293 HD
ENDBRANCH  15  18
BRANCH  17  20
ATOM     20  O   UNL     1      79.823  60.733   3.606  1.00  0.00    -0.504 OA
ATOM     21  H   UNL     1      79.075  60.282   3.093  1.00  0.00     0.293 HD
ENDBRANCH  17  20
ENDBRANCH   1  12
BRANCH   6  22
ATOM     22  O   UNL     1      85.634  63.708  10.704  1.00  0.00    -0.507 OA
ATOM     23  H   UNL     1      86.539  63.371  10.416  1.00  0.00     0.293 HD
ENDBRANCH   6  22
BRANCH   8  24
ATOM     24  O   UNL     1      84.336  68.121   9.392  1.00  0.00    -0.508 OA
ATOM     25  H   UNL     1      84.769  68.536  10.209  1.00  0.00     0.293 HD
ENDBRANCH   8  24
TORSDOF 5
ENDMDL
