MODEL 1
REMARK VINA RESULT:    -4.641      0.000      0.000
REMARK INTER + INTRA:          -8.462
REMARK INTER:                  -7.355
REMARK INTRA:                  -1.108
REMARK UNBOUND:                -1.108
REMARK SMILES CCCCCCCCCCCC(=O)[O-]
REMARK SMILES IDX 7 1 8 2 9 3 10 4 11 5 12 6 13 7 14 8 6 9 5 10 4 11 3 12 2 13
REMARK SMILES IDX 1 14
REMARK H PARENT
REMARK Flexibility Score: inf
ROOT
ATOM      1  C   UNL     1      44.479  50.945  10.642  1.00  0.00     0.000 C 
ENDROOT
BRANCH   1   2
ATOM      2  C   UNL     1      43.256  50.098  11.013  1.00  0.00     0.000 C 
BRANCH   2   3
ATOM      3  C   UNL     1      43.602  49.087  12.116  1.00  0.00     0.000 C 
BRANCH   3   4
ATOM      4  C   UNL     1      42.489  48.952  13.172  1.00  0.00     0.006 C 
BRANCH   4   5
ATOM      5  C   UNL     1      42.356  50.163  14.109  1.00  0.00     0.053 C 
BRANCH   5   6
ATOM      6  C   UNL     1      40.948  50.671  14.176  1.00  0.00     0.041 C 
ATOM      7  O   UNL     1      40.136  50.410  13.251  1.00  0.00    -0.550 OA
ATOM      8  O   UNL     1      40.525  51.404  15.277  1.00  0.00    -0.550 OA
ENDBRANCH   5   6
ENDBRANCH   4   5
ENDBRANCH   3   4
ENDBRANCH   2   3
ENDBRANCH   1   2
BRANCH   1   9
ATOM      9  C   UNL     1      45.515  50.943  11.771  1.00  0.00     0.000 C 
BRANCH   9  10
ATOM     10  C   UNL     1      46.938  51.090  11.213  1.00  0.00    -0.000 C 
BRANCH  10  11
ATOM     11  C   UNL     1      47.244  50.079  10.096  1.00  0.00    -0.000 C 
BRANCH  11  12
ATOM     12  C   UNL     1      47.413  48.645  10.627  1.00  0.00    -0.000 C 
BRANCH  12  13
ATOM     13  C   UNL     1      46.497  47.641   9.911  1.00  0.00    -0.003 C 
ATOM     14  C   UNL     1      46.455  46.281  10.607  1.00  0.00     0.004 C 
ENDBRANCH  12  13
ENDBRANCH  11  12
ENDBRANCH  10  11
ENDBRANCH   9  10
ENDBRANCH   1   9
TORSDOF 10
ENDMDL
MODEL 2
REMARK VINA RESULT:    -4.562      3.218      6.105
REMARK INTER + INTRA:          -8.337
REMARK INTER:                  -7.228
REMARK INTRA:                  -1.110
REMARK UNBOUND:                -1.108
REMARK SMILES CCCCCCCCCCCC(=O)[O-]
REMARK SMILES IDX 7 1 8 2 9 3 10 4 11 5 12 6 13 7 14 8 6 9 5 10 4 11 3 12 2 13
REMARK SMILES IDX 1 14
REMARK H PARENT
REMARK Flexibility Score: inf
ROOT
ATOM      1  C   UNL     1      44.325  50.773  10.673  1.00  0.00     0.000 C 
ENDROOT
BRANCH   1   2
ATOM      2  C   UNL     1      45.383  50.557  11.761  1.00  0.00     0.000 C 
BRANCH   2   3
ATOM      3  C   UNL     1      46.780  50.945  11.254  1.00  0.00     0.000 C 
BRANCH   3   4
ATOM      4  C   UNL     1      47.345  49.941  10.232  1.00  0.00     0.006 C 
BRANCH   4   5
ATOM      5  C   UNL     1      47.549  48.522  10.787  1.00  0.00     0.053 C 
BRANCH   5   6
ATOM      6  C   UNL     1      46.679  47.517  10.096  1.00  0.00     0.041 C 
ATOM      7  O   UNL     1      46.027  47.843   9.070  1.00  0.00    -0.550 OA
ATOM      8  O   UNL     1      46.615  46.212  10.568  1.00  0.00    -0.550 OA
ENDBRANCH   5   6
ENDBRANCH   4   5
ENDBRANCH   3   4
ENDBRANCH   2   3
ENDBRANCH   1   2
BRANCH   1   9
ATOM      9  C   UNL     1      43.290  49.642  10.677  1.00  0.00     0.000 C 
BRANCH   9  10
ATOM     10  C   UNL     1      43.525  48.686  11.856  1.00  0.00    -0.000 C 
BRANCH  10  11
ATOM     11  C   UNL     1      42.276  48.512  12.735  1.00  0.00    -0.000 C 
BRANCH  11  12
ATOM     12  C   UNL     1      41.584  49.850  13.050  1.00  0.00    -0.000 C 
BRANCH  12  13
ATOM     13  C   UNL     1      42.049  50.452  14.385  1.00  0.00    -0.003 C 
ATOM     14  C   UNL     1      40.938  51.215  15.106  1.00  0.00     0.004 C 
ENDBRANCH  12  13
ENDBRANCH  11  12
ENDBRANCH  10  11
ENDBRANCH   9  10
ENDBRANCH   1   9
TORSDOF 10
ENDMDL
MODEL 3
REMARK VINA RESULT:    -4.545      1.027      1.916
REMARK INTER + INTRA:          -8.310
REMARK INTER:                  -7.049
REMARK INTRA:                  -1.261
REMARK UNBOUND:                -1.108
REMARK SMILES CCCCCCCCCCCC(=O)[O-]
REMARK SMILES IDX 7 1 8 2 9 3 10 4 11 5 12 6 13 7 14 8 6 9 5 10 4 11 3 12 2 13
REMARK SMILES IDX 1 14
REMARK H PARENT
REMARK Flexibility Score: inf
ROOT
ATOM      1  C   UNL     1      45.961  50.641  11.748  1.00  0.00     0.000 C 
ENDROOT
BRANCH   1   2
ATOM      2  C   UNL     1      44.832  51.124  10.830  1.00  0.00     0.000 C 
BRANCH   2   3
ATOM      3  C   UNL     1      43.667  50.123  10.818  1.00  0.00     0.000 C 
BRANCH   3   4
ATOM      4  C   UNL     1      43.868  48.961  11.808  1.00  0.00     0.006 C 
BRANCH   4   5
ATOM      5  C   UNL     1      42.589  48.529  12.545  1.00  0.00     0.053 C 
BRANCH   5   6
ATOM      6  C   UNL     1      41.866  49.694  13.147  1.00  0.00     0.041 C 
ATOM      7  O   UNL     1      40.747  50.049  12.693  1.00  0.00    -0.550 OA
ATOM      8  O   UNL     1      42.414  50.367  14.232  1.00  0.00    -0.550 OA
ENDBRANCH   5   6
ENDBRANCH   4   5
ENDBRANCH   3   4
ENDBRANCH   2   3
ENDBRANCH   1   2
BRANCH   1   9
ATOM      9  C   UNL     1      47.242  50.369  10.951  1.00  0.00     0.000 C 
BRANCH   9  10
ATOM     10  C   UNL     1      47.384  48.873  10.633  1.00  0.00    -0.000 C 
BRANCH  10  11
ATOM     11  C   UNL     1      46.830  48.508   9.246  1.00  0.00    -0.000 C 
BRANCH  11  12
ATOM     12  C   UNL     1      46.352  47.048   9.166  1.00  0.00    -0.000 C 
BRANCH  12  13
ATOM     13  C   UNL     1      46.288  46.373  10.545  1.00  0.00    -0.003 C 
ATOM     14  C   UNL     1      45.121  45.394  10.668  1.00  0.00     0.004 C 
ENDBRANCH  12  13
ENDBRANCH  11  12
ENDBRANCH  10  11
ENDBRANCH   9  10
ENDBRANCH   1   9
TORSDOF 10
ENDMDL
MODEL 4
REMARK VINA RESULT:    -4.499      1.222      3.096
REMARK INTER + INTRA:          -8.237
REMARK INTER:                  -7.168
REMARK INTRA:                  -1.069
REMARK UNBOUND:                -1.108
REMARK SMILES CCCCCCCCCCCC(=O)[O-]
REMARK SMILES IDX 7 1 8 2 9 3 10 4 11 5 12 6 13 7 14 8 6 9 5 10 4 11 3 12 2 13
REMARK SMILES IDX 1 14
REMARK H PARENT
REMARK Flexibility Score: inf
ROOT
ATOM      1  C   UNL     1      46.109  46.393  10.437  1.00  0.00     0.000 C 
ENDROOT
BRANCH   1   2
ATOM      2  C   UNL     1      44.629  46.408  10.832  1.00  0.00     0.000 C 
BRANCH   2   3
ATOM      3  C   UNL     1      44.080  47.843  10.853  1.00  0.00     0.000 C 
BRANCH   3   4
ATOM      4  C   UNL     1      43.222  48.137  12.098  1.00  0.00     0.006 C 
BRANCH   4   5
ATOM      5  C   UNL     1      43.185  49.619  12.504  1.00  0.00     0.053 C 
BRANCH   5   6
ATOM      6  C   UNL     1      42.011  49.933  13.381  1.00  0.00     0.041 C 
ATOM      7  O   UNL     1      40.839  49.822  12.934  1.00  0.00    -0.550 OA
ATOM      8  O   UNL     1      42.212  50.315  14.701  1.00  0.00    -0.550 OA
ENDBRANCH   5   6
ENDBRANCH   4   5
ENDBRANCH   3   4
ENDBRANCH   2   3
ENDBRANCH   1   2
BRANCH   1   9
ATOM      9  C   UNL     1      46.537  47.741   9.847  1.00  0.00     0.000 C 
BRANCH   9  10
ATOM     10  C   UNL     1      47.623  48.401  10.710  1.00  0.00    -0.000 C 
BRANCH  10  11
ATOM     11  C   UNL     1      47.634  49.932  10.579  1.00  0.00    -0.000 C 
BRANCH  11  12
ATOM     12  C   UNL     1      46.563  50.608  11.451  1.00  0.00    -0.000 C 
BRANCH  12  13
ATOM     13  C   UNL     1      45.957  51.851  10.782  1.00  0.00    -0.003 C 
ATOM     14  C   UNL     1      45.640  51.630   9.304  1.00  0.00     0.004 C 
ENDBRANCH  12  13
ENDBRANCH  11  12
ENDBRANCH  10  11
ENDBRANCH   9  10
ENDBRANCH   1   9
TORSDOF 10
ENDMDL
MODEL 5
REMARK VINA RESULT:    -4.493      1.905      2.627
REMARK INTER + INTRA:          -8.227
REMARK INTER:                  -7.155
REMARK INTRA:                  -1.073
REMARK UNBOUND:                -1.108
REMARK SMILES CCCCCCCCCCCC(=O)[O-]
REMARK SMILES IDX 7 1 8 2 9 3 10 4 11 5 12 6 13 7 14 8 6 9 5 10 4 11 3 12 2 13
REMARK SMILES IDX 1 14
REMARK H PARENT
REMARK Flexibility Score: inf
ROOT
ATOM      1  C   UNL     1      45.987  51.036  11.769  1.00  0.00     0.000 C 
ENDROOT
BRANCH   1   2
ATOM      2  C   UNL     1      44.603  50.679  11.214  1.00  0.00     0.000 C 
BRANCH   2   3
ATOM      3  C   UNL     1      43.843  49.760  12.182  1.00  0.00     0.000 C 
BRANCH   3   4
ATOM      4  C   UNL     1      43.498  48.393  11.563  1.00  0.00     0.006 C 
BRANCH   4   5
ATOM      5  C   UNL     1      42.760  47.436  12.513  1.00  0.00     0.053 C 
BRANCH   5   6
ATOM      6  C   UNL     1      41.292  47.376  12.223  1.00  0.00     0.041 C 
ATOM      7  O   UNL     1      40.577  48.404  12.356  1.00  0.00    -0.550 OA
ATOM      8  O   UNL     1      40.720  46.193  11.772  1.00  0.00    -0.550 OA
ENDBRANCH   5   6
ENDBRANCH   4   5
ENDBRANCH   3   4
ENDBRANCH   2   3
ENDBRANCH   1   2
BRANCH   1   9
ATOM      9  C   UNL     1      47.092  50.282  11.021  1.00  0.00     0.000 C 
BRANCH   9  10
ATOM     10  C   UNL     1      46.673  49.982   9.575  1.00  0.00    -0.000 C 
BRANCH  10  11
ATOM     11  C   UNL     1      46.618  48.475   9.275  1.00  0.00    -0.000 C 
BRANCH  11  12
ATOM     12  C   UNL     1      47.155  47.621  10.437  1.00  0.00    -0.000 C 
BRANCH  12  13
ATOM     13  C   UNL     1      46.432  46.271  10.558  1.00  0.00    -0.003 C 
ATOM     14  C   UNL     1      46.957  45.231   9.569  1.00  0.00     0.004 C 
ENDBRANCH  12  13
ENDBRANCH  11  12
ENDBRANCH  10  11
ENDBRANCH   9  10
ENDBRANCH   1   9
TORSDOF 10
ENDMDL
MODEL 6
REMARK VINA RESULT:    -4.439      1.576      2.905
REMARK INTER + INTRA:          -8.141
REMARK INTER:                  -7.099
REMARK INTRA:                  -1.043
REMARK UNBOUND:                -1.108
REMARK SMILES CCCCCCCCCCCC(=O)[O-]
REMARK SMILES IDX 7 1 8 2 9 3 10 4 11 5 12 6 13 7 14 8 6 9 5 10 4 11 3 12 2 13
REMARK SMILES IDX 1 14
REMARK H PARENT
REMARK Flexibility Score: inf
ROOT
ATOM      1  C   UNL     1      46.986  50.301   9.540  1.00  0.00     0.000 C 
ENDROOT
BRANCH   1   2
ATOM      2  C   UNL     1      46.044  51.370  10.103  1.00  0.00     0.000 C 
BRANCH   2   3
ATOM      3  C   UNL     1      45.415  50.908  11.426  1.00  0.00     0.000 C 
BRANCH   3   4
ATOM      4  C   UNL     1      43.992  50.346  11.247  1.00  0.00     0.006 C 
BRANCH   4   5
ATOM      5  C   UNL     1      43.788  48.941  11.837  1.00  0.00     0.053 C 
BRANCH   5   6
ATOM      6  C   UNL     1      42.629  48.892  12.785  1.00  0.00     0.041 C 
ATOM      7  O   UNL     1      41.812  47.936  12.738  1.00  0.00    -0.550 OA
ATOM      8  O   UNL     1      42.471  49.887  13.742  1.00  0.00    -0.550 OA
ENDBRANCH   5   6
ENDBRANCH   4   5
ENDBRANCH   3   4
ENDBRANCH   2   3
ENDBRANCH   1   2
BRANCH   1   9
ATOM      9  C   UNL     1      47.632  49.486  10.666  1.00  0.00     0.000 C 
BRANCH   9  10
ATOM     10  C   UNL     1      47.298  47.993  10.526  1.00  0.00    -0.000 C 
BRANCH  10  11
ATOM     11  C   UNL     1      46.484  47.685   9.259  1.00  0.00    -0.000 C 
BRANCH  11  12
ATOM     12  C   UNL     1      45.799  46.309   9.316  1.00  0.00    -0.000 C 
BRANCH  12  13
ATOM     13  C   UNL     1      46.808  45.151   9.365  1.00  0.00    -0.003 C 
ATOM     14  C   UNL     1      47.628  45.030   8.081  1.00  0.00     0.004 C 
ENDBRANCH  12  13
ENDBRANCH  11  12
ENDBRANCH  10  11
ENDBRANCH   9  10
ENDBRANCH   1   9
TORSDOF 10
ENDMDL
MODEL 7
REMARK VINA RESULT:    -4.399      3.580      5.944
REMARK INTER + INTRA:          -8.079
REMARK INTER:                  -7.005
REMARK INTRA:                  -1.073
REMARK UNBOUND:                -1.108
REMARK SMILES CCCCCCCCCCCC(=O)[O-]
REMARK SMILES IDX 7 1 8 2 9 3 10 4 11 5 12 6 13 7 14 8 6 9 5 10 4 11 3 12 2 13
REMARK SMILES IDX 1 14
REMARK H PARENT
REMARK Flexibility Score: inf
ROOT
ATOM      1  C   UNL     1      46.798  51.023  11.181  1.00  0.00     0.000 C 
ENDROOT
BRANCH   1   2
ATOM      2  C   UNL     1      47.726  50.160  10.318  1.00  0.00     0.000 C 
BRANCH   2   3
ATOM      3  C   UNL     1      47.620  48.678  10.708  1.00  0.00     0.000 C 
BRANCH   3   4
ATOM      4  C   UNL     1      46.677  47.884   9.787  1.00  0.00     0.006 C 
BRANCH   4   5
ATOM      5  C   UNL     1      46.020  46.664  10.454  1.00  0.00     0.053 C 
BRANCH   5   6
ATOM      6  C   UNL     1      46.108  45.438   9.596  1.00  0.00     0.041 C 
ATOM      7  O   UNL     1      45.065  44.929   9.110  1.00  0.00    -0.550 OA
ATOM      8  O   UNL     1      47.346  44.879   9.308  1.00  0.00    -0.550 OA
ENDBRANCH   5   6
ENDBRANCH   4   5
ENDBRANCH   3   4
ENDBRANCH   2   3
ENDBRANCH   1   2
BRANCH   1   9
ATOM      9  C   UNL     1      45.660  51.616  10.343  1.00  0.00     0.000 C 
BRANCH   9  10
ATOM     10  C   UNL     1      44.349  50.848  10.573  1.00  0.00    -0.000 C 
BRANCH  10  11
ATOM     11  C   UNL     1      44.251  50.254  11.987  1.00  0.00    -0.000 C 
BRANCH  11  12
ATOM     12  C   UNL     1      43.501  48.912  12.015  1.00  0.00    -0.000 C 
BRANCH  12  13
ATOM     13  C   UNL     1      42.520  48.810  13.192  1.00  0.00    -0.003 C 
ATOM     14  C   UNL     1      42.416  50.110  13.988  1.00  0.00     0.004 C 
ENDBRANCH  12  13
ENDBRANCH  11  12
ENDBRANCH  10  11
ENDBRANCH   9  10
ENDBRANCH   1   9
TORSDOF 10
ENDMDL
MODEL 8
REMARK VINA RESULT:    -4.298      3.360      5.492
REMARK INTER + INTRA:          -7.918
REMARK INTER:                  -6.279
REMARK INTRA:                  -1.638
REMARK UNBOUND:                -1.108
REMARK SMILES CCCCCCCCCCCC(=O)[O-]
REMARK SMILES IDX 7 1 8 2 9 3 10 4 11 5 12 6 13 7 14 8 6 9 5 10 4 11 3 12 2 13
REMARK SMILES IDX 1 14
REMARK H PARENT
REMARK Flexibility Score: inf
ROOT
ATOM      1  C   UNL     1      47.151  50.290   9.526  1.00  0.00     0.000 C 
ENDROOT
BRANCH   1   2
ATOM      2  C   UNL     1      47.706  49.377  10.625  1.00  0.00     0.000 C 
BRANCH   2   3
ATOM      3  C   UNL     1      47.105  47.967  10.524  1.00  0.00     0.000 C 
BRANCH   3   4
ATOM      4  C   UNL     1      46.516  47.667   9.134  1.00  0.00     0.006 C 
BRANCH   4   5
ATOM      5  C   UNL     1      45.204  46.865   9.162  1.00  0.00     0.053 C 
BRANCH   5   6
ATOM      6  C   UNL     1      45.338  45.594   9.944  1.00  0.00     0.041 C 
ATOM      7  O   UNL     1      44.642  45.408  10.976  1.00  0.00    -0.550 OA
ATOM      8  O   UNL     1      46.208  44.601   9.512  1.00  0.00    -0.550 OA
ENDBRANCH   5   6
ENDBRANCH   4   5
ENDBRANCH   3   4
ENDBRANCH   2   3
ENDBRANCH   1   2
BRANCH   1   9
ATOM      9  C   UNL     1      46.072  51.227  10.081  1.00  0.00     0.000 C 
BRANCH   9  10
ATOM     10  C   UNL     1      44.707  50.936   9.438  1.00  0.00    -0.000 C 
BRANCH  10  11
ATOM     11  C   UNL     1      43.617  50.630  10.478  1.00  0.00    -0.000 C 
BRANCH  11  12
ATOM     12  C   UNL     1      44.179  49.966  11.746  1.00  0.00    -0.000 C 
BRANCH  12  13
ATOM     13  C   UNL     1      43.516  48.613  12.045  1.00  0.00    -0.003 C 
ATOM     14  C   UNL     1      42.360  48.300  11.097  1.00  0.00     0.004 C 
ENDBRANCH  12  13
ENDBRANCH  11  12
ENDBRANCH  10  11
ENDBRANCH   9  10
ENDBRANCH   1   9
TORSDOF 10
ENDMDL
MODEL 9
REMARK VINA RESULT:    -4.285     13.029     14.664
REMARK INTER + INTRA:          -7.897
REMARK INTER:                  -6.852
REMARK INTRA:                  -1.045
REMARK UNBOUND:                -1.108
REMARK SMILES CCCCCCCCCCCC(=O)[O-]
REMARK SMILES IDX 7 1 8 2 9 3 10 4 11 5 12 6 13 7 14 8 6 9 5 10 4 11 3 12 2 13
REMARK SMILES IDX 1 14
REMARK H PARENT
REMARK Flexibility Score: inf
ROOT
ATOM      1  C   UNL     1      44.388  39.479  22.262  1.00  0.00     0.000 C 
ENDROOT
BRANCH   1   2
ATOM      2  C   UNL     1      44.580  37.970  22.074  1.00  0.00     0.000 C 
BRANCH   2   3
ATOM      3  C   UNL     1      44.075  37.519  20.695  1.00  0.00     0.000 C 
BRANCH   3   4
ATOM      4  C   UNL     1      44.891  36.350  20.114  1.00  0.00     0.006 C 
BRANCH   4   5
ATOM      5  C   UNL     1      45.695  36.706  18.852  1.00  0.00     0.053 C 
BRANCH   5   6
ATOM      6  C   UNL     1      46.583  35.582  18.415  1.00  0.00     0.041 C 
ATOM      7  O   UNL     1      47.060  35.567  17.250  1.00  0.00    -0.550 OA
ATOM      8  O   UNL     1      46.910  34.567  19.306  1.00  0.00    -0.550 OA
ENDBRANCH   5   6
ENDBRANCH   4   5
ENDBRANCH   3   4
ENDBRANCH   2   3
ENDBRANCH   1   2
BRANCH   1   9
ATOM      9  C   UNL     1      43.685  40.101  21.050  1.00  0.00     0.000 C 
BRANCH   9  10
ATOM     10  C   UNL     1      44.546  41.207  20.421  1.00  0.00    -0.000 C 
BRANCH  10  11
ATOM     11  C   UNL     1      45.182  40.776  19.089  1.00  0.00    -0.000 C 
BRANCH  11  12
ATOM     12  C   UNL     1      46.638  40.309  19.252  1.00  0.00    -0.000 C 
BRANCH  12  13
ATOM     13  C   UNL     1      47.301  39.971  17.909  1.00  0.00    -0.003 C 
ATOM     14  C   UNL     1      48.826  39.924  17.999  1.00  0.00     0.004 C 
ENDBRANCH  12  13
ENDBRANCH  11  12
ENDBRANCH  10  11
ENDBRANCH   9  10
ENDBRANCH   1   9
TORSDOF 10
ENDMDL
