MODEL 1
REMARK VINA RESULT:    -4.751      0.000      0.000
REMARK INTER + INTRA:          -5.121
REMARK INTER:                  -5.306
REMARK INTRA:                   0.185
REMARK UNBOUND:                 0.185
REMARK SMILES COc1cc2ccc(=O)oc2cc1OC
REMARK SMILES IDX 3 1 13 2 12 3 11 4 5 5 4 6 6 7 7 8 8 9 9 10 10 11 2 12 1 13
REMARK SMILES IDX 14 14 15 15
REMARK H PARENT
REMARK Flexibility Score: inf
ROOT
ATOM      1  C   UNL     1      13.936  22.238  -0.906  1.00  0.00     0.161 A 
ATOM      2  C   UNL     1      13.955  22.924  -2.132  1.00  0.00     0.164 A 
ATOM      3  C   UNL     1      13.242  22.408  -3.233  1.00  0.00     0.098 A 
ATOM      4  C   UNL     1      12.518  21.219  -3.112  1.00  0.00     0.142 A 
ATOM      5  C   UNL     1      12.500  20.531  -1.882  1.00  0.00     0.022 A 
ATOM      6  C   UNL     1      13.206  21.039  -0.785  1.00  0.00     0.062 A 
ATOM      7  C   UNL     1      11.765  19.343  -1.794  1.00  0.00     0.019 A 
ATOM      8  C   UNL     1      11.078  18.878  -2.915  1.00  0.00     0.094 A 
ATOM      9  C   UNL     1      11.142  19.616  -4.102  1.00  0.00     0.336 A 
ATOM     10  O   UNL     1      10.529  19.212  -5.124  1.00  0.00    -0.246 OA
ATOM     11  O   UNL     1      11.848  20.741  -4.158  1.00  0.00    -0.423 OA
ENDROOT
BRANCH   1  12
ATOM     12  O   UNL     1      14.658  22.781   0.170  1.00  0.00    -0.493 OA
ATOM     13  C   UNL     1      16.065  22.645   0.348  1.00  0.00     0.278 C 
ENDBRANCH   1  12
BRANCH   2  14
ATOM     14  O   UNL     1      14.692  24.116  -2.217  1.00  0.00    -0.493 OA
ATOM     15  C   UNL     1      14.345  25.329  -1.558  1.00  0.00     0.278 C 
ENDBRANCH   2  14
TORSDOF 2
ENDMDL
MODEL 2
REMARK VINA RESULT:    -4.523      1.772      5.219
REMARK INTER + INTRA:          -4.866
REMARK INTER:                  -4.820
REMARK INTRA:                  -0.047
REMARK UNBOUND:                 0.185
REMARK SMILES COc1cc2ccc(=O)oc2cc1OC
REMARK SMILES IDX 3 1 13 2 12 3 11 4 5 5 4 6 6 7 7 8 8 9 9 10 10 11 2 12 1 13
REMARK SMILES IDX 14 14 15 15
REMARK H PARENT
REMARK Flexibility Score: inf
ROOT
ATOM      1  C   UNL     1      11.841  20.019  -2.743  1.00  0.00     0.161 A 
ATOM      2  C   UNL     1      13.056  20.042  -3.450  1.00  0.00     0.164 A 
ATOM      3  C   UNL     1      13.959  21.106  -3.252  1.00  0.00     0.098 A 
ATOM      4  C   UNL     1      13.653  22.137  -2.359  1.00  0.00     0.142 A 
ATOM      5  C   UNL     1      12.435  22.113  -1.650  1.00  0.00     0.022 A 
ATOM      6  C   UNL     1      11.534  21.058  -1.843  1.00  0.00     0.062 A 
ATOM      7  C   UNL     1      12.158  23.159  -0.764  1.00  0.00     0.019 A 
ATOM      8  C   UNL     1      13.088  24.187  -0.607  1.00  0.00     0.094 A 
ATOM      9  C   UNL     1      14.277  24.143  -1.343  1.00  0.00     0.336 A 
ATOM     10  O   UNL     1      15.128  25.061  -1.215  1.00  0.00    -0.246 OA
ATOM     11  O   UNL     1      14.514  23.136  -2.180  1.00  0.00    -0.423 OA
ENDROOT
BRANCH   1  12
ATOM     12  O   UNL     1      10.965  18.943  -2.965  1.00  0.00    -0.493 OA
ATOM     13  C   UNL     1      10.023  18.877  -4.031  1.00  0.00     0.278 C 
ENDBRANCH   1  12
BRANCH   2  14
ATOM     14  O   UNL     1      13.330  18.991  -4.338  1.00  0.00    -0.493 OA
ATOM     15  C   UNL     1      14.521  18.875  -5.110  1.00  0.00     0.278 C 
ENDBRANCH   2  14
TORSDOF 2
ENDMDL
MODEL 3
REMARK VINA RESULT:    -4.332      1.228      2.501
REMARK INTER + INTRA:          -4.653
REMARK INTER:                  -4.523
REMARK INTRA:                  -0.131
REMARK UNBOUND:                 0.185
REMARK SMILES COc1cc2ccc(=O)oc2cc1OC
REMARK SMILES IDX 3 1 13 2 12 3 11 4 5 5 4 6 6 7 7 8 8 9 9 10 10 11 2 12 1 13
REMARK SMILES IDX 14 14 15 15
REMARK H PARENT
REMARK Flexibility Score: inf
ROOT
ATOM      1  C   UNL     1      14.130  22.839  -1.513  1.00  0.00     0.161 A 
ATOM      2  C   UNL     1      13.487  21.987  -0.598  1.00  0.00     0.164 A 
ATOM      3  C   UNL     1      12.591  21.005  -1.067  1.00  0.00     0.098 A 
ATOM      4  C   UNL     1      12.338  20.875  -2.435  1.00  0.00     0.142 A 
ATOM      5  C   UNL     1      12.982  21.730  -3.352  1.00  0.00     0.022 A 
ATOM      6  C   UNL     1      13.873  22.706  -2.891  1.00  0.00     0.062 A 
ATOM      7  C   UNL     1      12.707  21.574  -4.715  1.00  0.00     0.019 A 
ATOM      8  C   UNL     1      11.812  20.587  -5.124  1.00  0.00     0.094 A 
ATOM      9  C   UNL     1      11.211  19.774  -4.157  1.00  0.00     0.336 A 
ATOM     10  O   UNL     1      10.400  18.878  -4.506  1.00  0.00    -0.246 OA
ATOM     11  O   UNL     1      11.490  19.945  -2.867  1.00  0.00    -0.423 OA
ENDROOT
BRANCH   1  12
ATOM     12  O   UNL     1      15.016  23.805  -1.009  1.00  0.00    -0.493 OA
ATOM     13  C   UNL     1      14.927  25.200  -1.279  1.00  0.00     0.278 C 
ENDBRANCH   1  12
BRANCH   2  14
ATOM     14  O   UNL     1      13.766  22.145   0.769  1.00  0.00    -0.493 OA
ATOM     15  C   UNL     1      12.986  22.926   1.668  1.00  0.00     0.278 C 
ENDBRANCH   2  14
TORSDOF 2
ENDMDL
MODEL 4
REMARK VINA RESULT:    -2.765      1.707      5.487
REMARK INTER + INTRA:          -2.903
REMARK INTER:                  -2.815
REMARK INTRA:                  -0.088
REMARK UNBOUND:                 0.185
REMARK SMILES COc1cc2ccc(=O)oc2cc1OC
REMARK SMILES IDX 3 1 13 2 12 3 11 4 5 5 4 6 6 7 7 8 8 9 9 10 10 11 2 12 1 13
REMARK SMILES IDX 14 14 15 15
REMARK H PARENT
REMARK Flexibility Score: inf
ROOT
ATOM      1  C   UNL     1      12.337  20.497  -3.905  1.00  0.00     0.161 A 
ATOM      2  C   UNL     1      12.430  20.376  -2.507  1.00  0.00     0.164 A 
ATOM      3  C   UNL     1      12.796  21.494  -1.731  1.00  0.00     0.098 A 
ATOM      4  C   UNL     1      13.068  22.720  -2.342  1.00  0.00     0.142 A 
ATOM      5  C   UNL     1      12.975  22.842  -3.743  1.00  0.00     0.022 A 
ATOM      6  C   UNL     1      12.611  21.735  -4.519  1.00  0.00     0.062 A 
ATOM      7  C   UNL     1      13.253  24.084  -4.324  1.00  0.00     0.019 A 
ATOM      8  C   UNL     1      13.611  25.157  -3.509  1.00  0.00     0.094 A 
ATOM      9  C   UNL     1      13.682  24.961  -2.125  1.00  0.00     0.336 A 
ATOM     10  O   UNL     1      14.004  25.917  -1.372  1.00  0.00    -0.246 OA
ATOM     11  O   UNL     1      13.413  23.770  -1.599  1.00  0.00    -0.423 OA
ENDROOT
BRANCH   1  12
ATOM     12  O   UNL     1      11.969  19.363  -4.646  1.00  0.00    -0.493 OA
ATOM     13  C   UNL     1      10.630  19.023  -4.991  1.00  0.00     0.278 C 
ENDBRANCH   1  12
BRANCH   2  14
ATOM     14  O   UNL     1      12.149  19.128  -1.927  1.00  0.00    -0.493 OA
ATOM     15  C   UNL     1      12.129  18.875  -0.526  1.00  0.00     0.278 C 
ENDBRANCH   2  14
TORSDOF 2
ENDMDL
MODEL 5
REMARK VINA RESULT:    -2.655      1.594      2.364
REMARK INTER + INTRA:          -2.781
REMARK INTER:                  -2.705
REMARK INTRA:                  -0.076
REMARK UNBOUND:                 0.185
REMARK SMILES COc1cc2ccc(=O)oc2cc1OC
REMARK SMILES IDX 3 1 13 2 12 3 11 4 5 5 4 6 6 7 7 8 8 9 9 10 10 11 2 12 1 13
REMARK SMILES IDX 14 14 15 15
REMARK H PARENT
REMARK Flexibility Score: inf
ROOT
ATOM      1  C   UNL     1      14.251  24.130  -1.750  1.00  0.00     0.161 A 
ATOM      2  C   UNL     1      13.543  24.194  -2.962  1.00  0.00     0.164 A 
ATOM      3  C   UNL     1      12.751  23.100  -3.367  1.00  0.00     0.098 A 
ATOM      4  C   UNL     1      12.666  21.955  -2.572  1.00  0.00     0.142 A 
ATOM      5  C   UNL     1      13.377  21.891  -1.356  1.00  0.00     0.022 A 
ATOM      6  C   UNL     1      14.165  22.974  -0.949  1.00  0.00     0.062 A 
ATOM      7  C   UNL     1      13.272  20.730  -0.583  1.00  0.00     0.019 A 
ATOM      8  C   UNL     1      12.474  19.678  -1.031  1.00  0.00     0.094 A 
ATOM      9  C   UNL     1      11.797  19.813  -2.249  1.00  0.00     0.336 A 
ATOM     10  O   UNL     1      11.073  18.875  -2.671  1.00  0.00    -0.246 OA
ATOM     11  O   UNL     1      11.915  20.928  -2.964  1.00  0.00    -0.423 OA
ENDROOT
BRANCH   1  12
ATOM     12  O   UNL     1      15.030  25.238  -1.378  1.00  0.00    -0.493 OA
ATOM     13  C   UNL     1      14.550  26.345  -0.623  1.00  0.00     0.278 C 
ENDBRANCH   1  12
BRANCH   2  14
ATOM     14  O   UNL     1      13.650  25.360  -3.736  1.00  0.00    -0.493 OA
ATOM     15  C   UNL     1      13.251  25.465  -5.099  1.00  0.00     0.278 C 
ENDBRANCH   2  14
TORSDOF 2
ENDMDL
MODEL 6
REMARK VINA RESULT:    -2.562      1.680      1.817
REMARK INTER + INTRA:          -2.677
REMARK INTER:                  -2.549
REMARK INTRA:                  -0.128
REMARK UNBOUND:                 0.185
REMARK SMILES COc1cc2ccc(=O)oc2cc1OC
REMARK SMILES IDX 3 1 13 2 12 3 11 4 5 5 4 6 6 7 7 8 8 9 9 10 10 11 2 12 1 13
REMARK SMILES IDX 14 14 15 15
REMARK H PARENT
REMARK Flexibility Score: inf
ROOT
ATOM      1  C   UNL     1      13.208  22.604  -0.166  1.00  0.00     0.161 A 
ATOM      2  C   UNL     1      14.337  22.917  -0.942  1.00  0.00     0.164 A 
ATOM      3  C   UNL     1      14.600  22.188  -2.119  1.00  0.00     0.098 A 
ATOM      4  C   UNL     1      13.745  21.157  -2.519  1.00  0.00     0.142 A 
ATOM      5  C   UNL     1      12.613  20.843  -1.740  1.00  0.00     0.022 A 
ATOM      6  C   UNL     1      12.347  21.565  -0.569  1.00  0.00     0.062 A 
ATOM      7  C   UNL     1      11.777  19.806  -2.167  1.00  0.00     0.019 A 
ATOM      8  C   UNL     1      12.084  19.118  -3.340  1.00  0.00     0.094 A 
ATOM      9  C   UNL     1      13.225  19.486  -4.062  1.00  0.00     0.336 A 
ATOM     10  O   UNL     1      13.519  18.876  -5.123  1.00  0.00    -0.246 OA
ATOM     11  O   UNL     1      14.003  20.476  -3.633  1.00  0.00    -0.423 OA
ENDROOT
BRANCH   1  12
ATOM     12  O   UNL     1      12.978  23.351   1.001  1.00  0.00    -0.493 OA
ATOM     13  C   UNL     1      13.120  22.845   2.325  1.00  0.00     0.278 C 
ENDBRANCH   1  12
BRANCH   2  14
ATOM     14  O   UNL     1      15.174  23.959  -0.511  1.00  0.00    -0.493 OA
ATOM     15  C   UNL     1      15.098  25.301  -0.979  1.00  0.00     0.278 C 
ENDBRANCH   2  14
TORSDOF 2
ENDMDL
MODEL 7
REMARK VINA RESULT:    -2.181      1.961      4.701
REMARK INTER + INTRA:          -2.251
REMARK INTER:                  -2.142
REMARK INTRA:                  -0.109
REMARK UNBOUND:                 0.185
REMARK SMILES COc1cc2ccc(=O)oc2cc1OC
REMARK SMILES IDX 3 1 13 2 12 3 11 4 5 5 4 6 6 7 7 8 8 9 9 10 10 11 2 12 1 13
REMARK SMILES IDX 14 14 15 15
REMARK H PARENT
REMARK Flexibility Score: inf
ROOT
ATOM      1  C   UNL     1      12.610  20.577  -1.882  1.00  0.00     0.161 A 
ATOM      2  C   UNL     1      12.251  20.378  -3.226  1.00  0.00     0.164 A 
ATOM      3  C   UNL     1      12.357  21.444  -4.143  1.00  0.00     0.098 A 
ATOM      4  C   UNL     1      12.814  22.696  -3.722  1.00  0.00     0.142 A 
ATOM      5  C   UNL     1      13.174  22.895  -2.374  1.00  0.00     0.022 A 
ATOM      6  C   UNL     1      13.071  21.839  -1.460  1.00  0.00     0.062 A 
ATOM      7  C   UNL     1      13.629  24.159  -1.984  1.00  0.00     0.019 A 
ATOM      8  C   UNL     1      13.713  25.178  -2.932  1.00  0.00     0.094 A 
ATOM      9  C   UNL     1      13.340  24.906  -4.254  1.00  0.00     0.336 A 
ATOM     10  O   UNL     1      13.409  25.813  -5.124  1.00  0.00    -0.246 OA
ATOM     11  O   UNL     1      12.910  23.695  -4.596  1.00  0.00    -0.423 OA
ENDROOT
BRANCH   1  12
ATOM     12  O   UNL     1      12.492  19.493  -0.997  1.00  0.00    -0.493 OA
ATOM     13  C   UNL     1      13.176  19.388   0.247  1.00  0.00     0.278 C 
ENDBRANCH   1  12
BRANCH   2  14
ATOM     14  O   UNL     1      11.795  19.108  -3.614  1.00  0.00    -0.493 OA
ATOM     15  C   UNL     1      10.670  18.875  -4.454  1.00  0.00     0.278 C 
ENDBRANCH   2  14
TORSDOF 2
ENDMDL
MODEL 8
REMARK VINA RESULT:    -1.972      1.818      5.322
REMARK INTER + INTRA:          -2.017
REMARK INTER:                  -2.362
REMARK INTRA:                   0.344
REMARK UNBOUND:                 0.185
REMARK SMILES COc1cc2ccc(=O)oc2cc1OC
REMARK SMILES IDX 3 1 13 2 12 3 11 4 5 5 4 6 6 7 7 8 8 9 9 10 10 11 2 12 1 13
REMARK SMILES IDX 14 14 15 15
REMARK H PARENT
REMARK Flexibility Score: inf
ROOT
ATOM      1  C   UNL     1      13.160  20.156  -3.173  1.00  0.00     0.161 A 
ATOM      2  C   UNL     1      11.923  20.375  -2.541  1.00  0.00     0.164 A 
ATOM      3  C   UNL     1      11.722  21.550  -1.788  1.00  0.00     0.098 A 
ATOM      4  C   UNL     1      12.743  22.496  -1.667  1.00  0.00     0.142 A 
ATOM      5  C   UNL     1      13.983  22.276  -2.301  1.00  0.00     0.022 A 
ATOM      6  C   UNL     1      14.188  21.111  -3.050  1.00  0.00     0.062 A 
ATOM      7  C   UNL     1      14.985  23.242  -2.160  1.00  0.00     0.019 A 
ATOM      8  C   UNL     1      14.731  24.385  -1.404  1.00  0.00     0.094 A 
ATOM      9  C   UNL     1      13.476  24.537  -0.804  1.00  0.00     0.336 A 
ATOM     10  O   UNL     1      13.228  25.561  -0.117  1.00  0.00    -0.246 OA
ATOM     11  O   UNL     1      12.542  23.602  -0.954  1.00  0.00    -0.423 OA
ENDROOT
BRANCH   1  12
ATOM     12  O   UNL     1      13.325  18.975  -3.915  1.00  0.00    -0.493 OA
ATOM     13  C   UNL     1      14.084  18.875  -5.116  1.00  0.00     0.278 C 
ENDBRANCH   1  12
BRANCH   2  14
ATOM     14  O   UNL     1      10.920  19.404  -2.685  1.00  0.00    -0.493 OA
ATOM     15  C   UNL     1      10.473  18.883  -3.932  1.00  0.00     0.278 C 
ENDBRANCH   2  14
TORSDOF 2
ENDMDL
MODEL 9
REMARK VINA RESULT:    -1.905      1.805      5.051
REMARK INTER + INTRA:          -1.943
REMARK INTER:                  -1.839
REMARK INTRA:                  -0.103
REMARK UNBOUND:                 0.185
REMARK SMILES COc1cc2ccc(=O)oc2cc1OC
REMARK SMILES IDX 3 1 13 2 12 3 11 4 5 5 4 6 6 7 7 8 8 9 9 10 10 11 2 12 1 13
REMARK SMILES IDX 14 14 15 15
REMARK H PARENT
REMARK Flexibility Score: inf
ROOT
ATOM      1  C   UNL     1      13.153  22.134  -4.036  1.00  0.00     0.161 A 
ATOM      2  C   UNL     1      13.282  23.533  -3.985  1.00  0.00     0.164 A 
ATOM      3  C   UNL     1      13.968  24.132  -2.909  1.00  0.00     0.098 A 
ATOM      4  C   UNL     1      14.519  23.345  -1.895  1.00  0.00     0.142 A 
ATOM      5  C   UNL     1      14.389  21.942  -1.946  1.00  0.00     0.022 A 
ATOM      6  C   UNL     1      13.709  21.342  -3.012  1.00  0.00     0.062 A 
ATOM      7  C   UNL     1      14.951  21.182  -0.915  1.00  0.00     0.019 A 
ATOM      8  C   UNL     1      15.619  21.828   0.125  1.00  0.00     0.094 A 
ATOM      9  C   UNL     1      15.709  23.224   0.109  1.00  0.00     0.336 A 
ATOM     10  O   UNL     1      16.307  23.825   1.039  1.00  0.00    -0.246 OA
ATOM     11  O   UNL     1      15.165  23.922  -0.884  1.00  0.00    -0.423 OA
ENDROOT
BRANCH   1  12
ATOM     12  O   UNL     1      12.463  21.571  -5.122  1.00  0.00    -0.493 OA
ATOM     13  C   UNL     1      11.765  20.331  -5.080  1.00  0.00     0.278 C 
ENDBRANCH   1  12
BRANCH   2  14
ATOM     14  O   UNL     1      12.717  24.292  -5.022  1.00  0.00    -0.493 OA
ATOM     15  C   UNL     1      12.805  25.709  -5.125  1.00  0.00     0.278 C 
ENDBRANCH   2  14
TORSDOF 2
ENDMDL
