MODEL 1
REMARK VINA RESULT:    -3.367      0.000      0.000
REMARK INTER + INTRA:          -8.321
REMARK INTER:                  -6.122
REMARK INTRA:                  -2.199
REMARK UNBOUND:                -2.199
REMARK SMILES CCCCCCCCCCCCCC[C@H](C)C(=O)[O-]
REMARK SMILES IDX 9 1 10 2 11 3 12 4 13 5 14 6 15 7 16 8 17 9 18 10 19 11 8 12
REMARK SMILES IDX 7 13 6 14 5 15 4 16 3 17 2 18 1 19
REMARK H PARENT
REMARK Flexibility Score: inf
ROOT
ATOM      1  C   UNL     1      16.154   8.982  41.851  1.00  0.00     0.000 C 
ENDROOT
BRANCH   1   2
ATOM      2  C   UNL     1      15.506   9.026  40.457  1.00  0.00     0.000 C 
BRANCH   2   3
ATOM      3  C   UNL     1      16.169  10.060  39.530  1.00  0.00     0.000 C 
BRANCH   3   4
ATOM      4  C   UNL     1      16.604   9.450  38.188  1.00  0.00     0.000 C 
BRANCH   4   5
ATOM      5  C   UNL     1      17.937   8.688  38.284  1.00  0.00     0.001 C 
BRANCH   5   6
ATOM      6  C   UNL     1      19.175   9.600  38.158  1.00  0.00     0.009 C 
BRANCH   6   7
ATOM      7  C   UNL     1      20.475   8.935  37.635  1.00  0.00     0.032 C 
ATOM      8  C   UNL     1      21.723   9.379  38.414  1.00  0.00     0.014 C 
BRANCH   7   9
ATOM      9  C   UNL     1      20.643   9.094  36.145  1.00  0.00     0.044 C 
ATOM     10  O   UNL     1      21.779   9.359  35.669  1.00  0.00    -0.550 OA
ATOM     11  O   UNL     1      19.559   8.974  35.282  1.00  0.00    -0.550 OA
ENDBRANCH   7   9
ENDBRANCH   6   7
ENDBRANCH   5   6
ENDBRANCH   4   5
ENDBRANCH   3   4
ENDBRANCH   2   3
ENDBRANCH   1   2
BRANCH   1  12
ATOM     12  C   UNL     1      17.311   9.982  42.000  1.00  0.00     0.000 C 
BRANCH  12  13
ATOM     13  C   UNL     1      18.606   9.264  42.414  1.00  0.00    -0.000 C 
BRANCH  13  14
ATOM     14  C   UNL     1      18.796   7.910  41.706  1.00  0.00    -0.000 C 
BRANCH  14  15
ATOM     15  C   UNL     1      20.252   7.556  41.331  1.00  0.00    -0.000 C 
BRANCH  15  16
ATOM     16  C   UNL     1      20.406   6.374  40.353  1.00  0.00    -0.000 C 
BRANCH  16  17
ATOM     17  C   UNL     1      21.594   5.442  40.684  1.00  0.00    -0.000 C 
BRANCH  17  18
ATOM     18  C   UNL     1      22.676   5.419  39.592  1.00  0.00    -0.003 C 
ATOM     19  C   UNL     1      22.109   5.618  38.189  1.00  0.00     0.004 C 
ENDBRANCH  17  18
ENDBRANCH  16  17
ENDBRANCH  15  16
ENDBRANCH  14  15
ENDBRANCH  13  14
ENDBRANCH  12  13
ENDBRANCH   1  12
TORSDOF 14
ENDMDL
MODEL 2
REMARK VINA RESULT:    -3.341      5.438      9.097
REMARK INTER + INTRA:          -8.275
REMARK INTER:                  -6.927
REMARK INTRA:                  -1.348
REMARK UNBOUND:                -2.199
REMARK SMILES CCCCCCCCCCCCCC[C@H](C)C(=O)[O-]
REMARK SMILES IDX 9 1 10 2 11 3 12 4 13 5 14 6 15 7 16 8 17 9 18 10 19 11 8 12
REMARK SMILES IDX 7 13 6 14 5 15 4 16 3 17 2 18 1 19
REMARK H PARENT
REMARK Flexibility Score: inf
ROOT
ATOM      1  C   UNL     1      21.857   4.870  32.178  1.00  0.00     0.000 C 
ENDROOT
BRANCH   1   2
ATOM      2  C   UNL     1      22.313   5.891  33.233  1.00  0.00     0.000 C 
BRANCH   2   3
ATOM      3  C   UNL     1      21.592   7.244  33.097  1.00  0.00     0.000 C 
BRANCH   3   4
ATOM      4  C   UNL     1      21.089   7.779  34.447  1.00  0.00     0.000 C 
BRANCH   4   5
ATOM      5  C   UNL     1      21.993   8.882  35.024  1.00  0.00     0.001 C 
BRANCH   5   6
ATOM      6  C   UNL     1      21.219   9.966  35.801  1.00  0.00     0.009 C 
BRANCH   6   7
ATOM      7  C   UNL     1      21.320   9.916  37.347  1.00  0.00     0.032 C 
ATOM      8  C   UNL     1      22.673   9.377  37.837  1.00  0.00     0.014 C 
BRANCH   7   9
ATOM      9  C   UNL     1      20.154   9.196  37.977  1.00  0.00     0.044 C 
ATOM     10  O   UNL     1      19.162   9.853  38.387  1.00  0.00    -0.550 OA
ATOM     11  O   UNL     1      20.163   7.814  38.134  1.00  0.00    -0.550 OA
ENDBRANCH   7   9
ENDBRANCH   6   7
ENDBRANCH   5   6
ENDBRANCH   4   5
ENDBRANCH   3   4
ENDBRANCH   2   3
ENDBRANCH   1   2
BRANCH   1  12
ATOM     12  C   UNL     1      20.712   5.395  31.299  1.00  0.00     0.000 C 
BRANCH  12  13
ATOM     13  C   UNL     1      21.140   5.464  29.824  1.00  0.00    -0.000 C 
BRANCH  13  14
ATOM     14  C   UNL     1      22.629   5.136  29.614  1.00  0.00    -0.000 C 
BRANCH  14  15
ATOM     15  C   UNL     1      23.350   5.981  28.541  1.00  0.00    -0.000 C 
BRANCH  15  16
ATOM     16  C   UNL     1      24.431   6.938  29.081  1.00  0.00    -0.000 C 
BRANCH  16  17
ATOM     17  C   UNL     1      23.991   7.734  30.331  1.00  0.00    -0.000 C 
BRANCH  17  18
ATOM     18  C   UNL     1      24.802   9.022  30.553  1.00  0.00    -0.003 C 
ATOM     19  C   UNL     1      25.011   9.821  29.268  1.00  0.00     0.004 C 
ENDBRANCH  17  18
ENDBRANCH  16  17
ENDBRANCH  15  16
ENDBRANCH  14  15
ENDBRANCH  13  14
ENDBRANCH  12  13
ENDBRANCH   1  12
TORSDOF 14
ENDMDL
MODEL 3
REMARK VINA RESULT:    -3.276      2.609      4.063
REMARK INTER + INTRA:          -8.157
REMARK INTER:                  -5.861
REMARK INTRA:                  -2.296
REMARK UNBOUND:                -2.199
REMARK SMILES CCCCCCCCCCCCCC[C@H](C)C(=O)[O-]
REMARK SMILES IDX 9 1 10 2 11 3 12 4 13 5 14 6 15 7 16 8 17 9 18 10 19 11 8 12
REMARK SMILES IDX 7 13 6 14 5 15 4 16 3 17 2 18 1 19
REMARK H PARENT
REMARK Flexibility Score: inf
ROOT
ATOM      1  C   UNL     1      20.613   8.826  39.092  1.00  0.00     0.000 C 
ENDROOT
BRANCH   1   2
ATOM      2  C   UNL     1      19.612   9.518  38.153  1.00  0.00     0.000 C 
BRANCH   2   3
ATOM      3  C   UNL     1      18.342   8.678  37.921  1.00  0.00     0.000 C 
BRANCH   3   4
ATOM      4  C   UNL     1      18.277   8.093  36.502  1.00  0.00     0.000 C 
BRANCH   4   5
ATOM      5  C   UNL     1      19.476   8.510  35.631  1.00  0.00     0.001 C 
BRANCH   5   6
ATOM      6  C   UNL     1      20.161   7.324  34.922  1.00  0.00     0.009 C 
BRANCH   6   7
ATOM      7  C   UNL     1      21.651   7.515  34.535  1.00  0.00     0.032 C 
ATOM      8  C   UNL     1      22.175   8.921  34.867  1.00  0.00     0.014 C 
BRANCH   7   9
ATOM      9  C   UNL     1      21.929   7.122  33.106  1.00  0.00     0.044 C 
ATOM     10  O   UNL     1      22.403   7.971  32.306  1.00  0.00    -0.550 OA
ATOM     11  O   UNL     1      21.651   5.839  32.646  1.00  0.00    -0.550 OA
ENDBRANCH   7   9
ENDBRANCH   6   7
ENDBRANCH   5   6
ENDBRANCH   4   5
ENDBRANCH   3   4
ENDBRANCH   2   3
ENDBRANCH   1   2
BRANCH   1  12
ATOM     12  C   UNL     1      22.055   8.875  38.563  1.00  0.00     0.000 C 
BRANCH  12  13
ATOM     13  C   UNL     1      22.705   7.484  38.611  1.00  0.00    -0.000 C 
BRANCH  13  14
ATOM     14  C   UNL     1      21.814   6.383  38.007  1.00  0.00    -0.000 C 
BRANCH  14  15
ATOM     15  C   UNL     1      22.086   4.952  38.522  1.00  0.00    -0.000 C 
BRANCH  15  16
ATOM     16  C   UNL     1      22.977   4.868  39.777  1.00  0.00    -0.000 C 
BRANCH  16  17
ATOM     17  C   UNL     1      22.234   4.365  41.036  1.00  0.00    -0.000 C 
BRANCH  17  18
ATOM     18  C   UNL     1      20.796   4.896  41.152  1.00  0.00    -0.003 C 
ATOM     19  C   UNL     1      20.726   6.293  41.765  1.00  0.00     0.004 C 
ENDBRANCH  17  18
ENDBRANCH  16  17
ENDBRANCH  15  16
ENDBRANCH  14  15
ENDBRANCH  13  14
ENDBRANCH  12  13
ENDBRANCH   1  12
TORSDOF 14
ENDMDL
MODEL 4
REMARK VINA RESULT:    -3.209     11.001     13.231
REMARK INTER + INTRA:          -8.034
REMARK INTER:                  -5.795
REMARK INTRA:                  -2.239
REMARK UNBOUND:                -2.199
REMARK SMILES CCCCCCCCCCCCCC[C@H](C)C(=O)[O-]
REMARK SMILES IDX 9 1 10 2 11 3 12 4 13 5 14 6 15 7 16 8 17 9 18 10 19 11 8 12
REMARK SMILES IDX 7 13 6 14 5 15 4 16 3 17 2 18 1 19
REMARK H PARENT
REMARK Flexibility Score: inf
ROOT
ATOM      1  C   UNL     1      11.745   5.279  34.083  1.00  0.00     0.000 C 
ENDROOT
BRANCH   1   2
ATOM      2  C   UNL     1      11.957   5.425  32.567  1.00  0.00     0.000 C 
BRANCH   2   3
ATOM      3  C   UNL     1      11.284   4.296  31.765  1.00  0.00     0.000 C 
BRANCH   3   4
ATOM      4  C   UNL     1      10.816   4.761  30.377  1.00  0.00     0.000 C 
BRANCH   4   5
ATOM      5  C   UNL     1       9.283   4.792  30.246  1.00  0.00     0.001 C 
BRANCH   5   6
ATOM      6  C   UNL     1       8.586   5.581  31.373  1.00  0.00     0.009 C 
BRANCH   6   7
ATOM      7  C   UNL     1       8.323   7.085  31.106  1.00  0.00     0.032 C 
ATOM      8  C   UNL     1       7.878   7.363  29.662  1.00  0.00     0.014 C 
BRANCH   7   9
ATOM      9  C   UNL     1       9.482   7.955  31.526  1.00  0.00     0.044 C 
ATOM     10  O   UNL     1      10.466   8.100  30.753  1.00  0.00    -0.550 OA
ATOM     11  O   UNL     1       9.496   8.586  32.765  1.00  0.00    -0.550 OA
ENDBRANCH   7   9
ENDBRANCH   6   7
ENDBRANCH   5   6
ENDBRANCH   4   5
ENDBRANCH   3   4
ENDBRANCH   2   3
ENDBRANCH   1   2
BRANCH   1  12
ATOM     12  C   UNL     1      10.268   5.399  34.490  1.00  0.00     0.000 C 
BRANCH  12  13
ATOM     13  C   UNL     1       9.725   4.049  34.985  1.00  0.00    -0.000 C 
BRANCH  13  14
ATOM     14  C   UNL     1       8.239   3.836  34.644  1.00  0.00    -0.000 C 
BRANCH  14  15
ATOM     15  C   UNL     1       7.904   2.501  33.945  1.00  0.00    -0.000 C 
BRANCH  15  16
ATOM     16  C   UNL     1       8.898   2.069  32.849  1.00  0.00    -0.000 C 
BRANCH  16  17
ATOM     17  C   UNL     1       8.268   1.183  31.750  1.00  0.00    -0.000 C 
BRANCH  17  18
ATOM     18  C   UNL     1       8.963   1.315  30.384  1.00  0.00    -0.003 C 
ATOM     19  C   UNL     1      10.104   0.317  30.199  1.00  0.00     0.004 C 
ENDBRANCH  17  18
ENDBRANCH  16  17
ENDBRANCH  15  16
ENDBRANCH  14  15
ENDBRANCH  13  14
ENDBRANCH  12  13
ENDBRANCH   1  12
TORSDOF 14
ENDMDL
MODEL 5
REMARK VINA RESULT:    -3.207     10.234     12.519
REMARK INTER + INTRA:          -8.030
REMARK INTER:                  -5.717
REMARK INTRA:                  -2.313
REMARK UNBOUND:                -2.199
REMARK SMILES CCCCCCCCCCCCCC[C@H](C)C(=O)[O-]
REMARK SMILES IDX 9 1 10 2 11 3 12 4 13 5 14 6 15 7 16 8 17 9 18 10 19 11 8 12
REMARK SMILES IDX 7 13 6 14 5 15 4 16 3 17 2 18 1 19
REMARK H PARENT
REMARK Flexibility Score: inf
ROOT
ATOM      1  C   UNL     1       8.099   5.615  31.426  1.00  0.00     0.000 C 
ENDROOT
BRANCH   1   2
ATOM      2  C   UNL     1       8.974   4.374  31.666  1.00  0.00     0.000 C 
BRANCH   2   3
ATOM      3  C   UNL     1       9.788   3.976  30.422  1.00  0.00     0.000 C 
BRANCH   3   4
ATOM      4  C   UNL     1      11.304   4.047  30.665  1.00  0.00     0.000 C 
BRANCH   4   5
ATOM      5  C   UNL     1      11.936   5.333  30.105  1.00  0.00     0.001 C 
BRANCH   5   6
ATOM      6  C   UNL     1      12.338   5.224  28.620  1.00  0.00     0.009 C 
BRANCH   6   7
ATOM      7  C   UNL     1      13.814   4.851  28.326  1.00  0.00     0.032 C 
ATOM      8  C   UNL     1      14.709   4.944  29.571  1.00  0.00     0.014 C 
BRANCH   7   9
ATOM      9  C   UNL     1      14.378   5.618  27.156  1.00  0.00     0.044 C 
ATOM     10  O   UNL     1      15.352   5.146  26.511  1.00  0.00    -0.550 OA
ATOM     11  O   UNL     1      13.857   6.854  26.787  1.00  0.00    -0.550 OA
ENDBRANCH   7   9
ENDBRANCH   6   7
ENDBRANCH   5   6
ENDBRANCH   4   5
ENDBRANCH   3   4
ENDBRANCH   2   3
ENDBRANCH   1   2
BRANCH   1  12
ATOM     12  C   UNL     1       8.275   6.203  30.017  1.00  0.00     0.000 C 
BRANCH  12  13
ATOM     13  C   UNL     1       8.938   7.588  30.080  1.00  0.00    -0.000 C 
BRANCH  13  14
ATOM     14  C   UNL     1       9.176   8.077  31.520  1.00  0.00    -0.000 C 
BRANCH  14  15
ATOM     15  C   UNL     1      10.650   8.341  31.896  1.00  0.00    -0.000 C 
BRANCH  15  16
ATOM     16  C   UNL     1      11.005   8.082  33.374  1.00  0.00    -0.000 C 
BRANCH  16  17
ATOM     17  C   UNL     1      10.845   6.606  33.804  1.00  0.00    -0.000 C 
BRANCH  17  18
ATOM     18  C   UNL     1      12.171   5.827  33.824  1.00  0.00    -0.003 C 
ATOM     19  C   UNL     1      12.131   4.611  34.746  1.00  0.00     0.004 C 
ENDBRANCH  17  18
ENDBRANCH  16  17
ENDBRANCH  15  16
ENDBRANCH  14  15
ENDBRANCH  13  14
ENDBRANCH  12  13
ENDBRANCH   1  12
TORSDOF 14
ENDMDL
MODEL 6
REMARK VINA RESULT:    -3.178     10.209     12.343
REMARK INTER + INTRA:          -7.977
REMARK INTER:                  -5.488
REMARK INTRA:                  -2.489
REMARK UNBOUND:                -2.199
REMARK SMILES CCCCCCCCCCCCCC[C@H](C)C(=O)[O-]
REMARK SMILES IDX 9 1 10 2 11 3 12 4 13 5 14 6 15 7 16 8 17 9 18 10 19 11 8 12
REMARK SMILES IDX 7 13 6 14 5 15 4 16 3 17 2 18 1 19
REMARK H PARENT
REMARK Flexibility Score: inf
ROOT
ATOM      1  C   UNL     1       9.240   7.887  30.253  1.00  0.00     0.000 C 
ENDROOT
BRANCH   1   2
ATOM      2  C   UNL     1       8.027   7.229  30.931  1.00  0.00     0.000 C 
BRANCH   2   3
ATOM      3  C   UNL     1       8.227   5.721  31.165  1.00  0.00     0.000 C 
BRANCH   3   4
ATOM      4  C   UNL     1       8.761   5.000  29.917  1.00  0.00     0.000 C 
BRANCH   4   5
ATOM      5  C   UNL     1       9.628   3.776  30.262  1.00  0.00     0.001 C 
BRANCH   5   6
ATOM      6  C   UNL     1      10.997   3.774  29.552  1.00  0.00     0.009 C 
BRANCH   6   7
ATOM      7  C   UNL     1      12.049   4.787  30.071  1.00  0.00     0.032 C 
ATOM      8  C   UNL     1      12.521   5.763  28.982  1.00  0.00     0.014 C 
BRANCH   7   9
ATOM      9  C   UNL     1      13.201   4.112  30.773  1.00  0.00     0.044 C 
ATOM     10  O   UNL     1      13.337   2.863  30.691  1.00  0.00    -0.550 OA
ATOM     11  O   UNL     1      14.108   4.844  31.533  1.00  0.00    -0.550 OA
ENDBRANCH   7   9
ENDBRANCH   6   7
ENDBRANCH   5   6
ENDBRANCH   4   5
ENDBRANCH   3   4
ENDBRANCH   2   3
ENDBRANCH   1   2
BRANCH   1  12
ATOM     12  C   UNL     1      10.468   7.959  31.173  1.00  0.00     0.000 C 
BRANCH  12  13
ATOM     13  C   UNL     1      10.058   8.331  32.607  1.00  0.00    -0.000 C 
BRANCH  13  14
ATOM     14  C   UNL     1      11.067   7.850  33.666  1.00  0.00    -0.000 C 
BRANCH  14  15
ATOM     15  C   UNL     1      11.698   6.466  33.401  1.00  0.00    -0.000 C 
BRANCH  15  16
ATOM     16  C   UNL     1      11.244   5.347  34.360  1.00  0.00    -0.000 C 
BRANCH  16  17
ATOM     17  C   UNL     1      10.790   4.056  33.642  1.00  0.00    -0.000 C 
BRANCH  17  18
ATOM     18  C   UNL     1       9.349   3.641  33.983  1.00  0.00    -0.003 C 
ATOM     19  C   UNL     1       8.864   4.215  35.312  1.00  0.00     0.004 C 
ENDBRANCH  17  18
ENDBRANCH  16  17
ENDBRANCH  15  16
ENDBRANCH  14  15
ENDBRANCH  13  14
ENDBRANCH  12  13
ENDBRANCH   1  12
TORSDOF 14
ENDMDL
MODEL 7
REMARK VINA RESULT:    -3.162      2.781      5.098
REMARK INTER + INTRA:          -7.950
REMARK INTER:                  -5.240
REMARK INTRA:                  -2.710
REMARK UNBOUND:                -2.199
REMARK SMILES CCCCCCCCCCCCCC[C@H](C)C(=O)[O-]
REMARK SMILES IDX 9 1 10 2 11 3 12 4 13 5 14 6 15 7 16 8 17 9 18 10 19 11 8 12
REMARK SMILES IDX 7 13 6 14 5 15 4 16 3 17 2 18 1 19
REMARK H PARENT
REMARK Flexibility Score: inf
ROOT
ATOM      1  C   UNL     1      19.524   8.872  35.963  1.00  0.00     0.000 C 
ENDROOT
BRANCH   1   2
ATOM      2  C   UNL     1      18.886   7.642  36.629  1.00  0.00     0.000 C 
BRANCH   2   3
ATOM      3  C   UNL     1      18.489   7.903  38.094  1.00  0.00     0.000 C 
BRANCH   3   4
ATOM      4  C   UNL     1      18.670   9.375  38.497  1.00  0.00     0.000 C 
BRANCH   4   5
ATOM      5  C   UNL     1      18.421   9.616  39.996  1.00  0.00     0.001 C 
BRANCH   5   6
ATOM      6  C   UNL     1      19.621   9.234  40.886  1.00  0.00     0.009 C 
BRANCH   6   7
ATOM      7  C   UNL     1      19.309   8.381  42.143  1.00  0.00     0.032 C 
ATOM      8  C   UNL     1      20.538   7.622  42.666  1.00  0.00     0.014 C 
BRANCH   7   9
ATOM      9  C   UNL     1      18.120   7.475  41.941  1.00  0.00     0.044 C 
ATOM     10  O   UNL     1      17.022   7.753  42.493  1.00  0.00    -0.550 OA
ATOM     11  O   UNL     1      18.217   6.320  41.172  1.00  0.00    -0.550 OA
ENDBRANCH   7   9
ENDBRANCH   6   7
ENDBRANCH   5   6
ENDBRANCH   4   5
ENDBRANCH   3   4
ENDBRANCH   2   3
ENDBRANCH   1   2
BRANCH   1  12
ATOM     12  C   UNL     1      20.768   8.520  35.134  1.00  0.00     0.000 C 
BRANCH  12  13
ATOM     13  C   UNL     1      22.054   8.835  35.915  1.00  0.00    -0.000 C 
BRANCH  13  14
ATOM     14  C   UNL     1      21.863   9.939  36.971  1.00  0.00    -0.000 C 
BRANCH  14  15
ATOM     15  C   UNL     1      22.355   9.591  38.392  1.00  0.00    -0.000 C 
BRANCH  15  16
ATOM     16  C   UNL     1      22.978   8.189  38.543  1.00  0.00    -0.000 C 
BRANCH  16  17
ATOM     17  C   UNL     1      22.023   7.145  39.167  1.00  0.00    -0.000 C 
BRANCH  17  18
ATOM     18  C   UNL     1      22.317   5.703  38.721  1.00  0.00    -0.003 C 
ATOM     19  C   UNL     1      21.661   5.349  37.389  1.00  0.00     0.004 C 
ENDBRANCH  17  18
ENDBRANCH  16  17
ENDBRANCH  15  16
ENDBRANCH  14  15
ENDBRANCH  13  14
ENDBRANCH  12  13
ENDBRANCH   1  12
TORSDOF 14
ENDMDL
MODEL 8
REMARK VINA RESULT:    -3.117     10.783     12.770
REMARK INTER + INTRA:          -7.867
REMARK INTER:                  -5.338
REMARK INTRA:                  -2.529
REMARK UNBOUND:                -2.199
REMARK SMILES CCCCCCCCCCCCCC[C@H](C)C(=O)[O-]
REMARK SMILES IDX 9 1 10 2 11 3 12 4 13 5 14 6 15 7 16 8 17 9 18 10 19 11 8 12
REMARK SMILES IDX 7 13 6 14 5 15 4 16 3 17 2 18 1 19
REMARK H PARENT
REMARK Flexibility Score: inf
ROOT
ATOM      1  C   UNL     1       8.601   8.109  31.479  1.00  0.00     0.000 C 
ENDROOT
BRANCH   1   2
ATOM      2  C   UNL     1       7.922   6.820  30.987  1.00  0.00     0.000 C 
BRANCH   2   3
ATOM      3  C   UNL     1       8.420   6.384  29.597  1.00  0.00     0.000 C 
BRANCH   3   4
ATOM      4  C   UNL     1       9.084   4.998  29.621  1.00  0.00     0.000 C 
BRANCH   4   5
ATOM      5  C   UNL     1      10.621   5.075  29.621  1.00  0.00     0.001 C 
BRANCH   5   6
ATOM      6  C   UNL     1      11.304   3.721  29.340  1.00  0.00     0.009 C 
BRANCH   6   7
ATOM      7  C   UNL     1      12.823   3.636  29.634  1.00  0.00     0.032 C 
ATOM      8  C   UNL     1      13.163   3.957  31.098  1.00  0.00     0.014 C 
BRANCH   7   9
ATOM      9  C   UNL     1      13.644   4.449  28.664  1.00  0.00     0.044 C 
ATOM     10  O   UNL     1      13.366   4.424  27.436  1.00  0.00    -0.550 OA
ATOM     11  O   UNL     1      14.721   5.215  29.099  1.00  0.00    -0.550 OA
ENDBRANCH   7   9
ENDBRANCH   6   7
ENDBRANCH   5   6
ENDBRANCH   4   5
ENDBRANCH   3   4
ENDBRANCH   2   3
ENDBRANCH   1   2
BRANCH   1  12
ATOM     12  C   UNL     1      10.130   8.069  31.330  1.00  0.00     0.000 C 
BRANCH  12  13
ATOM     13  C   UNL     1      10.819   8.328  32.679  1.00  0.00    -0.000 C 
BRANCH  13  14
ATOM     14  C   UNL     1      10.506   7.249  33.732  1.00  0.00    -0.000 C 
BRANCH  14  15
ATOM     15  C   UNL     1      10.818   5.797  33.308  1.00  0.00    -0.000 C 
BRANCH  15  16
ATOM     16  C   UNL     1       9.655   4.801  33.482  1.00  0.00    -0.000 C 
BRANCH  16  17
ATOM     17  C   UNL     1       9.944   3.397  32.904  1.00  0.00    -0.000 C 
BRANCH  17  18
ATOM     18  C   UNL     1       8.678   2.643  32.465  1.00  0.00    -0.003 C 
ATOM     19  C   UNL     1       8.934   1.670  31.316  1.00  0.00     0.004 C 
ENDBRANCH  17  18
ENDBRANCH  16  17
ENDBRANCH  15  16
ENDBRANCH  14  15
ENDBRANCH  13  14
ENDBRANCH  12  13
ENDBRANCH   1  12
TORSDOF 14
ENDMDL
MODEL 9
REMARK VINA RESULT:    -3.080      1.398      4.734
REMARK INTER + INTRA:          -7.800
REMARK INTER:                  -5.489
REMARK INTRA:                  -2.311
REMARK UNBOUND:                -2.199
REMARK SMILES CCCCCCCCCCCCCC[C@H](C)C(=O)[O-]
REMARK SMILES IDX 9 1 10 2 11 3 12 4 13 5 14 6 15 7 16 8 17 9 18 10 19 11 8 12
REMARK SMILES IDX 7 13 6 14 5 15 4 16 3 17 2 18 1 19
REMARK H PARENT
REMARK Flexibility Score: inf
ROOT
ATOM      1  C   UNL     1      20.855   6.279  38.913  1.00  0.00     0.000 C 
ENDROOT
BRANCH   1   2
ATOM      2  C   UNL     1      22.168   6.730  38.251  1.00  0.00     0.000 C 
BRANCH   2   3
ATOM      3  C   UNL     1      22.246   8.257  38.075  1.00  0.00     0.000 C 
BRANCH   3   4
ATOM      4  C   UNL     1      21.166   8.997  38.880  1.00  0.00     0.000 C 
BRANCH   4   5
ATOM      5  C   UNL     1      20.074   9.610  37.986  1.00  0.00     0.001 C 
BRANCH   5   6
ATOM      6  C   UNL     1      20.408   9.552  36.481  1.00  0.00     0.009 C 
BRANCH   6   7
ATOM      7  C   UNL     1      19.594   8.543  35.630  1.00  0.00     0.032 C 
ATOM      8  C   UNL     1      18.446   7.892  36.416  1.00  0.00     0.014 C 
BRANCH   7   9
ATOM      9  C   UNL     1      20.474   7.523  34.951  1.00  0.00     0.044 C 
ATOM     10  O   UNL     1      20.220   6.296  35.078  1.00  0.00    -0.550 OA
ATOM     11  O   UNL     1      21.579   7.911  34.201  1.00  0.00    -0.550 OA
ENDBRANCH   7   9
ENDBRANCH   6   7
ENDBRANCH   5   6
ENDBRANCH   4   5
ENDBRANCH   3   4
ENDBRANCH   2   3
ENDBRANCH   1   2
BRANCH   1  12
ATOM     12  C   UNL     1      21.082   5.322  40.092  1.00  0.00     0.000 C 
BRANCH  12  13
ATOM     13  C   UNL     1      20.401   5.850  41.365  1.00  0.00    -0.000 C 
BRANCH  13  14
ATOM     14  C   UNL     1      19.363   6.951  41.080  1.00  0.00    -0.000 C 
BRANCH  14  15
ATOM     15  C   UNL     1      19.497   8.227  41.939  1.00  0.00    -0.000 C 
BRANCH  15  16
ATOM     16  C   UNL     1      18.570   9.390  41.531  1.00  0.00    -0.000 C 
BRANCH  16  17
ATOM     17  C   UNL     1      17.337   8.946  40.710  1.00  0.00    -0.000 C 
BRANCH  17  18
ATOM     18  C   UNL     1      16.607  10.112  40.023  1.00  0.00    -0.003 C 
ATOM     19  C   UNL     1      16.104   9.757  38.626  1.00  0.00     0.004 C 
ENDBRANCH  17  18
ENDBRANCH  16  17
ENDBRANCH  15  16
ENDBRANCH  14  15
ENDBRANCH  13  14
ENDBRANCH  12  13
ENDBRANCH   1  12
TORSDOF 14
ENDMDL
