MODEL 1
REMARK VINA RESULT:    -4.006      0.000      0.000
REMARK INTER + INTRA:          -5.660
REMARK INTER:                  -5.411
REMARK INTRA:                  -0.249
REMARK UNBOUND:                -0.249
REMARK SMILES CCCCCCCC(=O)[O-]
REMARK SMILES IDX 5 1 6 2 7 3 8 4 9 5 10 6 4 7 3 8 2 9 1 10
REMARK H PARENT
REMARK Flexibility Score: inf
ROOT
ATOM      1  C   UNL     1      -7.660  26.412  58.707  1.00  0.00     0.000 C 
ENDROOT
BRANCH   1   2
ATOM      2  C   UNL     1      -6.467  26.431  57.739  1.00  0.00     0.006 C 
BRANCH   2   3
ATOM      3  C   UNL     1      -6.730  25.625  56.461  1.00  0.00     0.053 C 
BRANCH   3   4
ATOM      4  C   UNL     1      -7.147  24.229  56.801  1.00  0.00     0.041 C 
ATOM      5  O   UNL     1      -8.235  23.767  56.365  1.00  0.00    -0.550 OA
ATOM      6  O   UNL     1      -6.311  23.419  57.560  1.00  0.00    -0.550 OA
ENDBRANCH   3   4
ENDBRANCH   2   3
ENDBRANCH   1   2
BRANCH   1   7
ATOM      7  C   UNL     1      -7.295  25.840  60.085  1.00  0.00     0.000 C 
BRANCH   7   8
ATOM      8  C   UNL     1      -8.508  25.866  61.027  1.00  0.00    -0.000 C 
BRANCH   8   9
ATOM      9  C   UNL     1      -8.112  25.723  62.505  1.00  0.00    -0.003 C 
ATOM     10  C   UNL     1      -6.814  26.457  62.842  1.00  0.00     0.004 C 
ENDBRANCH   8   9
ENDBRANCH   7   8
ENDBRANCH   1   7
TORSDOF 6
ENDMDL
MODEL 2
REMARK VINA RESULT:    -3.862      1.385      1.800
REMARK INTER + INTRA:          -5.466
REMARK INTER:                  -5.182
REMARK INTRA:                  -0.284
REMARK UNBOUND:                -0.249
REMARK SMILES CCCCCCCC(=O)[O-]
REMARK SMILES IDX 5 1 6 2 7 3 8 4 9 5 10 6 4 7 3 8 2 9 1 10
REMARK H PARENT
REMARK Flexibility Score: inf
ROOT
ATOM      1  C   UNL     1      -8.076  25.536  58.526  1.00  0.00     0.000 C 
ENDROOT
BRANCH   1   2
ATOM      2  C   UNL     1      -6.628  25.068  58.314  1.00  0.00     0.006 C 
BRANCH   2   3
ATOM      3  C   UNL     1      -6.482  24.128  57.111  1.00  0.00     0.053 C 
BRANCH   3   4
ATOM      4  C   UNL     1      -7.238  24.664  55.936  1.00  0.00     0.041 C 
ATOM      5  O   UNL     1      -6.852  25.714  55.358  1.00  0.00    -0.550 OA
ATOM      6  O   UNL     1      -8.342  23.976  55.446  1.00  0.00    -0.550 OA
ENDBRANCH   3   4
ENDBRANCH   2   3
ENDBRANCH   1   2
BRANCH   1   7
ATOM      7  C   UNL     1      -8.262  26.314  59.838  1.00  0.00     0.000 C 
BRANCH   7   8
ATOM      8  C   UNL     1      -7.126  26.004  60.824  1.00  0.00    -0.000 C 
BRANCH   8   9
ATOM      9  C   UNL     1      -7.639  25.697  62.240  1.00  0.00    -0.003 C 
ATOM     10  C   UNL     1      -9.166  25.668  62.321  1.00  0.00     0.004 C 
ENDBRANCH   8   9
ENDBRANCH   7   8
ENDBRANCH   1   7
TORSDOF 6
ENDMDL
MODEL 3
REMARK VINA RESULT:    -3.775      1.224      1.568
REMARK INTER + INTRA:          -5.348
REMARK INTER:                  -4.985
REMARK INTRA:                  -0.363
REMARK UNBOUND:                -0.249
REMARK SMILES CCCCCCCC(=O)[O-]
REMARK SMILES IDX 5 1 6 2 7 3 8 4 9 5 10 6 4 7 3 8 2 9 1 10
REMARK H PARENT
REMARK Flexibility Score: inf
ROOT
ATOM      1  C   UNL     1      -6.423  26.647  57.874  1.00  0.00     0.000 C 
ENDROOT
BRANCH   1   2
ATOM      2  C   UNL     1      -5.070  26.047  58.287  1.00  0.00     0.006 C 
BRANCH   2   3
ATOM      3  C   UNL     1      -4.615  24.919  57.353  1.00  0.00     0.053 C 
BRANCH   3   4
ATOM      4  C   UNL     1      -5.701  23.902  57.195  1.00  0.00     0.041 C 
ATOM      5  O   UNL     1      -6.177  23.654  56.056  1.00  0.00    -0.550 OA
ATOM      6  O   UNL     1      -6.154  23.190  58.299  1.00  0.00    -0.550 OA
ENDBRANCH   3   4
ENDBRANCH   2   3
ENDBRANCH   1   2
BRANCH   1   7
ATOM      7  C   UNL     1      -7.475  26.561  58.990  1.00  0.00     0.000 C 
BRANCH   7   8
ATOM      8  C   UNL     1      -6.842  26.086  60.306  1.00  0.00    -0.000 C 
BRANCH   8   9
ATOM      9  C   UNL     1      -7.882  25.853  61.412  1.00  0.00    -0.003 C 
ATOM     10  C   UNL     1      -7.294  26.000  62.816  1.00  0.00     0.004 C 
ENDBRANCH   8   9
ENDBRANCH   7   8
ENDBRANCH   1   7
TORSDOF 6
ENDMDL
MODEL 4
REMARK VINA RESULT:    -3.692      7.792      9.491
REMARK INTER + INTRA:          -5.236
REMARK INTER:                  -4.714
REMARK INTRA:                  -0.522
REMARK UNBOUND:                -0.249
REMARK SMILES CCCCCCCC(=O)[O-]
REMARK SMILES IDX 5 1 6 2 7 3 8 4 9 5 10 6 4 7 3 8 2 9 1 10
REMARK H PARENT
REMARK Flexibility Score: inf
ROOT
ATOM      1  C   UNL     1      -4.178  32.476  55.453  1.00  0.00     0.000 C 
ENDROOT
BRANCH   1   2
ATOM      2  C   UNL     1      -5.136  31.398  55.986  1.00  0.00     0.006 C 
BRANCH   2   3
ATOM      3  C   UNL     1      -6.088  30.869  54.906  1.00  0.00     0.053 C 
BRANCH   3   4
ATOM      4  C   UNL     1      -7.343  31.683  54.872  1.00  0.00     0.041 C 
ATOM      5  O   UNL     1      -8.142  31.658  55.845  1.00  0.00    -0.550 OA
ATOM      6  O   UNL     1      -7.606  32.509  53.787  1.00  0.00    -0.550 OA
ENDBRANCH   3   4
ENDBRANCH   2   3
ENDBRANCH   1   2
BRANCH   1   7
ATOM      7  C   UNL     1      -3.972  32.387  53.933  1.00  0.00     0.000 C 
BRANCH   7   8
ATOM      8  C   UNL     1      -4.111  33.770  53.280  1.00  0.00    -0.000 C 
BRANCH   8   9
ATOM      9  C   UNL     1      -4.549  34.854  54.278  1.00  0.00    -0.003 C 
ATOM     10  C   UNL     1      -5.858  35.534  53.875  1.00  0.00     0.004 C 
ENDBRANCH   8   9
ENDBRANCH   7   8
ENDBRANCH   1   7
TORSDOF 6
ENDMDL
MODEL 5
REMARK VINA RESULT:    -3.632      3.159      4.726
REMARK INTER + INTRA:          -5.155
REMARK INTER:                  -4.876
REMARK INTRA:                  -0.280
REMARK UNBOUND:                -0.249
REMARK SMILES CCCCCCCC(=O)[O-]
REMARK SMILES IDX 5 1 6 2 7 3 8 4 9 5 10 6 4 7 3 8 2 9 1 10
REMARK H PARENT
REMARK Flexibility Score: inf
ROOT
ATOM      1  C   UNL     1      -4.633  26.008  59.168  1.00  0.00     0.000 C 
ENDROOT
BRANCH   1   2
ATOM      2  C   UNL     1      -5.119  24.890  58.233  1.00  0.00     0.006 C 
BRANCH   2   3
ATOM      3  C   UNL     1      -6.627  24.637  58.349  1.00  0.00     0.053 C 
BRANCH   3   4
ATOM      4  C   UNL     1      -7.282  24.765  57.010  1.00  0.00     0.041 C 
ATOM      5  O   UNL     1      -7.165  25.828  56.345  1.00  0.00    -0.550 OA
ATOM      6  O   UNL     1      -7.983  23.691  56.473  1.00  0.00    -0.550 OA
ENDBRANCH   3   4
ENDBRANCH   2   3
ENDBRANCH   1   2
BRANCH   1   7
ATOM      7  C   UNL     1      -3.124  26.268  59.047  1.00  0.00     0.000 C 
BRANCH   7   8
ATOM      8  C   UNL     1      -2.588  25.768  57.697  1.00  0.00    -0.000 C 
BRANCH   8   9
ATOM      9  C   UNL     1      -1.512  26.694  57.109  1.00  0.00    -0.003 C 
ATOM     10  C   UNL     1      -1.460  28.056  57.803  1.00  0.00     0.004 C 
ENDBRANCH   8   9
ENDBRANCH   7   8
ENDBRANCH   1   7
TORSDOF 6
ENDMDL
MODEL 6
REMARK VINA RESULT:    -3.502      2.883      4.613
REMARK INTER + INTRA:          -4.979
REMARK INTER:                  -4.687
REMARK INTRA:                  -0.292
REMARK UNBOUND:                -0.249
REMARK SMILES CCCCCCCC(=O)[O-]
REMARK SMILES IDX 5 1 6 2 7 3 8 4 9 5 10 6 4 7 3 8 2 9 1 10
REMARK H PARENT
REMARK Flexibility Score: inf
ROOT
ATOM      1  C   UNL     1      -4.851  25.401  58.470  1.00  0.00     0.000 C 
ENDROOT
BRANCH   1   2
ATOM      2  C   UNL     1      -6.082  26.320  58.502  1.00  0.00     0.006 C 
BRANCH   2   3
ATOM      3  C   UNL     1      -7.389  25.567  58.225  1.00  0.00     0.053 C 
BRANCH   3   4
ATOM      4  C   UNL     1      -7.361  24.960  56.857  1.00  0.00     0.041 C 
ATOM      5  O   UNL     1      -7.606  23.735  56.702  1.00  0.00    -0.550 OA
ATOM      6  O   UNL     1      -7.113  25.758  55.747  1.00  0.00    -0.550 OA
ENDBRANCH   3   4
ENDBRANCH   2   3
ENDBRANCH   1   2
BRANCH   1   7
ATOM      7  C   UNL     1      -3.664  25.972  59.260  1.00  0.00     0.000 C 
BRANCH   7   8
ATOM      8  C   UNL     1      -2.617  26.579  58.314  1.00  0.00    -0.000 C 
BRANCH   8   9
ATOM      9  C   UNL     1      -2.640  25.937  56.918  1.00  0.00    -0.003 C 
ATOM     10  C   UNL     1      -1.309  25.284  56.545  1.00  0.00     0.004 C 
ENDBRANCH   8   9
ENDBRANCH   7   8
ENDBRANCH   1   7
TORSDOF 6
ENDMDL
MODEL 7
REMARK VINA RESULT:    -3.498      6.145      7.001
REMARK INTER + INTRA:          -4.974
REMARK INTER:                  -4.680
REMARK INTRA:                  -0.294
REMARK UNBOUND:                -0.249
REMARK SMILES CCCCCCCC(=O)[O-]
REMARK SMILES IDX 5 1 6 2 7 3 8 4 9 5 10 6 4 7 3 8 2 9 1 10
REMARK H PARENT
REMARK Flexibility Score: inf
ROOT
ATOM      1  C   UNL     1      -5.111  29.444  56.179  1.00  0.00     0.000 C 
ENDROOT
BRANCH   1   2
ATOM      2  C   UNL     1      -5.659  30.870  56.342  1.00  0.00     0.006 C 
BRANCH   2   3
ATOM      3  C   UNL     1      -5.818  31.598  55.002  1.00  0.00     0.053 C 
BRANCH   3   4
ATOM      4  C   UNL     1      -7.253  31.952  54.767  1.00  0.00     0.041 C 
ATOM      5  O   UNL     1      -7.592  32.571  53.724  1.00  0.00    -0.550 OA
ATOM      6  O   UNL     1      -8.225  31.554  55.677  1.00  0.00    -0.550 OA
ENDBRANCH   3   4
ENDBRANCH   2   3
ENDBRANCH   1   2
BRANCH   1   7
ATOM      7  C   UNL     1      -3.819  29.209  56.976  1.00  0.00     0.000 C 
BRANCH   7   8
ATOM      8  C   UNL     1      -3.456  30.449  57.807  1.00  0.00    -0.000 C 
BRANCH   8   9
ATOM      9  C   UNL     1      -2.677  30.097  59.084  1.00  0.00    -0.003 C 
ATOM     10  C   UNL     1      -2.600  28.591  59.333  1.00  0.00     0.004 C 
ENDBRANCH   8   9
ENDBRANCH   7   8
ENDBRANCH   1   7
TORSDOF 6
ENDMDL
MODEL 8
REMARK VINA RESULT:    -3.466      2.835      4.416
REMARK INTER + INTRA:          -4.930
REMARK INTER:                  -4.360
REMARK INTRA:                  -0.571
REMARK UNBOUND:                -0.249
REMARK SMILES CCCCCCCC(=O)[O-]
REMARK SMILES IDX 5 1 6 2 7 3 8 4 9 5 10 6 4 7 3 8 2 9 1 10
REMARK H PARENT
REMARK Flexibility Score: inf
ROOT
ATOM      1  C   UNL     1      -5.204  23.866  56.542  1.00  0.00     0.000 C 
ENDROOT
BRANCH   1   2
ATOM      2  C   UNL     1      -6.049  23.916  57.824  1.00  0.00     0.006 C 
BRANCH   2   3
ATOM      3  C   UNL     1      -7.335  24.734  57.652  1.00  0.00     0.053 C 
BRANCH   3   4
ATOM      4  C   UNL     1      -7.278  25.977  58.484  1.00  0.00     0.041 C 
ATOM      5  O   UNL     1      -7.014  27.086  57.950  1.00  0.00    -0.550 OA
ATOM      6  O   UNL     1      -7.566  25.919  59.842  1.00  0.00    -0.550 OA
ENDBRANCH   3   4
ENDBRANCH   2   3
ENDBRANCH   1   2
BRANCH   1   7
ATOM      7  C   UNL     1      -3.796  24.447  56.737  1.00  0.00     0.000 C 
BRANCH   7   8
ATOM      8  C   UNL     1      -3.839  25.981  56.792  1.00  0.00    -0.000 C 
BRANCH   8   9
ATOM      9  C   UNL     1      -3.039  26.553  57.973  1.00  0.00    -0.003 C 
ATOM     10  C   UNL     1      -3.618  26.149  59.330  1.00  0.00     0.004 C 
ENDBRANCH   8   9
ENDBRANCH   7   8
ENDBRANCH   1   7
TORSDOF 6
ENDMDL
MODEL 9
REMARK VINA RESULT:    -3.450      4.542      5.706
REMARK INTER + INTRA:          -4.909
REMARK INTER:                  -4.706
REMARK INTRA:                  -0.203
REMARK UNBOUND:                -0.249
REMARK SMILES CCCCCCCC(=O)[O-]
REMARK SMILES IDX 5 1 6 2 7 3 8 4 9 5 10 6 4 7 3 8 2 9 1 10
REMARK H PARENT
REMARK Flexibility Score: inf
ROOT
ATOM      1  C   UNL     1      -3.754  25.859  59.237  1.00  0.00     0.000 C 
ENDROOT
BRANCH   1   2
ATOM      2  C   UNL     1      -2.627  26.720  58.645  1.00  0.00     0.006 C 
BRANCH   2   3
ATOM      3  C   UNL     1      -2.924  28.222  58.730  1.00  0.00     0.053 C 
BRANCH   3   4
ATOM      4  C   UNL     1      -2.040  28.871  59.748  1.00  0.00     0.041 C 
ATOM      5  O   UNL     1      -0.789  28.845  59.612  1.00  0.00    -0.550 OA
ATOM      6  O   UNL     1      -2.601  29.550  60.824  1.00  0.00    -0.550 OA
ENDBRANCH   3   4
ENDBRANCH   2   3
ENDBRANCH   1   2
BRANCH   1   7
ATOM      7  C   UNL     1      -5.125  26.170  58.617  1.00  0.00     0.000 C 
BRANCH   7   8
ATOM      8  C   UNL     1      -5.829  24.881  58.170  1.00  0.00    -0.000 C 
BRANCH   8   9
ATOM      9  C   UNL     1      -7.361  24.989  58.241  1.00  0.00    -0.003 C 
ATOM     10  C   UNL     1      -7.831  26.157  59.107  1.00  0.00     0.004 C 
ENDBRANCH   8   9
ENDBRANCH   7   8
ENDBRANCH   1   7
TORSDOF 6
ENDMDL
