MODEL 1
REMARK VINA RESULT:    -3.098      0.000      0.000
REMARK INTER + INTRA:          -5.234
REMARK INTER:                  -4.728
REMARK INTRA:                  -0.506
REMARK UNBOUND:                -0.506
REMARK SMILES CC1=CCC[C@H](C)C(=O)C[C@H](C(C)C)C(=O)C1
REMARK SMILES IDX 8 1 9 2 6 3 7 4 5 5 4 6 3 7 2 8 1 9 10 11 11 12 15 13 16 14
REMARK SMILES IDX 17 15 12 17 13 18 14 19
REMARK H PARENT
REMARK Flexibility Score: 70.00
ROOT
ATOM      1  C   UNL     1      10.596   9.586  -5.270  1.00  0.00     0.136 C 
ATOM      2  O   UNL     1      10.712   8.495  -4.732  1.00  0.00    -0.299 OA
ENDROOT
BRANCH   1   3
ATOM      3  C   UNL     1      11.863  10.387  -5.526  1.00  0.00     0.053 C 
ATOM      4  C   UNL     1      12.580  10.846  -4.246  1.00  0.00     0.016 C 
BRANCH   3   5
ATOM      5  C   UNL     1      12.798   9.686  -6.538  1.00  0.00     0.015 C 
BRANCH   5   6
ATOM      6  C   UNL     1      12.076   9.120  -7.776  1.00  0.00     0.028 C 
BRANCH   6   7
ATOM      7  C   UNL     1      11.882  10.149  -8.865  1.00  0.00    -0.028 C 
ATOM      8  C   UNL     1      10.686  10.606  -9.310  1.00  0.00    -0.070 CG0
ATOM      9  C   UNL     1      10.693  11.574 -10.466  1.00  0.00     0.039 C 
ATOM     10  G   UNL     1       9.350  10.223  -8.684  1.00  0.00     0.000 G0
ENDBRANCH   6   7
ENDBRANCH   5   6
ENDBRANCH   3   5
ENDBRANCH   1   3
BRANCH   1  11
ATOM     11  C   UNL     1       9.204  10.044  -5.667  1.00  0.00     0.087 C 
BRANCH  11  12
ATOM     12  C   UNL     1       9.220  11.437  -6.359  1.00  0.00     0.066 C 
BRANCH  12  13
ATOM     13  C   UNL     1       8.745  11.285  -7.795  1.00  0.00     0.140 C 
ATOM     14  O   UNL     1       7.899  12.047  -8.244  1.00  0.00    -0.299 OA
BRANCH  13  15
ATOM     15  C   UNL     1       9.335  10.214  -8.681  1.00  0.00     0.106 CG0
ATOM     16  G   UNL     1      10.667  10.605  -9.309  1.00  0.00     0.000 G0
ENDBRANCH  13  15
ENDBRANCH  12  13
BRANCH  12  17
ATOM     17  C   UNL     1       8.380  12.515  -5.596  1.00  0.00    -0.006 C 
ATOM     18  C   UNL     1       9.258  13.291  -4.593  1.00  0.00     0.008 C 
ATOM     19  C   UNL     1       7.189  11.906  -4.833  1.00  0.00     0.008 C 
ENDBRANCH  12  17
ENDBRANCH  11  12
ENDBRANCH   1  11
TORSDOF 1
ENDMDL
MODEL 2
REMARK VINA RESULT:    -2.714      9.171     11.079
REMARK INTER + INTRA:          -4.648
REMARK INTER:                  -5.063
REMARK INTRA:                   0.416
REMARK UNBOUND:                -0.506
REMARK SMILES CC1=CCC[C@H](C)C(=O)C[C@H](C(C)C)C(=O)C1
REMARK SMILES IDX 8 1 9 2 6 3 7 4 5 5 4 6 3 7 2 8 1 9 10 11 11 12 15 13 16 14
REMARK SMILES IDX 17 15 12 17 13 18 14 19
REMARK H PARENT
REMARK Flexibility Score: 70.00
ROOT
ATOM      1  C   UNL     1      -0.810   7.223 -10.661  1.00  0.00     0.136 C 
ATOM      2  O   UNL     1      -1.031   6.349  -9.835  1.00  0.00    -0.299 OA
ENDROOT
BRANCH   1   3
ATOM      3  C   UNL     1      -1.934   8.196 -10.980  1.00  0.00     0.053 C 
ATOM      4  C   UNL     1      -3.297   7.787 -10.398  1.00  0.00     0.016 C 
BRANCH   3   5
ATOM      5  C   UNL     1      -1.544   9.657 -10.664  1.00  0.00     0.015 C 
BRANCH   5   6
ATOM      6  C   UNL     1      -1.096  10.471 -11.894  1.00  0.00     0.028 C 
BRANCH   6   7
ATOM      7  C   UNL     1       0.041  11.417 -11.591  1.00  0.00    -0.028 C 
ATOM      8  C   UNL     1       1.356  11.086 -11.576  1.00  0.00    -0.070 CG0
ATOM      9  C   UNL     1       2.341  12.152 -11.167  1.00  0.00     0.039 C 
ATOM     10  G   UNL     1       1.887   9.717 -11.985  1.00  0.00     0.000 G0
ENDBRANCH   6   7
ENDBRANCH   5   6
ENDBRANCH   3   5
ENDBRANCH   1   3
BRANCH   1  11
ATOM     11  C   UNL     1       0.574   7.288 -11.281  1.00  0.00     0.087 C 
BRANCH  11  12
ATOM     12  C   UNL     1       1.653   7.747 -10.260  1.00  0.00     0.066 C 
BRANCH  12  13
ATOM     13  C   UNL     1       2.466   8.879 -10.869  1.00  0.00     0.140 C 
ATOM     14  O   UNL     1       3.595   9.112 -10.457  1.00  0.00    -0.299 OA
BRANCH  13  15
ATOM     15  C   UNL     1       1.897   9.699 -12.001  1.00  0.00     0.106 CG0
ATOM     16  G   UNL     1       1.366  11.059 -11.565  1.00  0.00     0.000 G0
ENDBRANCH  13  15
ENDBRANCH  12  13
BRANCH  12  17
ATOM     17  C   UNL     1       1.056   8.162  -8.874  1.00  0.00    -0.006 C 
ATOM     18  C   UNL     1       1.491   9.591  -8.490  1.00  0.00     0.008 C 
ATOM     19  C   UNL     1       1.470   7.205  -7.741  1.00  0.00     0.008 C 
ENDBRANCH  12  17
ENDBRANCH  11  12
ENDBRANCH   1  11
TORSDOF 1
ENDMDL
MODEL 3
REMARK VINA RESULT:    -2.710      1.775      3.890
REMARK INTER + INTRA:          -4.642
REMARK INTER:                  -4.589
REMARK INTRA:                  -0.053
REMARK UNBOUND:                -0.506
REMARK SMILES CC1=CCC[C@H](C)C(=O)C[C@H](C(C)C)C(=O)C1
REMARK SMILES IDX 8 1 9 2 6 3 7 4 5 5 4 6 3 7 2 8 1 9 10 11 11 12 15 13 16 14
REMARK SMILES IDX 17 15 12 17 13 18 14 19
REMARK H PARENT
REMARK Flexibility Score: 70.00
ROOT
ATOM      1  C   UNL     1       8.570  11.156  -5.373  1.00  0.00     0.136 C 
ATOM      2  O   UNL     1       7.963  10.138  -5.077  1.00  0.00    -0.299 OA
ENDROOT
BRANCH   1   3
ATOM      3  C   UNL     1       7.836  12.482  -5.245  1.00  0.00     0.053 C 
ATOM      4  C   UNL     1       8.672  13.598  -4.599  1.00  0.00     0.016 C 
BRANCH   3   5
ATOM      5  C   UNL     1       7.167  12.904  -6.573  1.00  0.00     0.015 C 
BRANCH   5   6
ATOM      6  C   UNL     1       8.162  13.293  -7.685  1.00  0.00     0.028 C 
BRANCH   6   7
ATOM      7  C   UNL     1       8.059  12.405  -8.902  1.00  0.00    -0.028 C 
ATOM      8  C   UNL     1       9.021  11.554  -9.337  1.00  0.00    -0.070 CG0
ATOM      9  C   UNL     1       8.767  10.811 -10.624  1.00  0.00     0.039 C 
ATOM     10  G   UNL     1      10.316  11.285  -8.580  1.00  0.00     0.000 G0
ENDBRANCH   6   7
ENDBRANCH   5   6
ENDBRANCH   3   5
ENDBRANCH   1   3
BRANCH   1  11
ATOM     11  C   UNL     1      10.016  11.023  -5.818  1.00  0.00     0.087 C 
BRANCH  11  12
ATOM     12  C   UNL     1      10.295   9.657  -6.505  1.00  0.00     0.066 C 
BRANCH  12  13
ATOM     13  C   UNL     1      10.435   9.872  -8.004  1.00  0.00     0.140 C 
ATOM     14  O   UNL     1      10.615   8.915  -8.745  1.00  0.00    -0.299 OA
BRANCH  13  15
ATOM     15  C   UNL     1      10.326  11.261  -8.585  1.00  0.00     0.106 CG0
ATOM     16  G   UNL     1       9.015  11.515  -9.320  1.00  0.00     0.000 G0
ENDBRANCH  13  15
ENDBRANCH  12  13
BRANCH  12  17
ATOM     17  C   UNL     1      11.543   8.914  -5.920  1.00  0.00    -0.006 C 
ATOM     18  C   UNL     1      11.182   8.165  -4.622  1.00  0.00     0.008 C 
ATOM     19  C   UNL     1      12.714   9.870  -5.624  1.00  0.00     0.008 C 
ENDBRANCH  12  17
ENDBRANCH  11  12
ENDBRANCH   1  11
TORSDOF 1
ENDMDL
MODEL 4
REMARK VINA RESULT:    -2.638      1.879      4.847
REMARK INTER + INTRA:          -4.532
REMARK INTER:                  -4.119
REMARK INTRA:                  -0.412
REMARK UNBOUND:                -0.506
REMARK SMILES CC1=CCC[C@H](C)C(=O)C[C@H](C(C)C)C(=O)C1
REMARK SMILES IDX 8 1 9 2 6 3 7 4 5 5 4 6 3 7 2 8 1 9 10 11 11 12 15 13 16 14
REMARK SMILES IDX 17 15 12 17 13 18 14 19
REMARK H PARENT
REMARK Flexibility Score: 70.00
ROOT
ATOM      1  C   UNL     1       9.242  10.492  -9.445  1.00  0.00     0.136 C 
ATOM      2  O   UNL     1       8.157  10.430 -10.005  1.00  0.00    -0.299 OA
ENDROOT
BRANCH   1   3
ATOM      3  C   UNL     1      10.157  11.654  -9.798  1.00  0.00     0.053 C 
ATOM      4  C   UNL     1      10.807  11.537 -11.186  1.00  0.00     0.016 C 
BRANCH   3   5
ATOM      5  C   UNL     1       9.478  13.021  -9.550  1.00  0.00     0.015 C 
BRANCH   5   6
ATOM      6  C   UNL     1       9.728  13.603  -8.145  1.00  0.00     0.028 C 
BRANCH   6   7
ATOM      7  C   UNL     1       8.521  13.503  -7.244  1.00  0.00    -0.028 C 
ATOM      8  C   UNL     1       8.416  12.699  -6.157  1.00  0.00    -0.070 CG0
ATOM      9  C   UNL     1       7.096  12.674  -5.429  1.00  0.00     0.039 C 
ATOM     10  G   UNL     1       9.566  11.855  -5.617  1.00  0.00     0.000 G0
ENDBRANCH   6   7
ENDBRANCH   5   6
ENDBRANCH   3   5
ENDBRANCH   1   3
BRANCH   1  11
ATOM     11  C   UNL     1       9.582   9.422  -8.422  1.00  0.00     0.087 C 
BRANCH  11  12
ATOM     12  C   UNL     1      10.444   9.980  -7.255  1.00  0.00     0.066 C 
BRANCH  12  13
ATOM     13  C   UNL     1       9.527  10.419  -6.124  1.00  0.00     0.140 C 
ATOM     14  O   UNL     1       8.768   9.613  -5.603  1.00  0.00    -0.299 OA
BRANCH  13  15
ATOM     15  C   UNL     1       9.570  11.842  -5.620  1.00  0.00     0.106 CG0
ATOM     16  G   UNL     1       8.428  12.708  -6.137  1.00  0.00     0.000 G0
ENDBRANCH  13  15
ENDBRANCH  12  13
BRANCH  12  17
ATOM     17  C   UNL     1      11.525   8.967  -6.746  1.00  0.00    -0.006 C 
ATOM     18  C   UNL     1      12.707   9.706  -6.087  1.00  0.00     0.008 C 
ATOM     19  C   UNL     1      12.076   8.075  -7.874  1.00  0.00     0.008 C 
ENDBRANCH  12  17
ENDBRANCH  11  12
ENDBRANCH   1  11
TORSDOF 1
ENDMDL
MODEL 5
REMARK VINA RESULT:    -2.593      1.657      4.079
REMARK INTER + INTRA:          -4.463
REMARK INTER:                  -4.646
REMARK INTRA:                   0.182
REMARK UNBOUND:                -0.506
REMARK SMILES CC1=CCC[C@H](C)C(=O)C[C@H](C(C)C)C(=O)C1
REMARK SMILES IDX 8 1 9 2 6 3 7 4 5 5 4 6 3 7 2 8 1 9 10 11 11 12 15 13 16 14
REMARK SMILES IDX 17 15 12 17 13 18 14 19
REMARK H PARENT
REMARK Flexibility Score: 70.00
ROOT
ATOM      1  C   UNL     1      11.579   9.220  -5.879  1.00  0.00     0.136 C 
ATOM      2  O   UNL     1      11.167   8.100  -5.611  1.00  0.00    -0.299 OA
ENDROOT
BRANCH   1   3
ATOM      3  C   UNL     1      11.207  10.355  -4.938  1.00  0.00     0.053 C 
ATOM      4  C   UNL     1      12.397  10.931  -4.154  1.00  0.00     0.016 C 
BRANCH   3   5
ATOM      5  C   UNL     1      10.353  11.434  -5.641  1.00  0.00     0.015 C 
BRANCH   5   6
ATOM      6  C   UNL     1       9.040  10.903  -6.248  1.00  0.00     0.028 C 
BRANCH   6   7
ATOM      7  C   UNL     1       8.580  11.702  -7.444  1.00  0.00    -0.028 C 
ATOM      8  C   UNL     1       8.831  11.390  -8.740  1.00  0.00    -0.070 CG0
ATOM      9  C   UNL     1       8.359  12.358  -9.796  1.00  0.00     0.039 C 
ATOM     10  G   UNL     1       9.525  10.107  -9.181  1.00  0.00     0.000 G0
ENDBRANCH   6   7
ENDBRANCH   5   6
ENDBRANCH   3   5
ENDBRANCH   1   3
BRANCH   1  11
ATOM     11  C   UNL     1      12.451   9.386  -7.110  1.00  0.00     0.087 C 
BRANCH  11  12
ATOM     12  C   UNL     1      11.734   8.909  -8.405  1.00  0.00     0.066 C 
BRANCH  12  13
ATOM     13  C   UNL     1      11.023  10.091  -9.045  1.00  0.00     0.140 C 
ATOM     14  O   UNL     1      11.671  11.037  -9.470  1.00  0.00    -0.299 OA
BRANCH  13  15
ATOM     15  C   UNL     1       9.520  10.088  -9.183  1.00  0.00     0.106 CG0
ATOM     16  G   UNL     1       8.863  11.391  -8.741  1.00  0.00     0.000 G0
ENDBRANCH  13  15
ENDBRANCH  12  13
BRANCH  12  17
ATOM     17  C   UNL     1      12.697   8.209  -9.422  1.00  0.00    -0.006 C 
ATOM     18  C   UNL     1      12.142   8.298 -10.858  1.00  0.00     0.008 C 
ATOM     19  C   UNL     1      12.940   6.726  -9.083  1.00  0.00     0.008 C 
ENDBRANCH  12  17
ENDBRANCH  11  12
ENDBRANCH   1  11
TORSDOF 1
ENDMDL
MODEL 6
REMARK VINA RESULT:    -2.453      1.912      5.200
REMARK INTER + INTRA:          -4.250
REMARK INTER:                  -4.031
REMARK INTRA:                  -0.219
REMARK UNBOUND:                -0.506
REMARK SMILES CC1=CCC[C@H](C)C(=O)C[C@H](C(C)C)C(=O)C1
REMARK SMILES IDX 8 1 9 2 6 3 7 4 5 5 4 6 3 7 2 8 1 9 10 11 11 12 15 13 16 14
REMARK SMILES IDX 17 15 12 17 13 18 14 19
REMARK H PARENT
REMARK Flexibility Score: 70.00
ROOT
ATOM      1  C   UNL     1       9.088  10.860  -8.795  1.00  0.00     0.136 C 
ATOM      2  O   UNL     1       8.218  10.754  -9.647  1.00  0.00    -0.299 OA
ENDROOT
BRANCH   1   3
ATOM      3  C   UNL     1       9.342  12.240  -8.210  1.00  0.00     0.053 C 
ATOM      4  C   UNL     1       9.573  13.333  -9.267  1.00  0.00     0.016 C 
BRANCH   3   5
ATOM      5  C   UNL     1       8.285  12.623  -7.149  1.00  0.00     0.015 C 
BRANCH   5   6
ATOM      6  C   UNL     1       8.385  11.817  -5.840  1.00  0.00     0.028 C 
BRANCH   6   7
ATOM      7  C   UNL     1       9.677  12.062  -5.097  1.00  0.00    -0.028 C 
ATOM      8  C   UNL     1      10.696  11.174  -4.979  1.00  0.00    -0.070 CG0
ATOM      9  C   UNL     1      11.873  11.570  -4.124  1.00  0.00     0.039 C 
ATOM     10  G   UNL     1      10.728   9.827  -5.691  1.00  0.00     0.000 G0
ENDBRANCH   6   7
ENDBRANCH   5   6
ENDBRANCH   3   5
ENDBRANCH   1   3
BRANCH   1  11
ATOM     11  C   UNL     1       9.827   9.604  -8.367  1.00  0.00     0.087 C 
BRANCH  11  12
ATOM     12  C   UNL     1      11.360   9.838  -8.250  1.00  0.00     0.066 C 
BRANCH  12  13
ATOM     13  C   UNL     1      11.770   9.725  -6.790  1.00  0.00     0.140 C 
ATOM     14  O   UNL     1      12.950   9.584  -6.495  1.00  0.00    -0.299 OA
BRANCH  13  15
ATOM     15  C   UNL     1      10.731   9.817  -5.699  1.00  0.00     0.106 CG0
ATOM     16  G   UNL     1      10.707  11.164  -4.987  1.00  0.00     0.000 G0
ENDBRANCH  13  15
ENDBRANCH  12  13
BRANCH  12  17
ATOM     17  C   UNL     1      12.203   8.874  -9.150  1.00  0.00    -0.006 C 
ATOM     18  C   UNL     1      11.972   9.172 -10.645  1.00  0.00     0.008 C 
ATOM     19  C   UNL     1      11.879   7.390  -8.892  1.00  0.00     0.008 C 
ENDBRANCH  12  17
ENDBRANCH  11  12
ENDBRANCH   1  11
TORSDOF 1
ENDMDL
MODEL 7
REMARK VINA RESULT:    -2.345      2.151      4.048
REMARK INTER + INTRA:          -4.085
REMARK INTER:                  -3.822
REMARK INTRA:                  -0.263
REMARK UNBOUND:                -0.506
REMARK SMILES CC1=CCC[C@H](C)C(=O)C[C@H](C(C)C)C(=O)C1
REMARK SMILES IDX 8 1 9 2 6 3 7 4 5 5 4 6 3 7 2 8 1 9 10 11 11 12 15 13 16 14
REMARK SMILES IDX 17 15 12 17 13 18 14 19
REMARK H PARENT
REMARK Flexibility Score: 70.00
ROOT
ATOM      1  C   UNL     1       9.474   9.900  -8.309  1.00  0.00     0.136 C 
ATOM      2  O   UNL     1       8.577   9.339  -8.921  1.00  0.00    -0.299 OA
ENDROOT
BRANCH   1   3
ATOM      3  C   UNL     1      10.589  10.543  -9.119  1.00  0.00     0.053 C 
ATOM      4  C   UNL     1      11.438   9.540  -9.917  1.00  0.00     0.016 C 
BRANCH   3   5
ATOM      5  C   UNL     1      10.078  11.730  -9.967  1.00  0.00     0.015 C 
BRANCH   5   6
ATOM      6  C   UNL     1       9.717  12.983  -9.146  1.00  0.00     0.028 C 
BRANCH   6   7
ATOM      7  C   UNL     1       8.227  13.172  -8.988  1.00  0.00    -0.028 C 
ATOM      8  C   UNL     1       7.574  13.320  -7.808  1.00  0.00    -0.070 CG0
ATOM      9  C   UNL     1       6.070  13.413  -7.848  1.00  0.00     0.039 C 
ATOM     10  G   UNL     1       8.280  13.434  -6.462  1.00  0.00     0.000 G0
ENDBRANCH   6   7
ENDBRANCH   5   6
ENDBRANCH   3   5
ENDBRANCH   1   3
BRANCH   1  11
ATOM     11  C   UNL     1       9.392   9.937  -6.793  1.00  0.00     0.087 C 
BRANCH  11  12
ATOM     12  C   UNL     1       9.828  11.313  -6.216  1.00  0.00     0.066 C 
BRANCH  12  13
ATOM     13  C   UNL     1       8.590  12.097  -5.809  1.00  0.00     0.140 C 
ATOM     14  O   UNL     1       7.846  11.659  -4.943  1.00  0.00    -0.299 OA
BRANCH  13  15
ATOM     15  C   UNL     1       8.291  13.431  -6.451  1.00  0.00     0.106 CG0
ATOM     16  G   UNL     1       7.589  13.317  -7.799  1.00  0.00     0.000 G0
ENDBRANCH  13  15
ENDBRANCH  12  13
BRANCH  12  17
ATOM     17  C   UNL     1      10.838  11.193  -5.026  1.00  0.00    -0.006 C 
ATOM     18  C   UNL     1      11.932  12.275  -5.118  1.00  0.00     0.008 C 
ATOM     19  C   UNL     1      11.520   9.813  -4.967  1.00  0.00     0.008 C 
ENDBRANCH  12  17
ENDBRANCH  11  12
ENDBRANCH   1  11
TORSDOF 1
ENDMDL
MODEL 8
REMARK VINA RESULT:    -2.328      1.532      2.310
REMARK INTER + INTRA:          -4.058
REMARK INTER:                  -4.638
REMARK INTRA:                   0.579
REMARK UNBOUND:                -0.506
REMARK SMILES CC1=CCC[C@H](C)C(=O)C[C@H](C(C)C)C(=O)C1
REMARK SMILES IDX 8 1 9 2 6 3 7 4 5 5 4 6 3 7 2 8 1 9 10 11 11 12 15 13 16 14
REMARK SMILES IDX 17 15 12 17 13 18 14 19
REMARK H PARENT
REMARK Flexibility Score: 70.00
ROOT
ATOM      1  C   UNL     1       9.698  10.297  -5.555  1.00  0.00     0.136 C 
ATOM      2  O   UNL     1       8.697   9.628  -5.341  1.00  0.00    -0.299 OA
ENDROOT
BRANCH   1   3
ATOM      3  C   UNL     1      11.047   9.678  -5.222  1.00  0.00     0.053 C 
ATOM      4  C   UNL     1      10.955   8.254  -4.650  1.00  0.00     0.016 C 
BRANCH   3   5
ATOM      5  C   UNL     1      12.048   9.808  -6.392  1.00  0.00     0.015 C 
BRANCH   5   6
ATOM      6  C   UNL     1      12.097   8.578  -7.320  1.00  0.00     0.028 C 
BRANCH   6   7
ATOM      7  C   UNL     1      12.060   8.945  -8.784  1.00  0.00    -0.028 C 
ATOM      8  C   UNL     1      10.950   9.304  -9.476  1.00  0.00    -0.070 CG0
ATOM      9  C   UNL     1      11.099   9.553 -10.956  1.00  0.00     0.039 C 
ATOM     10  G   UNL     1       9.582   9.502  -8.834  1.00  0.00     0.000 G0
ENDBRANCH   6   7
ENDBRANCH   5   6
ENDBRANCH   3   5
ENDBRANCH   1   3
BRANCH   1  11
ATOM     11  C   UNL     1       9.521  11.677  -6.162  1.00  0.00     0.087 C 
BRANCH  11  12
ATOM     12  C   UNL     1      10.089  11.759  -7.607  1.00  0.00     0.066 C 
BRANCH  12  13
ATOM     13  C   UNL     1       9.214  10.930  -8.535  1.00  0.00     0.140 C 
ATOM     14  O   UNL     1       8.228  11.432  -9.056  1.00  0.00    -0.299 OA
BRANCH  13  15
ATOM     15  C   UNL     1       9.575   9.496  -8.837  1.00  0.00     0.106 CG0
ATOM     16  G   UNL     1      10.950   9.332  -9.473  1.00  0.00     0.000 G0
ENDBRANCH  13  15
ENDBRANCH  12  13
BRANCH  12  17
ATOM     17  C   UNL     1      10.236  13.227  -8.131  1.00  0.00    -0.006 C 
ATOM     18  C   UNL     1      10.736  13.246  -9.589  1.00  0.00     0.008 C 
ATOM     19  C   UNL     1      11.201  14.067  -7.273  1.00  0.00     0.008 C 
ENDBRANCH  12  17
ENDBRANCH  11  12
ENDBRANCH   1  11
TORSDOF 1
ENDMDL
MODEL 9
REMARK VINA RESULT:    -2.291     16.093     18.923
REMARK INTER + INTRA:          -4.002
REMARK INTER:                  -3.914
REMARK INTRA:                  -0.088
REMARK UNBOUND:                -0.506
REMARK SMILES CC1=CCC[C@H](C)C(=O)C[C@H](C(C)C)C(=O)C1
REMARK SMILES IDX 8 1 9 2 6 3 7 4 5 5 4 6 3 7 2 8 1 9 10 11 11 12 15 13 16 14
REMARK SMILES IDX 17 15 12 17 13 18 14 19
REMARK H PARENT
REMARK Flexibility Score: 70.00
ROOT
ATOM      1  C   UNL     1      -1.999   9.955   5.845  1.00  0.00     0.136 C 
ATOM      2  O   UNL     1      -1.418   9.707   4.798  1.00  0.00    -0.299 OA
ENDROOT
BRANCH   1   3
ATOM      3  C   UNL     1      -2.700   8.807   6.555  1.00  0.00     0.053 C 
ATOM      4  C   UNL     1      -2.558   8.841   8.085  1.00  0.00     0.016 C 
BRANCH   3   5
ATOM      5  C   UNL     1      -4.159   8.635   6.075  1.00  0.00     0.015 C 
BRANCH   5   6
ATOM      6  C   UNL     1      -5.158   9.605   6.735  1.00  0.00     0.028 C 
BRANCH   6   7
ATOM      7  C   UNL     1      -5.859  10.495   5.737  1.00  0.00    -0.028 C 
ATOM      8  C   UNL     1      -5.616  11.817   5.557  1.00  0.00    -0.070 CG0
ATOM      9  C   UNL     1      -6.479  12.559   4.568  1.00  0.00     0.039 C 
ATOM     10  G   UNL     1      -4.501  12.575   6.269  1.00  0.00     0.000 G0
ENDBRANCH   6   7
ENDBRANCH   5   6
ENDBRANCH   3   5
ENDBRANCH   1   3
BRANCH   1  11
ATOM     11  C   UNL     1      -1.952  11.379   6.369  1.00  0.00     0.087 C 
BRANCH  11  12
ATOM     12  C   UNL     1      -2.082  12.428   5.229  1.00  0.00     0.066 C 
BRANCH  12  13
ATOM     13  C   UNL     1      -3.431  13.122   5.342  1.00  0.00     0.140 C 
ATOM     14  O   UNL     1      -3.667  14.114   4.666  1.00  0.00    -0.299 OA
BRANCH  13  15
ATOM     15  C   UNL     1      -4.491  12.574   6.265  1.00  0.00     0.106 CG0
ATOM     16  G   UNL     1      -5.614  11.840   5.541  1.00  0.00     0.000 G0
ENDBRANCH  13  15
ENDBRANCH  12  13
BRANCH  12  17
ATOM     17  C   UNL     1      -0.911  13.467   5.208  1.00  0.00    -0.006 C 
ATOM     18  C   UNL     1       0.148  13.085   4.154  1.00  0.00     0.008 C 
ATOM     19  C   UNL     1      -0.214  13.599   6.575  1.00  0.00     0.008 C 
ENDBRANCH  12  17
ENDBRANCH  11  12
ENDBRANCH   1  11
TORSDOF 1
ENDMDL
