MODEL 1
REMARK VINA RESULT:    -3.063      0.000      0.000
REMARK INTER + INTRA:          -4.357
REMARK INTER:                  -4.674
REMARK INTRA:                   0.317
REMARK UNBOUND:                 0.317
REMARK SMILES CC1=CCC[C@@H](C)C(=O)C[C@@H](C(C)C)C(=O)C1
REMARK SMILES IDX 8 1 9 2 6 3 7 4 5 5 4 6 3 7 2 8 1 9 10 11 11 12 15 13 16 14
REMARK SMILES IDX 17 15 12 17 13 18 14 19
REMARK H PARENT
REMARK Flexibility Score: 70.00
ROOT
ATOM      1  C   UNL     1      17.612  -7.288  15.108  1.00  0.00     0.136 C 
ATOM      2  O   UNL     1      17.957  -7.161  16.274  1.00  0.00    -0.299 OA
ENDROOT
BRANCH   1   3
ATOM      3  C   UNL     1      17.755  -8.642  14.439  1.00  0.00     0.053 C 
ATOM      4  C   UNL     1      18.698  -9.547  15.240  1.00  0.00     0.016 C 
BRANCH   3   5
ATOM      5  C   UNL     1      18.255  -8.447  12.981  1.00  0.00     0.015 C 
BRANCH   5   6
ATOM      6  C   UNL     1      17.163  -8.554  11.899  1.00  0.00     0.028 C 
BRANCH   6   7
ATOM      7  C   UNL     1      15.859  -9.196  12.328  1.00  0.00    -0.028 C 
ATOM      8  C   UNL     1      14.626  -8.639  12.265  1.00  0.00    -0.070 CG0
ATOM      9  C   UNL     1      13.445  -9.484  12.670  1.00  0.00     0.039 C 
ATOM     10  G   UNL     1      14.377  -7.196  11.870  1.00  0.00     0.000 G0
ENDBRANCH   6   7
ENDBRANCH   5   6
ENDBRANCH   3   5
ENDBRANCH   1   3
BRANCH   1  11
ATOM     11  C   UNL     1      17.059  -6.083  14.376  1.00  0.00     0.087 C 
BRANCH  11  12
ATOM     12  C   UNL     1      15.534  -6.168  14.082  1.00  0.00     0.066 C 
BRANCH  12  13
ATOM     13  C   UNL     1      15.232  -6.163  12.583  1.00  0.00     0.140 C 
ATOM     14  O   UNL     1      15.709  -5.276  11.889  1.00  0.00    -0.299 OA
BRANCH  13  15
ATOM     15  C   UNL     1      14.343  -7.191  11.900  1.00  0.00     0.106 CG0
ATOM     16  G   UNL     1      14.650  -8.629  12.269  1.00  0.00     0.000 G0
ENDBRANCH  13  15
ENDBRANCH  12  13
BRANCH  12  17
ATOM     17  C   UNL     1      14.687  -5.085  14.821  1.00  0.00    -0.006 C 
ATOM     18  C   UNL     1      13.200  -5.168  14.441  1.00  0.00     0.008 C 
ATOM     19  C   UNL     1      14.836  -5.093  16.352  1.00  0.00     0.008 C 
ENDBRANCH  12  17
ENDBRANCH  11  12
ENDBRANCH   1  11
TORSDOF 1
ENDMDL
MODEL 2
REMARK VINA RESULT:    -1.328      2.117      4.142
REMARK INTER + INTRA:          -1.709
REMARK INTER:                  -2.945
REMARK INTRA:                   1.236
REMARK UNBOUND:                 0.317
REMARK SMILES CC1=CCC[C@@H](C)C(=O)C[C@@H](C(C)C)C(=O)C1
REMARK SMILES IDX 8 1 9 2 6 3 7 4 5 5 4 6 3 7 2 8 1 9 10 11 11 12 15 13 16 14
REMARK SMILES IDX 17 15 12 17 13 18 14 19
REMARK H PARENT
REMARK Flexibility Score: 70.00
ROOT
ATOM      1  C   UNL     1      13.891  -4.746  14.704  1.00  0.00     0.136 C 
ATOM      2  O   UNL     1      12.968  -4.114  15.198  1.00  0.00    -0.299 OA
ENDROOT
BRANCH   1   3
ATOM      3  C   UNL     1      14.271  -4.489  13.258  1.00  0.00     0.053 C 
ATOM      4  C   UNL     1      13.082  -3.921  12.476  1.00  0.00     0.016 C 
BRANCH   3   5
ATOM      5  C   UNL     1      14.796  -5.805  12.620  1.00  0.00     0.015 C 
BRANCH   5   6
ATOM      6  C   UNL     1      16.178  -5.696  11.947  1.00  0.00     0.028 C 
BRANCH   6   7
ATOM      7  C   UNL     1      17.009  -6.964  11.920  1.00  0.00    -0.028 C 
ATOM      8  C   UNL     1      17.209  -7.820  12.952  1.00  0.00    -0.070 CG0
ATOM      9  C   UNL     1      18.008  -9.071  12.689  1.00  0.00     0.039 C 
ATOM     10  G   UNL     1      16.729  -7.556  14.366  1.00  0.00     0.000 G0
ENDBRANCH   6   7
ENDBRANCH   5   6
ENDBRANCH   3   5
ENDBRANCH   1   3
BRANCH   1  11
ATOM     11  C   UNL     1      14.615  -5.765  15.558  1.00  0.00     0.087 C 
BRANCH  11  12
ATOM     12  C   UNL     1      16.106  -5.415  15.831  1.00  0.00     0.066 C 
BRANCH  12  13
ATOM     13  C   UNL     1      17.061  -6.214  14.944  1.00  0.00     0.140 C 
ATOM     14  O   UNL     1      18.145  -5.725  14.656  1.00  0.00    -0.299 OA
BRANCH  13  15
ATOM     15  C   UNL     1      16.732  -7.584  14.372  1.00  0.00     0.106 CG0
ATOM     16  G   UNL     1      17.246  -7.815  12.964  1.00  0.00     0.000 G0
ENDBRANCH  13  15
ENDBRANCH  12  13
BRANCH  12  17
ATOM     17  C   UNL     1      16.517  -5.532  17.333  1.00  0.00    -0.006 C 
ATOM     18  C   UNL     1      15.662  -4.623  18.230  1.00  0.00     0.008 C 
ATOM     19  C   UNL     1      16.512  -6.968  17.885  1.00  0.00     0.008 C 
ENDBRANCH  12  17
ENDBRANCH  11  12
ENDBRANCH   1  11
TORSDOF 1
ENDMDL
MODEL 3
REMARK VINA RESULT:    -0.984      2.027      3.625
REMARK INTER + INTRA:          -1.185
REMARK INTER:                  -4.326
REMARK INTRA:                   3.140
REMARK UNBOUND:                 0.317
REMARK SMILES CC1=CCC[C@@H](C)C(=O)C[C@@H](C(C)C)C(=O)C1
REMARK SMILES IDX 8 1 9 2 6 3 7 4 5 5 4 6 3 7 2 8 1 9 10 11 11 12 15 13 16 14
REMARK SMILES IDX 17 15 12 17 13 18 14 19
REMARK H PARENT
REMARK Flexibility Score: 70.00
ROOT
ATOM      1  C   UNL     1      14.572  -7.074  12.218  1.00  0.00     0.136 C 
ATOM      2  O   UNL     1      13.560  -7.466  12.782  1.00  0.00    -0.299 OA
ENDROOT
BRANCH   1   3
ATOM      3  C   UNL     1      15.662  -8.072  11.877  1.00  0.00     0.053 C 
ATOM      4  C   UNL     1      15.393  -9.422  12.553  1.00  0.00     0.016 C 
BRANCH   3   5
ATOM      5  C   UNL     1      17.042  -7.492  12.293  1.00  0.00     0.015 C 
BRANCH   5   6
ATOM      6  C   UNL     1      17.880  -8.402  13.213  1.00  0.00     0.028 C 
BRANCH   6   7
ATOM      7  C   UNL     1      17.809  -8.098  14.696  1.00  0.00    -0.028 C 
ATOM      8  C   UNL     1      17.376  -6.946  15.264  1.00  0.00    -0.070 CG0
ATOM      9  C   UNL     1      17.311  -6.880  16.769  1.00  0.00     0.039 C 
ATOM     10  G   UNL     1      17.017  -5.704  14.472  1.00  0.00     0.000 G0
ENDBRANCH   6   7
ENDBRANCH   5   6
ENDBRANCH   3   5
ENDBRANCH   1   3
BRANCH   1  11
ATOM     11  C   UNL     1      14.697  -5.601  11.886  1.00  0.00     0.087 C 
BRANCH  11  12
ATOM     12  C   UNL     1      14.945  -4.693  13.124  1.00  0.00     0.066 C 
BRANCH  12  13
ATOM     13  C   UNL     1      15.539  -5.467  14.301  1.00  0.00     0.140 C 
ATOM     14  O   UNL     1      14.784  -5.909  15.156  1.00  0.00    -0.299 OA
BRANCH  13  15
ATOM     15  C   UNL     1      17.029  -5.702  14.488  1.00  0.00     0.106 CG0
ATOM     16  G   UNL     1      17.373  -6.945  15.286  1.00  0.00     0.000 G0
ENDBRANCH  13  15
ENDBRANCH  12  13
BRANCH  12  17
ATOM     17  C   UNL     1      13.690  -3.881  13.573  1.00  0.00    -0.006 C 
ATOM     18  C   UNL     1      12.556  -3.967  12.538  1.00  0.00     0.008 C 
ATOM     19  C   UNL     1      13.155  -4.251  14.967  1.00  0.00     0.008 C 
ENDBRANCH  12  17
ENDBRANCH  11  12
ENDBRANCH   1  11
TORSDOF 1
ENDMDL
MODEL 4
REMARK VINA RESULT:    -0.964      1.746      2.711
REMARK INTER + INTRA:          -1.155
REMARK INTER:                  -4.402
REMARK INTRA:                   3.247
REMARK UNBOUND:                 0.317
REMARK SMILES CC1=CCC[C@@H](C)C(=O)C[C@@H](C(C)C)C(=O)C1
REMARK SMILES IDX 8 1 9 2 6 3 7 4 5 5 4 6 3 7 2 8 1 9 10 11 11 12 15 13 16 14
REMARK SMILES IDX 17 15 12 17 13 18 14 19
REMARK H PARENT
REMARK Flexibility Score: 70.00
ROOT
ATOM      1  C   UNL     1      16.158  -5.941  14.823  1.00  0.00     0.136 C 
ATOM      2  O   UNL     1      16.996  -5.516  14.040  1.00  0.00    -0.299 OA
ENDROOT
BRANCH   1   3
ATOM      3  C   UNL     1      16.605  -6.809  15.984  1.00  0.00     0.053 C 
ATOM      4  C   UNL     1      16.832  -5.961  17.241  1.00  0.00     0.016 C 
BRANCH   3   5
ATOM      5  C   UNL     1      17.888  -7.587  15.583  1.00  0.00     0.015 C 
BRANCH   5   6
ATOM      6  C   UNL     1      18.049  -7.842  14.072  1.00  0.00     0.028 C 
BRANCH   6   7
ATOM      7  C   UNL     1      17.406  -9.106  13.536  1.00  0.00    -0.028 C 
ATOM      8  C   UNL     1      16.407  -9.180  12.624  1.00  0.00    -0.070 CG0
ATOM      9  C   UNL     1      15.966 -10.546  12.165  1.00  0.00     0.039 C 
ATOM     10  G   UNL     1      15.669  -7.968  12.090  1.00  0.00     0.000 G0
ENDBRANCH   6   7
ENDBRANCH   5   6
ENDBRANCH   3   5
ENDBRANCH   1   3
BRANCH   1  11
ATOM     11  C   UNL     1      14.703  -5.584  14.598  1.00  0.00     0.087 C 
BRANCH  11  12
ATOM     12  C   UNL     1      14.148  -6.038  13.218  1.00  0.00     0.066 C 
BRANCH  12  13
ATOM     13  C   UNL     1      14.476  -7.500  12.913  1.00  0.00     0.140 C 
ATOM     14  O   UNL     1      13.745  -8.373  13.361  1.00  0.00    -0.299 OA
BRANCH  13  15
ATOM     15  C   UNL     1      15.682  -7.940  12.099  1.00  0.00     0.106 CG0
ATOM     16  G   UNL     1      16.392  -9.165  12.642  1.00  0.00     0.000 G0
ENDBRANCH  13  15
ENDBRANCH  12  13
BRANCH  12  17
ATOM     17  C   UNL     1      14.574  -5.117  12.032  1.00  0.00    -0.006 C 
ATOM     18  C   UNL     1      13.640  -3.904  11.889  1.00  0.00     0.008 C 
ATOM     19  C   UNL     1      16.038  -4.647  12.083  1.00  0.00     0.008 C 
ENDBRANCH  12  17
ENDBRANCH  11  12
ENDBRANCH   1  11
TORSDOF 1
ENDMDL
