MODEL 1
REMARK VINA RESULT:    -5.356      0.000      0.000
REMARK INTER + INTRA:          -6.720
REMARK INTER:                  -6.452
REMARK INTRA:                  -0.267
REMARK UNBOUND:                -0.267
REMARK SMILES O=c1c(O)c(-c2ccc(O)c(O)c2)oc2cc(O)cc(O)c12
REMARK SMILES IDX 5 1 3 2 2 3 1 4 22 5 20 6 19 7 17 8 16 9 15 10 14 11 6 12
REMARK SMILES IDX 7 13 8 14 9 15 13 16 11 17 10 18 12 20 4 22 21 24 18 26
REMARK H PARENT 10 19 12 21 4 23 21 25 18 27
REMARK Flexibility Score: inf
ROOT
ATOM      1  C   UNL     1      44.862  15.663  -3.342  1.00  0.00     0.180 A 
ATOM      2  C   UNL     1      45.555  16.582  -4.148  1.00  0.00     0.208 A 
ATOM      3  C   UNL     1      46.893  16.321  -4.484  1.00  0.00     0.238 A 
ATOM      4  O   UNL     1      47.524  17.173  -5.161  1.00  0.00    -0.285 OA
ATOM      5  C   UNL     1      47.515  15.135  -4.024  1.00  0.00     0.111 A 
ATOM      6  C   UNL     1      48.854  14.749  -4.337  1.00  0.00     0.134 A 
ATOM      7  C   UNL     1      49.409  13.621  -3.720  1.00  0.00     0.093 A 
ATOM      8  C   UNL     1      48.653  12.829  -2.853  1.00  0.00     0.123 A 
ATOM      9  C   UNL     1      47.328  13.165  -2.588  1.00  0.00     0.094 A 
ATOM     10  C   UNL     1      46.756  14.304  -3.159  1.00  0.00     0.146 A 
ATOM     11  O   UNL     1      45.493  14.594  -2.871  1.00  0.00    -0.452 OA
ENDROOT
BRANCH   1  12
ATOM     12  C   UNL     1      43.443  15.858  -2.966  1.00  0.00     0.025 A 
ATOM     13  C   UNL     1      42.417  15.108  -3.566  1.00  0.00     0.016 A 
ATOM     14  C   UNL     1      41.087  15.291  -3.179  1.00  0.00     0.051 A 
ATOM     15  C   UNL     1      40.763  16.214  -2.179  1.00  0.00     0.157 A 
ATOM     16  C   UNL     1      43.116  16.770  -1.948  1.00  0.00     0.062 A 
ATOM     17  C   UNL     1      41.781  16.956  -1.559  1.00  0.00     0.158 A 
BRANCH  15  18
ATOM     18  O   UNL     1      39.427  16.377  -1.814  1.00  0.00    -0.504 OA
ATOM     19  H   UNL     1      39.155  16.668  -0.883  1.00  0.00     0.293 HD
ENDBRANCH  15  18
BRANCH  17  20
ATOM     20  O   UNL     1      41.466  17.873  -0.556  1.00  0.00    -0.504 OA
ATOM     21  H   UNL     1      40.531  17.941  -0.173  1.00  0.00     0.293 HD
ENDBRANCH  17  20
ENDBRANCH   1  12
BRANCH   2  22
ATOM     22  O   UNL     1      44.927  17.757  -4.573  1.00  0.00    -0.502 OA
ATOM     23  H   UNL     1      44.188  18.201  -4.042  1.00  0.00     0.293 HD
ENDBRANCH   2  22
BRANCH   6  24
ATOM     24  O   UNL     1      49.664  15.418  -5.260  1.00  0.00    -0.507 OA
ATOM     25  H   UNL     1      49.618  15.294  -6.260  1.00  0.00     0.293 HD
ENDBRANCH   6  24
BRANCH   8  26
ATOM     26  O   UNL     1      49.208  11.700  -2.256  1.00  0.00    -0.508 OA
ATOM     27  H   UNL     1      48.843  11.325  -1.388  1.00  0.00     0.293 HD
ENDBRANCH   8  26
TORSDOF 6
ENDMDL
MODEL 2
REMARK VINA RESULT:    -5.333      1.875      3.247
REMARK INTER + INTRA:          -6.692
REMARK INTER:                  -6.661
REMARK INTRA:                  -0.031
REMARK UNBOUND:                -0.267
REMARK SMILES O=c1c(O)c(-c2ccc(O)c(O)c2)oc2cc(O)cc(O)c12
REMARK SMILES IDX 5 1 3 2 2 3 1 4 22 5 20 6 19 7 17 8 16 9 15 10 14 11 6 12
REMARK SMILES IDX 7 13 8 14 9 15 13 16 11 17 10 18 12 20 4 22 21 24 18 26
REMARK H PARENT 10 19 12 21 4 23 21 25 18 27
REMARK Flexibility Score: inf
ROOT
ATOM      1  C   UNL     1      45.948  16.021  -3.801  1.00  0.00     0.180 A 
ATOM      2  C   UNL     1      45.692  14.693  -3.418  1.00  0.00     0.208 A 
ATOM      3  C   UNL     1      46.757  13.781  -3.363  1.00  0.00     0.238 A 
ATOM      4  O   UNL     1      46.513  12.582  -3.072  1.00  0.00    -0.285 OA
ATOM      5  C   UNL     1      48.070  14.213  -3.675  1.00  0.00     0.111 A 
ATOM      6  C   UNL     1      49.231  13.384  -3.614  1.00  0.00     0.134 A 
ATOM      7  C   UNL     1      50.458  13.881  -4.071  1.00  0.00     0.093 A 
ATOM      8  C   UNL     1      50.578  15.196  -4.526  1.00  0.00     0.123 A 
ATOM      9  C   UNL     1      49.463  16.030  -4.533  1.00  0.00     0.094 A 
ATOM     10  C   UNL     1      48.218  15.553  -4.118  1.00  0.00     0.146 A 
ATOM     11  O   UNL     1      47.178  16.378  -4.152  1.00  0.00    -0.452 OA
ENDROOT
BRANCH   1  12
ATOM     12  C   UNL     1      44.880  17.045  -3.858  1.00  0.00     0.025 A 
ATOM     13  C   UNL     1      44.620  17.767  -5.035  1.00  0.00     0.016 A 
ATOM     14  C   UNL     1      43.591  18.711  -5.073  1.00  0.00     0.051 A 
ATOM     15  C   UNL     1      42.799  18.940  -3.943  1.00  0.00     0.157 A 
ATOM     16  C   UNL     1      44.070  17.263  -2.731  1.00  0.00     0.062 A 
ATOM     17  C   UNL     1      43.037  18.211  -2.766  1.00  0.00     0.158 A 
BRANCH  15  18
ATOM     18  O   UNL     1      41.780  19.890  -4.009  1.00  0.00    -0.504 OA
ATOM     19  H   UNL     1      41.560  20.499  -3.230  1.00  0.00     0.293 HD
ENDBRANCH  15  18
BRANCH  17  20
ATOM     20  O   UNL     1      42.248  18.429  -1.637  1.00  0.00    -0.504 OA
ATOM     21  H   UNL     1      42.047  17.685  -0.979  1.00  0.00     0.293 HD
ENDBRANCH  17  20
ENDBRANCH   1  12
BRANCH   2  22
ATOM     22  O   UNL     1      44.385  14.284  -3.135  1.00  0.00    -0.502 OA
ATOM     23  H   UNL     1      43.967  14.393  -2.219  1.00  0.00     0.293 HD
ENDBRANCH   2  22
BRANCH   6  24
ATOM     24  O   UNL     1      49.238  12.087  -3.092  1.00  0.00    -0.507 OA
ATOM     25  H   UNL     1      49.557  11.842  -2.167  1.00  0.00     0.293 HD
ENDBRANCH   6  24
BRANCH   8  26
ATOM     26  O   UNL     1      51.806  15.687  -4.964  1.00  0.00    -0.508 OA
ATOM     27  H   UNL     1      52.681  15.300  -4.630  1.00  0.00     0.293 HD
ENDBRANCH   8  26
TORSDOF 6
ENDMDL
MODEL 3
REMARK VINA RESULT:    -5.313      1.650      6.801
REMARK INTER + INTRA:          -6.668
REMARK INTER:                  -7.040
REMARK INTRA:                   0.372
REMARK UNBOUND:                -0.267
REMARK SMILES O=c1c(O)c(-c2ccc(O)c(O)c2)oc2cc(O)cc(O)c12
REMARK SMILES IDX 5 1 3 2 2 3 1 4 22 5 20 6 19 7 17 8 16 9 15 10 14 11 6 12
REMARK SMILES IDX 7 13 8 14 9 15 13 16 11 17 10 18 12 20 4 22 21 24 18 26
REMARK H PARENT 10 19 12 21 4 23 21 25 18 27
REMARK Flexibility Score: inf
ROOT
ATOM      1  C   UNL     1      46.142  16.486  -4.201  1.00  0.00     0.180 A 
ATOM      2  C   UNL     1      45.808  17.502  -5.112  1.00  0.00     0.208 A 
ATOM      3  C   UNL     1      44.551  18.121  -5.012  1.00  0.00     0.238 A 
ATOM      4  O   UNL     1      44.237  18.992  -5.863  1.00  0.00    -0.285 OA
ATOM      5  C   UNL     1      43.652  17.726  -3.992  1.00  0.00     0.111 A 
ATOM      6  C   UNL     1      42.369  18.313  -3.773  1.00  0.00     0.134 A 
ATOM      7  C   UNL     1      41.510  17.755  -2.817  1.00  0.00     0.093 A 
ATOM      8  C   UNL     1      41.913  16.675  -2.029  1.00  0.00     0.123 A 
ATOM      9  C   UNL     1      43.186  16.135  -2.195  1.00  0.00     0.094 A 
ATOM     10  C   UNL     1      44.052  16.645  -3.165  1.00  0.00     0.146 A 
ATOM     11  O   UNL     1      45.252  16.093  -3.297  1.00  0.00    -0.452 OA
ENDROOT
BRANCH   1  12
ATOM     12  C   UNL     1      47.457  15.805  -4.228  1.00  0.00     0.025 A 
ATOM     13  C   UNL     1      48.563  16.374  -4.882  1.00  0.00     0.016 A 
ATOM     14  C   UNL     1      49.801  15.725  -4.873  1.00  0.00     0.051 A 
ATOM     15  C   UNL     1      49.957  14.508  -4.202  1.00  0.00     0.157 A 
ATOM     16  C   UNL     1      47.623  14.592  -3.537  1.00  0.00     0.062 A 
ATOM     17  C   UNL     1      48.864  13.939  -3.529  1.00  0.00     0.158 A 
BRANCH  15  18
ATOM     18  O   UNL     1      51.203  13.883  -4.213  1.00  0.00    -0.504 OA
ATOM     19  H   UNL     1      51.311  12.901  -4.435  1.00  0.00     0.293 HD
ENDBRANCH  15  18
BRANCH  17  20
ATOM     20  O   UNL     1      49.013  12.729  -2.852  1.00  0.00    -0.504 OA
ATOM     21  H   UNL     1      48.514  12.537  -1.991  1.00  0.00     0.293 HD
ENDBRANCH  17  20
ENDBRANCH   1  12
BRANCH   2  22
ATOM     22  O   UNL     1      46.703  17.860  -6.125  1.00  0.00    -0.502 OA
ATOM     23  H   UNL     1      47.148  17.175  -6.724  1.00  0.00     0.293 HD
ENDBRANCH   2  22
BRANCH   6  24
ATOM     24  O   UNL     1      41.905  19.449  -4.441  1.00  0.00    -0.507 OA
ATOM     25  H   UNL     1      41.683  19.487  -5.424  1.00  0.00     0.293 HD
ENDBRANCH   6  24
BRANCH   8  26
ATOM     26  O   UNL     1      41.058  16.137  -1.070  1.00  0.00    -0.508 OA
ATOM     27  H   UNL     1      41.371  15.952  -0.125  1.00  0.00     0.293 HD
ENDBRANCH   8  26
TORSDOF 6
ENDMDL
MODEL 4
REMARK VINA RESULT:    -5.279      2.010      3.312
REMARK INTER + INTRA:          -6.627
REMARK INTER:                  -6.566
REMARK INTRA:                  -0.061
REMARK UNBOUND:                -0.267
REMARK SMILES O=c1c(O)c(-c2ccc(O)c(O)c2)oc2cc(O)cc(O)c12
REMARK SMILES IDX 5 1 3 2 2 3 1 4 22 5 20 6 19 7 17 8 16 9 15 10 14 11 6 12
REMARK SMILES IDX 7 13 8 14 9 15 13 16 11 17 10 18 12 20 4 22 21 24 18 26
REMARK H PARENT 10 19 12 21 4 23 21 25 18 27
REMARK Flexibility Score: inf
ROOT
ATOM      1  C   UNL     1      45.212  15.740  -3.354  1.00  0.00     0.180 A 
ATOM      2  C   UNL     1      44.583  14.547  -2.958  1.00  0.00     0.208 A 
ATOM      3  C   UNL     1      45.359  13.388  -2.797  1.00  0.00     0.238 A 
ATOM      4  O   UNL     1      44.782  12.311  -2.495  1.00  0.00    -0.285 OA
ATOM      5  C   UNL     1      46.757  13.441  -3.018  1.00  0.00     0.111 A 
ATOM      6  C   UNL     1      47.646  12.337  -2.845  1.00  0.00     0.134 A 
ATOM      7  C   UNL     1      48.990  12.469  -3.218  1.00  0.00     0.093 A 
ATOM      8  C   UNL     1      49.489  13.683  -3.696  1.00  0.00     0.123 A 
ATOM      9  C   UNL     1      48.642  14.781  -3.811  1.00  0.00     0.094 A 
ATOM     10  C   UNL     1      47.289  14.672  -3.482  1.00  0.00     0.146 A 
ATOM     11  O   UNL     1      46.514  15.741  -3.617  1.00  0.00    -0.452 OA
ENDROOT
BRANCH   1  12
ATOM     12  C   UNL     1      44.465  17.008  -3.519  1.00  0.00     0.025 A 
ATOM     13  C   UNL     1      44.453  17.696  -4.744  1.00  0.00     0.016 A 
ATOM     14  C   UNL     1      43.721  18.878  -4.885  1.00  0.00     0.051 A 
ATOM     15  C   UNL     1      42.980  19.382  -3.811  1.00  0.00     0.157 A 
ATOM     16  C   UNL     1      43.702  17.506  -2.449  1.00  0.00     0.062 A 
ATOM     17  C   UNL     1      42.968  18.693  -2.588  1.00  0.00     0.158 A 
BRANCH  15  18
ATOM     18  O   UNL     1      42.260  20.565  -3.980  1.00  0.00    -0.504 OA
ATOM     19  H   UNL     1      42.654  21.471  -3.758  1.00  0.00     0.293 HD
ENDBRANCH  15  18
BRANCH  17  20
ATOM     20  O   UNL     1      42.226  19.186  -1.515  1.00  0.00    -0.504 OA
ATOM     21  H   UNL     1      42.527  19.054  -0.556  1.00  0.00     0.293 HD
ENDBRANCH  17  20
ENDBRANCH   1  12
BRANCH   2  22
ATOM     22  O   UNL     1      43.198  14.513  -2.766  1.00  0.00    -0.502 OA
ATOM     23  H   UNL     1      42.543  14.499  -3.539  1.00  0.00     0.293 HD
ENDBRANCH   2  22
BRANCH   6  24
ATOM     24  O   UNL     1      47.269  11.110  -2.292  1.00  0.00    -0.507 OA
ATOM     25  H   UNL     1      46.317  10.826  -2.118  1.00  0.00     0.293 HD
ENDBRANCH   6  24
BRANCH   8  26
ATOM     26  O   UNL     1      50.830  13.809  -4.050  1.00  0.00    -0.508 OA
ATOM     27  H   UNL     1      51.299  13.107  -4.610  1.00  0.00     0.293 HD
ENDBRANCH   8  26
TORSDOF 6
ENDMDL
MODEL 5
REMARK VINA RESULT:    -5.014      1.895      2.185
REMARK INTER + INTRA:          -6.307
REMARK INTER:                  -5.995
REMARK INTRA:                  -0.312
REMARK UNBOUND:                -0.267
REMARK SMILES O=c1c(O)c(-c2ccc(O)c(O)c2)oc2cc(O)cc(O)c12
REMARK SMILES IDX 5 1 3 2 2 3 1 4 22 5 20 6 19 7 17 8 16 9 15 10 14 11 6 12
REMARK SMILES IDX 7 13 8 14 9 15 13 16 11 17 10 18 12 20 4 22 21 24 18 26
REMARK H PARENT 10 19 12 21 4 23 21 25 18 27
REMARK Flexibility Score: inf
ROOT
ATOM      1  C   UNL     1      45.705  16.040  -3.581  1.00  0.00     0.180 A 
ATOM      2  C   UNL     1      46.949  16.375  -4.143  1.00  0.00     0.208 A 
ATOM      3  C   UNL     1      48.027  15.489  -3.990  1.00  0.00     0.238 A 
ATOM      4  O   UNL     1      49.151  15.819  -4.448  1.00  0.00    -0.285 OA
ATOM      5  C   UNL     1      47.842  14.270  -3.293  1.00  0.00     0.111 A 
ATOM      6  C   UNL     1      48.854  13.278  -3.113  1.00  0.00     0.134 A 
ATOM      7  C   UNL     1      48.597  12.171  -2.295  1.00  0.00     0.093 A 
ATOM      8  C   UNL     1      47.345  11.987  -1.703  1.00  0.00     0.123 A 
ATOM      9  C   UNL     1      46.334  12.919  -1.922  1.00  0.00     0.094 A 
ATOM     10  C   UNL     1      46.569  14.052  -2.703  1.00  0.00     0.146 A 
ATOM     11  O   UNL     1      45.581  14.921  -2.877  1.00  0.00    -0.452 OA
ENDROOT
BRANCH   1  12
ATOM     12  C   UNL     1      44.516  16.912  -3.722  1.00  0.00     0.025 A 
ATOM     13  C   UNL     1      43.744  16.915  -4.896  1.00  0.00     0.016 A 
ATOM     14  C   UNL     1      42.613  17.728  -4.997  1.00  0.00     0.051 A 
ATOM     15  C   UNL     1      42.227  18.540  -3.925  1.00  0.00     0.157 A 
ATOM     16  C   UNL     1      44.114  17.713  -2.639  1.00  0.00     0.062 A 
ATOM     17  C   UNL     1      42.980  18.531  -2.739  1.00  0.00     0.158 A 
BRANCH  15  18
ATOM     18  O   UNL     1      41.094  19.343  -4.055  1.00  0.00    -0.504 OA
ATOM     19  H   UNL     1      40.204  18.971  -4.364  1.00  0.00     0.293 HD
ENDBRANCH  15  18
BRANCH  17  20
ATOM     20  O   UNL     1      42.598  19.333  -1.663  1.00  0.00    -0.504 OA
ATOM     21  H   UNL     1      42.298  18.931  -0.783  1.00  0.00     0.293 HD
ENDBRANCH  17  20
ENDBRANCH   1  12
BRANCH   2  22
ATOM     22  O   UNL     1      47.114  17.594  -4.808  1.00  0.00    -0.502 OA
ATOM     23  H   UNL     1      47.326  18.456  -4.319  1.00  0.00     0.293 HD
ENDBRANCH   2  22
BRANCH   6  24
ATOM     24  O   UNL     1      50.106  13.320  -3.733  1.00  0.00    -0.507 OA
ATOM     25  H   UNL     1      50.256  13.266  -4.729  1.00  0.00     0.293 HD
ENDBRANCH   6  24
BRANCH   8  26
ATOM     26  O   UNL     1      47.094  10.875  -0.904  1.00  0.00    -0.508 OA
ATOM     27  H   UNL     1      46.331  10.239  -1.104  1.00  0.00     0.293 HD
ENDBRANCH   8  26
TORSDOF 6
ENDMDL
MODEL 6
REMARK VINA RESULT:    -4.975      1.891      2.376
REMARK INTER + INTRA:          -6.261
REMARK INTER:                  -6.142
REMARK INTRA:                  -0.119
REMARK UNBOUND:                -0.267
REMARK SMILES O=c1c(O)c(-c2ccc(O)c(O)c2)oc2cc(O)cc(O)c12
REMARK SMILES IDX 5 1 3 2 2 3 1 4 22 5 20 6 19 7 17 8 16 9 15 10 14 11 6 12
REMARK SMILES IDX 7 13 8 14 9 15 13 16 11 17 10 18 12 20 4 22 21 24 18 26
REMARK H PARENT 10 19 12 21 4 23 21 25 18 27
REMARK Flexibility Score: inf
ROOT
ATOM      1  C   UNL     1      45.118  15.018  -3.296  1.00  0.00     0.180 A 
ATOM      2  C   UNL     1      45.411  14.707  -4.635  1.00  0.00     0.208 A 
ATOM      3  C   UNL     1      46.354  13.705  -4.911  1.00  0.00     0.238 A 
ATOM      4  O   UNL     1      46.653  13.468  -6.110  1.00  0.00    -0.285 OA
ATOM      5  C   UNL     1      46.979  13.013  -3.845  1.00  0.00     0.111 A 
ATOM      6  C   UNL     1      47.920  11.952  -4.009  1.00  0.00     0.134 A 
ATOM      7  C   UNL     1      48.573  11.429  -2.885  1.00  0.00     0.093 A 
ATOM      8  C   UNL     1      48.271  11.884  -1.600  1.00  0.00     0.123 A 
ATOM      9  C   UNL     1      47.312  12.878  -1.426  1.00  0.00     0.094 A 
ATOM     10  C   UNL     1      46.669  13.446  -2.529  1.00  0.00     0.146 A 
ATOM     11  O   UNL     1      45.769  14.398  -2.319  1.00  0.00    -0.452 OA
ENDROOT
BRANCH   1  12
ATOM     12  C   UNL     1      44.118  16.046  -2.927  1.00  0.00     0.025 A 
ATOM     13  C   UNL     1      44.273  17.389  -3.308  1.00  0.00     0.016 A 
ATOM     14  C   UNL     1      43.304  18.337  -2.969  1.00  0.00     0.051 A 
ATOM     15  C   UNL     1      42.161  17.957  -2.258  1.00  0.00     0.157 A 
ATOM     16  C   UNL     1      42.958  15.664  -2.230  1.00  0.00     0.062 A 
ATOM     17  C   UNL     1      41.985  16.614  -1.888  1.00  0.00     0.158 A 
BRANCH  15  18
ATOM     18  O   UNL     1      41.212  18.925  -1.932  1.00  0.00    -0.504 OA
ATOM     19  H   UNL     1      41.433  19.913  -1.919  1.00  0.00     0.293 HD
ENDBRANCH  15  18
BRANCH  17  20
ATOM     20  O   UNL     1      40.845  16.226  -1.185  1.00  0.00    -0.504 OA
ATOM     21  H   UNL     1      40.045  15.819  -1.655  1.00  0.00     0.293 HD
ENDBRANCH  17  20
ENDBRANCH   1  12
BRANCH   2  22
ATOM     22  O   UNL     1      44.798  15.418  -5.672  1.00  0.00    -0.502 OA
ATOM     23  H   UNL     1      45.326  15.960  -6.346  1.00  0.00     0.293 HD
ENDBRANCH   2  22
BRANCH   6  24
ATOM     24  O   UNL     1      48.224  11.362  -5.239  1.00  0.00    -0.507 OA
ATOM     25  H   UNL     1      47.612  11.355  -6.040  1.00  0.00     0.293 HD
ENDBRANCH   6  24
BRANCH   8  26
ATOM     26  O   UNL     1      48.914  11.347  -0.487  1.00  0.00    -0.508 OA
ATOM     27  H   UNL     1      49.748  11.773  -0.100  1.00  0.00     0.293 HD
ENDBRANCH   8  26
TORSDOF 6
ENDMDL
MODEL 7
REMARK VINA RESULT:    -4.905      1.793      7.210
REMARK INTER + INTRA:          -6.176
REMARK INTER:                  -6.327
REMARK INTRA:                   0.151
REMARK UNBOUND:                -0.267
REMARK SMILES O=c1c(O)c(-c2ccc(O)c(O)c2)oc2cc(O)cc(O)c12
REMARK SMILES IDX 5 1 3 2 2 3 1 4 22 5 20 6 19 7 17 8 16 9 15 10 14 11 6 12
REMARK SMILES IDX 7 13 8 14 9 15 13 16 11 17 10 18 12 20 4 22 21 24 18 26
REMARK H PARENT 10 19 12 21 4 23 21 25 18 27
REMARK Flexibility Score: inf
ROOT
ATOM      1  C   UNL     1      46.187  15.765  -3.914  1.00  0.00     0.180 A 
ATOM      2  C   UNL     1      45.612  14.492  -3.752  1.00  0.00     0.208 A 
ATOM      3  C   UNL     1      44.289  14.395  -3.294  1.00  0.00     0.238 A 
ATOM      4  O   UNL     1      43.798  13.253  -3.100  1.00  0.00    -0.285 OA
ATOM      5  C   UNL     1      43.550  15.572  -3.021  1.00  0.00     0.111 A 
ATOM      6  C   UNL     1      42.189  15.593  -2.590  1.00  0.00     0.134 A 
ATOM      7  C   UNL     1      41.600  16.809  -2.223  1.00  0.00     0.093 A 
ATOM      8  C   UNL     1      42.302  18.012  -2.333  1.00  0.00     0.123 A 
ATOM      9  C   UNL     1      43.611  18.008  -2.808  1.00  0.00     0.094 A 
ATOM     10  C   UNL     1      44.239  16.807  -3.148  1.00  0.00     0.146 A 
ATOM     11  O   UNL     1      45.491  16.847  -3.586  1.00  0.00    -0.452 OA
ENDROOT
BRANCH   1  12
ATOM     12  C   UNL     1      47.568  15.948  -4.416  1.00  0.00     0.025 A 
ATOM     13  C   UNL     1      47.885  16.963  -5.334  1.00  0.00     0.016 A 
ATOM     14  C   UNL     1      49.200  17.133  -5.775  1.00  0.00     0.051 A 
ATOM     15  C   UNL     1      50.218  16.301  -5.299  1.00  0.00     0.157 A 
ATOM     16  C   UNL     1      48.597  15.128  -3.923  1.00  0.00     0.062 A 
ATOM     17  C   UNL     1      49.917  15.295  -4.366  1.00  0.00     0.158 A 
BRANCH  15  18
ATOM     18  O   UNL     1      51.521  16.493  -5.758  1.00  0.00    -0.504 OA
ATOM     19  H   UNL     1      51.998  15.803  -6.326  1.00  0.00     0.293 HD
ENDBRANCH  15  18
BRANCH  17  20
ATOM     20  O   UNL     1      50.929  14.467  -3.881  1.00  0.00    -0.504 OA
ATOM     21  H   UNL     1      50.833  13.971  -3.002  1.00  0.00     0.293 HD
ENDBRANCH  17  20
ENDBRANCH   1  12
BRANCH   2  22
ATOM     22  O   UNL     1      46.367  13.343  -4.008  1.00  0.00    -0.502 OA
ATOM     23  H   UNL     1      45.953  12.488  -4.358  1.00  0.00     0.293 HD
ENDBRANCH   2  22
BRANCH   6  24
ATOM     24  O   UNL     1      41.371  14.461  -2.533  1.00  0.00    -0.507 OA
ATOM     25  H   UNL     1      40.367  14.482  -2.450  1.00  0.00     0.293 HD
ENDBRANCH   6  24
BRANCH   8  26
ATOM     26  O   UNL     1      41.703  19.219  -1.981  1.00  0.00    -0.508 OA
ATOM     27  H   UNL     1      40.740  19.422  -2.220  1.00  0.00     0.293 HD
ENDBRANCH   8  26
TORSDOF 6
ENDMDL
MODEL 8
REMARK VINA RESULT:    -4.830      2.060      7.703
REMARK INTER + INTRA:          -6.086
REMARK INTER:                  -6.214
REMARK INTRA:                   0.128
REMARK UNBOUND:                -0.267
REMARK SMILES O=c1c(O)c(-c2ccc(O)c(O)c2)oc2cc(O)cc(O)c12
REMARK SMILES IDX 5 1 3 2 2 3 1 4 22 5 20 6 19 7 17 8 16 9 15 10 14 11 6 12
REMARK SMILES IDX 7 13 8 14 9 15 13 16 11 17 10 18 12 20 4 22 21 24 18 26
REMARK H PARENT 10 19 12 21 4 23 21 25 18 27
REMARK Flexibility Score: inf
ROOT
ATOM      1  C   UNL     1      48.176  14.994  -4.202  1.00  0.00     0.180 A 
ATOM      2  C   UNL     1      47.546  14.179  -3.246  1.00  0.00     0.208 A 
ATOM      3  C   UNL     1      46.220  14.456  -2.881  1.00  0.00     0.238 A 
ATOM      4  O   UNL     1      45.679  13.757  -1.985  1.00  0.00    -0.285 OA
ATOM      5  C   UNL     1      45.533  15.535  -3.490  1.00  0.00     0.111 A 
ATOM      6  C   UNL     1      44.174  15.882  -3.226  1.00  0.00     0.134 A 
ATOM      7  C   UNL     1      43.638  17.048  -3.788  1.00  0.00     0.093 A 
ATOM      8  C   UNL     1      44.392  17.842  -4.655  1.00  0.00     0.123 A 
ATOM      9  C   UNL     1      45.699  17.478  -4.965  1.00  0.00     0.094 A 
ATOM     10  C   UNL     1      46.275  16.342  -4.392  1.00  0.00     0.146 A 
ATOM     11  O   UNL     1      47.528  16.037  -4.706  1.00  0.00    -0.452 OA
ENDROOT
BRANCH   1  12
ATOM     12  C   UNL     1      49.565  14.748  -4.655  1.00  0.00     0.025 A 
ATOM     13  C   UNL     1      50.050  13.445  -4.855  1.00  0.00     0.016 A 
ATOM     14  C   UNL     1      51.356  13.238  -5.306  1.00  0.00     0.051 A 
ATOM     15  C   UNL     1      52.192  14.326  -5.577  1.00  0.00     0.157 A 
ATOM     16  C   UNL     1      50.400  15.840  -4.948  1.00  0.00     0.062 A 
ATOM     17  C   UNL     1      51.711  15.634  -5.399  1.00  0.00     0.158 A 
BRANCH  15  18
ATOM     18  O   UNL     1      53.491  14.089  -6.025  1.00  0.00    -0.504 OA
ATOM     19  H   UNL     1      54.030  14.794  -6.512  1.00  0.00     0.293 HD
ENDBRANCH  15  18
BRANCH  17  20
ATOM     20  O   UNL     1      52.536  16.724  -5.674  1.00  0.00    -0.504 OA
ATOM     21  H   UNL     1      52.465  17.589  -5.150  1.00  0.00     0.293 HD
ENDBRANCH  17  20
ENDBRANCH   1  12
BRANCH   2  22
ATOM     22  O   UNL     1      48.251  13.133  -2.641  1.00  0.00    -0.502 OA
ATOM     23  H   UNL     1      48.974  12.614  -3.124  1.00  0.00     0.293 HD
ENDBRANCH   2  22
BRANCH   6  24
ATOM     24  O   UNL     1      43.307  15.108  -2.449  1.00  0.00    -0.507 OA
ATOM     25  H   UNL     1      42.509  14.606  -2.806  1.00  0.00     0.293 HD
ENDBRANCH   6  24
BRANCH   8  26
ATOM     26  O   UNL     1      43.845  18.991  -5.222  1.00  0.00    -0.508 OA
ATOM     27  H   UNL     1      42.908  18.999  -5.605  1.00  0.00     0.293 HD
ENDBRANCH   8  26
TORSDOF 6
ENDMDL
MODEL 9
REMARK VINA RESULT:    -4.771      2.142      7.535
REMARK INTER + INTRA:          -6.014
REMARK INTER:                  -5.712
REMARK INTRA:                  -0.302
REMARK UNBOUND:                -0.267
REMARK SMILES O=c1c(O)c(-c2ccc(O)c(O)c2)oc2cc(O)cc(O)c12
REMARK SMILES IDX 5 1 3 2 2 3 1 4 22 5 20 6 19 7 17 8 16 9 15 10 14 11 6 12
REMARK SMILES IDX 7 13 8 14 9 15 13 16 11 17 10 18 12 20 4 22 21 24 18 26
REMARK H PARENT 10 19 12 21 4 23 21 25 18 27
REMARK Flexibility Score: inf
ROOT
ATOM      1  C   UNL     1      43.923  17.239  -3.812  1.00  0.00     0.180 A 
ATOM      2  C   UNL     1      42.835  16.421  -4.161  1.00  0.00     0.208 A 
ATOM      3  C   UNL     1      41.549  16.771  -3.718  1.00  0.00     0.238 A 
ATOM      4  O   UNL     1      40.587  16.007  -3.988  1.00  0.00    -0.285 OA
ATOM      5  C   UNL     1      41.366  17.944  -2.946  1.00  0.00     0.111 A 
ATOM      6  C   UNL     1      40.103  18.416  -2.477  1.00  0.00     0.134 A 
ATOM      7  C   UNL     1      40.056  19.516  -1.611  1.00  0.00     0.093 A 
ATOM      8  C   UNL     1      41.219  20.199  -1.249  1.00  0.00     0.123 A 
ATOM      9  C   UNL     1      42.450  19.781  -1.750  1.00  0.00     0.094 A 
ATOM     10  C   UNL     1      42.534  18.666  -2.586  1.00  0.00     0.146 A 
ATOM     11  O   UNL     1      43.729  18.295  -3.031  1.00  0.00    -0.452 OA
ENDROOT
BRANCH   1  12
ATOM     12  C   UNL     1      45.303  16.948  -4.263  1.00  0.00     0.025 A 
ATOM     13  C   UNL     1      45.872  17.619  -5.359  1.00  0.00     0.016 A 
ATOM     14  C   UNL     1      47.185  17.346  -5.752  1.00  0.00     0.051 A 
ATOM     15  C   UNL     1      47.953  16.411  -5.050  1.00  0.00     0.157 A 
ATOM     16  C   UNL     1      46.085  16.024  -3.548  1.00  0.00     0.062 A 
ATOM     17  C   UNL     1      47.402  15.748  -3.941  1.00  0.00     0.158 A 
BRANCH  15  18
ATOM     18  O   UNL     1      49.260  16.157  -5.466  1.00  0.00    -0.504 OA
ATOM     19  H   UNL     1      49.616  15.216  -5.578  1.00  0.00     0.293 HD
ENDBRANCH  15  18
BRANCH  17  20
ATOM     20  O   UNL     1      48.164  14.819  -3.232  1.00  0.00    -0.504 OA
ATOM     21  H   UNL     1      48.991  14.394  -3.635  1.00  0.00     0.293 HD
ENDBRANCH  17  20
ENDBRANCH   1  12
BRANCH   2  22
ATOM     22  O   UNL     1      43.041  15.256  -4.907  1.00  0.00    -0.502 OA
ATOM     23  H   UNL     1      42.277  14.683  -5.243  1.00  0.00     0.293 HD
ENDBRANCH   2  22
BRANCH   6  24
ATOM     24  O   UNL     1      38.875  17.863  -2.851  1.00  0.00    -0.507 OA
ATOM     25  H   UNL     1      38.709  17.361  -3.710  1.00  0.00     0.293 HD
ENDBRANCH   6  24
BRANCH   8  26
ATOM     26  O   UNL     1      41.161  21.301  -0.400  1.00  0.00    -0.508 OA
ATOM     27  H   UNL     1      40.278  21.662  -0.060  1.00  0.00     0.293 HD
ENDBRANCH   8  26
TORSDOF 6
ENDMDL
