MODEL 1
REMARK VINA RESULT:    -1.825      0.000      0.000
REMARK INTER + INTRA:          -2.763
REMARK INTER:                  -2.571
REMARK INTRA:                  -0.192
REMARK UNBOUND:                -0.192
REMARK SMILES CCCCCCCCC(=O)[O-]
REMARK SMILES IDX 6 1 7 2 8 3 9 4 10 5 11 6 5 7 4 8 3 9 2 10 1 11
REMARK H PARENT
REMARK Flexibility Score: inf
ROOT
ATOM      1  C   UNL     1      34.448  23.366  27.602  1.00  0.00     0.000 C 
ENDROOT
BRANCH   1   2
ATOM      2  C   UNL     1      35.580  24.125  26.880  1.00  0.00     0.006 C 
BRANCH   2   3
ATOM      3  C   UNL     1      36.992  23.766  27.376  1.00  0.00     0.053 C 
BRANCH   3   4
ATOM      4  C   UNL     1      37.074  22.377  27.935  1.00  0.00     0.041 C 
ATOM      5  O   UNL     1      37.088  22.192  29.180  1.00  0.00    -0.550 OA
ATOM      6  O   UNL     1      37.091  21.283  27.080  1.00  0.00    -0.550 OA
ENDBRANCH   3   4
ENDBRANCH   2   3
ENDBRANCH   1   2
BRANCH   1   7
ATOM      7  C   UNL     1      33.023  23.811  27.233  1.00  0.00     0.000 C 
BRANCH   7   8
ATOM      8  C   UNL     1      32.078  23.860  28.443  1.00  0.00    -0.000 C 
BRANCH   8   9
ATOM      9  C   UNL     1      31.354  22.521  28.629  1.00  0.00    -0.000 C 
BRANCH   9  10
ATOM     10  C   UNL     1      31.077  21.853  27.278  1.00  0.00    -0.003 C 
ATOM     11  C   UNL     1      29.737  21.125  27.287  1.00  0.00     0.004 C 
ENDBRANCH   9  10
ENDBRANCH   8   9
ENDBRANCH   7   8
ENDBRANCH   1   7
TORSDOF 7
ENDMDL
MODEL 2
REMARK VINA RESULT:    -0.995     21.346     23.404
REMARK INTER + INTRA:          -1.594
REMARK INTER:                  -1.465
REMARK INTRA:                  -0.129
REMARK UNBOUND:                -0.192
REMARK SMILES CCCCCCCCC(=O)[O-]
REMARK SMILES IDX 6 1 7 2 8 3 9 4 10 5 11 6 5 7 4 8 3 9 2 10 1 11
REMARK H PARENT
REMARK Flexibility Score: inf
ROOT
ATOM      1  C   UNL     1      20.456  21.468  46.971  1.00  0.00     0.000 C 
ENDROOT
BRANCH   1   2
ATOM      2  C   UNL     1      19.426  22.612  47.056  1.00  0.00     0.006 C 
BRANCH   2   3
ATOM      3  C   UNL     1      19.112  23.276  45.703  1.00  0.00     0.053 C 
BRANCH   3   4
ATOM      4  C   UNL     1      17.720  23.830  45.639  1.00  0.00     0.041 C 
ATOM      5  O   UNL     1      17.172  24.047  44.526  1.00  0.00    -0.550 OA
ATOM      6  O   UNL     1      17.010  24.066  46.810  1.00  0.00    -0.550 OA
ENDBRANCH   3   4
ENDBRANCH   2   3
ENDBRANCH   1   2
BRANCH   1   7
ATOM      7  C   UNL     1      21.579  21.673  45.941  1.00  0.00     0.000 C 
BRANCH   7   8
ATOM      8  C   UNL     1      22.513  22.840  46.295  1.00  0.00    -0.000 C 
BRANCH   8   9
ATOM      9  C   UNL     1      23.808  22.774  45.476  1.00  0.00    -0.000 C 
BRANCH   9  10
ATOM     10  C   UNL     1      25.037  22.944  46.375  1.00  0.00    -0.003 C 
ATOM     11  C   UNL     1      26.117  23.770  45.683  1.00  0.00     0.004 C 
ENDBRANCH   9  10
ENDBRANCH   8   9
ENDBRANCH   7   8
ENDBRANCH   1   7
TORSDOF 7
ENDMDL
MODEL 3
REMARK VINA RESULT:    -0.979      1.183      2.004
REMARK INTER + INTRA:          -1.572
REMARK INTER:                  -1.284
REMARK INTRA:                  -0.288
REMARK UNBOUND:                -0.192
REMARK SMILES CCCCCCCCC(=O)[O-]
REMARK SMILES IDX 6 1 7 2 8 3 9 4 10 5 11 6 5 7 4 8 3 9 2 10 1 11
REMARK H PARENT
REMARK Flexibility Score: inf
ROOT
ATOM      1  C   UNL     1      33.024  23.317  29.589  1.00  0.00     0.000 C 
ENDROOT
BRANCH   1   2
ATOM      2  C   UNL     1      34.427  23.951  29.657  1.00  0.00     0.006 C 
BRANCH   2   3
ATOM      3  C   UNL     1      35.118  24.096  28.289  1.00  0.00     0.053 C 
BRANCH   3   4
ATOM      4  C   UNL     1      36.354  23.255  28.174  1.00  0.00     0.041 C 
ATOM      5  O   UNL     1      36.899  23.077  27.052  1.00  0.00    -0.550 OA
ATOM      6  O   UNL     1      36.928  22.702  29.310  1.00  0.00    -0.550 OA
ENDBRANCH   3   4
ENDBRANCH   2   3
ENDBRANCH   1   2
BRANCH   1   7
ATOM      7  C   UNL     1      32.194  23.695  28.351  1.00  0.00     0.000 C 
BRANCH   7   8
ATOM      8  C   UNL     1      30.980  22.778  28.139  1.00  0.00    -0.000 C 
BRANCH   8   9
ATOM      9  C   UNL     1      31.216  21.817  26.967  1.00  0.00    -0.000 C 
BRANCH   9  10
ATOM     10  C   UNL     1      30.098  20.774  26.876  1.00  0.00    -0.003 C 
ATOM     11  C   UNL     1      28.782  21.328  27.414  1.00  0.00     0.004 C 
ENDBRANCH   9  10
ENDBRANCH   8   9
ENDBRANCH   7   8
ENDBRANCH   1   7
TORSDOF 7
ENDMDL
