MODEL 1
REMARK VINA RESULT:    -3.929      0.000      0.000
REMARK INTER + INTRA:          -7.941
REMARK INTER:                  -6.686
REMARK INTRA:                  -1.255
REMARK UNBOUND:                -1.255
REMARK SMILES CCCCCCCCCCCCCC(=O)[O-]
REMARK SMILES IDX 8 1 9 2 10 3 11 4 12 5 13 6 14 7 15 8 16 9 7 10 6 11 5 12
REMARK SMILES IDX 4 13 3 14 2 15 1 16
REMARK H PARENT
REMARK Flexibility Score: inf
ROOT
ATOM      1  C   UNL     1      16.995  43.896  18.808  1.00  0.00     0.000 C 
ENDROOT
BRANCH   1   2
ATOM      2  C   UNL     1      17.451  43.879  20.281  1.00  0.00     0.000 C 
BRANCH   2   3
ATOM      3  C   UNL     1      18.247  45.116  20.735  1.00  0.00     0.000 C 
BRANCH   3   4
ATOM      4  C   UNL     1      17.346  46.284  21.161  1.00  0.00     0.000 C 
BRANCH   4   5
ATOM      5  C   UNL     1      17.813  47.598  20.523  1.00  0.00     0.006 C 
BRANCH   5   6
ATOM      6  C   UNL     1      19.208  47.987  21.023  1.00  0.00     0.053 C 
BRANCH   6   7
ATOM      7  C   UNL     1      19.122  49.145  21.965  1.00  0.00     0.041 C 
ATOM      8  O   UNL     1      18.018  49.462  22.480  1.00  0.00    -0.550 OA
ATOM      9  O   UNL     1      20.252  49.905  22.238  1.00  0.00    -0.550 OA
ENDBRANCH   6   7
ENDBRANCH   5   6
ENDBRANCH   4   5
ENDBRANCH   3   4
ENDBRANCH   2   3
ENDBRANCH   1   2
BRANCH   1  10
ATOM     10  C   UNL     1      15.528  44.308  18.588  1.00  0.00     0.000 C 
BRANCH  10  11
ATOM     11  C   UNL     1      14.555  43.568  19.521  1.00  0.00    -0.000 C 
BRANCH  11  12
ATOM     12  C   UNL     1      13.499  44.498  20.146  1.00  0.00    -0.000 C 
BRANCH  12  13
ATOM     13  C   UNL     1      13.643  45.987  19.781  1.00  0.00    -0.000 C 
BRANCH  13  14
ATOM     14  C   UNL     1      12.471  46.513  18.935  1.00  0.00    -0.000 C 
BRANCH  14  15
ATOM     15  C   UNL     1      12.631  46.188  17.441  1.00  0.00    -0.003 C 
ATOM     16  C   UNL     1      13.672  47.069  16.750  1.00  0.00     0.004 C 
ENDBRANCH  14  15
ENDBRANCH  13  14
ENDBRANCH  12  13
ENDBRANCH  11  12
ENDBRANCH  10  11
ENDBRANCH   1  10
TORSDOF 12
ENDMDL
MODEL 2
REMARK VINA RESULT:    -3.917      3.834      6.638
REMARK INTER + INTRA:          -7.920
REMARK INTER:                  -6.904
REMARK INTRA:                  -1.016
REMARK UNBOUND:                -1.255
REMARK SMILES CCCCCCCCCCCCCC(=O)[O-]
REMARK SMILES IDX 8 1 9 2 10 3 11 4 12 5 13 6 14 7 15 8 16 9 7 10 6 11 5 12
REMARK SMILES IDX 4 13 3 14 2 15 1 16
REMARK H PARENT
REMARK Flexibility Score: inf
ROOT
ATOM      1  C   UNL     1      15.495  45.100  18.007  1.00  0.00     0.000 C 
ENDROOT
BRANCH   1   2
ATOM      2  C   UNL     1      15.272  46.626  18.032  1.00  0.00     0.000 C 
BRANCH   2   3
ATOM      3  C   UNL     1      14.376  47.175  16.907  1.00  0.00     0.000 C 
BRANCH   3   4
ATOM      4  C   UNL     1      13.104  46.342  16.694  1.00  0.00     0.000 C 
BRANCH   4   5
ATOM      5  C   UNL     1      12.110  46.555  17.842  1.00  0.00     0.006 C 
BRANCH   5   6
ATOM      6  C   UNL     1      11.739  45.224  18.502  1.00  0.00     0.053 C 
BRANCH   6   7
ATOM      7  C   UNL     1      10.723  45.439  19.578  1.00  0.00     0.041 C 
ATOM      8  O   UNL     1      10.649  44.640  20.548  1.00  0.00    -0.550 OA
ATOM      9  O   UNL     1       9.825  46.495  19.486  1.00  0.00    -0.550 OA
ENDBRANCH   6   7
ENDBRANCH   5   6
ENDBRANCH   4   5
ENDBRANCH   3   4
ENDBRANCH   2   3
ENDBRANCH   1   2
BRANCH   1  10
ATOM     10  C   UNL     1      16.166  44.522  19.266  1.00  0.00     0.000 C 
BRANCH  10  11
ATOM     11  C   UNL     1      16.036  45.447  20.488  1.00  0.00    -0.000 C 
BRANCH  11  12
ATOM     12  C   UNL     1      17.399  45.887  21.054  1.00  0.00    -0.000 C 
BRANCH  12  13
ATOM     13  C   UNL     1      17.583  47.409  21.204  1.00  0.00    -0.000 C 
BRANCH  13  14
ATOM     14  C   UNL     1      18.040  48.089  19.903  1.00  0.00    -0.000 C 
BRANCH  14  15
ATOM     15  C   UNL     1      19.423  48.747  20.037  1.00  0.00    -0.003 C 
ATOM     16  C   UNL     1      20.413  47.890  20.827  1.00  0.00     0.004 C 
ENDBRANCH  14  15
ENDBRANCH  13  14
ENDBRANCH  12  13
ENDBRANCH  11  12
ENDBRANCH  10  11
ENDBRANCH   1  10
TORSDOF 12
ENDMDL
MODEL 3
REMARK VINA RESULT:    -3.874      1.543      2.479
REMARK INTER + INTRA:          -7.848
REMARK INTER:                  -6.417
REMARK INTRA:                  -1.430
REMARK UNBOUND:                -1.255
REMARK SMILES CCCCCCCCCCCCCC(=O)[O-]
REMARK SMILES IDX 8 1 9 2 10 3 11 4 12 5 13 6 14 7 15 8 16 9 7 10 6 11 5 12
REMARK SMILES IDX 4 13 3 14 2 15 1 16
REMARK H PARENT
REMARK Flexibility Score: inf
ROOT
ATOM      1  C   UNL     1      18.310  43.991  21.242  1.00  0.00     0.000 C 
ENDROOT
BRANCH   1   2
ATOM      2  C   UNL     1      18.578  45.368  20.602  1.00  0.00     0.000 C 
BRANCH   2   3
ATOM      3  C   UNL     1      17.778  46.537  21.206  1.00  0.00     0.000 C 
BRANCH   3   4
ATOM      4  C   UNL     1      18.035  47.871  20.491  1.00  0.00     0.000 C 
BRANCH   4   5
ATOM      5  C   UNL     1      18.151  49.021  21.500  1.00  0.00     0.006 C 
BRANCH   5   6
ATOM      6  C   UNL     1      19.612  49.442  21.686  1.00  0.00     0.053 C 
BRANCH   6   7
ATOM      7  C   UNL     1      20.135  50.082  20.439  1.00  0.00     0.041 C 
ATOM      8  O   UNL     1      21.232  49.708  19.948  1.00  0.00    -0.550 OA
ATOM      9  O   UNL     1      19.435  51.125  19.846  1.00  0.00    -0.550 OA
ENDBRANCH   6   7
ENDBRANCH   5   6
ENDBRANCH   4   5
ENDBRANCH   3   4
ENDBRANCH   2   3
ENDBRANCH   1   2
BRANCH   1  10
ATOM     10  C   UNL     1      17.311  43.104  20.477  1.00  0.00     0.000 C 
BRANCH  10  11
ATOM     11  C   UNL     1      17.404  43.279  18.952  1.00  0.00    -0.000 C 
BRANCH  11  12
ATOM     12  C   UNL     1      16.199  44.034  18.362  1.00  0.00    -0.000 C 
BRANCH  12  13
ATOM     13  C   UNL     1      15.095  44.396  19.373  1.00  0.00    -0.000 C 
BRANCH  13  14
ATOM     14  C   UNL     1      14.661  45.869  19.286  1.00  0.00    -0.000 C 
BRANCH  14  15
ATOM     15  C   UNL     1      15.377  46.627  18.156  1.00  0.00    -0.003 C 
ATOM     16  C   UNL     1      14.414  47.142  17.085  1.00  0.00     0.004 C 
ENDBRANCH  14  15
ENDBRANCH  13  14
ENDBRANCH  12  13
ENDBRANCH  11  12
ENDBRANCH  10  11
ENDBRANCH   1  10
TORSDOF 12
ENDMDL
MODEL 4
REMARK VINA RESULT:    -3.833      1.402      2.189
REMARK INTER + INTRA:          -7.777
REMARK INTER:                  -6.722
REMARK INTRA:                  -1.056
REMARK UNBOUND:                -1.255
REMARK SMILES CCCCCCCCCCCCCC(=O)[O-]
REMARK SMILES IDX 8 1 9 2 10 3 11 4 12 5 13 6 14 7 15 8 16 9 7 10 6 11 5 12
REMARK SMILES IDX 4 13 3 14 2 15 1 16
REMARK H PARENT
REMARK Flexibility Score: inf
ROOT
ATOM      1  C   UNL     1      16.544  43.986  18.343  1.00  0.00     0.000 C 
ENDROOT
BRANCH   1   2
ATOM      2  C   UNL     1      17.616  43.442  19.309  1.00  0.00     0.000 C 
BRANCH   2   3
ATOM      3  C   UNL     1      18.553  44.504  19.912  1.00  0.00     0.000 C 
BRANCH   3   4
ATOM      4  C   UNL     1      18.142  44.929  21.329  1.00  0.00     0.000 C 
BRANCH   4   5
ATOM      5  C   UNL     1      17.394  46.268  21.305  1.00  0.00     0.006 C 
BRANCH   5   6
ATOM      6  C   UNL     1      17.916  47.168  20.182  1.00  0.00     0.053 C 
BRANCH   6   7
ATOM      7  C   UNL     1      18.883  48.173  20.723  1.00  0.00     0.041 C 
ATOM      8  O   UNL     1      20.077  47.845  20.948  1.00  0.00    -0.550 OA
ATOM      9  O   UNL     1      18.454  49.459  21.025  1.00  0.00    -0.550 OA
ENDBRANCH   6   7
ENDBRANCH   5   6
ENDBRANCH   4   5
ENDBRANCH   3   4
ENDBRANCH   2   3
ENDBRANCH   1   2
BRANCH   1  10
ATOM     10  C   UNL     1      15.192  44.322  18.997  1.00  0.00     0.000 C 
BRANCH  10  11
ATOM     11  C   UNL     1      14.636  45.685  18.551  1.00  0.00    -0.000 C 
BRANCH  11  12
ATOM     12  C   UNL     1      13.454  45.559  17.573  1.00  0.00    -0.000 C 
BRANCH  12  13
ATOM     13  C   UNL     1      12.277  46.515  17.845  1.00  0.00    -0.000 C 
BRANCH  13  14
ATOM     14  C   UNL     1      11.675  46.342  19.249  1.00  0.00    -0.000 C 
BRANCH  14  15
ATOM     15  C   UNL     1      10.172  46.659  19.288  1.00  0.00    -0.003 C 
ATOM     16  C   UNL     1       9.837  48.024  18.685  1.00  0.00     0.004 C 
ENDBRANCH  14  15
ENDBRANCH  13  14
ENDBRANCH  12  13
ENDBRANCH  11  12
ENDBRANCH  10  11
ENDBRANCH   1  10
TORSDOF 12
ENDMDL
MODEL 5
REMARK VINA RESULT:    -3.832      3.189      6.307
REMARK INTER + INTRA:          -7.775
REMARK INTER:                  -6.363
REMARK INTRA:                  -1.412
REMARK UNBOUND:                -1.255
REMARK SMILES CCCCCCCCCCCCCC(=O)[O-]
REMARK SMILES IDX 8 1 9 2 10 3 11 4 12 5 13 6 14 7 15 8 16 9 7 10 6 11 5 12
REMARK SMILES IDX 4 13 3 14 2 15 1 16
REMARK H PARENT
REMARK Flexibility Score: inf
ROOT
ATOM      1  C   UNL     1      15.923  44.890  18.301  1.00  0.00     0.000 C 
ENDROOT
BRANCH   1   2
ATOM      2  C   UNL     1      15.232  46.251  18.518  1.00  0.00     0.000 C 
BRANCH   2   3
ATOM      3  C   UNL     1      14.741  46.948  17.236  1.00  0.00     0.000 C 
BRANCH   3   4
ATOM      4  C   UNL     1      13.232  46.785  17.005  1.00  0.00     0.000 C 
BRANCH   4   5
ATOM      5  C   UNL     1      12.494  46.573  18.332  1.00  0.00     0.006 C 
BRANCH   5   6
ATOM      6  C   UNL     1      11.848  45.186  18.387  1.00  0.00     0.053 C 
BRANCH   6   7
ATOM      7  C   UNL     1      11.739  44.715  19.802  1.00  0.00     0.041 C 
ATOM      8  O   UNL     1      12.597  45.065  20.654  1.00  0.00    -0.550 OA
ATOM      9  O   UNL     1      10.717  43.849  20.171  1.00  0.00    -0.550 OA
ENDBRANCH   6   7
ENDBRANCH   5   6
ENDBRANCH   4   5
ENDBRANCH   3   4
ENDBRANCH   2   3
ENDBRANCH   1   2
BRANCH   1  10
ATOM     10  C   UNL     1      15.462  43.769  19.250  1.00  0.00     0.000 C 
BRANCH  10  11
ATOM     11  C   UNL     1      16.625  42.898  19.753  1.00  0.00    -0.000 C 
BRANCH  11  12
ATOM     12  C   UNL     1      18.004  43.533  19.495  1.00  0.00    -0.000 C 
BRANCH  12  13
ATOM     13  C   UNL     1      18.660  44.191  20.724  1.00  0.00    -0.000 C 
BRANCH  13  14
ATOM     14  C   UNL     1      19.500  45.428  20.365  1.00  0.00    -0.000 C 
BRANCH  14  15
ATOM     15  C   UNL     1      18.735  46.743  20.582  1.00  0.00    -0.003 C 
ATOM     16  C   UNL     1      17.438  46.551  21.369  1.00  0.00     0.004 C 
ENDBRANCH  14  15
ENDBRANCH  13  14
ENDBRANCH  12  13
ENDBRANCH  11  12
ENDBRANCH  10  11
ENDBRANCH   1  10
TORSDOF 12
ENDMDL
MODEL 6
REMARK VINA RESULT:    -3.820      2.330      3.903
REMARK INTER + INTRA:          -7.756
REMARK INTER:                  -6.530
REMARK INTRA:                  -1.226
REMARK UNBOUND:                -1.255
REMARK SMILES CCCCCCCCCCCCCC(=O)[O-]
REMARK SMILES IDX 8 1 9 2 10 3 11 4 12 5 13 6 14 7 15 8 16 9 7 10 6 11 5 12
REMARK SMILES IDX 4 13 3 14 2 15 1 16
REMARK H PARENT
REMARK Flexibility Score: inf
ROOT
ATOM      1  C   UNL     1      14.678  45.265  20.610  1.00  0.00     0.000 C 
ENDROOT
BRANCH   1   2
ATOM      2  C   UNL     1      15.381  44.463  19.496  1.00  0.00     0.000 C 
BRANCH   2   3
ATOM      3  C   UNL     1      15.395  42.937  19.696  1.00  0.00     0.000 C 
BRANCH   3   4
ATOM      4  C   UNL     1      16.812  42.366  19.850  1.00  0.00     0.000 C 
BRANCH   4   5
ATOM      5  C   UNL     1      17.862  43.357  19.334  1.00  0.00     0.006 C 
BRANCH   5   6
ATOM      6  C   UNL     1      18.829  43.763  20.449  1.00  0.00     0.053 C 
BRANCH   6   7
ATOM      7  C   UNL     1      19.154  45.220  20.355  1.00  0.00     0.041 C 
ATOM      8  O   UNL     1      20.229  45.597  19.820  1.00  0.00    -0.550 OA
ATOM      9  O   UNL     1      18.291  46.161  20.903  1.00  0.00    -0.550 OA
ENDBRANCH   6   7
ENDBRANCH   5   6
ENDBRANCH   4   5
ENDBRANCH   3   4
ENDBRANCH   2   3
ENDBRANCH   1   2
BRANCH   1  10
ATOM     10  C   UNL     1      13.613  46.261  20.119  1.00  0.00     0.000 C 
BRANCH  10  11
ATOM     11  C   UNL     1      13.238  46.053  18.642  1.00  0.00    -0.000 C 
BRANCH  11  12
ATOM     12  C   UNL     1      11.853  46.626  18.289  1.00  0.00    -0.000 C 
BRANCH  12  13
ATOM     13  C   UNL     1      10.862  46.710  19.465  1.00  0.00    -0.000 C 
BRANCH  13  14
ATOM     14  C   UNL     1       9.872  45.533  19.500  1.00  0.00    -0.000 C 
BRANCH  14  15
ATOM     15  C   UNL     1      10.294  44.438  20.491  1.00  0.00    -0.003 C 
ATOM     16  C   UNL     1      11.000  43.263  19.812  1.00  0.00     0.004 C 
ENDBRANCH  14  15
ENDBRANCH  13  14
ENDBRANCH  12  13
ENDBRANCH  11  12
ENDBRANCH  10  11
ENDBRANCH   1  10
TORSDOF 12
ENDMDL
MODEL 7
REMARK VINA RESULT:    -3.820      2.371      4.948
REMARK INTER + INTRA:          -7.756
REMARK INTER:                  -6.369
REMARK INTRA:                  -1.386
REMARK UNBOUND:                -1.255
REMARK SMILES CCCCCCCCCCCCCC(=O)[O-]
REMARK SMILES IDX 8 1 9 2 10 3 11 4 12 5 13 6 14 7 15 8 16 9 7 10 6 11 5 12
REMARK SMILES IDX 4 13 3 14 2 15 1 16
REMARK H PARENT
REMARK Flexibility Score: inf
ROOT
ATOM      1  C   UNL     1      16.512  43.802  18.848  1.00  0.00     0.000 C 
ENDROOT
BRANCH   1   2
ATOM      2  C   UNL     1      16.038  44.088  20.287  1.00  0.00     0.000 C 
BRANCH   2   3
ATOM      3  C   UNL     1      15.979  45.577  20.674  1.00  0.00     0.000 C 
BRANCH   3   4
ATOM      4  C   UNL     1      17.314  46.108  21.216  1.00  0.00     0.000 C 
BRANCH   4   5
ATOM      5  C   UNL     1      17.887  47.191  20.294  1.00  0.00     0.006 C 
BRANCH   5   6
ATOM      6  C   UNL     1      18.216  48.464  21.080  1.00  0.00     0.053 C 
BRANCH   6   7
ATOM      7  C   UNL     1      19.684  48.546  21.353  1.00  0.00     0.041 C 
ATOM      8  O   UNL     1      20.456  47.638  20.947  1.00  0.00    -0.550 OA
ATOM      9  O   UNL     1      20.195  49.600  22.100  1.00  0.00    -0.550 OA
ENDBRANCH   6   7
ENDBRANCH   5   6
ENDBRANCH   4   5
ENDBRANCH   3   4
ENDBRANCH   2   3
ENDBRANCH   1   2
BRANCH   1  10
ATOM     10  C   UNL     1      17.733  42.872  18.739  1.00  0.00     0.000 C 
BRANCH  10  11
ATOM     11  C   UNL     1      17.564  41.571  19.540  1.00  0.00    -0.000 C 
BRANCH  11  12
ATOM     12  C   UNL     1      18.626  41.403  20.642  1.00  0.00    -0.000 C 
BRANCH  12  13
ATOM     13  C   UNL     1      19.897  42.253  20.459  1.00  0.00    -0.000 C 
BRANCH  13  14
ATOM     14  C   UNL     1      20.104  43.274  21.590  1.00  0.00    -0.000 C 
BRANCH  14  15
ATOM     15  C   UNL     1      19.026  43.172  22.680  1.00  0.00    -0.003 C 
ATOM     16  C   UNL     1      19.583  42.698  24.023  1.00  0.00     0.004 C 
ENDBRANCH  14  15
ENDBRANCH  13  14
ENDBRANCH  12  13
ENDBRANCH  11  12
ENDBRANCH  10  11
ENDBRANCH   1  10
TORSDOF 12
ENDMDL
MODEL 8
REMARK VINA RESULT:    -3.782      3.881      6.514
REMARK INTER + INTRA:          -7.690
REMARK INTER:                  -6.798
REMARK INTRA:                  -0.892
REMARK UNBOUND:                -1.255
REMARK SMILES CCCCCCCCCCCCCC(=O)[O-]
REMARK SMILES IDX 8 1 9 2 10 3 11 4 12 5 13 6 14 7 15 8 16 9 7 10 6 11 5 12
REMARK SMILES IDX 4 13 3 14 2 15 1 16
REMARK H PARENT
REMARK Flexibility Score: inf
ROOT
ATOM      1  C   UNL     1      16.917  43.600  19.158  1.00  0.00     0.000 C 
ENDROOT
BRANCH   1   2
ATOM      2  C   UNL     1      15.722  44.366  18.555  1.00  0.00     0.000 C 
BRANCH   2   3
ATOM      3  C   UNL     1      14.352  44.030  19.168  1.00  0.00     0.000 C 
BRANCH   3   4
ATOM      4  C   UNL     1      14.034  44.863  20.418  1.00  0.00     0.000 C 
BRANCH   4   5
ATOM      5  C   UNL     1      13.043  45.987  20.091  1.00  0.00     0.006 C 
BRANCH   5   6
ATOM      6  C   UNL     1      12.008  45.524  19.063  1.00  0.00     0.053 C 
BRANCH   6   7
ATOM      7  C   UNL     1      10.635  45.547  19.656  1.00  0.00     0.041 C 
ATOM      8  O   UNL     1      10.271  44.637  20.446  1.00  0.00    -0.550 OA
ATOM      9  O   UNL     1       9.739  46.547  19.298  1.00  0.00    -0.550 OA
ENDBRANCH   6   7
ENDBRANCH   5   6
ENDBRANCH   4   5
ENDBRANCH   3   4
ENDBRANCH   2   3
ENDBRANCH   1   2
BRANCH   1  10
ATOM     10  C   UNL     1      18.058  44.489  19.685  1.00  0.00     0.000 C 
BRANCH  10  11
ATOM     11  C   UNL     1      17.650  45.314  20.917  1.00  0.00    -0.000 C 
BRANCH  11  12
ATOM     12  C   UNL     1      17.310  46.776  20.573  1.00  0.00    -0.000 C 
BRANCH  12  13
ATOM     13  C   UNL     1      18.323  47.819  21.082  1.00  0.00    -0.000 C 
BRANCH  13  14
ATOM     14  C   UNL     1      19.644  47.807  20.295  1.00  0.00    -0.000 C 
BRANCH  14  15
ATOM     15  C   UNL     1      20.206  49.219  20.067  1.00  0.00    -0.003 C 
ATOM     16  C   UNL     1      19.500  49.962  18.932  1.00  0.00     0.004 C 
ENDBRANCH  14  15
ENDBRANCH  13  14
ENDBRANCH  12  13
ENDBRANCH  11  12
ENDBRANCH  10  11
ENDBRANCH   1  10
TORSDOF 12
ENDMDL
MODEL 9
REMARK VINA RESULT:    -3.777      1.550      2.204
REMARK INTER + INTRA:          -7.682
REMARK INTER:                  -6.481
REMARK INTRA:                  -1.201
REMARK UNBOUND:                -1.255
REMARK SMILES CCCCCCCCCCCCCC(=O)[O-]
REMARK SMILES IDX 8 1 9 2 10 3 11 4 12 5 13 6 14 7 15 8 16 9 7 10 6 11 5 12
REMARK SMILES IDX 4 13 3 14 2 15 1 16
REMARK H PARENT
REMARK Flexibility Score: inf
ROOT
ATOM      1  C   UNL     1      17.167  42.566  20.659  1.00  0.00     0.000 C 
ENDROOT
BRANCH   1   2
ATOM      2  C   UNL     1      18.337  43.074  21.526  1.00  0.00     0.000 C 
BRANCH   2   3
ATOM      3  C   UNL     1      19.669  43.269  20.780  1.00  0.00     0.000 C 
BRANCH   3   4
ATOM      4  C   UNL     1      20.374  44.583  21.147  1.00  0.00     0.000 C 
BRANCH   4   5
ATOM      5  C   UNL     1      20.052  45.682  20.127  1.00  0.00     0.006 C 
BRANCH   5   6
ATOM      6  C   UNL     1      18.915  46.578  20.626  1.00  0.00     0.053 C 
BRANCH   6   7
ATOM      7  C   UNL     1      19.318  48.017  20.566  1.00  0.00     0.041 C 
ATOM      8  O   UNL     1      20.156  48.475  21.387  1.00  0.00    -0.550 OA
ATOM      9  O   UNL     1      18.732  48.866  19.636  1.00  0.00    -0.550 OA
ENDBRANCH   6   7
ENDBRANCH   5   6
ENDBRANCH   4   5
ENDBRANCH   3   4
ENDBRANCH   2   3
ENDBRANCH   1   2
BRANCH   1  10
ATOM     10  C   UNL     1      17.318  42.827  19.149  1.00  0.00     0.000 C 
BRANCH  10  11
ATOM     11  C   UNL     1      16.743  44.187  18.719  1.00  0.00    -0.000 C 
BRANCH  11  12
ATOM     12  C   UNL     1      15.541  44.626  19.574  1.00  0.00    -0.000 C 
BRANCH  12  13
ATOM     13  C   UNL     1      14.167  44.481  18.892  1.00  0.00    -0.000 C 
BRANCH  13  14
ATOM     14  C   UNL     1      13.371  45.797  18.861  1.00  0.00    -0.000 C 
BRANCH  14  15
ATOM     15  C   UNL     1      12.805  46.109  17.467  1.00  0.00    -0.003 C 
ATOM     16  C   UNL     1      13.698  47.056  16.663  1.00  0.00     0.004 C 
ENDBRANCH  14  15
ENDBRANCH  13  14
ENDBRANCH  12  13
ENDBRANCH  11  12
ENDBRANCH  10  11
ENDBRANCH   1  10
TORSDOF 12
ENDMDL
