MODEL 1
REMARK VINA RESULT:    -3.883      0.000      0.000
REMARK INTER + INTRA:          -5.127
REMARK INTER:                  -5.018
REMARK INTRA:                  -0.108
REMARK UNBOUND:                -0.108
REMARK SMILES CCO[C@@H]1O[C@H](CO)[C@@H](O)[C@@H](O)[C@@H]1O
REMARK SMILES IDX 4 1 13 2 11 3 9 4 6 5 5 6 3 7 2 8 1 9 14 10 12 12 7 14 8 15
REMARK SMILES IDX 10 17
REMARK H PARENT 14 11 12 13 8 16 10 18
REMARK Flexibility Score: inf
ROOT
ATOM      1  C   UNL     1       7.421  31.797  35.030  1.00  0.00     0.281 C 
ATOM      2  C   UNL     1       8.501  32.694  34.393  1.00  0.00     0.202 C 
ATOM      3  C   UNL     1       8.065  33.147  32.999  1.00  0.00     0.179 C 
ATOM      4  C   UNL     1       6.687  33.817  33.085  1.00  0.00     0.177 C 
ATOM      5  C   UNL     1       5.673  32.902  33.814  1.00  0.00     0.178 C 
ATOM      6  O   UNL     1       6.144  32.426  35.073  1.00  0.00    -0.341 OA
ENDROOT
BRANCH   1   7
ATOM      7  O   UNL     1       7.361  30.549  34.362  1.00  0.00    -0.350 OA
BRANCH   7   8
ATOM      8  C   UNL     1       6.624  29.616  35.125  1.00  0.00     0.160 C 
ATOM      9  C   UNL     1       6.613  28.278  34.402  1.00  0.00     0.035 C 
ENDBRANCH   7   8
ENDBRANCH   1   7
BRANCH   2  10
ATOM     10  O   UNL     1       9.715  31.995  34.296  1.00  0.00    -0.385 OA
ATOM     11  H   UNL     1      10.236  32.424  33.569  1.00  0.00     0.211 HD
ENDBRANCH   2  10
BRANCH   3  12
ATOM     12  O   UNL     1       9.011  34.047  32.484  1.00  0.00    -0.387 OA
ATOM     13  H   UNL     1       9.498  34.427  33.262  1.00  0.00     0.211 HD
ENDBRANCH   3  12
BRANCH   5  14
ATOM     14  C   UNL     1       5.117  31.779  32.913  1.00  0.00     0.191 C 
BRANCH  14  15
ATOM     15  O   UNL     1       4.828  32.270  31.632  1.00  0.00    -0.394 OA
ATOM     16  H   UNL     1       5.001  33.247  31.655  1.00  0.00     0.210 HD
ENDBRANCH  14  15
ENDBRANCH   5  14
BRANCH   4  17
ATOM     17  O   UNL     1       6.804  35.038  33.773  1.00  0.00    -0.387 OA
ATOM     18  H   UNL     1       6.977  35.738  33.090  1.00  0.00     0.211 HD
ENDBRANCH   4  17
TORSDOF 7
ENDMDL
MODEL 2
REMARK VINA RESULT:    -3.363      2.106      2.970
REMARK INTER + INTRA:          -4.454
REMARK INTER:                  -4.089
REMARK INTRA:                  -0.365
REMARK UNBOUND:                -0.108
REMARK SMILES CCO[C@@H]1O[C@H](CO)[C@@H](O)[C@@H](O)[C@@H]1O
REMARK SMILES IDX 4 1 13 2 11 3 9 4 6 5 5 6 3 7 2 8 1 9 14 10 12 12 7 14 8 15
REMARK SMILES IDX 10 17
REMARK H PARENT 14 11 12 13 8 16 10 18
REMARK Flexibility Score: inf
ROOT
ATOM      1  C   UNL     1       7.219  32.509  33.541  1.00  0.00     0.281 C 
ATOM      2  C   UNL     1       8.517  32.852  32.784  1.00  0.00     0.202 C 
ATOM      3  C   UNL     1       8.810  34.350  32.878  1.00  0.00     0.179 C 
ATOM      4  C   UNL     1       8.832  34.776  34.352  1.00  0.00     0.177 C 
ATOM      5  C   UNL     1       7.541  34.324  35.076  1.00  0.00     0.178 C 
ATOM      6  O   UNL     1       7.249  32.939  34.899  1.00  0.00    -0.341 OA
ENDROOT
BRANCH   1   7
ATOM      7  O   UNL     1       6.096  33.033  32.855  1.00  0.00    -0.350 OA
BRANCH   7   8
ATOM      8  C   UNL     1       5.210  31.994  32.493  1.00  0.00     0.160 C 
ATOM      9  C   UNL     1       4.308  31.673  33.674  1.00  0.00     0.035 C 
ENDBRANCH   7   8
ENDBRANCH   1   7
BRANCH   2  10
ATOM     10  O   UNL     1       8.401  32.485  31.433  1.00  0.00    -0.385 OA
ATOM     11  H   UNL     1       7.597  32.947  31.079  1.00  0.00     0.211 HD
ENDBRANCH   2  10
BRANCH   3  12
ATOM     12  O   UNL     1      10.049  34.621  32.276  1.00  0.00    -0.387 OA
ATOM     13  H   UNL     1       9.885  34.688  31.299  1.00  0.00     0.211 HD
ENDBRANCH   3  12
BRANCH   5  14
ATOM     14  C   UNL     1       6.333  35.239  34.786  1.00  0.00     0.191 C 
BRANCH  14  15
ATOM     15  O   UNL     1       5.133  34.598  35.125  1.00  0.00    -0.394 OA
ATOM     16  H   UNL     1       5.133  34.498  36.112  1.00  0.00     0.210 HD
ENDBRANCH  14  15
ENDBRANCH   5  14
BRANCH   4  17
ATOM     17  O   UNL     1       9.954  34.213  34.985  1.00  0.00    -0.387 OA
ATOM     18  H   UNL     1      10.191  34.813  35.740  1.00  0.00     0.211 HD
ENDBRANCH   4  17
TORSDOF 7
ENDMDL
MODEL 3
REMARK VINA RESULT:    -3.328      3.411      4.942
REMARK INTER + INTRA:          -4.410
REMARK INTER:                  -3.983
REMARK INTRA:                  -0.427
REMARK UNBOUND:                -0.108
REMARK SMILES CCO[C@@H]1O[C@H](CO)[C@@H](O)[C@@H](O)[C@@H]1O
REMARK SMILES IDX 4 1 13 2 11 3 9 4 6 5 5 6 3 7 2 8 1 9 14 10 12 12 7 14 8 15
REMARK SMILES IDX 10 17
REMARK H PARENT 14 11 12 13 8 16 10 18
REMARK Flexibility Score: inf
ROOT
ATOM      1  C   UNL     1      10.284  34.088  34.918  1.00  0.00     0.281 C 
ATOM      2  C   UNL     1      11.714  33.520  34.838  1.00  0.00     0.202 C 
ATOM      3  C   UNL     1      12.468  34.136  33.658  1.00  0.00     0.179 C 
ATOM      4  C   UNL     1      12.424  35.666  33.764  1.00  0.00     0.177 C 
ATOM      5  C   UNL     1      10.969  36.165  33.932  1.00  0.00     0.178 C 
ATOM      6  O   UNL     1      10.265  35.511  34.986  1.00  0.00    -0.341 OA
ENDROOT
BRANCH   1   7
ATOM      7  O   UNL     1       9.503  33.610  33.837  1.00  0.00    -0.350 OA
BRANCH   7   8
ATOM      8  C   UNL     1       8.362  32.928  34.317  1.00  0.00     0.160 C 
ATOM      9  C   UNL     1       8.161  31.660  33.504  1.00  0.00     0.035 C 
ENDBRANCH   7   8
ENDBRANCH   1   7
BRANCH   2  10
ATOM     10  O   UNL     1      11.673  32.124  34.686  1.00  0.00    -0.385 OA
ATOM     11  H   UNL     1      11.430  31.946  33.740  1.00  0.00     0.211 HD
ENDBRANCH   2  10
BRANCH   3  12
ATOM     12  O   UNL     1      13.799  33.686  33.670  1.00  0.00    -0.387 OA
ATOM     13  H   UNL     1      13.938  33.226  34.539  1.00  0.00     0.211 HD
ENDBRANCH   3  12
BRANCH   5  14
ATOM     14  C   UNL     1      10.183  36.193  32.605  1.00  0.00     0.191 C 
BRANCH  14  15
ATOM     15  O   UNL     1       8.811  36.357  32.845  1.00  0.00    -0.394 OA
ATOM     16  H   UNL     1       8.707  36.488  33.823  1.00  0.00     0.210 HD
ENDBRANCH  14  15
ENDBRANCH   5  14
BRANCH   4  17
ATOM     17  O   UNL     1      13.198  36.081  34.862  1.00  0.00    -0.387 OA
ATOM     18  H   UNL     1      13.894  36.696  34.509  1.00  0.00     0.211 HD
ENDBRANCH   4  17
TORSDOF 7
ENDMDL
MODEL 4
REMARK VINA RESULT:    -3.313      1.745      4.598
REMARK INTER + INTRA:          -4.390
REMARK INTER:                  -3.907
REMARK INTRA:                  -0.483
REMARK UNBOUND:                -0.108
REMARK SMILES CCO[C@@H]1O[C@H](CO)[C@@H](O)[C@@H](O)[C@@H]1O
REMARK SMILES IDX 4 1 13 2 11 3 9 4 6 5 5 6 3 7 2 8 1 9 14 10 12 12 7 14 8 15
REMARK SMILES IDX 10 17
REMARK H PARENT 14 11 12 13 8 16 10 18
REMARK Flexibility Score: inf
ROOT
ATOM      1  C   UNL     1       6.656  33.690  34.984  1.00  0.00     0.281 C 
ATOM      2  C   UNL     1       5.377  32.833  35.049  1.00  0.00     0.202 C 
ATOM      3  C   UNL     1       5.270  31.939  33.813  1.00  0.00     0.179 C 
ATOM      4  C   UNL     1       6.554  31.111  33.667  1.00  0.00     0.177 C 
ATOM      5  C   UNL     1       7.805  32.022  33.699  1.00  0.00     0.178 C 
ATOM      6  O   UNL     1       7.832  32.905  34.819  1.00  0.00    -0.341 OA
ENDROOT
BRANCH   1   7
ATOM      7  O   UNL     1       6.540  34.671  33.968  1.00  0.00    -0.350 OA
BRANCH   7   8
ATOM      8  C   UNL     1       7.003  35.922  34.435  1.00  0.00     0.160 C 
ATOM      9  C   UNL     1       7.394  36.784  33.245  1.00  0.00     0.035 C 
ENDBRANCH   7   8
ENDBRANCH   1   7
BRANCH   2  10
ATOM     10  O   UNL     1       4.244  33.659  35.125  1.00  0.00    -0.385 OA
ATOM     11  H   UNL     1       4.573  34.594  35.175  1.00  0.00     0.211 HD
ENDBRANCH   2  10
BRANCH   3  12
ATOM     12  O   UNL     1       4.158  31.091  33.945  1.00  0.00    -0.387 OA
ATOM     13  H   UNL     1       3.664  31.130  33.085  1.00  0.00     0.211 HD
ENDBRANCH   3  12
BRANCH   5  14
ATOM     14  C   UNL     1       8.064  32.739  32.357  1.00  0.00     0.191 C 
BRANCH  14  15
ATOM     15  O   UNL     1       9.039  33.735  32.508  1.00  0.00    -0.394 OA
ATOM     16  H   UNL     1       9.077  33.951  33.476  1.00  0.00     0.210 HD
ENDBRANCH  14  15
ENDBRANCH   5  14
BRANCH   4  17
ATOM     17  O   UNL     1       6.625  30.171  34.710  1.00  0.00    -0.387 OA
ATOM     18  H   UNL     1       6.238  30.604  35.516  1.00  0.00     0.211 HD
ENDBRANCH   4  17
TORSDOF 7
ENDMDL
MODEL 5
REMARK VINA RESULT:    -3.291     11.389     13.507
REMARK INTER + INTRA:          -4.361
REMARK INTER:                  -4.053
REMARK INTRA:                  -0.308
REMARK UNBOUND:                -0.108
REMARK SMILES CCO[C@@H]1O[C@H](CO)[C@@H](O)[C@@H](O)[C@@H]1O
REMARK SMILES IDX 4 1 13 2 11 3 9 4 6 5 5 6 3 7 2 8 1 9 14 10 12 12 7 14 8 15
REMARK SMILES IDX 10 17
REMARK H PARENT 14 11 12 13 8 16 10 18
REMARK Flexibility Score: inf
ROOT
ATOM      1  C   UNL     1      19.996  37.867  33.197  1.00  0.00     0.281 C 
ATOM      2  C   UNL     1      20.119  36.511  32.475  1.00  0.00     0.202 C 
ATOM      3  C   UNL     1      18.928  35.615  32.815  1.00  0.00     0.179 C 
ATOM      4  C   UNL     1      17.622  36.357  32.501  1.00  0.00     0.177 C 
ATOM      5  C   UNL     1      17.600  37.746  33.183  1.00  0.00     0.178 C 
ATOM      6  O   UNL     1      18.764  38.525  32.916  1.00  0.00    -0.341 OA
ENDROOT
BRANCH   1   7
ATOM      7  O   UNL     1      20.188  37.702  34.591  1.00  0.00    -0.350 OA
BRANCH   7   8
ATOM      8  C   UNL     1      20.896  38.802  35.125  1.00  0.00     0.160 C 
ATOM      9  C   UNL     1      22.217  38.951  34.388  1.00  0.00     0.035 C 
ENDBRANCH   7   8
ENDBRANCH   1   7
BRANCH   2  10
ATOM     10  O   UNL     1      21.309  35.867  32.855  1.00  0.00    -0.385 OA
ATOM     11  H   UNL     1      22.056  36.464  32.588  1.00  0.00     0.211 HD
ENDBRANCH   2  10
BRANCH   3  12
ATOM     12  O   UNL     1      19.006  34.431  32.064  1.00  0.00    -0.387 OA
ATOM     13  H   UNL     1      19.168  33.692  32.708  1.00  0.00     0.211 HD
ENDBRANCH   3  12
BRANCH   5  14
ATOM     14  C   UNL     1      17.249  37.677  34.683  1.00  0.00     0.191 C 
BRANCH  14  15
ATOM     15  O   UNL     1      16.374  36.612  34.939  1.00  0.00    -0.394 OA
ATOM     16  H   UNL     1      15.758  36.556  34.163  1.00  0.00     0.210 HD
ENDBRANCH  14  15
ENDBRANCH   5  14
BRANCH   4  17
ATOM     17  O   UNL     1      17.494  36.508  31.109  1.00  0.00    -0.387 OA
ATOM     18  H   UNL     1      16.617  36.947  30.946  1.00  0.00     0.211 HD
ENDBRANCH   4  17
TORSDOF 7
ENDMDL
MODEL 6
REMARK VINA RESULT:    -3.239      2.080      4.109
REMARK INTER + INTRA:          -4.294
REMARK INTER:                  -3.802
REMARK INTRA:                  -0.491
REMARK UNBOUND:                -0.108
REMARK SMILES CCO[C@@H]1O[C@H](CO)[C@@H](O)[C@@H](O)[C@@H]1O
REMARK SMILES IDX 4 1 13 2 11 3 9 4 6 5 5 6 3 7 2 8 1 9 14 10 12 12 7 14 8 15
REMARK SMILES IDX 10 17
REMARK H PARENT 14 11 12 13 8 16 10 18
REMARK Flexibility Score: inf
ROOT
ATOM      1  C   UNL     1       7.543  34.844  33.634  1.00  0.00     0.281 C 
ATOM      2  C   UNL     1       8.987  34.308  33.684  1.00  0.00     0.202 C 
ATOM      3  C   UNL     1       9.039  32.984  34.449  1.00  0.00     0.179 C 
ATOM      4  C   UNL     1       8.042  31.995  33.830  1.00  0.00     0.177 C 
ATOM      5  C   UNL     1       6.632  32.626  33.726  1.00  0.00     0.178 C 
ATOM      6  O   UNL     1       6.629  33.900  33.084  1.00  0.00    -0.341 OA
ENDROOT
BRANCH   1   7
ATOM      7  O   UNL     1       7.132  35.274  34.920  1.00  0.00    -0.350 OA
BRANCH   7   8
ATOM      8  C   UNL     1       6.408  36.483  34.827  1.00  0.00     0.160 C 
ATOM      9  C   UNL     1       7.016  37.347  33.734  1.00  0.00     0.035 C 
ENDBRANCH   7   8
ENDBRANCH   1   7
BRANCH   2  10
ATOM     10  O   UNL     1       9.828  35.241  34.313  1.00  0.00    -0.385 OA
ATOM     11  H   UNL     1       9.360  36.116  34.282  1.00  0.00     0.211 HD
ENDBRANCH   2  10
BRANCH   3  12
ATOM     12  O   UNL     1      10.341  32.462  34.389  1.00  0.00    -0.387 OA
ATOM     13  H   UNL     1      10.349  31.794  33.654  1.00  0.00     0.211 HD
ENDBRANCH   3  12
BRANCH   5  14
ATOM     14  C   UNL     1       5.868  32.622  35.066  1.00  0.00     0.191 C 
BRANCH  14  15
ATOM     15  O   UNL     1       4.692  33.379  34.968  1.00  0.00    -0.394 OA
ATOM     16  H   UNL     1       3.943  32.732  34.895  1.00  0.00     0.210 HD
ENDBRANCH  14  15
ENDBRANCH   5  14
BRANCH   4  17
ATOM     17  O   UNL     1       8.489  31.619  32.552  1.00  0.00    -0.387 OA
ATOM     18  H   UNL     1       9.384  32.033  32.425  1.00  0.00     0.211 HD
ENDBRANCH   4  17
TORSDOF 7
ENDMDL
MODEL 7
REMARK VINA RESULT:    -3.151     10.072     11.323
REMARK INTER + INTRA:          -4.181
REMARK INTER:                  -3.968
REMARK INTRA:                  -0.213
REMARK UNBOUND:                -0.108
REMARK SMILES CCO[C@@H]1O[C@H](CO)[C@@H](O)[C@@H](O)[C@@H]1O
REMARK SMILES IDX 4 1 13 2 11 3 9 4 6 5 5 6 3 7 2 8 1 9 14 10 12 12 7 14 8 15
REMARK SMILES IDX 10 17
REMARK H PARENT 14 11 12 13 8 16 10 18
REMARK Flexibility Score: inf
ROOT
ATOM      1  C   UNL     1      16.426  36.536  32.676  1.00  0.00     0.281 C 
ATOM      2  C   UNL     1      15.889  37.106  34.003  1.00  0.00     0.202 C 
ATOM      3  C   UNL     1      15.816  38.633  33.938  1.00  0.00     0.179 C 
ATOM      4  C   UNL     1      14.993  39.055  32.714  1.00  0.00     0.177 C 
ATOM      5  C   UNL     1      15.529  38.378  31.429  1.00  0.00     0.178 C 
ATOM      6  O   UNL     1      15.666  36.964  31.550  1.00  0.00    -0.341 OA
ENDROOT
BRANCH   1   7
ATOM      7  O   UNL     1      17.799  36.851  32.525  1.00  0.00    -0.350 OA
BRANCH   7   8
ATOM      8  C   UNL     1      18.506  35.743  32.008  1.00  0.00     0.160 C 
ATOM      9  C   UNL     1      19.910  35.730  32.591  1.00  0.00     0.035 C 
ENDBRANCH   7   8
ENDBRANCH   1   7
BRANCH   2  10
ATOM     10  O   UNL     1      16.724  36.725  35.067  1.00  0.00    -0.385 OA
ATOM     11  H   UNL     1      17.510  36.270  34.666  1.00  0.00     0.211 HD
ENDBRANCH   2  10
BRANCH   3  12
ATOM     12  O   UNL     1      15.224  39.121  35.114  1.00  0.00    -0.387 OA
ATOM     13  H   UNL     1      15.562  40.046  35.242  1.00  0.00     0.211 HD
ENDBRANCH   3  12
BRANCH   5  14
ATOM     14  C   UNL     1      16.792  39.063  30.867  1.00  0.00     0.191 C 
BRANCH  14  15
ATOM     15  O   UNL     1      16.742  39.124  29.468  1.00  0.00    -0.394 OA
ATOM     16  H   UNL     1      17.579  39.567  29.172  1.00  0.00     0.210 HD
ENDBRANCH  14  15
ENDBRANCH   5  14
BRANCH   4  17
ATOM     17  O   UNL     1      13.647  38.700  32.911  1.00  0.00    -0.387 OA
ATOM     18  H   UNL     1      13.516  38.597  33.891  1.00  0.00     0.211 HD
ENDBRANCH   4  17
TORSDOF 7
ENDMDL
MODEL 8
REMARK VINA RESULT:    -3.099      2.070      4.064
REMARK INTER + INTRA:          -4.114
REMARK INTER:                  -3.622
REMARK INTRA:                  -0.491
REMARK UNBOUND:                -0.108
REMARK SMILES CCO[C@@H]1O[C@H](CO)[C@@H](O)[C@@H](O)[C@@H]1O
REMARK SMILES IDX 4 1 13 2 11 3 9 4 6 5 5 6 3 7 2 8 1 9 14 10 12 12 7 14 8 15
REMARK SMILES IDX 10 17
REMARK H PARENT 14 11 12 13 8 16 10 18
REMARK Flexibility Score: inf
ROOT
ATOM      1  C   UNL     1       7.446  33.939  33.680  1.00  0.00     0.281 C 
ATOM      2  C   UNL     1       7.037  35.409  33.892  1.00  0.00     0.202 C 
ATOM      3  C   UNL     1       8.196  36.205  34.495  1.00  0.00     0.179 C 
ATOM      4  C   UNL     1       9.443  36.038  33.616  1.00  0.00     0.177 C 
ATOM      5  C   UNL     1       9.747  34.541  33.368  1.00  0.00     0.178 C 
ATOM      6  O   UNL     1       8.622  33.808  32.887  1.00  0.00    -0.341 OA
ENDROOT
BRANCH   1   7
ATOM      7  O   UNL     1       7.587  33.281  34.927  1.00  0.00    -0.350 OA
BRANCH   7   8
ATOM      8  C   UNL     1       7.104  31.956  34.844  1.00  0.00     0.160 C 
ATOM      9  C   UNL     1       5.775  31.955  34.106  1.00  0.00     0.035 C 
ENDBRANCH   7   8
ENDBRANCH   1   7
BRANCH   2  10
ATOM     10  O   UNL     1       5.926  35.483  34.749  1.00  0.00    -0.385 OA
ATOM     11  H   UNL     1       5.965  34.685  35.338  1.00  0.00     0.211 HD
ENDBRANCH   2  10
BRANCH   3  12
ATOM     12  O   UNL     1       7.837  37.560  34.578  1.00  0.00    -0.387 OA
ATOM     13  H   UNL     1       8.059  37.969  33.700  1.00  0.00     0.211 HD
ENDBRANCH   3  12
BRANCH   5  14
ATOM     14  C   UNL     1      10.447  33.861  34.562  1.00  0.00     0.191 C 
BRANCH  14  15
ATOM     15  O   UNL     1      10.465  32.469  34.399  1.00  0.00    -0.394 OA
ATOM     16  H   UNL     1      10.978  32.286  33.570  1.00  0.00     0.210 HD
ENDBRANCH  14  15
ENDBRANCH   5  14
BRANCH   4  17
ATOM     17  O   UNL     1       9.239  36.692  32.388  1.00  0.00    -0.387 OA
ATOM     18  H   UNL     1       9.957  36.383  31.774  1.00  0.00     0.211 HD
ENDBRANCH   4  17
TORSDOF 7
ENDMDL
MODEL 9
REMARK VINA RESULT:    -3.096      1.508      3.776
REMARK INTER + INTRA:          -4.109
REMARK INTER:                  -3.824
REMARK INTRA:                  -0.285
REMARK UNBOUND:                -0.108
REMARK SMILES CCO[C@@H]1O[C@H](CO)[C@@H](O)[C@@H](O)[C@@H]1O
REMARK SMILES IDX 4 1 13 2 11 3 9 4 6 5 5 6 3 7 2 8 1 9 14 10 12 12 7 14 8 15
REMARK SMILES IDX 10 17
REMARK H PARENT 14 11 12 13 8 16 10 18
REMARK Flexibility Score: inf
ROOT
ATOM      1  C   UNL     1       8.124  31.669  33.580  1.00  0.00     0.281 C 
ATOM      2  C   UNL     1       6.825  30.923  33.940  1.00  0.00     0.202 C 
ATOM      3  C   UNL     1       5.673  31.913  34.123  1.00  0.00     0.179 C 
ATOM      4  C   UNL     1       5.547  32.789  32.870  1.00  0.00     0.177 C 
ATOM      5  C   UNL     1       6.906  33.438  32.511  1.00  0.00     0.178 C 
ATOM      6  O   UNL     1       7.977  32.500  32.432  1.00  0.00    -0.341 OA
ENDROOT
BRANCH   1   7
ATOM      7  O   UNL     1       8.594  32.406  34.695  1.00  0.00    -0.350 OA
BRANCH   7   8
ATOM      8  C   UNL     1      10.005  32.368  34.752  1.00  0.00     0.160 C 
ATOM      9  C   UNL     1      10.541  33.790  34.800  1.00  0.00     0.035 C 
ENDBRANCH   7   8
ENDBRANCH   1   7
BRANCH   2  10
ATOM     10  O   UNL     1       7.000  30.189  35.125  1.00  0.00    -0.385 OA
ATOM     11  H   UNL     1       7.910  30.400  35.461  1.00  0.00     0.211 HD
ENDBRANCH   2  10
BRANCH   3  12
ATOM     12  O   UNL     1       4.481  31.204  34.342  1.00  0.00    -0.387 OA
ATOM     13  H   UNL     1       4.538  30.823  35.257  1.00  0.00     0.211 HD
ENDBRANCH   3  12
BRANCH   5  14
ATOM     14  C   UNL     1       7.239  34.664  33.387  1.00  0.00     0.191 C 
BRANCH  14  15
ATOM     15  O   UNL     1       8.350  35.351  32.875  1.00  0.00    -0.394 OA
ATOM     16  H   UNL     1       9.059  34.673  32.726  1.00  0.00     0.210 HD
ENDBRANCH  14  15
ENDBRANCH   5  14
BRANCH   4  17
ATOM     17  O   UNL     1       5.097  32.004  31.793  1.00  0.00    -0.387 OA
ATOM     18  H   UNL     1       5.837  31.383  31.560  1.00  0.00     0.211 HD
ENDBRANCH   4  17
TORSDOF 7
ENDMDL
