MODEL 1
REMARK VINA RESULT:    -4.204      0.000      0.000
REMARK INTER + INTRA:          -6.253
REMARK INTER:                  -5.678
REMARK INTRA:                  -0.575
REMARK UNBOUND:                -0.575
REMARK SMILES CCCCCCC=CC(=O)[O-]
REMARK SMILES IDX 5 1 6 2 7 3 8 4 9 5 10 6 11 7 4 8 3 9 2 10 1 11
REMARK H PARENT
REMARK Flexibility Score: inf
ROOT
ATOM      1  C   UNL     1       1.506  18.893   8.182  1.00  0.00     0.004 C 
ENDROOT
BRANCH   1   2
ATOM      2  C   UNL     1       1.502  19.595   9.548  1.00  0.00     0.027 C 
BRANCH   2   3
ATOM      3  C   UNL     1       2.884  19.651  10.134  1.00  0.00    -0.025 C 
ATOM      4  C   UNL     1       3.877  18.891   9.656  1.00  0.00     0.020 C 
BRANCH   4   5
ATOM      5  C   UNL     1       5.241  18.941  10.205  1.00  0.00     0.064 C 
ATOM      6  O   UNL     1       5.867  17.885  10.491  1.00  0.00    -0.545 OA
ATOM      7  O   UNL     1       5.850  20.172  10.409  1.00  0.00    -0.545 OA
ENDBRANCH   4   5
ENDBRANCH   2   3
ENDBRANCH   1   2
BRANCH   1   8
ATOM      8  C   UNL     1       0.125  18.337   7.796  1.00  0.00     0.000 C 
BRANCH   8   9
ATOM      9  C   UNL     1      -0.200  17.014   8.510  1.00  0.00    -0.000 C 
BRANCH   9  10
ATOM     10  C   UNL     1       0.996  16.048   8.530  1.00  0.00    -0.003 C 
ATOM     11  C   UNL     1       1.251  15.450   9.914  1.00  0.00     0.004 C 
ENDBRANCH   9  10
ENDBRANCH   8   9
ENDBRANCH   1   8
TORSDOF 6
ENDMDL
MODEL 2
REMARK VINA RESULT:    -4.123      1.489      1.867
REMARK INTER + INTRA:          -6.145
REMARK INTER:                  -5.450
REMARK INTRA:                  -0.694
REMARK UNBOUND:                -0.575
REMARK SMILES CCCCCCC=CC(=O)[O-]
REMARK SMILES IDX 5 1 6 2 7 3 8 4 9 5 10 6 11 7 4 8 3 9 2 10 1 11
REMARK H PARENT
REMARK Flexibility Score: inf
ROOT
ATOM      1  C   UNL     1       1.617  18.842   7.884  1.00  0.00     0.004 C 
ENDROOT
BRANCH   1   2
ATOM      2  C   UNL     1       2.228  19.136   9.262  1.00  0.00     0.027 C 
BRANCH   2   3
ATOM      3  C   UNL     1       3.552  18.446   9.426  1.00  0.00    -0.025 C 
ATOM      4  C   UNL     1       3.991  17.553   8.530  1.00  0.00     0.020 C 
BRANCH   4   5
ATOM      5  C   UNL     1       5.290  16.876   8.664  1.00  0.00     0.064 C 
ATOM      6  O   UNL     1       5.871  16.795   9.779  1.00  0.00    -0.545 OA
ATOM      7  O   UNL     1       5.886  16.316   7.541  1.00  0.00    -0.545 OA
ENDBRANCH   4   5
ENDBRANCH   2   3
ENDBRANCH   1   2
BRANCH   1   8
ATOM      8  C   UNL     1       0.125  18.474   7.963  1.00  0.00     0.000 C 
BRANCH   8   9
ATOM      9  C   UNL     1      -0.145  17.311   8.933  1.00  0.00    -0.000 C 
BRANCH   9  10
ATOM     10  C   UNL     1       0.611  16.031   8.541  1.00  0.00    -0.003 C 
ATOM     11  C   UNL     1       1.197  15.296   9.747  1.00  0.00     0.004 C 
ENDBRANCH   9  10
ENDBRANCH   8   9
ENDBRANCH   1   8
TORSDOF 6
ENDMDL
MODEL 3
REMARK VINA RESULT:    -4.117      1.995      3.384
REMARK INTER + INTRA:          -6.136
REMARK INTER:                  -5.456
REMARK INTRA:                  -0.680
REMARK UNBOUND:                -0.575
REMARK SMILES CCCCCCC=CC(=O)[O-]
REMARK SMILES IDX 5 1 6 2 7 3 8 4 9 5 10 6 11 7 4 8 3 9 2 10 1 11
REMARK H PARENT
REMARK Flexibility Score: inf
ROOT
ATOM      1  C   UNL     1       0.771  16.018   8.510  1.00  0.00     0.004 C 
ENDROOT
BRANCH   1   2
ATOM      2  C   UNL     1       1.414  15.448   9.784  1.00  0.00     0.027 C 
BRANCH   2   3
ATOM      3  C   UNL     1       2.907  15.612   9.758  1.00  0.00    -0.025 C 
ATOM      4  C   UNL     1       3.563  15.864   8.619  1.00  0.00     0.020 C 
BRANCH   4   5
ATOM      5  C   UNL     1       5.023  16.043   8.573  1.00  0.00     0.064 C 
ATOM      6  O   UNL     1       5.583  16.570   7.575  1.00  0.00    -0.545 OA
ATOM      7  O   UNL     1       5.795  15.623   9.648  1.00  0.00    -0.545 OA
ENDBRANCH   4   5
ENDBRANCH   2   3
ENDBRANCH   1   2
BRANCH   1   8
ATOM      8  C   UNL     1      -0.133  17.230   8.794  1.00  0.00     0.000 C 
BRANCH   8   9
ATOM      9  C   UNL     1       0.206  18.440   7.907  1.00  0.00    -0.000 C 
BRANCH   9  10
ATOM     10  C   UNL     1       1.683  18.853   8.014  1.00  0.00    -0.003 C 
ATOM     11  C   UNL     1       2.035  19.446   9.378  1.00  0.00     0.004 C 
ENDBRANCH   9  10
ENDBRANCH   8   9
ENDBRANCH   1   8
TORSDOF 6
ENDMDL
MODEL 4
REMARK VINA RESULT:    -4.068     17.515     18.135
REMARK INTER + INTRA:          -6.070
REMARK INTER:                  -5.370
REMARK INTRA:                  -0.699
REMARK UNBOUND:                -0.575
REMARK SMILES CCCCCCC=CC(=O)[O-]
REMARK SMILES IDX 5 1 6 2 7 3 8 4 9 5 10 6 11 7 4 8 3 9 2 10 1 11
REMARK H PARENT
REMARK Flexibility Score: inf
ROOT
ATOM      1  C   UNL     1      -2.319   6.970  -4.697  1.00  0.00     0.004 C 
ENDROOT
BRANCH   1   2
ATOM      2  C   UNL     1      -1.136   7.950  -4.680  1.00  0.00     0.027 C 
BRANCH   2   3
ATOM      3  C   UNL     1       0.159   7.243  -4.962  1.00  0.00    -0.025 C 
ATOM      4  C   UNL     1       1.196   7.322  -4.120  1.00  0.00     0.020 C 
BRANCH   4   5
ATOM      5  C   UNL     1       2.468   6.626  -4.369  1.00  0.00     0.064 C 
ATOM      6  O   UNL     1       3.570   7.232  -4.283  1.00  0.00    -0.545 OA
ATOM      7  O   UNL     1       2.454   5.279  -4.705  1.00  0.00    -0.545 OA
ENDBRANCH   4   5
ENDBRANCH   2   3
ENDBRANCH   1   2
BRANCH   1   8
ATOM      8  C   UNL     1      -2.035   5.685  -3.900  1.00  0.00     0.000 C 
BRANCH   8   9
ATOM      9  C   UNL     1      -2.065   5.915  -2.380  1.00  0.00    -0.000 C 
BRANCH   9  10
ATOM     10  C   UNL     1      -0.993   5.098  -1.640  1.00  0.00    -0.003 C 
ATOM     11  C   UNL     1      -0.215   4.164  -2.567  1.00  0.00     0.004 C 
ENDBRANCH   9  10
ENDBRANCH   8   9
ENDBRANCH   1   8
TORSDOF 6
ENDMDL
MODEL 5
REMARK VINA RESULT:    -4.065      2.447      4.206
REMARK INTER + INTRA:          -6.065
REMARK INTER:                  -5.560
REMARK INTRA:                  -0.506
REMARK UNBOUND:                -0.575
REMARK SMILES CCCCCCC=CC(=O)[O-]
REMARK SMILES IDX 5 1 6 2 7 3 8 4 9 5 10 6 11 7 4 8 3 9 2 10 1 11
REMARK H PARENT
REMARK Flexibility Score: inf
ROOT
ATOM      1  C   UNL     1       0.158  18.519   8.144  1.00  0.00     0.004 C 
ENDROOT
BRANCH   1   2
ATOM      2  C   UNL     1      -0.106  17.008   8.062  1.00  0.00     0.027 C 
BRANCH   2   3
ATOM      3  C   UNL     1       0.435  16.297   9.270  1.00  0.00    -0.025 C 
ATOM      4  C   UNL     1       1.547  15.555   9.204  1.00  0.00     0.020 C 
BRANCH   4   5
ATOM      5  C   UNL     1       2.103  14.862  10.377  1.00  0.00     0.064 C 
ATOM      6  O   UNL     1       3.224  14.289  10.324  1.00  0.00    -0.545 OA
ATOM      7  O   UNL     1       1.381  14.841  11.563  1.00  0.00    -0.545 OA
ENDBRANCH   4   5
ENDBRANCH   2   3
ENDBRANCH   1   2
BRANCH   1   8
ATOM      8  C   UNL     1       1.659  18.857   8.169  1.00  0.00     0.000 C 
BRANCH   8   9
ATOM      9  C   UNL     1       2.062  19.660   9.418  1.00  0.00    -0.000 C 
BRANCH   9  10
ATOM     10  C   UNL     1       2.984  18.864  10.356  1.00  0.00    -0.003 C 
ATOM     11  C   UNL     1       4.346  18.561   9.731  1.00  0.00     0.004 C 
ENDBRANCH   9  10
ENDBRANCH   8   9
ENDBRANCH   1   8
TORSDOF 6
ENDMDL
MODEL 6
REMARK VINA RESULT:    -4.004      2.779      3.488
REMARK INTER + INTRA:          -5.983
REMARK INTER:                  -5.227
REMARK INTRA:                  -0.756
REMARK UNBOUND:                -0.575
REMARK SMILES CCCCCCC=CC(=O)[O-]
REMARK SMILES IDX 5 1 6 2 7 3 8 4 9 5 10 6 11 7 4 8 3 9 2 10 1 11
REMARK H PARENT
REMARK Flexibility Score: inf
ROOT
ATOM      1  C   UNL     1       2.038  19.625   9.328  1.00  0.00     0.004 C 
ENDROOT
BRANCH   1   2
ATOM      2  C   UNL     1       3.242  19.114  10.135  1.00  0.00     0.027 C 
BRANCH   2   3
ATOM      3  C   UNL     1       2.849  17.976  11.032  1.00  0.00    -0.025 C 
ATOM      4  C   UNL     1       1.773  18.049  11.825  1.00  0.00     0.020 C 
BRANCH   4   5
ATOM      5  C   UNL     1       1.362  16.940  12.701  1.00  0.00     0.064 C 
ATOM      6  O   UNL     1       0.763  17.157  13.788  1.00  0.00    -0.545 OA
ATOM      7  O   UNL     1       1.639  15.633  12.322  1.00  0.00    -0.545 OA
ENDBRANCH   4   5
ENDBRANCH   2   3
ENDBRANCH   1   2
BRANCH   1   8
ATOM      8  C   UNL     1       1.754  18.769   8.082  1.00  0.00     0.000 C 
BRANCH   8   9
ATOM      9  C   UNL     1       0.266  18.405   7.943  1.00  0.00    -0.000 C 
BRANCH   9  10
ATOM     10  C   UNL     1      -0.097  17.115   8.697  1.00  0.00    -0.003 C 
ATOM     11  C   UNL     1       0.986  16.041   8.589  1.00  0.00     0.004 C 
ENDBRANCH   9  10
ENDBRANCH   8   9
ENDBRANCH   1   8
TORSDOF 6
ENDMDL
MODEL 7
REMARK VINA RESULT:    -3.933     17.097     17.810
REMARK INTER + INTRA:          -5.888
REMARK INTER:                  -5.202
REMARK INTRA:                  -0.686
REMARK UNBOUND:                -0.575
REMARK SMILES CCCCCCC=CC(=O)[O-]
REMARK SMILES IDX 5 1 6 2 7 3 8 4 9 5 10 6 11 7 4 8 3 9 2 10 1 11
REMARK H PARENT
REMARK Flexibility Score: inf
ROOT
ATOM      1  C   UNL     1      -1.971   5.857  -2.519  1.00  0.00     0.004 C 
ENDROOT
BRANCH   1   2
ATOM      2  C   UNL     1      -0.837   4.965  -1.991  1.00  0.00     0.027 C 
BRANCH   2   3
ATOM      3  C   UNL     1       0.475   5.696  -1.997  1.00  0.00    -0.025 C 
ATOM      4  C   UNL     1       1.593   5.122  -2.459  1.00  0.00     0.020 C 
BRANCH   4   5
ATOM      5  C   UNL     1       2.885   5.824  -2.489  1.00  0.00     0.064 C 
ATOM      6  O   UNL     1       3.700   5.729  -1.532  1.00  0.00    -0.545 OA
ATOM      7  O   UNL     1       3.213   6.604  -3.589  1.00  0.00    -0.545 OA
ENDBRANCH   4   5
ENDBRANCH   2   3
ENDBRANCH   1   2
BRANCH   1   8
ATOM      8  C   UNL     1      -2.069   5.844  -4.054  1.00  0.00     0.000 C 
BRANCH   8   9
ATOM      9  C   UNL     1      -2.178   7.258  -4.650  1.00  0.00    -0.000 C 
BRANCH   9  10
ATOM     10  C   UNL     1      -0.813   7.958  -4.757  1.00  0.00    -0.003 C 
ATOM     11  C   UNL     1       0.214   7.137  -5.538  1.00  0.00     0.004 C 
ENDBRANCH   9  10
ENDBRANCH   8   9
ENDBRANCH   1   8
TORSDOF 6
ENDMDL
MODEL 8
REMARK VINA RESULT:    -3.922     14.019     15.382
REMARK INTER + INTRA:          -5.873
REMARK INTER:                  -5.435
REMARK INTRA:                  -0.437
REMARK UNBOUND:                -0.575
REMARK SMILES CCCCCCC=CC(=O)[O-]
REMARK SMILES IDX 5 1 6 2 7 3 8 4 9 5 10 6 11 7 4 8 3 9 2 10 1 11
REMARK H PARENT
REMARK Flexibility Score: inf
ROOT
ATOM      1  C   UNL     1       0.689   1.567  11.777  1.00  0.00     0.004 C 
ENDROOT
BRANCH   1   2
ATOM      2  C   UNL     1       2.096   2.058  12.147  1.00  0.00     0.027 C 
BRANCH   2   3
ATOM      3  C   UNL     1       2.936   2.270  10.921  1.00  0.00    -0.025 C 
ATOM      4  C   UNL     1       3.465   3.466  10.634  1.00  0.00     0.020 C 
BRANCH   4   5
ATOM      5  C   UNL     1       4.304   3.693   9.446  1.00  0.00     0.064 C 
ATOM      6  O   UNL     1       3.905   3.367   8.296  1.00  0.00    -0.545 OA
ATOM      7  O   UNL     1       5.555   4.276   9.596  1.00  0.00    -0.545 OA
ENDBRANCH   4   5
ENDBRANCH   2   3
ENDBRANCH   1   2
BRANCH   1   8
ATOM      8  C   UNL     1      -0.414   2.550  12.205  1.00  0.00     0.000 C 
BRANCH   8   9
ATOM      9  C   UNL     1       0.153   3.866  12.765  1.00  0.00    -0.000 C 
BRANCH   9  10
ATOM     10  C   UNL     1      -0.671   5.091  12.336  1.00  0.00    -0.003 C 
ATOM     11  C   UNL     1      -1.934   4.714  11.561  1.00  0.00     0.004 C 
ENDBRANCH   9  10
ENDBRANCH   8   9
ENDBRANCH   1   8
TORSDOF 6
ENDMDL
MODEL 9
REMARK VINA RESULT:    -3.919     17.718     18.448
REMARK INTER + INTRA:          -5.868
REMARK INTER:                  -5.118
REMARK INTRA:                  -0.751
REMARK UNBOUND:                -0.575
REMARK SMILES CCCCCCC=CC(=O)[O-]
REMARK SMILES IDX 5 1 6 2 7 3 8 4 9 5 10 6 11 7 4 8 3 9 2 10 1 11
REMARK H PARENT
REMARK Flexibility Score: inf
ROOT
ATOM      1  C   UNL     1      -2.109   5.755  -3.949  1.00  0.00     0.004 C 
ENDROOT
BRANCH   1   2
ATOM      2  C   UNL     1      -1.968   5.822  -2.421  1.00  0.00     0.027 C 
BRANCH   2   3
ATOM      3  C   UNL     1      -0.662   5.233  -1.971  1.00  0.00    -0.025 C 
ATOM      4  C   UNL     1      -0.054   4.265  -2.668  1.00  0.00     0.020 C 
BRANCH   4   5
ATOM      5  C   UNL     1       1.233   3.684  -2.254  1.00  0.00     0.064 C 
ATOM      6  O   UNL     1       1.398   2.436  -2.205  1.00  0.00    -0.545 OA
ATOM      7  O   UNL     1       2.283   4.526  -1.911  1.00  0.00    -0.545 OA
ENDBRANCH   4   5
ENDBRANCH   2   3
ENDBRANCH   1   2
BRANCH   1   8
ATOM      8  C   UNL     1      -2.422   7.124  -4.576  1.00  0.00     0.000 C 
BRANCH   8   9
ATOM      9  C   UNL     1      -1.169   8.002  -4.732  1.00  0.00    -0.000 C 
BRANCH   9  10
ATOM     10  C   UNL     1       0.027   7.224  -5.303  1.00  0.00    -0.003 C 
ATOM     11  C   UNL     1       1.271   7.316  -4.420  1.00  0.00     0.004 C 
ENDBRANCH   9  10
ENDBRANCH   8   9
ENDBRANCH   1   8
TORSDOF 6
ENDMDL
