MODEL 1
REMARK VINA RESULT:    -6.014      0.000      0.000
REMARK INTER + INTRA:          -6.014
REMARK INTER:                  -6.014
REMARK INTRA:                   0.000
REMARK UNBOUND:                 0.000
REMARK SMILES C=C1CCC[C@@]2(C)CC(=O)C(=C(C)C)C[C@H]12
REMARK SMILES IDX 13 1 12 2 11 3 15 4 16 5 2 6 1 7 3 8 4 9 5 10 6 11 8 12 9 13
REMARK SMILES IDX 10 14 7 15 14 16
REMARK H PARENT
REMARK Flexibility Score: inf
ROOT
ATOM      1  C   UNL     1     -18.224  12.776 -31.550  1.00  0.00     0.039 C 
ATOM      2  C   UNL     1     -17.252  13.262 -30.498  1.00  0.00    -0.070 C 
ATOM      3  C   UNL     1     -16.090  13.897 -30.831  1.00  0.00    -0.006 C 
ATOM      4  C   UNL     1     -15.093  14.327 -29.762  1.00  0.00     0.047 C 
ATOM      5  C   UNL     1     -13.629  14.318 -30.270  1.00  0.00     0.025 C 
ATOM      6  C   UNL     1     -12.587  14.780 -29.251  1.00  0.00    -0.073 C 
ATOM      7  C   UNL     1     -12.880  15.182 -28.000  1.00  0.00     0.008 C 
ATOM      8  C   UNL     1     -11.145  14.725 -29.701  1.00  0.00     0.031 C 
ATOM      9  C   UNL     1     -10.970  15.475 -31.024  1.00  0.00     0.005 C 
ATOM     10  C   UNL     1     -11.979  14.999 -32.084  1.00  0.00     0.008 C 
ATOM     11  C   UNL     1     -13.459  15.104 -31.609  1.00  0.00    -0.018 C 
ATOM     12  C   UNL     1     -14.359  14.447 -32.685  1.00  0.00     0.088 C 
ATOM     13  C   UNL     1     -15.784  14.318 -32.230  1.00  0.00     0.159 C 
ATOM     14  O   UNL     1     -16.704  14.584 -33.049  1.00  0.00    -0.295 OA
ATOM     15  C   UNL     1     -13.852  16.599 -31.455  1.00  0.00     0.012 C 
ATOM     16  C   UNL     1     -17.607  12.980 -29.056  1.00  0.00     0.039 C 
ENDROOT
TORSDOF 0
ENDMDL
MODEL 2
REMARK VINA RESULT:    -5.640      1.494      4.653
REMARK INTER + INTRA:          -5.640
REMARK INTER:                  -5.640
REMARK INTRA:                   0.000
REMARK UNBOUND:                 0.000
REMARK SMILES C=C1CCC[C@@]2(C)CC(=O)C(=C(C)C)C[C@H]12
REMARK SMILES IDX 13 1 12 2 11 3 15 4 16 5 2 6 1 7 3 8 4 9 5 10 6 11 8 12 9 13
REMARK SMILES IDX 10 14 7 15 14 16
REMARK H PARENT
REMARK Flexibility Score: inf
ROOT
ATOM      1  C   UNL     1     -12.357  16.149 -32.657  1.00  0.00     0.039 C 
ATOM      2  C   UNL     1     -12.430  15.382 -31.356  1.00  0.00    -0.070 C 
ATOM      3  C   UNL     1     -13.562  14.723 -30.971  1.00  0.00    -0.006 C 
ATOM      4  C   UNL     1     -13.639  14.006 -29.629  1.00  0.00     0.047 C 
ATOM      5  C   UNL     1     -15.073  13.983 -29.043  1.00  0.00     0.025 C 
ATOM      6  C   UNL     1     -15.218  13.241 -27.714  1.00  0.00    -0.073 C 
ATOM      7  C   UNL     1     -14.203  12.630 -27.075  1.00  0.00     0.008 C 
ATOM      8  C   UNL     1     -16.595  13.254 -27.091  1.00  0.00     0.031 C 
ATOM      9  C   UNL     1     -17.641  12.764 -28.095  1.00  0.00     0.005 C 
ATOM     10  C   UNL     1     -17.547  13.525 -29.430  1.00  0.00     0.008 C 
ATOM     11  C   UNL     1     -16.127  13.461 -30.070  1.00  0.00    -0.018 C 
ATOM     12  C   UNL     1     -16.114  14.394 -31.307  1.00  0.00     0.088 C 
ATOM     13  C   UNL     1     -14.736  14.558 -31.878  1.00  0.00     0.159 C 
ATOM     14  O   UNL     1     -14.597  14.540 -33.131  1.00  0.00    -0.295 OA
ATOM     15  C   UNL     1     -15.824  12.006 -30.521  1.00  0.00     0.012 C 
ATOM     16  C   UNL     1     -11.199  15.408 -30.477  1.00  0.00     0.039 C 
ENDROOT
TORSDOF 0
ENDMDL
MODEL 3
REMARK VINA RESULT:    -5.637      1.485      1.996
REMARK INTER + INTRA:          -5.637
REMARK INTER:                  -5.637
REMARK INTRA:                   0.000
REMARK UNBOUND:                 0.000
REMARK SMILES C=C1CCC[C@@]2(C)CC(=O)C(=C(C)C)C[C@H]12
REMARK SMILES IDX 13 1 12 2 11 3 15 4 16 5 2 6 1 7 3 8 4 9 5 10 6 11 8 12 9 13
REMARK SMILES IDX 10 14 7 15 14 16
REMARK H PARENT
REMARK Flexibility Score: inf
ROOT
ATOM      1  C   UNL     1     -18.032  11.551 -28.382  1.00  0.00     0.039 C 
ATOM      2  C   UNL     1     -16.843  12.349 -27.895  1.00  0.00    -0.070 C 
ATOM      3  C   UNL     1     -16.103  13.126 -28.740  1.00  0.00    -0.006 C 
ATOM      4  C   UNL     1     -14.873  13.875 -28.246  1.00  0.00     0.047 C 
ATOM      5  C   UNL     1     -13.797  14.054 -29.348  1.00  0.00     0.025 C 
ATOM      6  C   UNL     1     -12.555  14.835 -28.920  1.00  0.00    -0.073 C 
ATOM      7  C   UNL     1     -12.375  15.355 -27.691  1.00  0.00     0.008 C 
ATOM      8  C   UNL     1     -11.464  14.973 -29.957  1.00  0.00     0.031 C 
ATOM      9  C   UNL     1     -12.034  15.543 -31.258  1.00  0.00     0.005 C 
ATOM     10  C   UNL     1     -13.262  14.748 -31.737  1.00  0.00     0.008 C 
ATOM     11  C   UNL     1     -14.387  14.656 -30.662  1.00  0.00    -0.018 C 
ATOM     12  C   UNL     1     -15.484  13.701 -31.194  1.00  0.00     0.088 C 
ATOM     13  C   UNL     1     -16.517  13.387 -30.150  1.00  0.00     0.159 C 
ATOM     14  O   UNL     1     -17.730  13.365 -30.491  1.00  0.00    -0.295 OA
ATOM     15  C   UNL     1     -15.000  16.064 -30.429  1.00  0.00     0.012 C 
ATOM     16  C   UNL     1     -16.486  12.219 -26.432  1.00  0.00     0.039 C 
ENDROOT
TORSDOF 0
ENDMDL
MODEL 4
REMARK VINA RESULT:    -5.557      2.079      5.614
REMARK INTER + INTRA:          -5.557
REMARK INTER:                  -5.557
REMARK INTRA:                   0.000
REMARK UNBOUND:                 0.000
REMARK SMILES C=C1CCC[C@@]2(C)CC(=O)C(=C(C)C)C[C@H]12
REMARK SMILES IDX 13 1 12 2 11 3 15 4 16 5 2 6 1 7 3 8 4 9 5 10 6 11 8 12 9 13
REMARK SMILES IDX 10 14 7 15 14 16
REMARK H PARENT
REMARK Flexibility Score: inf
ROOT
ATOM      1  C   UNL     1     -11.364  15.164 -29.995  1.00  0.00     0.039 C 
ATOM      2  C   UNL     1     -12.559  14.613 -30.741  1.00  0.00    -0.070 C 
ATOM      3  C   UNL     1     -13.689  14.207 -30.091  1.00  0.00    -0.006 C 
ATOM      4  C   UNL     1     -14.860  13.600 -30.851  1.00  0.00     0.047 C 
ATOM      5  C   UNL     1     -15.655  12.572 -30.006  1.00  0.00     0.025 C 
ATOM      6  C   UNL     1     -16.868  11.958 -30.706  1.00  0.00    -0.073 C 
ATOM      7  C   UNL     1     -17.257  12.268 -31.957  1.00  0.00     0.008 C 
ATOM      8  C   UNL     1     -17.627  10.909 -29.926  1.00  0.00     0.031 C 
ATOM      9  C   UNL     1     -18.019  11.448 -28.548  1.00  0.00     0.005 C 
ATOM     10  C   UNL     1     -16.807  12.034 -27.802  1.00  0.00     0.008 C 
ATOM     11  C   UNL     1     -16.068  13.141 -28.612  1.00  0.00    -0.018 C 
ATOM     12  C   UNL     1     -14.784  13.529 -27.838  1.00  0.00     0.088 C 
ATOM     13  C   UNL     1     -13.898  14.444 -28.632  1.00  0.00     0.159 C 
ATOM     14  O   UNL     1     -13.352  15.416 -28.043  1.00  0.00    -0.295 OA
ATOM     15  C   UNL     1     -16.984  14.389 -28.745  1.00  0.00     0.012 C 
ATOM     16  C   UNL     1     -12.433  14.497 -32.243  1.00  0.00     0.039 C 
ENDROOT
TORSDOF 0
ENDMDL
MODEL 5
REMARK VINA RESULT:    -5.361      2.831      5.540
REMARK INTER + INTRA:          -5.361
REMARK INTER:                  -5.361
REMARK INTRA:                   0.000
REMARK UNBOUND:                 0.000
REMARK SMILES C=C1CCC[C@@]2(C)CC(=O)C(=C(C)C)C[C@H]12
REMARK SMILES IDX 13 1 12 2 11 3 15 4 16 5 2 6 1 7 3 8 4 9 5 10 6 11 8 12 9 13
REMARK SMILES IDX 10 14 7 15 14 16
REMARK H PARENT
REMARK Flexibility Score: inf
ROOT
ATOM      1  C   UNL     1     -13.217  11.907 -25.669  1.00  0.00     0.039 C 
ATOM      2  C   UNL     1     -13.428  12.863 -26.822  1.00  0.00    -0.070 C 
ATOM      3  C   UNL     1     -14.563  12.836 -27.580  1.00  0.00    -0.006 C 
ATOM      4  C   UNL     1     -14.734  13.765 -28.775  1.00  0.00     0.047 C 
ATOM      5  C   UNL     1     -15.618  13.150 -29.891  1.00  0.00     0.025 C 
ATOM      6  C   UNL     1     -15.857  14.055 -31.100  1.00  0.00    -0.073 C 
ATOM      7  C   UNL     1     -15.365  15.302 -31.220  1.00  0.00     0.008 C 
ATOM      8  C   UNL     1     -16.666  13.458 -32.229  1.00  0.00     0.031 C 
ATOM      9  C   UNL     1     -17.993  12.906 -31.701  1.00  0.00     0.005 C 
ATOM     10  C   UNL     1     -17.779  11.956 -30.509  1.00  0.00     0.008 C 
ATOM     11  C   UNL     1     -16.977  12.610 -29.343  1.00  0.00    -0.018 C 
ATOM     12  C   UNL     1     -16.684  11.516 -28.286  1.00  0.00     0.088 C 
ATOM     13  C   UNL     1     -15.744  11.997 -27.219  1.00  0.00     0.159 C 
ATOM     14  O   UNL     1     -15.984  11.688 -26.021  1.00  0.00    -0.295 OA
ATOM     15  C   UNL     1     -17.827  13.737 -28.694  1.00  0.00     0.012 C 
ATOM     16  C   UNL     1     -12.305  13.829 -27.123  1.00  0.00     0.039 C 
ENDROOT
TORSDOF 0
ENDMDL
MODEL 6
REMARK VINA RESULT:    -5.344      1.672      5.100
REMARK INTER + INTRA:          -5.344
REMARK INTER:                  -5.344
REMARK INTRA:                   0.000
REMARK UNBOUND:                 0.000
REMARK SMILES C=C1CCC[C@@]2(C)CC(=O)C(=C(C)C)C[C@H]12
REMARK SMILES IDX 13 1 12 2 11 3 15 4 16 5 2 6 1 7 3 8 4 9 5 10 6 11 8 12 9 13
REMARK SMILES IDX 10 14 7 15 14 16
REMARK H PARENT
REMARK Flexibility Score: inf
ROOT
ATOM      1  C   UNL     1     -11.380  15.175 -30.076  1.00  0.00     0.039 C 
ATOM      2  C   UNL     1     -12.485  14.796 -29.115  1.00  0.00    -0.070 C 
ATOM      3  C   UNL     1     -13.642  14.210 -29.543  1.00  0.00    -0.006 C 
ATOM      4  C   UNL     1     -14.769  13.890 -28.570  1.00  0.00     0.047 C 
ATOM      5  C   UNL     1     -16.168  13.954 -29.232  1.00  0.00     0.025 C 
ATOM      6  C   UNL     1     -17.337  13.601 -28.312  1.00  0.00    -0.073 C 
ATOM      7  C   UNL     1     -17.202  13.246 -27.020  1.00  0.00     0.008 C 
ATOM      8  C   UNL     1     -18.718  13.714 -28.916  1.00  0.00     0.031 C 
ATOM      9  C   UNL     1     -18.799  12.910 -30.216  1.00  0.00     0.005 C 
ATOM     10  C   UNL     1     -17.658  13.276 -31.181  1.00  0.00     0.008 C 
ATOM     11  C   UNL     1     -16.244  13.113 -30.546  1.00  0.00    -0.018 C 
ATOM     12  C   UNL     1     -15.199  13.666 -31.546  1.00  0.00     0.088 C 
ATOM     13  C   UNL     1     -13.824  13.739 -30.947  1.00  0.00     0.159 C 
ATOM     14  O   UNL     1     -12.841  13.382 -31.650  1.00  0.00    -0.295 OA
ATOM     15  C   UNL     1     -15.961  11.608 -30.286  1.00  0.00     0.012 C 
ATOM     16  C   UNL     1     -12.266  15.129 -27.656  1.00  0.00     0.039 C 
ENDROOT
TORSDOF 0
ENDMDL
MODEL 7
REMARK VINA RESULT:    -5.268      1.967      3.616
REMARK INTER + INTRA:          -5.268
REMARK INTER:                  -5.268
REMARK INTRA:                   0.000
REMARK UNBOUND:                 0.000
REMARK SMILES C=C1CCC[C@@]2(C)CC(=O)C(=C(C)C)C[C@H]12
REMARK SMILES IDX 13 1 12 2 11 3 15 4 16 5 2 6 1 7 3 8 4 9 5 10 6 11 8 12 9 13
REMARK SMILES IDX 10 14 7 15 14 16
REMARK H PARENT
REMARK Flexibility Score: inf
ROOT
ATOM      1  C   UNL     1     -18.246  12.750 -31.547  1.00  0.00     0.039 C 
ATOM      2  C   UNL     1     -16.836  13.297 -31.540  1.00  0.00    -0.070 C 
ATOM      3  C   UNL     1     -16.018  13.165 -30.455  1.00  0.00    -0.006 C 
ATOM      4  C   UNL     1     -14.622  13.774 -30.442  1.00  0.00     0.047 C 
ATOM      5  C   UNL     1     -14.161  14.187 -29.020  1.00  0.00     0.025 C 
ATOM      6  C   UNL     1     -12.749  14.768 -28.941  1.00  0.00    -0.073 C 
ATOM      7  C   UNL     1     -11.932  14.917 -30.000  1.00  0.00     0.008 C 
ATOM      8  C   UNL     1     -12.297  15.233 -27.575  1.00  0.00     0.031 C 
ATOM      9  C   UNL     1     -12.476  14.116 -26.545  1.00  0.00     0.005 C 
ATOM     10  C   UNL     1     -13.903  13.540 -26.573  1.00  0.00     0.008 C 
ATOM     11  C   UNL     1     -14.328  13.032 -27.983  1.00  0.00    -0.018 C 
ATOM     12  C   UNL     1     -15.825  12.636 -27.921  1.00  0.00     0.088 C 
ATOM     13  C   UNL     1     -16.384  12.322 -29.279  1.00  0.00     0.159 C 
ATOM     14  O   UNL     1     -17.152  11.330 -29.399  1.00  0.00    -0.295 OA
ATOM     15  C   UNL     1     -13.483  11.786 -28.364  1.00  0.00     0.012 C 
ATOM     16  C   UNL     1     -16.382  14.033 -32.781  1.00  0.00     0.039 C 
ENDROOT
TORSDOF 0
ENDMDL
MODEL 8
REMARK VINA RESULT:    -5.234      2.475      4.014
REMARK INTER + INTRA:          -5.234
REMARK INTER:                  -5.234
REMARK INTRA:                   0.000
REMARK UNBOUND:                 0.000
REMARK SMILES C=C1CCC[C@@]2(C)CC(=O)C(=C(C)C)C[C@H]12
REMARK SMILES IDX 13 1 12 2 11 3 15 4 16 5 2 6 1 7 3 8 4 9 5 10 6 11 8 12 9 13
REMARK SMILES IDX 10 14 7 15 14 16
REMARK H PARENT
REMARK Flexibility Score: inf
ROOT
ATOM      1  C   UNL     1     -17.407  13.016 -31.937  1.00  0.00     0.039 C 
ATOM      2  C   UNL     1     -16.170  13.672 -31.365  1.00  0.00    -0.070 C 
ATOM      3  C   UNL     1     -15.487  13.129 -30.315  1.00  0.00    -0.006 C 
ATOM      4  C   UNL     1     -14.279  13.834 -29.712  1.00  0.00     0.047 C 
ATOM      5  C   UNL     1     -14.106  13.540 -28.200  1.00  0.00     0.025 C 
ATOM      6  C   UNL     1     -12.885  14.190 -27.549  1.00  0.00    -0.073 C 
ATOM      7  C   UNL     1     -11.996  14.957 -28.208  1.00  0.00     0.008 C 
ATOM      8  C   UNL     1     -12.725  13.969 -26.063  1.00  0.00     0.031 C 
ATOM      9  C   UNL     1     -12.775  12.474 -25.737  1.00  0.00     0.005 C 
ATOM     10  C   UNL     1     -14.019  11.802 -26.344  1.00  0.00     0.008 C 
ATOM     11  C   UNL     1     -14.137  12.012 -27.884  1.00  0.00    -0.018 C 
ATOM     12  C   UNL     1     -15.500  11.439 -28.345  1.00  0.00     0.088 C 
ATOM     13  C   UNL     1     -15.798  11.771 -29.779  1.00  0.00     0.159 C 
ATOM     14  O   UNL     1     -16.299  10.877 -30.512  1.00  0.00    -0.295 OA
ATOM     15  C   UNL     1     -12.990  11.249 -28.603  1.00  0.00     0.012 C 
ATOM     16  C   UNL     1     -15.742  14.982 -31.987  1.00  0.00     0.039 C 
ENDROOT
TORSDOF 0
ENDMDL
MODEL 9
REMARK VINA RESULT:    -5.203      1.775      2.418
REMARK INTER + INTRA:          -5.203
REMARK INTER:                  -5.203
REMARK INTRA:                   0.000
REMARK UNBOUND:                 0.000
REMARK SMILES C=C1CCC[C@@]2(C)CC(=O)C(=C(C)C)C[C@H]12
REMARK SMILES IDX 13 1 12 2 11 3 15 4 16 5 2 6 1 7 3 8 4 9 5 10 6 11 8 12 9 13
REMARK SMILES IDX 10 14 7 15 14 16
REMARK H PARENT
REMARK Flexibility Score: inf
ROOT
ATOM      1  C   UNL     1     -18.547  13.203 -29.507  1.00  0.00     0.039 C 
ATOM      2  C   UNL     1     -17.184  12.582 -29.717  1.00  0.00    -0.070 C 
ATOM      3  C   UNL     1     -16.065  13.344 -29.899  1.00  0.00    -0.006 C 
ATOM      4  C   UNL     1     -14.711  12.702 -30.169  1.00  0.00     0.047 C 
ATOM      5  C   UNL     1     -13.791  13.591 -31.044  1.00  0.00     0.025 C 
ATOM      6  C   UNL     1     -12.401  13.014 -31.316  1.00  0.00    -0.073 C 
ATOM      7  C   UNL     1     -11.966  11.832 -30.839  1.00  0.00     0.008 C 
ATOM      8  C   UNL     1     -11.504  13.833 -32.216  1.00  0.00     0.031 C 
ATOM      9  C   UNL     1     -11.397  15.270 -31.698  1.00  0.00     0.005 C 
ATOM     10  C   UNL     1     -12.784  15.891 -31.457  1.00  0.00     0.008 C 
ATOM     11  C   UNL     1     -13.673  15.047 -30.494  1.00  0.00    -0.018 C 
ATOM     12  C   UNL     1     -15.086  15.680 -30.464  1.00  0.00     0.088 C 
ATOM     13  C   UNL     1     -16.073  14.826 -29.722  1.00  0.00     0.159 C 
ATOM     14  O   UNL     1     -16.890  15.387 -28.944  1.00  0.00    -0.295 OA
ATOM     15  C   UNL     1     -13.066  15.078 -29.065  1.00  0.00     0.012 C 
ATOM     16  C   UNL     1     -17.120  11.072 -29.754  1.00  0.00     0.039 C 
ENDROOT
TORSDOF 0
ENDMDL
