MODEL 1
REMARK VINA RESULT:    -4.514      0.000      0.000
REMARK INTER + INTRA:          -6.551
REMARK INTER:                  -6.361
REMARK INTRA:                  -0.190
REMARK UNBOUND:                -0.190
REMARK SMILES CCCCCCCCC(=O)[O-]
REMARK SMILES IDX 6 1 7 2 8 3 9 4 10 5 11 6 5 7 4 8 3 9 2 10 1 11
REMARK H PARENT
REMARK Flexibility Score: inf
ROOT
ATOM      1  C   UNL     1      42.914  11.911 -35.043  1.00  0.00     0.000 C 
ENDROOT
BRANCH   1   2
ATOM      2  C   UNL     1      42.244  12.714 -36.168  1.00  0.00     0.006 C 
BRANCH   2   3
ATOM      3  C   UNL     1      40.732  12.860 -35.955  1.00  0.00     0.053 C 
BRANCH   3   4
ATOM      4  C   UNL     1      40.329  14.296 -35.814  1.00  0.00     0.041 C 
ATOM      5  O   UNL     1      39.136  14.597 -35.546  1.00  0.00    -0.550 OA
ATOM      6  O   UNL     1      41.264  15.304 -36.012  1.00  0.00    -0.550 OA
ENDBRANCH   3   4
ENDBRANCH   2   3
ENDBRANCH   1   2
BRANCH   1   7
ATOM      7  C   UNL     1      44.281  12.505 -34.684  1.00  0.00     0.000 C 
BRANCH   7   8
ATOM      8  C   UNL     1      44.451  12.615 -33.164  1.00  0.00    -0.000 C 
BRANCH   8   9
ATOM      9  C   UNL     1      45.902  12.944 -32.795  1.00  0.00    -0.000 C 
BRANCH   9  10
ATOM     10  C   UNL     1      46.386  12.071 -31.631  1.00  0.00    -0.003 C 
ATOM     11  C   UNL     1      45.956  12.654 -30.288  1.00  0.00     0.004 C 
ENDBRANCH   9  10
ENDBRANCH   8   9
ENDBRANCH   7   8
ENDBRANCH   1   7
TORSDOF 7
ENDMDL
MODEL 2
REMARK VINA RESULT:    -3.734      3.585      6.273
REMARK INTER + INTRA:          -5.452
REMARK INTER:                  -5.178
REMARK INTRA:                  -0.274
REMARK UNBOUND:                -0.190
REMARK SMILES CCCCCCCCC(=O)[O-]
REMARK SMILES IDX 6 1 7 2 8 3 9 4 10 5 11 6 5 7 4 8 3 9 2 10 1 11
REMARK H PARENT
REMARK Flexibility Score: inf
ROOT
ATOM      1  C   UNL     1      44.269  12.285 -33.711  1.00  0.00     0.000 C 
ENDROOT
BRANCH   1   2
ATOM      2  C   UNL     1      45.387  13.002 -32.940  1.00  0.00     0.006 C 
BRANCH   2   3
ATOM      3  C   UNL     1      46.125  12.062 -31.979  1.00  0.00     0.053 C 
BRANCH   3   4
ATOM      4  C   UNL     1      46.073  12.561 -30.567  1.00  0.00     0.041 C 
ATOM      5  O   UNL     1      45.447  13.617 -30.290  1.00  0.00    -0.550 OA
ATOM      6  O   UNL     1      46.744  11.875 -29.562  1.00  0.00    -0.550 OA
ENDBRANCH   3   4
ENDBRANCH   2   3
ENDBRANCH   1   2
BRANCH   1   7
ATOM      7  C   UNL     1      44.564  12.268 -35.216  1.00  0.00     0.000 C 
BRANCH   7   8
ATOM      8  C   UNL     1      43.305  11.919 -36.019  1.00  0.00    -0.000 C 
BRANCH   8   9
ATOM      9  C   UNL     1      42.043  12.429 -35.314  1.00  0.00    -0.000 C 
BRANCH   9  10
ATOM     10  C   UNL     1      41.341  13.506 -36.150  1.00  0.00    -0.003 C 
ATOM     11  C   UNL     1      39.871  13.634 -35.764  1.00  0.00     0.004 C 
ENDBRANCH   9  10
ENDBRANCH   8   9
ENDBRANCH   7   8
ENDBRANCH   1   7
TORSDOF 7
ENDMDL
MODEL 3
REMARK VINA RESULT:    -3.655     19.725     20.578
REMARK INTER + INTRA:          -5.340
REMARK INTER:                  -4.715
REMARK INTRA:                  -0.625
REMARK UNBOUND:                -0.190
REMARK SMILES CCCCCCCCC(=O)[O-]
REMARK SMILES IDX 6 1 7 2 8 3 9 4 10 5 11 6 5 7 4 8 3 9 2 10 1 11
REMARK H PARENT
REMARK Flexibility Score: inf
ROOT
ATOM      1  C   UNL     1      55.738  27.819 -35.633  1.00  0.00     0.000 C 
ENDROOT
BRANCH   1   2
ATOM      2  C   UNL     1      56.558  29.008 -36.156  1.00  0.00     0.006 C 
BRANCH   2   3
ATOM      3  C   UNL     1      55.693  30.253 -36.390  1.00  0.00     0.053 C 
BRANCH   3   4
ATOM      4  C   UNL     1      54.940  30.170 -37.682  1.00  0.00     0.041 C 
ATOM      5  O   UNL     1      53.883  30.835 -37.845  1.00  0.00    -0.550 OA
ATOM      6  O   UNL     1      55.388  29.332 -38.696  1.00  0.00    -0.550 OA
ENDBRANCH   3   4
ENDBRANCH   2   3
ENDBRANCH   1   2
BRANCH   1   7
ATOM      7  C   UNL     1      56.582  26.933 -34.710  1.00  0.00     0.000 C 
BRANCH   7   8
ATOM      8  C   UNL     1      57.098  27.729 -33.504  1.00  0.00    -0.000 C 
BRANCH   8   9
ATOM      9  C   UNL     1      55.988  27.936 -32.467  1.00  0.00    -0.000 C 
BRANCH   9  10
ATOM     10  C   UNL     1      56.155  29.277 -31.742  1.00  0.00    -0.003 C 
ATOM     11  C   UNL     1      55.766  30.444 -32.644  1.00  0.00     0.004 C 
ENDBRANCH   9  10
ENDBRANCH   8   9
ENDBRANCH   7   8
ENDBRANCH   1   7
TORSDOF 7
ENDMDL
MODEL 4
REMARK VINA RESULT:    -3.448     19.372     20.746
REMARK INTER + INTRA:          -5.049
REMARK INTER:                  -4.544
REMARK INTRA:                  -0.505
REMARK UNBOUND:                -0.190
REMARK SMILES CCCCCCCCC(=O)[O-]
REMARK SMILES IDX 6 1 7 2 8 3 9 4 10 5 11 6 5 7 4 8 3 9 2 10 1 11
REMARK H PARENT
REMARK Flexibility Score: inf
ROOT
ATOM      1  C   UNL     1      57.114  30.392 -34.818  1.00  0.00     0.000 C 
ENDROOT
BRANCH   1   2
ATOM      2  C   UNL     1      56.001  30.917 -35.738  1.00  0.00     0.006 C 
BRANCH   2   3
ATOM      3  C   UNL     1      55.586  29.886 -36.794  1.00  0.00     0.053 C 
BRANCH   3   4
ATOM      4  C   UNL     1      54.787  30.512 -37.897  1.00  0.00     0.041 C 
ATOM      5  O   UNL     1      55.088  30.295 -39.100  1.00  0.00    -0.550 OA
ATOM      6  O   UNL     1      53.730  31.361 -37.594  1.00  0.00    -0.550 OA
ENDBRANCH   3   4
ENDBRANCH   2   3
ENDBRANCH   1   2
BRANCH   1   7
ATOM      7  C   UNL     1      56.529  29.803 -33.529  1.00  0.00     0.000 C 
BRANCH   7   8
ATOM      8  C   UNL     1      56.831  28.304 -33.423  1.00  0.00    -0.000 C 
BRANCH   8   9
ATOM      9  C   UNL     1      55.669  27.468 -33.971  1.00  0.00    -0.000 C 
BRANCH   9  10
ATOM     10  C   UNL     1      56.129  26.579 -35.133  1.00  0.00    -0.003 C 
ATOM     11  C   UNL     1      55.030  25.611 -35.557  1.00  0.00     0.004 C 
ENDBRANCH   9  10
ENDBRANCH   8   9
ENDBRANCH   7   8
ENDBRANCH   1   7
TORSDOF 7
ENDMDL
MODEL 5
REMARK VINA RESULT:    -3.388     19.745     21.050
REMARK INTER + INTRA:          -4.965
REMARK INTER:                  -4.626
REMARK INTRA:                  -0.339
REMARK UNBOUND:                -0.190
REMARK SMILES CCCCCCCCC(=O)[O-]
REMARK SMILES IDX 6 1 7 2 8 3 9 4 10 5 11 6 5 7 4 8 3 9 2 10 1 11
REMARK H PARENT
REMARK Flexibility Score: inf
ROOT
ATOM      1  C   UNL     1      55.913  27.484 -33.854  1.00  0.00     0.000 C 
ENDROOT
BRANCH   1   2
ATOM      2  C   UNL     1      55.965  28.294 -32.550  1.00  0.00     0.006 C 
BRANCH   2   3
ATOM      3  C   UNL     1      56.092  29.801 -32.805  1.00  0.00     0.053 C 
BRANCH   3   4
ATOM      4  C   UNL     1      55.427  30.603 -31.729  1.00  0.00     0.041 C 
ATOM      5  O   UNL     1      54.426  31.318 -31.997  1.00  0.00    -0.550 OA
ATOM      6  O   UNL     1      55.935  30.588 -30.436  1.00  0.00    -0.550 OA
ENDBRANCH   3   4
ENDBRANCH   2   3
ENDBRANCH   1   2
BRANCH   1   7
ATOM      7  C   UNL     1      56.537  28.270 -35.013  1.00  0.00     0.000 C 
BRANCH   7   8
ATOM      8  C   UNL     1      55.620  28.259 -36.242  1.00  0.00    -0.000 C 
BRANCH   8   9
ATOM      9  C   UNL     1      55.559  29.644 -36.896  1.00  0.00    -0.000 C 
BRANCH   9  10
ATOM     10  C   UNL     1      54.766  29.600 -38.207  1.00  0.00    -0.003 C 
ATOM     11  C   UNL     1      54.386  28.169 -38.575  1.00  0.00     0.004 C 
ENDBRANCH   9  10
ENDBRANCH   8   9
ENDBRANCH   7   8
ENDBRANCH   1   7
TORSDOF 7
ENDMDL
MODEL 6
REMARK VINA RESULT:    -3.348     19.262     20.694
REMARK INTER + INTRA:          -4.907
REMARK INTER:                  -4.370
REMARK INTRA:                  -0.537
REMARK UNBOUND:                -0.190
REMARK SMILES CCCCCCCCC(=O)[O-]
REMARK SMILES IDX 6 1 7 2 8 3 9 4 10 5 11 6 5 7 4 8 3 9 2 10 1 11
REMARK H PARENT
REMARK Flexibility Score: inf
ROOT
ATOM      1  C   UNL     1      56.378  30.522 -34.480  1.00  0.00     0.000 C 
ENDROOT
BRANCH   1   2
ATOM      2  C   UNL     1      56.944  29.367 -35.319  1.00  0.00     0.006 C 
BRANCH   2   3
ATOM      3  C   UNL     1      55.857  28.376 -35.751  1.00  0.00     0.053 C 
BRANCH   3   4
ATOM      4  C   UNL     1      56.116  27.000 -35.216  1.00  0.00     0.041 C 
ATOM      5  O   UNL     1      57.125  26.780 -34.496  1.00  0.00    -0.550 OA
ATOM      6  O   UNL     1      55.261  25.955 -35.541  1.00  0.00    -0.550 OA
ENDBRANCH   3   4
ENDBRANCH   2   3
ENDBRANCH   1   2
BRANCH   1   7
ATOM      7  C   UNL     1      56.861  30.435 -33.028  1.00  0.00     0.000 C 
BRANCH   7   8
ATOM      8  C   UNL     1      55.735  29.960 -32.101  1.00  0.00    -0.000 C 
BRANCH   8   9
ATOM      9  C   UNL     1      55.939  28.498 -31.691  1.00  0.00    -0.000 C 
BRANCH   9  10
ATOM     10  C   UNL     1      56.910  28.388 -30.509  1.00  0.00    -0.003 C 
ATOM     11  C   UNL     1      56.527  29.349 -29.389  1.00  0.00     0.004 C 
ENDBRANCH   9  10
ENDBRANCH   8   9
ENDBRANCH   7   8
ENDBRANCH   1   7
TORSDOF 7
ENDMDL
MODEL 7
REMARK VINA RESULT:    -3.223     19.445     21.082
REMARK INTER + INTRA:          -4.731
REMARK INTER:                  -4.362
REMARK INTRA:                  -0.370
REMARK UNBOUND:                -0.190
REMARK SMILES CCCCCCCCC(=O)[O-]
REMARK SMILES IDX 6 1 7 2 8 3 9 4 10 5 11 6 5 7 4 8 3 9 2 10 1 11
REMARK H PARENT
REMARK Flexibility Score: inf
ROOT
ATOM      1  C   UNL     1      55.953  28.782 -31.407  1.00  0.00     0.000 C 
ENDROOT
BRANCH   1   2
ATOM      2  C   UNL     1      56.647  30.073 -30.945  1.00  0.00     0.006 C 
BRANCH   2   3
ATOM      3  C   UNL     1      55.671  31.250 -30.836  1.00  0.00     0.053 C 
BRANCH   3   4
ATOM      4  C   UNL     1      55.115  31.636 -32.173  1.00  0.00     0.041 C 
ATOM      5  O   UNL     1      55.883  31.785 -33.160  1.00  0.00    -0.550 OA
ATOM      6  O   UNL     1      53.753  31.862 -32.321  1.00  0.00    -0.550 OA
ENDBRANCH   3   4
ENDBRANCH   2   3
ENDBRANCH   1   2
BRANCH   1   7
ATOM      7  C   UNL     1      56.901  27.919 -32.247  1.00  0.00     0.000 C 
BRANCH   7   8
ATOM      8  C   UNL     1      56.899  28.366 -33.714  1.00  0.00    -0.000 C 
BRANCH   8   9
ATOM      9  C   UNL     1      56.856  27.159 -34.657  1.00  0.00    -0.000 C 
BRANCH   9  10
ATOM     10  C   UNL     1      55.530  27.107 -35.425  1.00  0.00    -0.003 C 
ATOM     11  C   UNL     1      55.146  25.670 -35.767  1.00  0.00     0.004 C 
ENDBRANCH   9  10
ENDBRANCH   8   9
ENDBRANCH   7   8
ENDBRANCH   1   7
TORSDOF 7
ENDMDL
MODEL 8
REMARK VINA RESULT:    -3.099     19.656     20.840
REMARK INTER + INTRA:          -4.556
REMARK INTER:                  -4.223
REMARK INTRA:                  -0.334
REMARK UNBOUND:                -0.190
REMARK SMILES CCCCCCCCC(=O)[O-]
REMARK SMILES IDX 6 1 7 2 8 3 9 4 10 5 11 6 5 7 4 8 3 9 2 10 1 11
REMARK H PARENT
REMARK Flexibility Score: inf
ROOT
ATOM      1  C   UNL     1      56.600  29.513 -34.972  1.00  0.00     0.000 C 
ENDROOT
BRANCH   1   2
ATOM      2  C   UNL     1      56.405  29.485 -36.495  1.00  0.00     0.006 C 
BRANCH   2   3
ATOM      3  C   UNL     1      55.234  28.588 -36.915  1.00  0.00     0.053 C 
BRANCH   3   4
ATOM      4  C   UNL     1      54.832  28.831 -38.338  1.00  0.00     0.041 C 
ATOM      5  O   UNL     1      55.168  29.896 -38.919  1.00  0.00    -0.550 OA
ATOM      6  O   UNL     1      54.059  27.894 -39.011  1.00  0.00    -0.550 OA
ENDBRANCH   3   4
ENDBRANCH   2   3
ENDBRANCH   1   2
BRANCH   1   7
ATOM      7  C   UNL     1      56.032  30.804 -34.369  1.00  0.00     0.000 C 
BRANCH   7   8
ATOM      8  C   UNL     1      56.454  30.958 -32.903  1.00  0.00    -0.000 C 
BRANCH   8   9
ATOM      9  C   UNL     1      55.362  30.443 -31.959  1.00  0.00    -0.000 C 
BRANCH   9  10
ATOM     10  C   UNL     1      55.916  29.379 -31.003  1.00  0.00    -0.003 C 
ATOM     11  C   UNL     1      55.942  28.004 -31.664  1.00  0.00     0.004 C 
ENDBRANCH   9  10
ENDBRANCH   8   9
ENDBRANCH   7   8
ENDBRANCH   1   7
TORSDOF 7
ENDMDL
