MODEL 1
REMARK VINA RESULT:    -3.802      0.000      0.000
REMARK INTER + INTRA:          -5.007
REMARK INTER:                  -4.691
REMARK INTRA:                  -0.317
REMARK UNBOUND:                -0.317
REMARK SMILES C=CCc1ccc(OC)c(OC)c1
REMARK SMILES IDX 7 1 10 2 13 3 4 4 5 5 6 6 8 7 9 8 11 9 12 10 3 11 2 12 1 13
REMARK H PARENT
REMARK Flexibility Score: inf
ROOT
ATOM      1  C   UNL     1       9.917 -31.802  15.197  1.00  0.00     0.160 A 
ATOM      2  C   UNL     1       9.086 -31.858  16.328  1.00  0.00     0.160 A 
ATOM      3  C   UNL     1       7.776 -32.361  16.206  1.00  0.00     0.054 A 
ATOM      4  C   UNL     1       7.294 -32.802  14.965  1.00  0.00    -0.040 A 
ATOM      5  C   UNL     1       8.133 -32.754  13.844  1.00  0.00     0.008 A 
ATOM      6  C   UNL     1       9.431 -32.255  13.955  1.00  0.00     0.051 A 
ENDROOT
BRANCH   1   7
ATOM      7  O   UNL     1      11.217 -31.294  15.348  1.00  0.00    -0.493 OA
ATOM      8  C   UNL     1      12.164 -31.172  14.291  1.00  0.00     0.278 C 
ENDBRANCH   1   7
BRANCH   2   9
ATOM      9  O   UNL     1       9.600 -31.405  17.554  1.00  0.00    -0.493 OA
ATOM     10  C   UNL     1       8.928 -31.524  18.804  1.00  0.00     0.278 C 
ENDBRANCH   2   9
BRANCH   4  11
ATOM     11  C   UNL     1       5.904 -33.370  14.845  1.00  0.00     0.062 C 
BRANCH  11  12
ATOM     12  C   UNL     1       5.953 -34.830  14.492  1.00  0.00    -0.030 C 
ATOM     13  C   UNL     1       6.439 -35.742  15.340  1.00  0.00     0.004 C 
ENDBRANCH  11  12
ENDBRANCH   4  11
TORSDOF 4
ENDMDL
MODEL 2
REMARK VINA RESULT:    -3.592      1.020      2.989
REMARK INTER + INTRA:          -4.748
REMARK INTER:                  -4.432
REMARK INTRA:                  -0.316
REMARK UNBOUND:                -0.317
REMARK SMILES C=CCc1ccc(OC)c(OC)c1
REMARK SMILES IDX 7 1 10 2 13 3 4 4 5 5 6 6 8 7 9 8 11 9 12 10 3 11 2 12 1 13
REMARK H PARENT
REMARK Flexibility Score: inf
ROOT
ATOM      1  C   UNL     1       8.971 -31.862  16.486  1.00  0.00     0.160 A 
ATOM      2  C   UNL     1       9.654 -31.866  15.259  1.00  0.00     0.160 A 
ATOM      3  C   UNL     1       8.981 -32.265  14.087  1.00  0.00     0.054 A 
ATOM      4  C   UNL     1       7.637 -32.663  14.137  1.00  0.00    -0.040 A 
ATOM      5  C   UNL     1       6.959 -32.646  15.363  1.00  0.00     0.008 A 
ATOM      6  C   UNL     1       7.619 -32.254  16.529  1.00  0.00     0.051 A 
ENDROOT
BRANCH   1   7
ATOM      7  O   UNL     1       9.667 -31.462  17.637  1.00  0.00    -0.493 OA
ATOM      8  C   UNL     1       9.087 -31.347  18.932  1.00  0.00     0.278 C 
ENDBRANCH   1   7
BRANCH   2   9
ATOM      9  O   UNL     1      11.000 -31.465  15.245  1.00  0.00    -0.493 OA
ATOM     10  C   UNL     1      11.823 -31.441  14.084  1.00  0.00     0.278 C 
ENDBRANCH   2   9
BRANCH   4  11
ATOM     11  C   UNL     1       6.911 -33.058  12.878  1.00  0.00     0.062 C 
BRANCH  11  12
ATOM     12  C   UNL     1       6.531 -34.512  12.915  1.00  0.00    -0.030 C 
ATOM     13  C   UNL     1       7.452 -35.480  12.875  1.00  0.00     0.004 C 
ENDBRANCH  11  12
ENDBRANCH   4  11
TORSDOF 4
ENDMDL
MODEL 3
REMARK VINA RESULT:    -3.337      1.692      4.631
REMARK INTER + INTRA:          -4.434
REMARK INTER:                  -4.204
REMARK INTRA:                  -0.230
REMARK UNBOUND:                -0.317
REMARK SMILES C=CCc1ccc(OC)c(OC)c1
REMARK SMILES IDX 7 1 10 2 13 3 4 4 5 5 6 6 8 7 9 8 11 9 12 10 3 11 2 12 1 13
REMARK H PARENT
REMARK Flexibility Score: inf
ROOT
ATOM      1  C   UNL     1       8.267 -33.896  15.397  1.00  0.00     0.160 A 
ATOM      2  C   UNL     1       8.679 -32.738  16.076  1.00  0.00     0.160 A 
ATOM      3  C   UNL     1       9.667 -31.910  15.508  1.00  0.00     0.054 A 
ATOM      4  C   UNL     1      10.246 -32.235  14.273  1.00  0.00    -0.040 A 
ATOM      5  C   UNL     1       9.822 -33.386  13.596  1.00  0.00     0.008 A 
ATOM      6  C   UNL     1       8.845 -34.213  14.152  1.00  0.00     0.051 A 
ENDROOT
BRANCH   1   7
ATOM      7  O   UNL     1       7.282 -34.703  15.988  1.00  0.00    -0.493 OA
ATOM      8  C   UNL     1       6.986 -36.038  15.590  1.00  0.00     0.278 C 
ENDBRANCH   1   7
BRANCH   2   9
ATOM      9  O   UNL     1       8.080 -32.444  17.312  1.00  0.00    -0.493 OA
ATOM     10  C   UNL     1       8.750 -31.829  18.408  1.00  0.00     0.278 C 
ENDBRANCH   2   9
BRANCH   4  11
ATOM     11  C   UNL     1      11.278 -31.331  13.652  1.00  0.00     0.062 C 
BRANCH  11  12
ATOM     12  C   UNL     1      12.432 -31.117  14.591  1.00  0.00    -0.030 C 
ATOM     13  C   UNL     1      13.696 -31.094  14.157  1.00  0.00     0.004 C 
ENDBRANCH  11  12
ENDBRANCH   4  11
TORSDOF 4
ENDMDL
MODEL 4
REMARK VINA RESULT:    -3.321     15.679     17.619
REMARK INTER + INTRA:          -4.414
REMARK INTER:                  -4.148
REMARK INTRA:                  -0.266
REMARK UNBOUND:                -0.317
REMARK SMILES C=CCc1ccc(OC)c(OC)c1
REMARK SMILES IDX 7 1 10 2 13 3 4 4 5 5 6 6 8 7 9 8 11 9 12 10 3 11 2 12 1 13
REMARK H PARENT
REMARK Flexibility Score: inf
ROOT
ATOM      1  C   UNL     1      15.199 -36.008  32.016  1.00  0.00     0.160 A 
ATOM      2  C   UNL     1      15.427 -34.728  31.485  1.00  0.00     0.160 A 
ATOM      3  C   UNL     1      16.279 -34.576  30.373  1.00  0.00     0.054 A 
ATOM      4  C   UNL     1      16.905 -35.691  29.797  1.00  0.00    -0.040 A 
ATOM      5  C   UNL     1      16.664 -36.965  30.326  1.00  0.00     0.008 A 
ATOM      6  C   UNL     1      15.822 -37.125  31.428  1.00  0.00     0.051 A 
ENDROOT
BRANCH   1   7
ATOM      7  O   UNL     1      14.346 -36.128  33.125  1.00  0.00    -0.493 OA
ATOM      8  C   UNL     1      13.002 -36.596  33.063  1.00  0.00     0.278 C 
ENDBRANCH   1   7
BRANCH   2   9
ATOM      9  O   UNL     1      14.786 -33.633  32.088  1.00  0.00    -0.493 OA
ATOM     10  C   UNL     1      15.420 -32.395  32.393  1.00  0.00     0.278 C 
ENDBRANCH   2   9
BRANCH   4  11
ATOM     11  C   UNL     1      17.790 -35.529  28.589  1.00  0.00     0.062 C 
BRANCH  11  12
ATOM     12  C   UNL     1      17.372 -36.469  27.493  1.00  0.00    -0.030 C 
ATOM     13  C   UNL     1      18.103 -36.626  26.385  1.00  0.00     0.004 C 
ENDBRANCH  11  12
ENDBRANCH   4  11
TORSDOF 4
ENDMDL
MODEL 5
REMARK VINA RESULT:    -3.255      1.945      3.863
REMARK INTER + INTRA:          -4.333
REMARK INTER:                  -4.066
REMARK INTRA:                  -0.266
REMARK UNBOUND:                -0.317
REMARK SMILES C=CCc1ccc(OC)c(OC)c1
REMARK SMILES IDX 7 1 10 2 13 3 4 4 5 5 6 6 8 7 9 8 11 9 12 10 3 11 2 12 1 13
REMARK H PARENT
REMARK Flexibility Score: inf
ROOT
ATOM      1  C   UNL     1       9.905 -33.721  13.936  1.00  0.00     0.160 A 
ATOM      2  C   UNL     1      10.253 -32.433  14.371  1.00  0.00     0.160 A 
ATOM      3  C   UNL     1       9.541 -31.839  15.433  1.00  0.00     0.054 A 
ATOM      4  C   UNL     1       8.486 -32.523  16.054  1.00  0.00    -0.040 A 
ATOM      5  C   UNL     1       8.152 -33.813  15.621  1.00  0.00     0.008 A 
ATOM      6  C   UNL     1       8.850 -34.407  14.569  1.00  0.00     0.051 A 
ENDROOT
BRANCH   1   7
ATOM      7  O   UNL     1      10.630 -34.286  12.875  1.00  0.00    -0.493 OA
ATOM      8  C   UNL     1      11.682 -35.233  13.030  1.00  0.00     0.278 C 
ENDBRANCH   1   7
BRANCH   2   9
ATOM      9  O   UNL     1      11.312 -31.775  13.725  1.00  0.00    -0.493 OA
ATOM     10  C   UNL     1      12.392 -31.132  14.394  1.00  0.00     0.278 C 
ENDBRANCH   2   9
BRANCH   4  11
ATOM     11  C   UNL     1       7.748 -31.899  17.210  1.00  0.00     0.062 C 
BRANCH  11  12
ATOM     12  C   UNL     1       8.505 -32.096  18.494  1.00  0.00    -0.030 C 
ATOM     13  C   UNL     1       9.298 -31.144  18.995  1.00  0.00     0.004 C 
ENDBRANCH  11  12
ENDBRANCH   4  11
TORSDOF 4
ENDMDL
MODEL 6
REMARK VINA RESULT:    -3.164      1.192      1.411
REMARK INTER + INTRA:          -4.220
REMARK INTER:                  -3.969
REMARK INTRA:                  -0.251
REMARK UNBOUND:                -0.317
REMARK SMILES C=CCc1ccc(OC)c(OC)c1
REMARK SMILES IDX 7 1 10 2 13 3 4 4 5 5 6 6 8 7 9 8 11 9 12 10 3 11 2 12 1 13
REMARK H PARENT
REMARK Flexibility Score: inf
ROOT
ATOM      1  C   UNL     1      10.292 -32.302  14.525  1.00  0.00     0.160 A 
ATOM      2  C   UNL     1       9.215 -32.394  15.421  1.00  0.00     0.160 A 
ATOM      3  C   UNL     1       8.220 -33.371  15.219  1.00  0.00     0.054 A 
ATOM      4  C   UNL     1       8.294 -34.248  14.127  1.00  0.00    -0.040 A 
ATOM      5  C   UNL     1       9.377 -34.157  13.243  1.00  0.00     0.008 A 
ATOM      6  C   UNL     1      10.366 -33.191  13.436  1.00  0.00     0.051 A 
ENDROOT
BRANCH   1   7
ATOM      7  O   UNL     1      11.267 -31.318  14.751  1.00  0.00    -0.493 OA
ATOM      8  C   UNL     1      12.535 -31.274  14.105  1.00  0.00     0.278 C 
ENDBRANCH   1   7
BRANCH   2   9
ATOM      9  O   UNL     1       9.170 -31.498  16.502  1.00  0.00    -0.493 OA
ATOM     10  C   UNL     1       9.096 -31.886  17.870  1.00  0.00     0.278 C 
ENDBRANCH   2   9
BRANCH   4  11
ATOM     11  C   UNL     1       7.246 -35.312  13.931  1.00  0.00     0.062 C 
BRANCH  11  12
ATOM     12  C   UNL     1       6.513 -35.581  15.215  1.00  0.00    -0.030 C 
ATOM     13  C   UNL     1       6.743 -36.680  15.940  1.00  0.00     0.004 C 
ENDBRANCH  11  12
ENDBRANCH   4  11
TORSDOF 4
ENDMDL
MODEL 7
REMARK VINA RESULT:    -3.119      1.765      5.233
REMARK INTER + INTRA:          -4.165
REMARK INTER:                  -3.880
REMARK INTRA:                  -0.286
REMARK UNBOUND:                -0.317
REMARK SMILES C=CCc1ccc(OC)c(OC)c1
REMARK SMILES IDX 7 1 10 2 13 3 4 4 5 5 6 6 8 7 9 8 11 9 12 10 3 11 2 12 1 13
REMARK H PARENT
REMARK Flexibility Score: inf
ROOT
ATOM      1  C   UNL     1       9.191 -31.506  17.148  1.00  0.00     0.160 A 
ATOM      2  C   UNL     1       8.939 -32.219  15.965  1.00  0.00     0.160 A 
ATOM      3  C   UNL     1       9.873 -32.175  14.912  1.00  0.00     0.054 A 
ATOM      4  C   UNL     1      11.049 -31.421  15.033  1.00  0.00    -0.040 A 
ATOM      5  C   UNL     1      11.299 -30.721  16.220  1.00  0.00     0.008 A 
ATOM      6  C   UNL     1      10.378 -30.757  17.268  1.00  0.00     0.051 A 
ENDROOT
BRANCH   1   7
ATOM      7  O   UNL     1       8.241 -31.566  18.180  1.00  0.00    -0.493 OA
ATOM      8  C   UNL     1       8.457 -32.192  19.441  1.00  0.00     0.278 C 
ENDBRANCH   1   7
BRANCH   2   9
ATOM      9  O   UNL     1       7.750 -32.961  15.876  1.00  0.00    -0.493 OA
ATOM     10  C   UNL     1       6.735 -32.747  14.901  1.00  0.00     0.278 C 
ENDBRANCH   2   9
BRANCH   4  11
ATOM     11  C   UNL     1      12.062 -31.402  13.918  1.00  0.00     0.062 C 
BRANCH  11  12
ATOM     12  C   UNL     1      13.415 -30.997  14.433  1.00  0.00    -0.030 C 
ATOM     13  C   UNL     1      14.270 -30.295  13.684  1.00  0.00     0.004 C 
ENDBRANCH  11  12
ENDBRANCH   4  11
TORSDOF 4
ENDMDL
MODEL 8
REMARK VINA RESULT:    -3.055      2.414      4.939
REMARK INTER + INTRA:          -4.086
REMARK INTER:                  -3.821
REMARK INTRA:                  -0.265
REMARK UNBOUND:                -0.317
REMARK SMILES C=CCc1ccc(OC)c(OC)c1
REMARK SMILES IDX 7 1 10 2 13 3 4 4 5 5 6 6 8 7 9 8 11 9 12 10 3 11 2 12 1 13
REMARK H PARENT
REMARK Flexibility Score: inf
ROOT
ATOM      1  C   UNL     1       7.333 -33.688  13.875  1.00  0.00     0.160 A 
ATOM      2  C   UNL     1       8.737 -33.686  13.875  1.00  0.00     0.160 A 
ATOM      3  C   UNL     1       9.434 -32.965  14.865  1.00  0.00     0.054 A 
ATOM      4  C   UNL     1       8.736 -32.245  15.846  1.00  0.00    -0.040 A 
ATOM      5  C   UNL     1       7.336 -32.260  15.845  1.00  0.00     0.008 A 
ATOM      6  C   UNL     1       6.638 -32.970  14.867  1.00  0.00     0.051 A 
ENDROOT
BRANCH   1   7
ATOM      7  O   UNL     1       6.666 -34.413  12.875  1.00  0.00    -0.493 OA
ATOM      8  C   UNL     1       6.049 -35.681  13.074  1.00  0.00     0.278 C 
ENDBRANCH   1   7
BRANCH   2   9
ATOM      9  O   UNL     1       9.404 -34.415  12.877  1.00  0.00    -0.493 OA
ATOM     10  C   UNL     1      10.679 -35.027  13.039  1.00  0.00     0.278 C 
ENDBRANCH   2   9
BRANCH   4  11
ATOM     11  C   UNL     1       9.483 -31.501  16.922  1.00  0.00     0.062 C 
BRANCH  11  12
ATOM     12  C   UNL     1       8.941 -31.844  18.281  1.00  0.00    -0.030 C 
ATOM     13  C   UNL     1       9.220 -31.101  19.357  1.00  0.00     0.004 C 
ENDBRANCH  11  12
ENDBRANCH   4  11
TORSDOF 4
ENDMDL
MODEL 9
REMARK VINA RESULT:    -2.921      2.513      3.480
REMARK INTER + INTRA:          -3.920
REMARK INTER:                  -3.641
REMARK INTRA:                  -0.279
REMARK UNBOUND:                -0.317
REMARK SMILES C=CCc1ccc(OC)c(OC)c1
REMARK SMILES IDX 7 1 10 2 13 3 4 4 5 5 6 6 8 7 9 8 11 9 12 10 3 11 2 12 1 13
REMARK H PARENT
REMARK Flexibility Score: inf
ROOT
ATOM      1  C   UNL     1      11.013 -32.769  13.521  1.00  0.00     0.160 A 
ATOM      2  C   UNL     1      10.801 -34.143  13.328  1.00  0.00     0.160 A 
ATOM      3  C   UNL     1       9.485 -34.642  13.251  1.00  0.00     0.054 A 
ATOM      4  C   UNL     1       8.387 -33.779  13.373  1.00  0.00    -0.040 A 
ATOM      5  C   UNL     1       8.607 -32.408  13.556  1.00  0.00     0.008 A 
ATOM      6  C   UNL     1       9.907 -31.905  13.634  1.00  0.00     0.051 A 
ENDROOT
BRANCH   1   7
ATOM      7  O   UNL     1      12.334 -32.301  13.595  1.00  0.00    -0.493 OA
ATOM      8  C   UNL     1      12.740 -31.137  14.310  1.00  0.00     0.278 C 
ENDBRANCH   1   7
BRANCH   2   9
ATOM      9  O   UNL     1      11.923 -34.980  13.213  1.00  0.00    -0.493 OA
ATOM     10  C   UNL     1      11.864 -36.394  13.062  1.00  0.00     0.278 C 
ENDBRANCH   2   9
BRANCH   4  11
ATOM     11  C   UNL     1       6.982 -34.311  13.259  1.00  0.00     0.062 C 
BRANCH  11  12
ATOM     12  C   UNL     1       6.367 -34.487  14.619  1.00  0.00    -0.030 C 
ATOM     13  C   UNL     1       6.493 -35.627  15.305  1.00  0.00     0.004 C 
ENDBRANCH  11  12
ENDBRANCH   4  11
TORSDOF 4
ENDMDL
