MODEL 1
REMARK VINA RESULT:    -3.091      0.000      0.000
REMARK INTER + INTRA:          -3.719
REMARK INTER:                  -3.633
REMARK INTRA:                  -0.086
REMARK UNBOUND:                -0.086
REMARK SMILES O=C([O-])CCC(=O)[O-]
REMARK SMILES IDX 4 1 2 2 1 3 3 4 5 5 6 6 7 7 8 8
REMARK H PARENT
REMARK Flexibility Score: inf
ROOT
ATOM      1  C   UNL     1     -29.225  -8.122 -11.316  1.00  0.00     0.059 C 
ENDROOT
BRANCH   1   2
ATOM      2  C   UNL     1     -29.088  -6.827 -10.578  1.00  0.00     0.042 C 
ATOM      3  O   UNL     1     -28.611  -6.809  -9.413  1.00  0.00    -0.550 OA
ATOM      4  O   UNL     1     -29.532  -5.646 -11.159  1.00  0.00    -0.550 OA
ENDBRANCH   1   2
BRANCH   1   5
ATOM      5  C   UNL     1     -28.825  -7.948 -12.781  1.00  0.00     0.059 C 
BRANCH   5   6
ATOM      6  C   UNL     1     -30.026  -8.050 -13.667  1.00  0.00     0.042 C 
ATOM      7  O   UNL     1     -30.193  -9.065 -14.394  1.00  0.00    -0.550 OA
ATOM      8  O   UNL     1     -30.935  -7.002 -13.730  1.00  0.00    -0.550 OA
ENDBRANCH   5   6
ENDBRANCH   1   5
TORSDOF 3
ENDMDL
MODEL 2
REMARK VINA RESULT:    -3.072      0.140      3.769
REMARK INTER + INTRA:          -3.697
REMARK INTER:                  -3.603
REMARK INTRA:                  -0.094
REMARK UNBOUND:                -0.086
REMARK SMILES O=C([O-])CCC(=O)[O-]
REMARK SMILES IDX 4 1 2 2 1 3 3 4 5 5 6 6 7 7 8 8
REMARK H PARENT
REMARK Flexibility Score: inf
ROOT
ATOM      1  C   UNL     1     -28.884  -7.791 -12.919  1.00  0.00     0.059 C 
ENDROOT
BRANCH   1   2
ATOM      2  C   UNL     1     -30.134  -7.975 -13.720  1.00  0.00     0.042 C 
ATOM      3  O   UNL     1     -30.332  -9.047 -14.348  1.00  0.00    -0.550 OA
ATOM      4  O   UNL     1     -31.058  -6.942 -13.811  1.00  0.00    -0.550 OA
ENDBRANCH   1   2
BRANCH   1   5
ATOM      5  C   UNL     1     -29.149  -8.075 -11.440  1.00  0.00     0.059 C 
BRANCH   5   6
ATOM      6  C   UNL     1     -29.107  -6.807 -10.648  1.00  0.00     0.042 C 
ATOM      7  O   UNL     1     -28.654  -6.809  -9.472  1.00  0.00    -0.550 OA
ATOM      8  O   UNL     1     -29.615  -5.632 -11.187  1.00  0.00    -0.550 OA
ENDBRANCH   5   6
ENDBRANCH   1   5
TORSDOF 3
ENDMDL
MODEL 3
REMARK VINA RESULT:    -3.043     14.330     16.093
REMARK INTER + INTRA:          -3.663
REMARK INTER:                  -3.547
REMARK INTRA:                  -0.116
REMARK UNBOUND:                -0.086
REMARK SMILES O=C([O-])CCC(=O)[O-]
REMARK SMILES IDX 4 1 2 2 1 3 3 4 5 5 6 6 7 7 8 8
REMARK H PARENT
REMARK Flexibility Score: inf
ROOT
ATOM      1  C   UNL     1     -24.709 -15.121  -0.656  1.00  0.00     0.059 C 
ENDROOT
BRANCH   1   2
ATOM      2  C   UNL     1     -23.304 -14.840  -1.089  1.00  0.00     0.042 C 
ATOM      3  O   UNL     1     -23.082 -14.044  -2.038  1.00  0.00    -0.550 OA
ATOM      4  O   UNL     1     -22.244 -15.495  -0.477  1.00  0.00    -0.550 OA
ENDBRANCH   1   2
BRANCH   1   5
ATOM      5  C   UNL     1     -24.852 -14.928   0.854  1.00  0.00     0.059 C 
BRANCH   5   6
ATOM      6  C   UNL     1     -25.107 -16.239   1.528  1.00  0.00     0.042 C 
ATOM      7  O   UNL     1     -26.281 -16.573   1.841  1.00  0.00    -0.550 OA
ATOM      8  O   UNL     1     -24.045 -17.070   1.858  1.00  0.00    -0.550 OA
ENDBRANCH   5   6
ENDBRANCH   1   5
TORSDOF 3
ENDMDL
MODEL 4
REMARK VINA RESULT:    -3.023     15.072     16.586
REMARK INTER + INTRA:          -3.639
REMARK INTER:                  -3.520
REMARK INTRA:                  -0.119
REMARK UNBOUND:                -0.086
REMARK SMILES O=C([O-])CCC(=O)[O-]
REMARK SMILES IDX 4 1 2 2 1 3 3 4 5 5 6 6 7 7 8 8
REMARK H PARENT
REMARK Flexibility Score: inf
ROOT
ATOM      1  C   UNL     1     -22.267 -15.113   1.233  1.00  0.00     0.059 C 
ENDROOT
BRANCH   1   2
ATOM      2  C   UNL     1     -22.588 -16.288   2.102  1.00  0.00     0.042 C 
ATOM      3  O   UNL     1     -22.385 -16.232   3.343  1.00  0.00    -0.550 OA
ATOM      4  O   UNL     1     -23.067 -17.462   1.535  1.00  0.00    -0.550 OA
ENDBRANCH   1   2
BRANCH   1   5
ATOM      5  C   UNL     1     -22.234 -15.528  -0.238  1.00  0.00     0.059 C 
BRANCH   5   6
ATOM      6  C   UNL     1     -23.399 -14.946  -0.973  1.00  0.00     0.042 C 
ATOM      7  O   UNL     1     -23.211 -14.174  -1.950  1.00  0.00    -0.550 OA
ATOM      8  O   UNL     1     -24.694 -15.214  -0.549  1.00  0.00    -0.550 OA
ENDBRANCH   5   6
ENDBRANCH   1   5
TORSDOF 3
ENDMDL
MODEL 5
REMARK VINA RESULT:    -3.004     15.089     16.886
REMARK INTER + INTRA:          -3.617
REMARK INTER:                  -3.496
REMARK INTRA:                  -0.121
REMARK UNBOUND:                -0.086
REMARK SMILES O=C([O-])CCC(=O)[O-]
REMARK SMILES IDX 4 1 2 2 1 3 3 4 5 5 6 6 7 7 8 8
REMARK H PARENT
REMARK Flexibility Score: inf
ROOT
ATOM      1  C   UNL     1     -22.261 -15.478  -0.166  1.00  0.00     0.059 C 
ENDROOT
BRANCH   1   2
ATOM      2  C   UNL     1     -23.414 -14.936  -0.951  1.00  0.00     0.042 C 
ATOM      3  O   UNL     1     -23.207 -14.212  -1.961  1.00  0.00    -0.550 OA
ATOM      4  O   UNL     1     -24.716 -15.189  -0.539  1.00  0.00    -0.550 OA
ENDBRANCH   1   2
BRANCH   1   5
ATOM      5  C   UNL     1     -22.402 -15.114   1.312  1.00  0.00     0.059 C 
BRANCH   5   6
ATOM      6  C   UNL     1     -22.651 -16.339   2.132  1.00  0.00     0.042 C 
ATOM      7  O   UNL     1     -22.376 -16.347   3.361  1.00  0.00    -0.550 OA
ATOM      8  O   UNL     1     -23.142 -17.492   1.531  1.00  0.00    -0.550 OA
ENDBRANCH   5   6
ENDBRANCH   1   5
TORSDOF 3
ENDMDL
MODEL 6
REMARK VINA RESULT:    -2.995     14.676     16.163
REMARK INTER + INTRA:          -3.606
REMARK INTER:                  -3.496
REMARK INTRA:                  -0.110
REMARK UNBOUND:                -0.086
REMARK SMILES O=C([O-])CCC(=O)[O-]
REMARK SMILES IDX 4 1 2 2 1 3 3 4 5 5 6 6 7 7 8 8
REMARK H PARENT
REMARK Flexibility Score: inf
ROOT
ATOM      1  C   UNL     1     -25.265 -15.514   0.331  1.00  0.00     0.059 C 
ENDROOT
BRANCH   1   2
ATOM      2  C   UNL     1     -25.240 -16.391   1.544  1.00  0.00     0.042 C 
ATOM      3  O   UNL     1     -24.195 -17.025   1.844  1.00  0.00    -0.550 OA
ATOM      4  O   UNL     1     -26.385 -16.545   2.314  1.00  0.00    -0.550 OA
ENDBRANCH   1   2
BRANCH   1   5
ATOM      5  C   UNL     1     -24.114 -14.508   0.374  1.00  0.00     0.059 C 
BRANCH   5   6
ATOM      6  C   UNL     1     -23.090 -14.839  -0.665  1.00  0.00     0.042 C 
ATOM      7  O   UNL     1     -23.209 -14.393  -1.837  1.00  0.00    -0.550 OA
ATOM      8  O   UNL     1     -22.030 -15.681  -0.355  1.00  0.00    -0.550 OA
ENDBRANCH   5   6
ENDBRANCH   1   5
TORSDOF 3
ENDMDL
MODEL 7
REMARK VINA RESULT:    -2.953      2.035      2.304
REMARK INTER + INTRA:          -3.556
REMARK INTER:                  -3.481
REMARK INTRA:                  -0.075
REMARK UNBOUND:                -0.086
REMARK SMILES O=C([O-])CCC(=O)[O-]
REMARK SMILES IDX 4 1 2 2 1 3 3 4 5 5 6 6 7 7 8 8
REMARK H PARENT
REMARK Flexibility Score: inf
ROOT
ATOM      1  C   UNL     1     -29.457  -5.701 -11.430  1.00  0.00     0.059 C 
ENDROOT
BRANCH   1   2
ATOM      2  C   UNL     1     -29.095  -6.920 -10.641  1.00  0.00     0.042 C 
ATOM      3  O   UNL     1     -28.640  -6.806  -9.473  1.00  0.00    -0.550 OA
ATOM      4  O   UNL     1     -29.216  -8.179 -11.215  1.00  0.00    -0.550 OA
ENDBRANCH   1   2
BRANCH   1   5
ATOM      5  C   UNL     1     -30.223  -6.089 -12.695  1.00  0.00     0.059 C 
BRANCH   5   6
ATOM      6  C   UNL     1     -29.470  -5.663 -13.915  1.00  0.00     0.042 C 
ATOM      7  O   UNL     1     -29.206  -6.498 -14.821  1.00  0.00    -0.550 OA
ATOM      8  O   UNL     1     -29.015  -4.356 -14.031  1.00  0.00    -0.550 OA
ENDBRANCH   5   6
ENDBRANCH   1   5
TORSDOF 3
ENDMDL
MODEL 8
REMARK VINA RESULT:    -2.940      1.454      4.054
REMARK INTER + INTRA:          -3.541
REMARK INTER:                  -3.462
REMARK INTRA:                  -0.080
REMARK UNBOUND:                -0.086
REMARK SMILES O=C([O-])CCC(=O)[O-]
REMARK SMILES IDX 4 1 2 2 1 3 3 4 5 5 6 6 7 7 8 8
REMARK H PARENT
REMARK Flexibility Score: inf
ROOT
ATOM      1  C   UNL     1     -29.497  -5.954 -13.101  1.00  0.00     0.059 C 
ENDROOT
BRANCH   1   2
ATOM      2  C   UNL     1     -30.477  -6.990 -13.554  1.00  0.00     0.042 C 
ATOM      3  O   UNL     1     -31.637  -6.652 -13.909  1.00  0.00    -0.550 OA
ATOM      4  O   UNL     1     -30.126  -8.333 -13.538  1.00  0.00    -0.550 OA
ENDBRANCH   1   2
BRANCH   1   5
ATOM      5  C   UNL     1     -29.734  -5.599 -11.633  1.00  0.00     0.059 C 
BRANCH   5   6
ATOM      6  C   UNL     1     -28.644  -6.161 -10.776  1.00  0.00     0.042 C 
ATOM      7  O   UNL     1     -28.910  -7.022  -9.896  1.00  0.00    -0.550 OA
ATOM      8  O   UNL     1     -27.342  -5.698 -10.914  1.00  0.00    -0.550 OA
ENDBRANCH   5   6
ENDBRANCH   1   5
TORSDOF 3
ENDMDL
MODEL 9
REMARK VINA RESULT:    -2.899      2.045      2.514
REMARK INTER + INTRA:          -3.493
REMARK INTER:                  -3.376
REMARK INTRA:                  -0.117
REMARK UNBOUND:                -0.086
REMARK SMILES O=C([O-])CCC(=O)[O-]
REMARK SMILES IDX 4 1 2 2 1 3 3 4 5 5 6 6 7 7 8 8
REMARK H PARENT
REMARK Flexibility Score: inf
ROOT
ATOM      1  C   UNL     1     -29.575  -5.767 -11.597  1.00  0.00     0.059 C 
ENDROOT
BRANCH   1   2
ATOM      2  C   UNL     1     -28.290  -5.092 -11.961  1.00  0.00     0.042 C 
ATOM      3  O   UNL     1     -28.269  -4.216 -12.865  1.00  0.00    -0.550 OA
ATOM      4  O   UNL     1     -27.107  -5.466 -11.336  1.00  0.00    -0.550 OA
ENDBRANCH   1   2
BRANCH   1   5
ATOM      5  C   UNL     1     -30.174  -6.470 -12.816  1.00  0.00     0.059 C 
BRANCH   5   6
ATOM      6  C   UNL     1     -29.768  -7.909 -12.843  1.00  0.00     0.042 C 
ATOM      7  O   UNL     1     -29.948  -8.599 -13.881  1.00  0.00    -0.550 OA
ATOM      8  O   UNL     1     -29.236  -8.504 -11.706  1.00  0.00    -0.550 OA
ENDBRANCH   5   6
ENDBRANCH   1   5
TORSDOF 3
ENDMDL
