MODEL 1
REMARK VINA RESULT:    25.497      0.000      0.000
REMARK INTER + INTRA:          31.280
REMARK INTER:                  31.459
REMARK INTRA:                  -0.179
REMARK UNBOUND:                -0.179
REMARK SMILES Oc1cc(O)c2cc(O)c(-c3cc(O)c(O)c(O)c3)[o+]c2c1
REMARK SMILES IDX 10 1 20 2 21 3 22 4 2 5 3 6 4 7 6 8 7 9 8 10 11 11 12 12
REMARK SMILES IDX 13 13 19 14 15 15 17 16 14 17 16 19 18 21 9 23 1 25 5 27
REMARK H PARENT 14 18 16 20 18 22 9 24 1 26 5 28
REMARK Flexibility Score: inf
ROOT
ATOM      1  C   UNL     1      -3.958   2.562  14.208  1.00  0.00     0.402 A 
ATOM      2  O   UNL     1      -4.973   3.281  13.737  1.00  0.00    -0.202 OA
ATOM      3  C   UNL     1      -5.978   3.706  14.495  1.00  0.00     0.368 A 
ATOM      4  C   UNL     1      -7.002   4.453  13.909  1.00  0.00     0.162 A 
ATOM      5  C   UNL     1      -8.072   4.911  14.679  1.00  0.00     0.128 A 
ATOM      6  C   UNL     1      -8.120   4.620  16.047  1.00  0.00     0.093 A 
ATOM      7  C   UNL     1      -7.107   3.872  16.659  1.00  0.00     0.136 A 
ATOM      8  C   UNL     1      -6.016   3.407  15.879  1.00  0.00     0.125 A 
ATOM      9  C   UNL     1      -4.949   2.663  16.409  1.00  0.00     0.078 A 
ATOM     10  C   UNL     1      -3.906   2.244  15.578  1.00  0.00     0.223 A 
ENDROOT
BRANCH   1  11
ATOM     11  C   UNL     1      -2.901   2.137  13.261  1.00  0.00     0.091 A 
ATOM     12  C   UNL     1      -2.113   3.076  12.573  1.00  0.00     0.068 A 
ATOM     13  C   UNL     1      -1.103   2.654  11.698  1.00  0.00     0.162 A 
ATOM     14  C   UNL     1      -2.642   0.769  13.085  1.00  0.00     0.068 A 
ATOM     15  C   UNL     1      -0.865   1.281  11.512  1.00  0.00     0.200 A 
ATOM     16  C   UNL     1      -1.637   0.339  12.213  1.00  0.00     0.162 A 
BRANCH  13  17
ATOM     17  O   UNL     1      -0.331   3.594  11.018  1.00  0.00    -0.504 OA
ATOM     18  H   UNL     1      -0.339   4.575  11.275  1.00  0.00     0.293 HD
ENDBRANCH  13  17
BRANCH  15  19
ATOM     19  O   UNL     1       0.134   0.844  10.640  1.00  0.00    -0.502 OA
ATOM     20  H   UNL     1       0.939   0.321  10.961  1.00  0.00     0.293 HD
ENDBRANCH  15  19
BRANCH  16  21
ATOM     21  O   UNL     1      -1.419  -1.030  12.055  1.00  0.00    -0.504 OA
ATOM     22  H   UNL     1      -0.928  -1.409  11.255  1.00  0.00     0.293 HD
ENDBRANCH  16  21
ENDBRANCH   1  11
BRANCH  10  23
ATOM     23  O   UNL     1      -2.821   1.548  16.113  1.00  0.00    -0.500 OA
ATOM     24  H   UNL     1      -2.536   0.646  15.749  1.00  0.00     0.294 HD
ENDBRANCH  10  23
BRANCH   5  25
ATOM     25  O   UNL     1      -9.083   5.656  14.076  1.00  0.00    -0.507 OA
ATOM     26  H   UNL     1      -9.011   6.661  13.969  1.00  0.00     0.293 HD
ENDBRANCH   5  25
BRANCH   7  27
ATOM     27  O   UNL     1      -7.229   3.621  18.028  1.00  0.00    -0.507 OA
ATOM     28  H   UNL     1      -6.693   4.089  18.744  1.00  0.00     0.293 HD
ENDBRANCH   7  27
TORSDOF 7
ENDMDL
MODEL 2
REMARK VINA RESULT:    25.615      1.694      6.752
REMARK INTER + INTRA:          31.427
REMARK INTER:                  31.811
REMARK INTRA:                  -0.384
REMARK UNBOUND:                -0.179
REMARK SMILES Oc1cc(O)c2cc(O)c(-c3cc(O)c(O)c(O)c3)[o+]c2c1
REMARK SMILES IDX 10 1 20 2 21 3 22 4 2 5 3 6 4 7 6 8 7 9 8 10 11 11 12 12
REMARK SMILES IDX 13 13 19 14 15 15 17 16 14 17 16 19 18 21 9 23 1 25 5 27
REMARK H PARENT 14 18 16 20 18 22 9 24 1 26 5 28
REMARK Flexibility Score: inf
ROOT
ATOM      1  C   UNL     1      -5.565   3.521  15.317  1.00  0.00     0.402 A 
ATOM      2  O   UNL     1      -4.818   3.026  14.334  1.00  0.00    -0.202 OA
ATOM      3  C   UNL     1      -3.919   2.064  14.515  1.00  0.00     0.368 A 
ATOM      4  C   UNL     1      -3.178   1.611  13.421  1.00  0.00     0.162 A 
ATOM      5  C   UNL     1      -2.226   0.604  13.582  1.00  0.00     0.128 A 
ATOM      6  C   UNL     1      -2.011   0.044  14.846  1.00  0.00     0.093 A 
ATOM      7  C   UNL     1      -2.740   0.480  15.959  1.00  0.00     0.136 A 
ATOM      8  C   UNL     1      -3.711   1.502  15.798  1.00  0.00     0.125 A 
ATOM      9  C   UNL     1      -4.498   1.993  16.854  1.00  0.00     0.078 A 
ATOM     10  C   UNL     1      -5.439   2.999  16.618  1.00  0.00     0.223 A 
ENDROOT
BRANCH   1  11
ATOM     11  C   UNL     1      -6.525   4.600  14.991  1.00  0.00     0.091 A 
ATOM     12  C   UNL     1      -6.176   5.955  15.120  1.00  0.00     0.068 A 
ATOM     13  C   UNL     1      -7.091   6.962  14.785  1.00  0.00     0.162 A 
ATOM     14  C   UNL     1      -7.793   4.267  14.491  1.00  0.00     0.068 A 
ATOM     15  C   UNL     1      -8.367   6.619  14.305  1.00  0.00     0.200 A 
ATOM     16  C   UNL     1      -8.714   5.265  14.155  1.00  0.00     0.162 A 
BRANCH  13  17
ATOM     17  O   UNL     1      -6.734   8.303  14.921  1.00  0.00    -0.504 OA
ATOM     18  H   UNL     1      -6.363   8.836  14.143  1.00  0.00     0.293 HD
ENDBRANCH  13  17
BRANCH  15  19
ATOM     19  O   UNL     1      -9.292   7.610  13.971  1.00  0.00    -0.502 OA
ATOM     20  H   UNL     1     -10.054   7.442  13.327  1.00  0.00     0.293 HD
ENDBRANCH  15  19
BRANCH  16  21
ATOM     21  O   UNL     1      -9.970   4.894  13.675  1.00  0.00    -0.504 OA
ATOM     22  H   UNL     1     -10.206   3.931  13.471  1.00  0.00     0.293 HD
ENDBRANCH  16  21
ENDBRANCH   1  11
BRANCH  10  23
ATOM     23  O   UNL     1      -6.256   3.451  17.655  1.00  0.00    -0.500 OA
ATOM     24  H   UNL     1      -6.460   4.436  17.780  1.00  0.00     0.294 HD
ENDBRANCH  10  23
BRANCH   5  25
ATOM     25  O   UNL     1      -1.497   0.166  12.478  1.00  0.00    -0.507 OA
ATOM     26  H   UNL     1      -1.441   0.714  11.627  1.00  0.00     0.293 HD
ENDBRANCH   5  25
BRANCH   7  27
ATOM     27  O   UNL     1      -2.465  -0.127  17.187  1.00  0.00    -0.507 OA
ATOM     28  H   UNL     1      -2.044  -1.039  17.292  1.00  0.00     0.293 HD
ENDBRANCH   7  27
TORSDOF 7
ENDMDL
MODEL 3
REMARK VINA RESULT:    26.024      1.697      6.929
REMARK INTER + INTRA:          31.931
REMARK INTER:                  32.308
REMARK INTRA:                  -0.377
REMARK UNBOUND:                -0.179
REMARK SMILES Oc1cc(O)c2cc(O)c(-c3cc(O)c(O)c(O)c3)[o+]c2c1
REMARK SMILES IDX 10 1 20 2 21 3 22 4 2 5 3 6 4 7 6 8 7 9 8 10 11 11 12 12
REMARK SMILES IDX 13 13 19 14 15 15 17 16 14 17 16 19 18 21 9 23 1 25 5 27
REMARK H PARENT 14 18 16 20 18 22 9 24 1 26 5 28
REMARK Flexibility Score: inf
ROOT
ATOM      1  C   UNL     1      -5.550   3.475  15.236  1.00  0.00     0.402 A 
ATOM      2  O   UNL     1      -4.805   2.962  14.260  1.00  0.00    -0.202 OA
ATOM      3  C   UNL     1      -3.896   2.013  14.459  1.00  0.00     0.368 A 
ATOM      4  C   UNL     1      -3.159   1.540  13.371  1.00  0.00     0.162 A 
ATOM      5  C   UNL     1      -2.197   0.545  13.550  1.00  0.00     0.128 A 
ATOM      6  C   UNL     1      -1.968   0.018  14.826  1.00  0.00     0.093 A 
ATOM      7  C   UNL     1      -2.693   0.476  15.933  1.00  0.00     0.136 A 
ATOM      8  C   UNL     1      -3.674   1.485  15.754  1.00  0.00     0.125 A 
ATOM      9  C   UNL     1      -4.458   1.995  16.803  1.00  0.00     0.078 A 
ATOM     10  C   UNL     1      -5.410   2.986  16.548  1.00  0.00     0.223 A 
ENDROOT
BRANCH   1  11
ATOM     11  C   UNL     1      -6.521   4.538  14.890  1.00  0.00     0.091 A 
ATOM     12  C   UNL     1      -7.825   4.229  14.466  1.00  0.00     0.068 A 
ATOM     13  C   UNL     1      -8.737   5.249  14.165  1.00  0.00     0.162 A 
ATOM     14  C   UNL     1      -6.154   5.883  15.042  1.00  0.00     0.068 A 
ATOM     15  C   UNL     1      -8.353   6.595  14.299  1.00  0.00     0.200 A 
ATOM     16  C   UNL     1      -7.057   6.909  14.743  1.00  0.00     0.162 A 
BRANCH  13  17
ATOM     17  O   UNL     1     -10.026   4.931  13.740  1.00  0.00    -0.504 OA
ATOM     18  H   UNL     1     -10.441   5.371  12.927  1.00  0.00     0.293 HD
ENDBRANCH  13  17
BRANCH  15  19
ATOM     19  O   UNL     1      -9.248   7.623  13.999  1.00  0.00    -0.502 OA
ATOM     20  H   UNL     1     -10.124   7.454  13.522  1.00  0.00     0.293 HD
ENDBRANCH  15  19
BRANCH  16  21
ATOM     21  O   UNL     1      -6.649   8.234  14.892  1.00  0.00    -0.504 OA
ATOM     22  H   UNL     1      -5.673   8.503  14.882  1.00  0.00     0.293 HD
ENDBRANCH  16  21
ENDBRANCH   1  11
BRANCH  10  23
ATOM     23  O   UNL     1      -6.223   3.458  17.580  1.00  0.00    -0.500 OA
ATOM     24  H   UNL     1      -5.904   4.168  18.227  1.00  0.00     0.294 HD
ENDBRANCH  10  23
BRANCH   5  25
ATOM     25  O   UNL     1      -1.472   0.085  12.452  1.00  0.00    -0.507 OA
ATOM     26  H   UNL     1      -1.780  -0.712  11.909  1.00  0.00     0.293 HD
ENDBRANCH   5  25
BRANCH   7  27
ATOM     27  O   UNL     1      -2.404  -0.098  17.174  1.00  0.00    -0.507 OA
ATOM     28  H   UNL     1      -1.471  -0.282  17.515  1.00  0.00     0.293 HD
ENDBRANCH   7  27
TORSDOF 7
ENDMDL
MODEL 4
REMARK VINA RESULT:    26.454      2.374      4.366
REMARK INTER + INTRA:          32.461
REMARK INTER:                  32.758
REMARK INTRA:                  -0.297
REMARK UNBOUND:                -0.179
REMARK SMILES Oc1cc(O)c2cc(O)c(-c3cc(O)c(O)c(O)c3)[o+]c2c1
REMARK SMILES IDX 10 1 20 2 21 3 22 4 2 5 3 6 4 7 6 8 7 9 8 10 11 11 12 12
REMARK SMILES IDX 13 13 19 14 15 15 17 16 14 17 16 19 18 21 9 23 1 25 5 27
REMARK H PARENT 14 18 16 20 18 22 9 24 1 26 5 28
REMARK Flexibility Score: inf
ROOT
ATOM      1  C   UNL     1      -5.746   4.111  14.818  1.00  0.00     0.402 A 
ATOM      2  O   UNL     1      -5.526   5.291  15.391  1.00  0.00    -0.202 OA
ATOM      3  C   UNL     1      -6.344   6.330  15.258  1.00  0.00     0.368 A 
ATOM      4  C   UNL     1      -6.026   7.531  15.896  1.00  0.00     0.162 A 
ATOM      5  C   UNL     1      -6.866   8.639  15.772  1.00  0.00     0.128 A 
ATOM      6  C   UNL     1      -8.033   8.547  15.005  1.00  0.00     0.093 A 
ATOM      7  C   UNL     1      -8.373   7.355  14.356  1.00  0.00     0.136 A 
ATOM      8  C   UNL     1      -7.524   6.225  14.481  1.00  0.00     0.125 A 
ATOM      9  C   UNL     1      -7.792   4.985  13.877  1.00  0.00     0.078 A 
ATOM     10  C   UNL     1      -6.909   3.916  14.051  1.00  0.00     0.223 A 
ENDROOT
BRANCH   1  11
ATOM     11  C   UNL     1      -4.753   3.033  15.032  1.00  0.00     0.091 A 
ATOM     12  C   UNL     1      -4.645   2.370  16.267  1.00  0.00     0.068 A 
ATOM     13  C   UNL     1      -3.715   1.337  16.443  1.00  0.00     0.162 A 
ATOM     14  C   UNL     1      -3.939   2.624  13.965  1.00  0.00     0.068 A 
ATOM     15  C   UNL     1      -2.889   0.948  15.374  1.00  0.00     0.200 A 
ATOM     16  C   UNL     1      -3.007   1.594  14.131  1.00  0.00     0.162 A 
BRANCH  13  17
ATOM     17  O   UNL     1      -3.614   0.691  17.673  1.00  0.00    -0.504 OA
ATOM     18  H   UNL     1      -3.495   1.208  18.537  1.00  0.00     0.293 HD
ENDBRANCH  13  17
BRANCH  15  19
ATOM     19  O   UNL     1      -1.953  -0.075  15.534  1.00  0.00    -0.502 OA
ATOM     20  H   UNL     1      -1.964  -0.696  16.333  1.00  0.00     0.293 HD
ENDBRANCH  15  19
BRANCH  16  21
ATOM     21  O   UNL     1      -2.206   1.226  13.050  1.00  0.00    -0.504 OA
ATOM     22  H   UNL     1      -2.474   1.413  12.092  1.00  0.00     0.293 HD
ENDBRANCH  16  21
ENDBRANCH   1  11
BRANCH  10  23
ATOM     23  O   UNL     1      -7.200   2.670  13.493  1.00  0.00    -0.500 OA
ATOM     24  H   UNL     1      -7.395   2.562  12.505  1.00  0.00     0.294 HD
ENDBRANCH  10  23
BRANCH   5  25
ATOM     25  O   UNL     1      -6.532   9.829  16.417  1.00  0.00    -0.507 OA
ATOM     26  H   UNL     1      -5.574  10.155  16.465  1.00  0.00     0.293 HD
ENDBRANCH   5  25
BRANCH   7  27
ATOM     27  O   UNL     1      -9.553   7.344  13.606  1.00  0.00    -0.507 OA
ATOM     28  H   UNL     1      -9.642   7.727  12.676  1.00  0.00     0.293 HD
ENDBRANCH   7  27
TORSDOF 7
ENDMDL
