MODEL 1
REMARK VINA RESULT:    -3.353      0.000      0.000
REMARK INTER + INTRA:          -3.963
REMARK INTER:                  -3.940
REMARK INTRA:                  -0.023
REMARK UNBOUND:                -0.023
REMARK SMILES CCCCC(=O)[O-]
REMARK SMILES IDX 4 1 5 2 6 3 7 4 3 5 2 6 1 7
REMARK H PARENT
REMARK Flexibility Score: inf
ROOT
ATOM      1  C   UNL     1     -17.633  -1.720  30.435  1.00  0.00     0.053 C 
ENDROOT
BRANCH   1   2
ATOM      2  C   UNL     1     -16.757  -1.226  31.546  1.00  0.00     0.041 C 
ATOM      3  O   UNL     1     -17.135  -1.329  32.743  1.00  0.00    -0.550 OA
ATOM      4  O   UNL     1     -15.539  -0.622  31.260  1.00  0.00    -0.550 OA
ENDBRANCH   1   2
BRANCH   1   5
ATOM      5  C   UNL     1     -18.605  -0.642  29.927  1.00  0.00     0.006 C 
BRANCH   5   6
ATOM      6  C   UNL     1     -18.685  -0.546  28.393  1.00  0.00    -0.003 C 
ATOM      7  C   UNL     1     -18.308   0.834  27.856  1.00  0.00     0.004 C 
ENDBRANCH   5   6
ENDBRANCH   1   5
TORSDOF 3
ENDMDL
MODEL 2
REMARK VINA RESULT:    -3.268      2.379      4.059
REMARK INTER + INTRA:          -3.864
REMARK INTER:                  -3.809
REMARK INTRA:                  -0.055
REMARK UNBOUND:                -0.023
REMARK SMILES CCCCC(=O)[O-]
REMARK SMILES IDX 4 1 5 2 6 3 7 4 3 5 2 6 1 7
REMARK H PARENT
REMARK Flexibility Score: inf
ROOT
ATOM      1  C   UNL     1     -17.833  -1.820  30.069  1.00  0.00     0.053 C 
ENDROOT
BRANCH   1   2
ATOM      2  C   UNL     1     -18.675  -0.786  29.384  1.00  0.00     0.041 C 
ATOM      3  O   UNL     1     -18.554  -0.591  28.146  1.00  0.00    -0.550 OA
ATOM      4  O   UNL     1     -19.568  -0.015  30.117  1.00  0.00    -0.550 OA
ENDBRANCH   1   2
BRANCH   1   5
ATOM      5  C   UNL     1     -16.763  -1.198  30.983  1.00  0.00     0.006 C 
BRANCH   5   6
ATOM      6  C   UNL     1     -17.117  -1.245  32.480  1.00  0.00    -0.003 C 
ATOM      7  C   UNL     1     -17.142  -2.664  33.048  1.00  0.00     0.004 C 
ENDBRANCH   5   6
ENDBRANCH   1   5
TORSDOF 3
ENDMDL
MODEL 3
REMARK VINA RESULT:    -3.249      2.305      3.106
REMARK INTER + INTRA:          -3.841
REMARK INTER:                  -3.759
REMARK INTRA:                  -0.083
REMARK UNBOUND:                -0.023
REMARK SMILES CCCCC(=O)[O-]
REMARK SMILES IDX 4 1 5 2 6 3 7 4 3 5 2 6 1 7
REMARK H PARENT
REMARK Flexibility Score: inf
ROOT
ATOM      1  C   UNL     1     -18.851  -0.583  28.365  1.00  0.00     0.053 C 
ENDROOT
BRANCH   1   2
ATOM      2  C   UNL     1     -19.181  -0.295  29.798  1.00  0.00     0.041 C 
ATOM      3  O   UNL     1     -20.095   0.522  30.085  1.00  0.00    -0.550 OA
ATOM      4  O   UNL     1     -18.459  -0.902  30.817  1.00  0.00    -0.550 OA
ENDBRANCH   1   2
BRANCH   1   5
ATOM      5  C   UNL     1     -18.496   0.688  27.575  1.00  0.00     0.006 C 
BRANCH   5   6
ATOM      6  C   UNL     1     -19.658   1.244  26.732  1.00  0.00    -0.003 C 
ATOM      7  C   UNL     1     -20.610   0.160  26.231  1.00  0.00     0.004 C 
ENDBRANCH   5   6
ENDBRANCH   1   5
TORSDOF 3
ENDMDL
MODEL 4
REMARK VINA RESULT:    -3.245     13.537     14.225
REMARK INTER + INTRA:          -3.836
REMARK INTER:                  -3.733
REMARK INTRA:                  -0.103
REMARK UNBOUND:                -0.023
REMARK SMILES CCCCC(=O)[O-]
REMARK SMILES IDX 4 1 5 2 6 3 7 4 3 5 2 6 1 7
REMARK H PARENT
REMARK Flexibility Score: inf
ROOT
ATOM      1  C   UNL     1      -4.084   4.131  32.542  1.00  0.00     0.053 C 
ENDROOT
BRANCH   1   2
ATOM      2  C   UNL     1      -4.465   4.144  33.992  1.00  0.00     0.041 C 
ATOM      3  O   UNL     1      -4.654   3.061  34.606  1.00  0.00    -0.550 OA
ATOM      4  O   UNL     1      -4.643   5.350  34.657  1.00  0.00    -0.550 OA
ENDBRANCH   1   2
BRANCH   1   5
ATOM      5  C   UNL     1      -5.304   4.246  31.612  1.00  0.00     0.006 C 
BRANCH   5   6
ATOM      6  C   UNL     1      -5.486   5.644  30.992  1.00  0.00    -0.003 C 
ATOM      7  C   UNL     1      -4.244   6.525  31.120  1.00  0.00     0.004 C 
ENDBRANCH   5   6
ENDBRANCH   1   5
TORSDOF 3
ENDMDL
MODEL 5
REMARK VINA RESULT:    -3.245      2.839      4.017
REMARK INTER + INTRA:          -3.836
REMARK INTER:                  -3.815
REMARK INTRA:                  -0.021
REMARK UNBOUND:                -0.023
REMARK SMILES CCCCC(=O)[O-]
REMARK SMILES IDX 4 1 5 2 6 3 7 4 3 5 2 6 1 7
REMARK H PARENT
REMARK Flexibility Score: inf
ROOT
ATOM      1  C   UNL     1     -18.540  -0.793  28.782  1.00  0.00     0.053 C 
ENDROOT
BRANCH   1   2
ATOM      2  C   UNL     1     -18.834   0.602  28.317  1.00  0.00     0.041 C 
ATOM      3  O   UNL     1     -19.940   1.139  28.587  1.00  0.00    -0.550 OA
ATOM      4  O   UNL     1     -17.901   1.295  27.557  1.00  0.00    -0.550 OA
ENDBRANCH   1   2
BRANCH   1   5
ATOM      5  C   UNL     1     -18.519  -0.909  30.316  1.00  0.00     0.006 C 
BRANCH   5   6
ATOM      6  C   UNL     1     -17.147  -1.303  30.892  1.00  0.00    -0.003 C 
ATOM      7  C   UNL     1     -17.114  -1.304  32.420  1.00  0.00     0.004 C 
ENDBRANCH   5   6
ENDBRANCH   1   5
TORSDOF 3
ENDMDL
MODEL 6
REMARK VINA RESULT:    -3.198      4.832      5.905
REMARK INTER + INTRA:          -3.782
REMARK INTER:                  -3.706
REMARK INTRA:                  -0.075
REMARK UNBOUND:                -0.023
REMARK SMILES CCCCC(=O)[O-]
REMARK SMILES IDX 4 1 5 2 6 3 7 4 3 5 2 6 1 7
REMARK H PARENT
REMARK Flexibility Score: inf
ROOT
ATOM      1  C   UNL     1     -20.370   0.233  26.311  1.00  0.00     0.053 C 
ENDROOT
BRANCH   1   2
ATOM      2  C   UNL     1     -21.844   0.402  26.527  1.00  0.00     0.041 C 
ATOM      3  O   UNL     1     -22.645   0.258  25.566  1.00  0.00    -0.550 OA
ATOM      4  O   UNL     1     -22.330   0.749  27.781  1.00  0.00    -0.550 OA
ENDBRANCH   1   2
BRANCH   1   5
ATOM      5  C   UNL     1     -19.541   1.302  27.043  1.00  0.00     0.006 C 
BRANCH   5   6
ATOM      6  C   UNL     1     -18.302   0.744  27.766  1.00  0.00    -0.003 C 
ATOM      7  C   UNL     1     -18.605  -0.490  28.615  1.00  0.00     0.004 C 
ENDBRANCH   5   6
ENDBRANCH   1   5
TORSDOF 3
ENDMDL
MODEL 7
REMARK VINA RESULT:    -3.193     13.968     15.058
REMARK INTER + INTRA:          -3.775
REMARK INTER:                  -3.703
REMARK INTRA:                  -0.072
REMARK UNBOUND:                -0.023
REMARK SMILES CCCCC(=O)[O-]
REMARK SMILES IDX 4 1 5 2 6 3 7 4 3 5 2 6 1 7
REMARK H PARENT
REMARK Flexibility Score: inf
ROOT
ATOM      1  C   UNL     1      -6.012   8.163  26.175  1.00  0.00     0.053 C 
ENDROOT
BRANCH   1   2
ATOM      2  C   UNL     1      -5.336   6.973  25.563  1.00  0.00     0.041 C 
ATOM      3  O   UNL     1      -4.993   6.994  24.351  1.00  0.00    -0.550 OA
ATOM      4  O   UNL     1      -5.113   5.830  26.320  1.00  0.00    -0.550 OA
ENDBRANCH   1   2
BRANCH   1   5
ATOM      5  C   UNL     1      -6.462   9.190  25.122  1.00  0.00     0.006 C 
BRANCH   5   6
ATOM      6  C   UNL     1      -7.984   9.226  24.896  1.00  0.00    -0.003 C 
ATOM      7  C   UNL     1      -8.759   8.355  25.884  1.00  0.00     0.004 C 
ENDBRANCH   5   6
ENDBRANCH   1   5
TORSDOF 3
ENDMDL
MODEL 8
REMARK VINA RESULT:    -3.169     16.009     16.964
REMARK INTER + INTRA:          -3.748
REMARK INTER:                  -3.635
REMARK INTRA:                  -0.113
REMARK UNBOUND:                -0.023
REMARK SMILES CCCCC(=O)[O-]
REMARK SMILES IDX 4 1 5 2 6 3 7 4 3 5 2 6 1 7
REMARK H PARENT
REMARK Flexibility Score: inf
ROOT
ATOM      1  C   UNL     1      -4.773   8.818  22.930  1.00  0.00     0.053 C 
ENDROOT
BRANCH   1   2
ATOM      2  C   UNL     1      -5.792   7.732  23.102  1.00  0.00     0.041 C 
ATOM      3  O   UNL     1      -6.592   7.462  22.168  1.00  0.00    -0.550 OA
ATOM      4  O   UNL     1      -5.879   7.041  24.303  1.00  0.00    -0.550 OA
ENDBRANCH   1   2
BRANCH   1   5
ATOM      5  C   UNL     1      -4.999   9.995  23.893  1.00  0.00     0.006 C 
BRANCH   5   6
ATOM      6  C   UNL     1      -6.422  10.580  23.841  1.00  0.00    -0.003 C 
ATOM      7  C   UNL     1      -6.604  11.623  22.740  1.00  0.00     0.004 C 
ENDBRANCH   5   6
ENDBRANCH   1   5
TORSDOF 3
ENDMDL
