MODEL 1
REMARK VINA RESULT:    -4.361      0.000      0.000
REMARK INTER + INTRA:          -6.860
REMARK INTER:                  -6.146
REMARK INTRA:                  -0.715
REMARK UNBOUND:                -0.715
REMARK SMILES CCCCCCCCC(=O)[O-]
REMARK SMILES IDX 6 1 7 2 8 3 9 4 10 5 11 6 5 7 4 8 3 9 2 10 1 11
REMARK H PARENT
REMARK Flexibility Score: inf
ROOT
ATOM      1  C   UNL     1       4.458  45.094  11.598  1.00  0.00     0.000 C 
ENDROOT
BRANCH   1   2
ATOM      2  C   UNL     1       3.880  46.312  10.857  1.00  0.00     0.006 C 
BRANCH   2   3
ATOM      3  C   UNL     1       4.582  46.583   9.519  1.00  0.00     0.053 C 
BRANCH   3   4
ATOM      4  C   UNL     1       3.794  47.560   8.705  1.00  0.00     0.041 C 
ATOM      5  O   UNL     1       4.382  48.457   8.047  1.00  0.00    -0.550 OA
ATOM      6  O   UNL     1       2.405  47.509   8.712  1.00  0.00    -0.550 OA
ENDBRANCH   3   4
ENDBRANCH   2   3
ENDBRANCH   1   2
BRANCH   1   7
ATOM      7  C   UNL     1       3.443  44.312  12.456  1.00  0.00     0.000 C 
BRANCH   7   8
ATOM      8  C   UNL     1       2.379  43.531  11.661  1.00  0.00    -0.000 C 
BRANCH   8   9
ATOM      9  C   UNL     1       2.930  42.666  10.509  1.00  0.00    -0.000 C 
BRANCH   9  10
ATOM     10  C   UNL     1       2.647  43.212   9.098  1.00  0.00    -0.003 C 
ATOM     11  C   UNL     1       1.439  44.147   9.051  1.00  0.00     0.004 C 
ENDBRANCH   9  10
ENDBRANCH   8   9
ENDBRANCH   7   8
ENDBRANCH   1   7
TORSDOF 7
ENDMDL
MODEL 2
REMARK VINA RESULT:    -4.286      1.020      1.717
REMARK INTER + INTRA:          -6.754
REMARK INTER:                  -6.153
REMARK INTRA:                  -0.601
REMARK UNBOUND:                -0.715
REMARK SMILES CCCCCCCCC(=O)[O-]
REMARK SMILES IDX 6 1 7 2 8 3 9 4 10 5 11 6 5 7 4 8 3 9 2 10 1 11
REMARK H PARENT
REMARK Flexibility Score: inf
ROOT
ATOM      1  C   UNL     1       4.897  46.627  10.600  1.00  0.00     0.000 C 
ENDROOT
BRANCH   1   2
ATOM      2  C   UNL     1       4.631  47.011   9.134  1.00  0.00     0.006 C 
BRANCH   2   3
ATOM      3  C   UNL     1       3.136  47.049   8.791  1.00  0.00     0.053 C 
BRANCH   3   4
ATOM      4  C   UNL     1       2.854  48.144   7.811  1.00  0.00     0.041 C 
ATOM      5  O   UNL     1       3.802  48.737   7.232  1.00  0.00    -0.550 OA
ATOM      6  O   UNL     1       1.544  48.543   7.574  1.00  0.00    -0.550 OA
ENDBRANCH   3   4
ENDBRANCH   2   3
ENDBRANCH   1   2
BRANCH   1   7
ATOM      7  C   UNL     1       3.701  45.987  11.333  1.00  0.00     0.000 C 
BRANCH   7   8
ATOM      8  C   UNL     1       4.035  44.725  12.152  1.00  0.00    -0.000 C 
BRANCH   8   9
ATOM      9  C   UNL     1       3.387  43.423  11.637  1.00  0.00    -0.000 C 
BRANCH   9  10
ATOM     10  C   UNL     1       3.810  43.009  10.216  1.00  0.00    -0.003 C 
ATOM     11  C   UNL     1       2.683  43.150   9.194  1.00  0.00     0.004 C 
ENDBRANCH   9  10
ENDBRANCH   8   9
ENDBRANCH   7   8
ENDBRANCH   1   7
TORSDOF 7
ENDMDL
MODEL 3
REMARK VINA RESULT:    -4.256      1.434      2.753
REMARK INTER + INTRA:          -6.713
REMARK INTER:                  -6.042
REMARK INTRA:                  -0.671
REMARK UNBOUND:                -0.715
REMARK SMILES CCCCCCCCC(=O)[O-]
REMARK SMILES IDX 6 1 7 2 8 3 9 4 10 5 11 6 5 7 4 8 3 9 2 10 1 11
REMARK H PARENT
REMARK Flexibility Score: inf
ROOT
ATOM      1  C   UNL     1       2.285  46.624   9.940  1.00  0.00     0.000 C 
ENDROOT
BRANCH   1   2
ATOM      2  C   UNL     1       3.590  46.399   9.155  1.00  0.00     0.006 C 
BRANCH   2   3
ATOM      3  C   UNL     1       4.843  46.720   9.980  1.00  0.00     0.053 C 
BRANCH   3   4
ATOM      4  C   UNL     1       5.720  47.682   9.242  1.00  0.00     0.041 C 
ATOM      5  O   UNL     1       5.240  48.408   8.332  1.00  0.00    -0.550 OA
ATOM      6  O   UNL     1       7.078  47.743   9.527  1.00  0.00    -0.550 OA
ENDBRANCH   3   4
ENDBRANCH   2   3
ENDBRANCH   1   2
BRANCH   1   7
ATOM      7  C   UNL     1       1.441  45.356  10.177  1.00  0.00     0.000 C 
BRANCH   7   8
ATOM      8  C   UNL     1       2.052  44.051   9.628  1.00  0.00    -0.000 C 
BRANCH   8   9
ATOM      9  C   UNL     1       2.570  43.073  10.702  1.00  0.00    -0.000 C 
BRANCH   9  10
ATOM     10  C   UNL     1       2.591  43.635  12.134  1.00  0.00    -0.003 C 
ATOM     11  C   UNL     1       3.944  44.230  12.522  1.00  0.00     0.004 C 
ENDBRANCH   9  10
ENDBRANCH   8   9
ENDBRANCH   7   8
ENDBRANCH   1   7
TORSDOF 7
ENDMDL
MODEL 4
REMARK VINA RESULT:    -4.209      1.761      2.464
REMARK INTER + INTRA:          -6.646
REMARK INTER:                  -5.824
REMARK INTRA:                  -0.822
REMARK UNBOUND:                -0.715
REMARK SMILES CCCCCCCCC(=O)[O-]
REMARK SMILES IDX 6 1 7 2 8 3 9 4 10 5 11 6 5 7 4 8 3 9 2 10 1 11
REMARK H PARENT
REMARK Flexibility Score: inf
ROOT
ATOM      1  C   UNL     1       1.329  46.109   9.242  1.00  0.00     0.000 C 
ENDROOT
BRANCH   1   2
ATOM      2  C   UNL     1       2.427  47.081   9.710  1.00  0.00     0.006 C 
BRANCH   2   3
ATOM      3  C   UNL     1       3.647  47.092   8.780  1.00  0.00     0.053 C 
BRANCH   3   4
ATOM      4  C   UNL     1       4.912  47.092   9.579  1.00  0.00     0.041 C 
ATOM      5  O   UNL     1       5.980  47.528   9.075  1.00  0.00    -0.550 OA
ATOM      6  O   UNL     1       4.921  46.566  10.864  1.00  0.00    -0.550 OA
ENDBRANCH   3   4
ENDBRANCH   2   3
ENDBRANCH   1   2
BRANCH   1   7
ATOM      7  C   UNL     1       0.807  45.146  10.328  1.00  0.00     0.000 C 
BRANCH   7   8
ATOM      8  C   UNL     1       1.833  44.766  11.413  1.00  0.00    -0.000 C 
BRANCH   8   9
ATOM      9  C   UNL     1       2.411  43.341  11.294  1.00  0.00    -0.000 C 
BRANCH   9  10
ATOM     10  C   UNL     1       3.844  43.269  10.737  1.00  0.00    -0.003 C 
ATOM     11  C   UNL     1       3.899  43.387   9.215  1.00  0.00     0.004 C 
ENDBRANCH   9  10
ENDBRANCH   8   9
ENDBRANCH   7   8
ENDBRANCH   1   7
TORSDOF 7
ENDMDL
MODEL 5
REMARK VINA RESULT:    -4.136      1.390      2.043
REMARK INTER + INTRA:          -6.543
REMARK INTER:                  -6.079
REMARK INTRA:                  -0.465
REMARK UNBOUND:                -0.715
REMARK SMILES CCCCCCCCC(=O)[O-]
REMARK SMILES IDX 6 1 7 2 8 3 9 4 10 5 11 6 5 7 4 8 3 9 2 10 1 11
REMARK H PARENT
REMARK Flexibility Score: inf
ROOT
ATOM      1  C   UNL     1       4.527  46.371   9.427  1.00  0.00     0.000 C 
ENDROOT
BRANCH   1   2
ATOM      2  C   UNL     1       3.472  47.311   8.816  1.00  0.00     0.006 C 
BRANCH   2   3
ATOM      3  C   UNL     1       4.093  48.438   7.980  1.00  0.00     0.053 C 
BRANCH   3   4
ATOM      4  C   UNL     1       3.080  49.505   7.710  1.00  0.00     0.041 C 
ATOM      5  O   UNL     1       3.437  50.708   7.612  1.00  0.00    -0.550 OA
ATOM      6  O   UNL     1       1.734  49.176   7.614  1.00  0.00    -0.550 OA
ENDBRANCH   3   4
ENDBRANCH   2   3
ENDBRANCH   1   2
BRANCH   1   7
ATOM      7  C   UNL     1       4.360  46.098  10.936  1.00  0.00     0.000 C 
BRANCH   7   8
ATOM      8  C   UNL     1       3.669  44.766  11.286  1.00  0.00    -0.000 C 
BRANCH   8   9
ATOM      9  C   UNL     1       4.036  43.580  10.371  1.00  0.00    -0.000 C 
BRANCH   9  10
ATOM     10  C   UNL     1       2.851  42.960   9.610  1.00  0.00    -0.003 C 
ATOM     11  C   UNL     1       1.729  43.960   9.336  1.00  0.00     0.004 C 
ENDBRANCH   9  10
ENDBRANCH   8   9
ENDBRANCH   7   8
ENDBRANCH   1   7
TORSDOF 7
ENDMDL
MODEL 6
REMARK VINA RESULT:    -4.057      2.450      4.772
REMARK INTER + INTRA:          -6.432
REMARK INTER:                  -5.968
REMARK INTRA:                  -0.464
REMARK UNBOUND:                -0.715
REMARK SMILES CCCCCCCCC(=O)[O-]
REMARK SMILES IDX 6 1 7 2 8 3 9 4 10 5 11 6 5 7 4 8 3 9 2 10 1 11
REMARK H PARENT
REMARK Flexibility Score: inf
ROOT
ATOM      1  C   UNL     1       4.886  46.598  10.602  1.00  0.00     0.000 C 
ENDROOT
BRANCH   1   2
ATOM      2  C   UNL     1       3.437  46.204  10.934  1.00  0.00     0.006 C 
BRANCH   2   3
ATOM      3  C   UNL     1       3.329  44.805  11.555  1.00  0.00     0.053 C 
BRANCH   3   4
ATOM      4  C   UNL     1       3.458  43.754  10.498  1.00  0.00     0.041 C 
ATOM      5  O   UNL     1       4.340  42.861  10.596  1.00  0.00    -0.550 OA
ATOM      6  O   UNL     1       2.636  43.789   9.379  1.00  0.00    -0.550 OA
ENDBRANCH   3   4
ENDBRANCH   2   3
ENDBRANCH   1   2
BRANCH   1   7
ATOM      7  C   UNL     1       5.074  47.306   9.244  1.00  0.00     0.000 C 
BRANCH   7   8
ATOM      8  C   UNL     1       3.775  47.561   8.455  1.00  0.00    -0.000 C 
BRANCH   8   9
ATOM      9  C   UNL     1       3.805  48.794   7.529  1.00  0.00    -0.000 C 
BRANCH   9  10
ATOM     10  C   UNL     1       2.600  49.740   7.672  1.00  0.00    -0.003 C 
ATOM     11  C   UNL     1       1.528  49.201   8.619  1.00  0.00     0.004 C 
ENDBRANCH   9  10
ENDBRANCH   8   9
ENDBRANCH   7   8
ENDBRANCH   1   7
TORSDOF 7
ENDMDL
MODEL 7
REMARK VINA RESULT:    -4.000      2.738      4.839
REMARK INTER + INTRA:          -6.351
REMARK INTER:                  -5.924
REMARK INTRA:                  -0.428
REMARK UNBOUND:                -0.715
REMARK SMILES CCCCCCCCC(=O)[O-]
REMARK SMILES IDX 6 1 7 2 8 3 9 4 10 5 11 6 5 7 4 8 3 9 2 10 1 11
REMARK H PARENT
REMARK Flexibility Score: inf
ROOT
ATOM      1  C   UNL     1       1.610  45.060   9.913  1.00  0.00     0.000 C 
ENDROOT
BRANCH   1   2
ATOM      2  C   UNL     1       1.239  44.628  11.342  1.00  0.00     0.006 C 
BRANCH   2   3
ATOM      3  C   UNL     1       1.966  43.351  11.785  1.00  0.00     0.053 C 
BRANCH   3   4
ATOM      4  C   UNL     1       3.446  43.568  11.788  1.00  0.00     0.041 C 
ATOM      5  O   UNL     1       3.976  44.310  12.656  1.00  0.00    -0.550 OA
ATOM      6  O   UNL     1       4.235  42.989  10.802  1.00  0.00    -0.550 OA
ENDBRANCH   3   4
ENDBRANCH   2   3
ENDBRANCH   1   2
BRANCH   1   7
ATOM      7  C   UNL     1       2.289  46.441   9.805  1.00  0.00     0.000 C 
BRANCH   7   8
ATOM      8  C   UNL     1       3.807  46.404   9.542  1.00  0.00    -0.000 C 
BRANCH   8   9
ATOM      9  C   UNL     1       4.369  47.629   8.792  1.00  0.00    -0.000 C 
BRANCH   9  10
ATOM     10  C   UNL     1       3.457  48.181   7.681  1.00  0.00    -0.003 C 
ATOM     11  C   UNL     1       3.478  49.706   7.597  1.00  0.00     0.004 C 
ENDBRANCH   9  10
ENDBRANCH   8   9
ENDBRANCH   7   8
ENDBRANCH   1   7
TORSDOF 7
ENDMDL
MODEL 8
REMARK VINA RESULT:    -3.966      1.191      2.804
REMARK INTER + INTRA:          -6.303
REMARK INTER:                  -5.663
REMARK INTRA:                  -0.641
REMARK UNBOUND:                -0.715
REMARK SMILES CCCCCCCCC(=O)[O-]
REMARK SMILES IDX 6 1 7 2 8 3 9 4 10 5 11 6 5 7 4 8 3 9 2 10 1 11
REMARK H PARENT
REMARK Flexibility Score: inf
ROOT
ATOM      1  C   UNL     1       1.066  45.033   9.598  1.00  0.00     0.000 C 
ENDROOT
BRANCH   1   2
ATOM      2  C   UNL     1       1.263  46.344   8.816  1.00  0.00     0.006 C 
BRANCH   2   3
ATOM      3  C   UNL     1       2.290  47.278   9.469  1.00  0.00     0.053 C 
BRANCH   3   4
ATOM      4  C   UNL     1       3.543  47.325   8.653  1.00  0.00     0.041 C 
ATOM      5  O   UNL     1       4.526  46.599   8.957  1.00  0.00    -0.550 OA
ATOM      6  O   UNL     1       3.644  48.207   7.584  1.00  0.00    -0.550 OA
ENDBRANCH   3   4
ENDBRANCH   2   3
ENDBRANCH   1   2
BRANCH   1   7
ATOM      7  C   UNL     1       1.857  43.826   9.055  1.00  0.00     0.000 C 
BRANCH   7   8
ATOM      8  C   UNL     1       2.763  43.121  10.084  1.00  0.00    -0.000 C 
BRANCH   8   9
ATOM      9  C   UNL     1       2.247  43.153  11.536  1.00  0.00    -0.000 C 
BRANCH   9  10
ATOM     10  C   UNL     1       3.104  43.983  12.509  1.00  0.00    -0.003 C 
ATOM     11  C   UNL     1       4.111  44.885  11.795  1.00  0.00     0.004 C 
ENDBRANCH   9  10
ENDBRANCH   8   9
ENDBRANCH   7   8
ENDBRANCH   1   7
TORSDOF 7
ENDMDL
MODEL 9
REMARK VINA RESULT:    -3.878      1.405      3.476
REMARK INTER + INTRA:          -6.180
REMARK INTER:                  -5.559
REMARK INTRA:                  -0.622
REMARK UNBOUND:                -0.715
REMARK SMILES CCCCCCCCC(=O)[O-]
REMARK SMILES IDX 6 1 7 2 8 3 9 4 10 5 11 6 5 7 4 8 3 9 2 10 1 11
REMARK H PARENT
REMARK Flexibility Score: inf
ROOT
ATOM      1  C   UNL     1       2.216  43.492  10.479  1.00  0.00     0.000 C 
ENDROOT
BRANCH   1   2
ATOM      2  C   UNL     1       1.582  44.238   9.291  1.00  0.00     0.006 C 
BRANCH   2   3
ATOM      3  C   UNL     1       0.761  45.459   9.725  1.00  0.00     0.053 C 
BRANCH   3   4
ATOM      4  C   UNL     1       0.873  46.550   8.708  1.00  0.00     0.041 C 
ATOM      5  O   UNL     1       0.452  46.369   7.535  1.00  0.00    -0.550 OA
ATOM      6  O   UNL     1       1.485  47.752   9.042  1.00  0.00    -0.550 OA
ENDBRANCH   3   4
ENDBRANCH   2   3
ENDBRANCH   1   2
BRANCH   1   7
ATOM      7  C   UNL     1       3.724  43.746  10.677  1.00  0.00     0.000 C 
BRANCH   7   8
ATOM      8  C   UNL     1       4.073  44.870  11.673  1.00  0.00    -0.000 C 
BRANCH   8   9
ATOM      9  C   UNL     1       4.117  46.287  11.067  1.00  0.00    -0.000 C 
BRANCH   9  10
ATOM     10  C   UNL     1       4.592  46.351   9.604  1.00  0.00    -0.003 C 
ATOM     11  C   UNL     1       5.637  47.440   9.364  1.00  0.00     0.004 C 
ENDBRANCH   9  10
ENDBRANCH   8   9
ENDBRANCH   7   8
ENDBRANCH   1   7
TORSDOF 7
ENDMDL
