MODEL 1
REMARK VINA RESULT:    -2.904      0.000      0.000
REMARK INTER + INTRA:          -6.883
REMARK INTER:                  -5.111
REMARK INTRA:                  -1.773
REMARK UNBOUND:                -1.773
REMARK SMILES CCCCCCCCCCCCCCC(=O)[O-]
REMARK SMILES IDX 9 1 10 2 11 3 12 4 13 5 14 6 15 7 16 8 17 9 8 10 7 11 6 12
REMARK SMILES IDX 5 13 4 14 3 15 2 16 1 17
REMARK H PARENT
REMARK Flexibility Score: inf
ROOT
ATOM      1  C   UNL     1       9.069  -1.737   0.068  1.00  0.00     0.000 C 
ENDROOT
BRANCH   1   2
ATOM      2  C   UNL     1      10.282  -0.864  -0.275  1.00  0.00     0.000 C 
BRANCH   2   3
ATOM      3  C   UNL     1      10.089   0.571   0.226  1.00  0.00     0.000 C 
BRANCH   3   4
ATOM      4  C   UNL     1       8.919   0.656   1.217  1.00  0.00     0.000 C 
BRANCH   4   5
ATOM      5  C   UNL     1       8.994   1.897   2.126  1.00  0.00     0.006 C 
BRANCH   5   6
ATOM      6  C   UNL     1       7.769   2.088   3.036  1.00  0.00     0.053 C 
BRANCH   6   7
ATOM      7  C   UNL     1       7.133   3.430   2.843  1.00  0.00     0.041 C 
ATOM      8  O   UNL     1       6.837   3.831   1.687  1.00  0.00    -0.550 OA
ATOM      9  O   UNL     1       6.895   4.250   3.938  1.00  0.00    -0.550 OA
ENDBRANCH   6   7
ENDBRANCH   5   6
ENDBRANCH   4   5
ENDBRANCH   3   4
ENDBRANCH   2   3
ENDBRANCH   1   2
BRANCH   1  10
ATOM     10  C   UNL     1       8.867  -2.837  -0.985  1.00  0.00     0.000 C 
BRANCH  10  11
ATOM     11  C   UNL     1       8.802  -2.284  -2.419  1.00  0.00    -0.000 C 
BRANCH  11  12
ATOM     12  C   UNL     1       7.358  -2.055  -2.898  1.00  0.00    -0.000 C 
BRANCH  12  13
ATOM     13  C   UNL     1       7.107  -0.603  -3.341  1.00  0.00    -0.000 C 
BRANCH  13  14
ATOM     14  C   UNL     1       7.313   0.406  -2.198  1.00  0.00    -0.000 C 
BRANCH  14  15
ATOM     15  C   UNL     1       7.629   1.821  -2.710  1.00  0.00    -0.000 C 
BRANCH  15  16
ATOM     16  C   UNL     1       7.529   2.887  -1.609  1.00  0.00    -0.003 C 
ATOM     17  C   UNL     1       8.850   3.635  -1.448  1.00  0.00     0.004 C 
ENDBRANCH  15  16
ENDBRANCH  14  15
ENDBRANCH  13  14
ENDBRANCH  12  13
ENDBRANCH  11  12
ENDBRANCH  10  11
ENDBRANCH   1  10
TORSDOF 13
ENDMDL
MODEL 2
REMARK VINA RESULT:    -2.878      1.350      3.552
REMARK INTER + INTRA:          -6.839
REMARK INTER:                  -5.321
REMARK INTRA:                  -1.518
REMARK UNBOUND:                -1.773
REMARK SMILES CCCCCCCCCCCCCCC(=O)[O-]
REMARK SMILES IDX 9 1 10 2 11 3 12 4 13 5 14 6 15 7 16 8 17 9 8 10 7 11 6 12
REMARK SMILES IDX 5 13 4 14 3 15 2 16 1 17
REMARK H PARENT
REMARK Flexibility Score: inf
ROOT
ATOM      1  C   UNL     1      10.108  -0.305   0.157  1.00  0.00     0.000 C 
ENDROOT
BRANCH   1   2
ATOM      2  C   UNL     1       9.080  -1.406   0.438  1.00  0.00     0.000 C 
BRANCH   2   3
ATOM      3  C   UNL     1       8.635  -1.385   1.905  1.00  0.00     0.000 C 
BRANCH   3   4
ATOM      4  C   UNL     1       9.221  -0.171   2.640  1.00  0.00     0.000 C 
BRANCH   4   5
ATOM      5  C   UNL     1       8.158   0.889   2.984  1.00  0.00     0.006 C 
BRANCH   5   6
ATOM      6  C   UNL     1       8.439   2.281   2.392  1.00  0.00     0.053 C 
BRANCH   6   7
ATOM      7  C   UNL     1       7.322   3.240   2.662  1.00  0.00     0.041 C 
ATOM      8  O   UNL     1       6.754   3.836   1.709  1.00  0.00    -0.550 OA
ATOM      9  O   UNL     1       6.930   3.501   3.968  1.00  0.00    -0.550 OA
ENDBRANCH   6   7
ENDBRANCH   5   6
ENDBRANCH   4   5
ENDBRANCH   3   4
ENDBRANCH   2   3
ENDBRANCH   1   2
BRANCH   1  10
ATOM     10  C   UNL     1       9.792   0.420  -1.161  1.00  0.00     0.000 C 
BRANCH  10  11
ATOM     11  C   UNL     1       8.477   1.214  -1.102  1.00  0.00    -0.000 C 
BRANCH  11  12
ATOM     12  C   UNL     1       7.485   0.795  -2.200  1.00  0.00    -0.000 C 
BRANCH  12  13
ATOM     13  C   UNL     1       8.021  -0.352  -3.074  1.00  0.00    -0.000 C 
BRANCH  13  14
ATOM     14  C   UNL     1       7.248  -1.665  -2.864  1.00  0.00    -0.000 C 
BRANCH  14  15
ATOM     15  C   UNL     1       7.983  -2.882  -3.449  1.00  0.00    -0.000 C 
BRANCH  15  16
ATOM     16  C   UNL     1       8.347  -3.924  -2.381  1.00  0.00    -0.003 C 
ATOM     17  C   UNL     1       8.044  -5.339  -2.869  1.00  0.00     0.004 C 
ENDBRANCH  15  16
ENDBRANCH  14  15
ENDBRANCH  13  14
ENDBRANCH  12  13
ENDBRANCH  11  12
ENDBRANCH  10  11
ENDBRANCH   1  10
TORSDOF 13
ENDMDL
MODEL 3
REMARK VINA RESULT:    -2.871      1.710      4.226
REMARK INTER + INTRA:          -6.825
REMARK INTER:                  -5.412
REMARK INTRA:                  -1.413
REMARK UNBOUND:                -1.773
REMARK SMILES CCCCCCCCCCCCCCC(=O)[O-]
REMARK SMILES IDX 9 1 10 2 11 3 12 4 13 5 14 6 15 7 16 8 17 9 8 10 7 11 6 12
REMARK SMILES IDX 5 13 4 14 3 15 2 16 1 17
REMARK H PARENT
REMARK Flexibility Score: inf
ROOT
ATOM      1  C   UNL     1       7.347  -1.479  -2.835  1.00  0.00     0.000 C 
ENDROOT
BRANCH   1   2
ATOM      2  C   UNL     1       7.875  -0.306  -2.001  1.00  0.00     0.000 C 
BRANCH   2   3
ATOM      3  C   UNL     1       7.326   1.029  -2.518  1.00  0.00     0.000 C 
BRANCH   3   4
ATOM      4  C   UNL     1       7.641   2.170  -1.539  1.00  0.00     0.000 C 
BRANCH   4   5
ATOM      5  C   UNL     1       8.708   1.785  -0.497  1.00  0.00     0.006 C 
BRANCH   5   6
ATOM      6  C   UNL     1       8.344   2.165   0.949  1.00  0.00     0.053 C 
BRANCH   6   7
ATOM      7  C   UNL     1       7.881   3.584   1.055  1.00  0.00     0.041 C 
ATOM      8  O   UNL     1       6.728   3.844   1.490  1.00  0.00    -0.550 OA
ATOM      9  O   UNL     1       8.711   4.619   0.645  1.00  0.00    -0.550 OA
ENDBRANCH   6   7
ENDBRANCH   5   6
ENDBRANCH   4   5
ENDBRANCH   3   4
ENDBRANCH   2   3
ENDBRANCH   1   2
BRANCH   1  10
ATOM     10  C   UNL     1       8.039  -2.792  -2.437  1.00  0.00     0.000 C 
BRANCH  10  11
ATOM     11  C   UNL     1       9.525  -2.599  -2.090  1.00  0.00    -0.000 C 
BRANCH  11  12
ATOM     12  C   UNL     1      10.057  -3.690  -1.145  1.00  0.00    -0.000 C 
BRANCH  12  13
ATOM     13  C   UNL     1       8.932  -4.554  -0.548  1.00  0.00    -0.000 C 
BRANCH  13  14
ATOM     14  C   UNL     1       9.166  -4.883   0.936  1.00  0.00    -0.000 C 
BRANCH  14  15
ATOM     15  C   UNL     1       8.342  -3.987   1.876  1.00  0.00    -0.000 C 
BRANCH  15  16
ATOM     16  C   UNL     1       9.139  -2.781   2.394  1.00  0.00    -0.003 C 
ATOM     17  C   UNL     1       8.798  -1.518   1.607  1.00  0.00     0.004 C 
ENDBRANCH  15  16
ENDBRANCH  14  15
ENDBRANCH  13  14
ENDBRANCH  12  13
ENDBRANCH  11  12
ENDBRANCH  10  11
ENDBRANCH   1  10
TORSDOF 13
ENDMDL
MODEL 4
REMARK VINA RESULT:    -2.845      1.309      3.591
REMARK INTER + INTRA:          -6.780
REMARK INTER:                  -5.134
REMARK INTRA:                  -1.646
REMARK UNBOUND:                -1.773
REMARK SMILES CCCCCCCCCCCCCCC(=O)[O-]
REMARK SMILES IDX 9 1 10 2 11 3 12 4 13 5 14 6 15 7 16 8 17 9 8 10 7 11 6 12
REMARK SMILES IDX 5 13 4 14 3 15 2 16 1 17
REMARK H PARENT
REMARK Flexibility Score: inf
ROOT
ATOM      1  C   UNL     1       7.259  -1.193  -2.900  1.00  0.00     0.000 C 
ENDROOT
BRANCH   1   2
ATOM      2  C   UNL     1       7.248   0.281  -2.480  1.00  0.00     0.000 C 
BRANCH   2   3
ATOM      3  C   UNL     1       8.547   0.661  -1.761  1.00  0.00     0.000 C 
BRANCH   3   4
ATOM      4  C   UNL     1       8.293   1.733  -0.693  1.00  0.00     0.000 C 
BRANCH   4   5
ATOM      5  C   UNL     1       7.899   3.095  -1.294  1.00  0.00     0.006 C 
BRANCH   5   6
ATOM      6  C   UNL     1       6.908   3.901  -0.438  1.00  0.00     0.053 C 
BRANCH   6   7
ATOM      7  C   UNL     1       7.398   4.082   0.965  1.00  0.00     0.041 C 
ATOM      8  O   UNL     1       6.714   3.661   1.935  1.00  0.00    -0.550 OA
ATOM      9  O   UNL     1       8.596   4.743   1.204  1.00  0.00    -0.550 OA
ENDBRANCH   6   7
ENDBRANCH   5   6
ENDBRANCH   4   5
ENDBRANCH   3   4
ENDBRANCH   2   3
ENDBRANCH   1   2
BRANCH   1  10
ATOM     10  C   UNL     1       8.585  -1.865  -2.512  1.00  0.00     0.000 C 
BRANCH  10  11
ATOM     11  C   UNL     1       8.407  -3.333  -2.090  1.00  0.00    -0.000 C 
BRANCH  11  12
ATOM     12  C   UNL     1       8.839  -3.586  -0.636  1.00  0.00    -0.000 C 
BRANCH  12  13
ATOM     13  C   UNL     1       9.562  -2.378  -0.016  1.00  0.00    -0.000 C 
BRANCH  13  14
ATOM     14  C   UNL     1       8.791  -1.775   1.172  1.00  0.00    -0.000 C 
BRANCH  14  15
ATOM     15  C   UNL     1       9.573  -0.653   1.874  1.00  0.00    -0.000 C 
BRANCH  15  16
ATOM     16  C   UNL     1       8.669   0.267   2.708  1.00  0.00    -0.003 C 
ATOM     17  C   UNL     1       9.357   1.600   2.993  1.00  0.00     0.004 C 
ENDBRANCH  15  16
ENDBRANCH  14  15
ENDBRANCH  13  14
ENDBRANCH  12  13
ENDBRANCH  11  12
ENDBRANCH  10  11
ENDBRANCH   1  10
TORSDOF 13
ENDMDL
MODEL 5
REMARK VINA RESULT:    -2.838      3.616      5.524
REMARK INTER + INTRA:          -6.767
REMARK INTER:                  -4.903
REMARK INTRA:                  -1.864
REMARK UNBOUND:                -1.773
REMARK SMILES CCCCCCCCCCCCCCC(=O)[O-]
REMARK SMILES IDX 9 1 10 2 11 3 12 4 13 5 14 6 15 7 16 8 17 9 8 10 7 11 6 12
REMARK SMILES IDX 5 13 4 14 3 15 2 16 1 17
REMARK H PARENT
REMARK Flexibility Score: inf
ROOT
ATOM      1  C   UNL     1       7.077  -2.557  -3.871  1.00  0.00     0.000 C 
ENDROOT
BRANCH   1   2
ATOM      2  C   UNL     1       7.620  -3.864  -3.280  1.00  0.00     0.000 C 
BRANCH   2   3
ATOM      3  C   UNL     1       8.352  -3.608  -1.957  1.00  0.00     0.000 C 
BRANCH   3   4
ATOM      4  C   UNL     1       9.244  -4.800  -1.582  1.00  0.00     0.000 C 
BRANCH   4   5
ATOM      5  C   UNL     1       9.454  -4.935  -0.063  1.00  0.00     0.006 C 
BRANCH   5   6
ATOM      6  C   UNL     1       9.062  -3.686   0.743  1.00  0.00     0.053 C 
BRANCH   6   7
ATOM      7  C   UNL     1       8.698  -4.021   2.156  1.00  0.00     0.041 C 
ATOM      8  O   UNL     1       7.776  -4.845   2.395  1.00  0.00    -0.550 OA
ATOM      9  O   UNL     1       9.356  -3.399   3.209  1.00  0.00    -0.550 OA
ENDBRANCH   6   7
ENDBRANCH   5   6
ENDBRANCH   4   5
ENDBRANCH   3   4
ENDBRANCH   2   3
ENDBRANCH   1   2
BRANCH   1  10
ATOM     10  C   UNL     1       7.185  -1.408  -2.857  1.00  0.00     0.000 C 
BRANCH  10  11
ATOM     11  C   UNL     1       6.859  -0.038  -3.474  1.00  0.00    -0.000 C 
BRANCH  11  12
ATOM     12  C   UNL     1       7.400   1.132  -2.634  1.00  0.00    -0.000 C 
BRANCH  12  13
ATOM     13  C   UNL     1       8.118   0.660  -1.358  1.00  0.00    -0.000 C 
BRANCH  13  14
ATOM     14  C   UNL     1       9.650   0.691  -1.498  1.00  0.00    -0.000 C 
BRANCH  14  15
ATOM     15  C   UNL     1      10.318  -0.583  -0.955  1.00  0.00    -0.000 C 
BRANCH  15  16
ATOM     16  C   UNL     1      11.285  -1.221  -1.963  1.00  0.00    -0.003 C 
ATOM     17  C   UNL     1      10.738  -1.126  -3.385  1.00  0.00     0.004 C 
ENDBRANCH  15  16
ENDBRANCH  14  15
ENDBRANCH  13  14
ENDBRANCH  12  13
ENDBRANCH  11  12
ENDBRANCH  10  11
ENDBRANCH   1  10
TORSDOF 13
ENDMDL
MODEL 6
REMARK VINA RESULT:    -2.830      3.474      5.521
REMARK INTER + INTRA:          -6.753
REMARK INTER:                  -5.332
REMARK INTRA:                  -1.421
REMARK UNBOUND:                -1.773
REMARK SMILES CCCCCCCCCCCCCCC(=O)[O-]
REMARK SMILES IDX 9 1 10 2 11 3 12 4 13 5 14 6 15 7 16 8 17 9 8 10 7 11 6 12
REMARK SMILES IDX 5 13 4 14 3 15 2 16 1 17
REMARK H PARENT
REMARK Flexibility Score: inf
ROOT
ATOM      1  C   UNL     1       7.602  -0.670  -2.400  1.00  0.00     0.000 C 
ENDROOT
BRANCH   1   2
ATOM      2  C   UNL     1       7.640  -2.063  -3.039  1.00  0.00     0.000 C 
BRANCH   2   3
ATOM      3  C   UNL     1       8.291  -3.084  -2.099  1.00  0.00     0.000 C 
BRANCH   3   4
ATOM      4  C   UNL     1       8.819  -2.403  -0.828  1.00  0.00     0.000 C 
BRANCH   4   5
ATOM      5  C   UNL     1       9.327  -3.409   0.222  1.00  0.00     0.006 C 
BRANCH   5   6
ATOM      6  C   UNL     1       8.652  -3.280   1.598  1.00  0.00     0.053 C 
BRANCH   6   7
ATOM      7  C   UNL     1       8.871  -4.494   2.446  1.00  0.00     0.041 C 
ATOM      8  O   UNL     1       7.939  -5.324   2.619  1.00  0.00    -0.550 OA
ATOM      9  O   UNL     1      10.095  -4.694   3.071  1.00  0.00    -0.550 OA
ENDBRANCH   6   7
ENDBRANCH   5   6
ENDBRANCH   4   5
ENDBRANCH   3   4
ENDBRANCH   2   3
ENDBRANCH   1   2
BRANCH   1  10
ATOM     10  C   UNL     1       6.766   0.301  -3.248  1.00  0.00     0.000 C 
BRANCH  10  11
ATOM     11  C   UNL     1       6.933   1.766  -2.813  1.00  0.00    -0.000 C 
BRANCH  11  12
ATOM     12  C   UNL     1       8.127   1.968  -1.864  1.00  0.00    -0.000 C 
BRANCH  12  13
ATOM     13  C   UNL     1       7.759   2.798  -0.621  1.00  0.00    -0.000 C 
BRANCH  13  14
ATOM     14  C   UNL     1       8.598   2.418   0.611  1.00  0.00    -0.000 C 
BRANCH  14  15
ATOM     15  C   UNL     1       9.510   1.207   0.353  1.00  0.00    -0.000 C 
BRANCH  15  16
ATOM     16  C   UNL     1       9.633   0.287   1.577  1.00  0.00    -0.003 C 
ATOM     17  C   UNL     1       8.482   0.514   2.553  1.00  0.00     0.004 C 
ENDBRANCH  15  16
ENDBRANCH  14  15
ENDBRANCH  13  14
ENDBRANCH  12  13
ENDBRANCH  11  12
ENDBRANCH  10  11
ENDBRANCH   1  10
TORSDOF 13
ENDMDL
MODEL 7
REMARK VINA RESULT:    -2.814      1.721      3.119
REMARK INTER + INTRA:          -6.726
REMARK INTER:                  -5.613
REMARK INTRA:                  -1.112
REMARK UNBOUND:                -1.773
REMARK SMILES CCCCCCCCCCCCCCC(=O)[O-]
REMARK SMILES IDX 9 1 10 2 11 3 12 4 13 5 14 6 15 7 16 8 17 9 8 10 7 11 6 12
REMARK SMILES IDX 5 13 4 14 3 15 2 16 1 17
REMARK H PARENT
REMARK Flexibility Score: inf
ROOT
ATOM      1  C   UNL     1       9.576  -1.893   0.506  1.00  0.00     0.000 C 
ENDROOT
BRANCH   1   2
ATOM      2  C   UNL     1       8.733  -1.632   1.759  1.00  0.00     0.000 C 
BRANCH   2   3
ATOM      3  C   UNL     1       9.283  -0.443   2.557  1.00  0.00     0.000 C 
BRANCH   3   4
ATOM      4  C   UNL     1       8.269   0.708   2.599  1.00  0.00     0.000 C 
BRANCH   4   5
ATOM      5  C   UNL     1       8.893   2.069   2.237  1.00  0.00     0.006 C 
BRANCH   5   6
ATOM      6  C   UNL     1       8.254   2.753   1.017  1.00  0.00     0.053 C 
BRANCH   6   7
ATOM      7  C   UNL     1       7.211   3.750   1.416  1.00  0.00     0.041 C 
ATOM      8  O   UNL     1       7.040   4.037   2.631  1.00  0.00    -0.550 OA
ATOM      9  O   UNL     1       6.406   4.339   0.450  1.00  0.00    -0.550 OA
ENDBRANCH   6   7
ENDBRANCH   5   6
ENDBRANCH   4   5
ENDBRANCH   3   4
ENDBRANCH   2   3
ENDBRANCH   1   2
BRANCH   1  10
ATOM     10  C   UNL     1       8.748  -1.676  -0.770  1.00  0.00     0.000 C 
BRANCH  10  11
ATOM     11  C   UNL     1       8.538  -0.189  -1.097  1.00  0.00    -0.000 C 
BRANCH  11  12
ATOM     12  C   UNL     1       7.535   0.028  -2.242  1.00  0.00    -0.000 C 
BRANCH  12  13
ATOM     13  C   UNL     1       7.158  -1.283  -2.953  1.00  0.00    -0.000 C 
BRANCH  13  14
ATOM     14  C   UNL     1       6.769  -1.065  -4.426  1.00  0.00    -0.000 C 
BRANCH  14  15
ATOM     15  C   UNL     1       5.798   0.112  -4.611  1.00  0.00    -0.000 C 
BRANCH  15  16
ATOM     16  C   UNL     1       4.376  -0.343  -4.971  1.00  0.00    -0.003 C 
ATOM     17  C   UNL     1       4.385  -1.745  -5.576  1.00  0.00     0.004 C 
ENDBRANCH  15  16
ENDBRANCH  14  15
ENDBRANCH  13  14
ENDBRANCH  12  13
ENDBRANCH  11  12
ENDBRANCH  10  11
ENDBRANCH   1  10
TORSDOF 13
ENDMDL
MODEL 8
REMARK VINA RESULT:    -2.784      4.305      6.091
REMARK INTER + INTRA:          -6.673
REMARK INTER:                  -5.798
REMARK INTRA:                  -0.875
REMARK UNBOUND:                -1.773
REMARK SMILES CCCCCCCCCCCCCCC(=O)[O-]
REMARK SMILES IDX 9 1 10 2 11 3 12 4 13 5 14 6 15 7 16 8 17 9 8 10 7 11 6 12
REMARK SMILES IDX 5 13 4 14 3 15 2 16 1 17
REMARK H PARENT
REMARK Flexibility Score: inf
ROOT
ATOM      1  C   UNL     1       7.354  -0.654  -2.919  1.00  0.00     0.000 C 
ENDROOT
BRANCH   1   2
ATOM      2  C   UNL     1       8.360  -1.019  -1.822  1.00  0.00     0.000 C 
BRANCH   2   3
ATOM      3  C   UNL     1       8.334  -2.523  -1.527  1.00  0.00     0.000 C 
BRANCH   3   4
ATOM      4  C   UNL     1       9.424  -2.904  -0.515  1.00  0.00     0.000 C 
BRANCH   4   5
ATOM      5  C   UNL     1       9.520  -1.915   0.661  1.00  0.00     0.006 C 
BRANCH   5   6
ATOM      6  C   UNL     1       8.629  -2.273   1.863  1.00  0.00     0.053 C 
BRANCH   6   7
ATOM      7  C   UNL     1       8.821  -3.692   2.299  1.00  0.00     0.041 C 
ATOM      8  O   UNL     1       9.951  -4.088   2.690  1.00  0.00    -0.550 OA
ATOM      9  O   UNL     1       7.759  -4.585   2.244  1.00  0.00    -0.550 OA
ENDBRANCH   6   7
ENDBRANCH   5   6
ENDBRANCH   4   5
ENDBRANCH   3   4
ENDBRANCH   2   3
ENDBRANCH   1   2
BRANCH   1  10
ATOM     10  C   UNL     1       6.902  -1.905  -3.689  1.00  0.00     0.000 C 
BRANCH  10  11
ATOM     11  C   UNL     1       5.909  -1.582  -4.818  1.00  0.00    -0.000 C 
BRANCH  11  12
ATOM     12  C   UNL     1       5.345  -0.155  -4.719  1.00  0.00    -0.000 C 
BRANCH  12  13
ATOM     13  C   UNL     1       3.852  -0.083  -5.086  1.00  0.00    -0.000 C 
BRANCH  13  14
ATOM     14  C   UNL     1       3.250  -1.468  -5.379  1.00  0.00    -0.000 C 
BRANCH  14  15
ATOM     15  C   UNL     1       1.805  -1.602  -4.870  1.00  0.00    -0.000 C 
BRANCH  15  16
ATOM     16  C   UNL     1       1.223  -3.004  -5.100  1.00  0.00    -0.003 C 
ATOM     17  C   UNL     1       2.227  -4.086  -4.710  1.00  0.00     0.004 C 
ENDBRANCH  15  16
ENDBRANCH  14  15
ENDBRANCH  13  14
ENDBRANCH  12  13
ENDBRANCH  11  12
ENDBRANCH  10  11
ENDBRANCH   1  10
TORSDOF 13
ENDMDL
MODEL 9
REMARK VINA RESULT:    -2.731      4.608      7.542
REMARK INTER + INTRA:          -6.579
REMARK INTER:                  -4.948
REMARK INTRA:                  -1.630
REMARK UNBOUND:                -1.773
REMARK SMILES CCCCCCCCCCCCCCC(=O)[O-]
REMARK SMILES IDX 9 1 10 2 11 3 12 4 13 5 14 6 15 7 16 8 17 9 8 10 7 11 6 12
REMARK SMILES IDX 5 13 4 14 3 15 2 16 1 17
REMARK H PARENT
REMARK Flexibility Score: inf
ROOT
ATOM      1  C   UNL     1       8.439  -0.635  -1.000  1.00  0.00     0.000 C 
ENDROOT
BRANCH   1   2
ATOM      2  C   UNL     1       7.654   0.164  -2.047  1.00  0.00     0.000 C 
BRANCH   2   3
ATOM      3  C   UNL     1       7.128  -0.751  -3.159  1.00  0.00     0.000 C 
BRANCH   3   4
ATOM      4  C   UNL     1       7.494  -2.216  -2.885  1.00  0.00     0.000 C 
BRANCH   4   5
ATOM      5  C   UNL     1       7.021  -3.169  -3.999  1.00  0.00     0.006 C 
BRANCH   5   6
ATOM      6  C   UNL     1       7.064  -4.658  -3.617  1.00  0.00     0.053 C 
BRANCH   6   7
ATOM      7  C   UNL     1       8.130  -5.397  -4.365  1.00  0.00     0.041 C 
ATOM      8  O   UNL     1       7.820  -6.186  -5.296  1.00  0.00    -0.550 OA
ATOM      9  O   UNL     1       9.464  -5.239  -4.013  1.00  0.00    -0.550 OA
ENDBRANCH   6   7
ENDBRANCH   5   6
ENDBRANCH   4   5
ENDBRANCH   3   4
ENDBRANCH   2   3
ENDBRANCH   1   2
BRANCH   1  10
ATOM     10  C   UNL     1       9.239   0.301  -0.080  1.00  0.00     0.000 C 
BRANCH  10  11
ATOM     11  C   UNL     1       9.704  -0.390   1.212  1.00  0.00    -0.000 C 
BRANCH  11  12
ATOM     12  C   UNL     1       8.630  -1.318   1.806  1.00  0.00    -0.000 C 
BRANCH  12  13
ATOM     13  C   UNL     1       9.222  -2.623   2.366  1.00  0.00    -0.000 C 
BRANCH  13  14
ATOM     14  C   UNL     1       8.381  -3.858   1.998  1.00  0.00    -0.000 C 
BRANCH  14  15
ATOM     15  C   UNL     1       9.130  -4.824   1.066  1.00  0.00    -0.000 C 
BRANCH  15  16
ATOM     16  C   UNL     1       9.025  -4.422  -0.413  1.00  0.00    -0.003 C 
ATOM     17  C   UNL     1      10.320  -3.777  -0.900  1.00  0.00     0.004 C 
ENDBRANCH  15  16
ENDBRANCH  14  15
ENDBRANCH  13  14
ENDBRANCH  12  13
ENDBRANCH  11  12
ENDBRANCH  10  11
ENDBRANCH   1  10
TORSDOF 13
ENDMDL
