MODEL 1
REMARK VINA RESULT:    -3.424      0.000      0.000
REMARK INTER + INTRA:         -12.537
REMARK INTER:                  -9.028
REMARK INTRA:                  -3.509
REMARK UNBOUND:                -3.509
REMARK SMILES CCCCCCCCCCCCCCCCCCCCCCCCCCCCCC(=O)[O-]
REMARK SMILES IDX 16 1 17 2 18 3 19 4 20 5 21 6 22 7 23 8 24 9 25 10 26 11
REMARK SMILES IDX 27 12 28 13 29 14 30 15 31 16 32 17 15 18 14 19 13 20 12 21
REMARK SMILES IDX 11 22 10 23 9 24 8 25 7 26 6 27 5 28 4 29 3 30 2 31 1 32
REMARK H PARENT
REMARK Flexibility Score: inf
ROOT
ATOM      1  C   UNL     1      23.384  22.968  15.152  1.00  0.00     0.000 C 
ENDROOT
BRANCH   1   2
ATOM      2  C   UNL     1      24.843  22.736  14.714  1.00  0.00     0.000 C 
BRANCH   2   3
ATOM      3  C   UNL     1      25.736  23.970  14.935  1.00  0.00     0.000 C 
BRANCH   3   4
ATOM      4  C   UNL     1      26.200  24.129  16.394  1.00  0.00     0.000 C 
BRANCH   4   5
ATOM      5  C   UNL     1      25.519  25.261  17.186  1.00  0.00     0.000 C 
BRANCH   5   6
ATOM      6  C   UNL     1      25.168  24.861  18.627  1.00  0.00     0.000 C 
BRANCH   6   7
ATOM      7  C   UNL     1      25.388  26.004  19.635  1.00  0.00     0.000 C 
BRANCH   7   8
ATOM      8  C   UNL     1      25.134  27.418  19.080  1.00  0.00     0.000 C 
BRANCH   8   9
ATOM      9  C   UNL     1      25.851  28.516  19.887  1.00  0.00     0.000 C 
BRANCH   9  10
ATOM     10  C   UNL     1      25.011  29.802  20.009  1.00  0.00     0.000 C 
BRANCH  10  11
ATOM     11  C   UNL     1      23.499  29.558  20.191  1.00  0.00     0.000 C 
BRANCH  11  12
ATOM     12  C   UNL     1      22.632  30.125  19.050  1.00  0.00     0.000 C 
BRANCH  12  13
ATOM     13  C   UNL     1      21.285  29.396  18.921  1.00  0.00     0.006 C 
BRANCH  13  14
ATOM     14  C   UNL     1      21.472  27.878  19.030  1.00  0.00     0.053 C 
BRANCH  14  15
ATOM     15  C   UNL     1      21.539  27.247  17.672  1.00  0.00     0.041 C 
ATOM     16  O   UNL     1      21.145  27.882  16.657  1.00  0.00    -0.550 OA
ATOM     17  O   UNL     1      22.028  25.952  17.530  1.00  0.00    -0.550 OA
ENDBRANCH  14  15
ENDBRANCH  13  14
ENDBRANCH  12  13
ENDBRANCH  11  12
ENDBRANCH  10  11
ENDBRANCH   9  10
ENDBRANCH   8   9
ENDBRANCH   7   8
ENDBRANCH   6   7
ENDBRANCH   5   6
ENDBRANCH   4   5
ENDBRANCH   3   4
ENDBRANCH   2   3
ENDBRANCH   1   2
BRANCH   1  18
ATOM     18  C   UNL     1      22.318  22.635  14.091  1.00  0.00     0.000 C 
BRANCH  18  19
ATOM     19  C   UNL     1      20.983  22.099  14.642  1.00  0.00     0.000 C 
BRANCH  19  20
ATOM     20  C   UNL     1      20.970  21.908  16.175  1.00  0.00     0.000 C 
BRANCH  20  21
ATOM     21  C   UNL     1      21.189  20.445  16.600  1.00  0.00     0.000 C 
BRANCH  21  22
ATOM     22  C   UNL     1      22.391  20.270  17.545  1.00  0.00     0.000 C 
BRANCH  22  23
ATOM     23  C   UNL     1      22.506  21.329  18.657  1.00  0.00     0.000 C 
BRANCH  23  24
ATOM     24  C   UNL     1      23.926  21.893  18.810  1.00  0.00    -0.000 C 
BRANCH  24  25
ATOM     25  C   UNL     1      24.919  21.113  17.935  1.00  0.00    -0.000 C 
BRANCH  25  26
ATOM     26  C   UNL     1      26.352  21.111  18.497  1.00  0.00    -0.000 C 
BRANCH  26  27
ATOM     27  C   UNL     1      27.444  20.723  17.485  1.00  0.00    -0.000 C 
BRANCH  27  28
ATOM     28  C   UNL     1      28.028  19.322  17.742  1.00  0.00    -0.000 C 
BRANCH  28  29
ATOM     29  C   UNL     1      29.444  19.146  17.164  1.00  0.00    -0.000 C 
BRANCH  29  30
ATOM     30  C   UNL     1      29.618  19.638  15.717  1.00  0.00    -0.000 C 
BRANCH  30  31
ATOM     31  C   UNL     1      29.821  18.495  14.715  1.00  0.00    -0.003 C 
ATOM     32  C   UNL     1      28.867  17.339  15.000  1.00  0.00     0.004 C 
ENDBRANCH  30  31
ENDBRANCH  29  30
ENDBRANCH  28  29
ENDBRANCH  27  28
ENDBRANCH  26  27
ENDBRANCH  25  26
ENDBRANCH  24  25
ENDBRANCH  23  24
ENDBRANCH  22  23
ENDBRANCH  21  22
ENDBRANCH  20  21
ENDBRANCH  19  20
ENDBRANCH  18  19
ENDBRANCH   1  18
TORSDOF 28
ENDMDL
MODEL 2
REMARK VINA RESULT:    -2.885      3.110      8.058
REMARK INTER + INTRA:         -11.115
REMARK INTER:                  -7.672
REMARK INTRA:                  -3.443
REMARK UNBOUND:                -3.509
REMARK SMILES CCCCCCCCCCCCCCCCCCCCCCCCCCCCCC(=O)[O-]
REMARK SMILES IDX 16 1 17 2 18 3 19 4 20 5 21 6 22 7 23 8 24 9 25 10 26 11
REMARK SMILES IDX 27 12 28 13 29 14 30 15 31 16 32 17 15 18 14 19 13 20 12 21
REMARK SMILES IDX 11 22 10 23 9 24 8 25 7 26 6 27 5 28 4 29 3 30 2 31 1 32
REMARK H PARENT
REMARK Flexibility Score: inf
ROOT
ATOM      1  C   UNL     1      22.049  22.776  14.854  1.00  0.00     0.000 C 
ENDROOT
BRANCH   1   2
ATOM      2  C   UNL     1      22.620  22.405  13.473  1.00  0.00     0.000 C 
BRANCH   2   3
ATOM      3  C   UNL     1      24.154  22.521  13.411  1.00  0.00     0.000 C 
BRANCH   3   4
ATOM      4  C   UNL     1      24.696  23.776  14.120  1.00  0.00     0.000 C 
BRANCH   4   5
ATOM      5  C   UNL     1      25.396  23.525  15.469  1.00  0.00     0.000 C 
BRANCH   5   6
ATOM      6  C   UNL     1      24.624  24.107  16.664  1.00  0.00     0.000 C 
BRANCH   6   7
ATOM      7  C   UNL     1      25.525  24.372  17.884  1.00  0.00     0.000 C 
BRANCH   7   8
ATOM      8  C   UNL     1      25.732  23.163  18.816  1.00  0.00     0.000 C 
BRANCH   8   9
ATOM      9  C   UNL     1      24.762  22.006  18.519  1.00  0.00     0.000 C 
BRANCH   9  10
ATOM     10  C   UNL     1      25.489  20.732  18.046  1.00  0.00     0.000 C 
BRANCH  10  11
ATOM     11  C   UNL     1      26.973  20.658  18.460  1.00  0.00     0.000 C 
BRANCH  11  12
ATOM     12  C   UNL     1      27.712  19.419  17.920  1.00  0.00     0.000 C 
BRANCH  12  13
ATOM     13  C   UNL     1      29.090  19.768  17.335  1.00  0.00     0.006 C 
BRANCH  13  14
ATOM     14  C   UNL     1      29.794  18.513  16.808  1.00  0.00     0.053 C 
BRANCH  14  15
ATOM     15  C   UNL     1      29.312  18.165  15.432  1.00  0.00     0.041 C 
ATOM     16  O   UNL     1      28.707  17.079  15.226  1.00  0.00    -0.550 OA
ATOM     17  O   UNL     1      29.542  19.039  14.373  1.00  0.00    -0.550 OA
ENDBRANCH  14  15
ENDBRANCH  13  14
ENDBRANCH  12  13
ENDBRANCH  11  12
ENDBRANCH  10  11
ENDBRANCH   9  10
ENDBRANCH   8   9
ENDBRANCH   7   8
ENDBRANCH   6   7
ENDBRANCH   5   6
ENDBRANCH   4   5
ENDBRANCH   3   4
ENDBRANCH   2   3
ENDBRANCH   1   2
BRANCH   1  18
ATOM     18  C   UNL     1      20.934  21.849  15.376  1.00  0.00     0.000 C 
BRANCH  18  19
ATOM     19  C   UNL     1      20.890  21.667  16.906  1.00  0.00     0.000 C 
BRANCH  19  20
ATOM     20  C   UNL     1      21.413  22.885  17.697  1.00  0.00     0.000 C 
BRANCH  20  21
ATOM     21  C   UNL     1      20.892  22.930  19.145  1.00  0.00     0.000 C 
BRANCH  21  22
ATOM     22  C   UNL     1      21.048  24.317  19.795  1.00  0.00     0.000 C 
BRANCH  22  23
ATOM     23  C   UNL     1      22.415  24.991  19.574  1.00  0.00     0.000 C 
BRANCH  23  24
ATOM     24  C   UNL     1      22.319  26.309  18.792  1.00  0.00    -0.000 C 
BRANCH  24  25
ATOM     25  C   UNL     1      21.343  27.278  19.475  1.00  0.00    -0.000 C 
BRANCH  25  26
ATOM     26  C   UNL     1      22.039  28.503  20.096  1.00  0.00    -0.000 C 
BRANCH  26  27
ATOM     27  C   UNL     1      23.226  29.053  19.286  1.00  0.00    -0.000 C 
BRANCH  27  28
ATOM     28  C   UNL     1      24.305  29.702  20.171  1.00  0.00    -0.000 C 
BRANCH  28  29
ATOM     29  C   UNL     1      25.586  28.854  20.275  1.00  0.00    -0.000 C 
BRANCH  29  30
ATOM     30  C   UNL     1      25.680  27.698  19.264  1.00  0.00    -0.000 C 
BRANCH  30  31
ATOM     31  C   UNL     1      27.062  27.586  18.608  1.00  0.00    -0.003 C 
ATOM     32  C   UNL     1      27.984  28.709  19.073  1.00  0.00     0.004 C 
ENDBRANCH  30  31
ENDBRANCH  29  30
ENDBRANCH  28  29
ENDBRANCH  27  28
ENDBRANCH  26  27
ENDBRANCH  25  26
ENDBRANCH  24  25
ENDBRANCH  23  24
ENDBRANCH  22  23
ENDBRANCH  21  22
ENDBRANCH  20  21
ENDBRANCH  19  20
ENDBRANCH  18  19
ENDBRANCH   1  18
TORSDOF 28
ENDMDL
MODEL 3
REMARK VINA RESULT:    -2.535      3.320      8.384
REMARK INTER + INTRA:         -10.192
REMARK INTER:                  -6.426
REMARK INTRA:                  -3.767
REMARK UNBOUND:                -3.509
REMARK SMILES CCCCCCCCCCCCCCCCCCCCCCCCCCCCCC(=O)[O-]
REMARK SMILES IDX 16 1 17 2 18 3 19 4 20 5 21 6 22 7 23 8 24 9 25 10 26 11
REMARK SMILES IDX 27 12 28 13 29 14 30 15 31 16 32 17 15 18 14 19 13 20 12 21
REMARK SMILES IDX 11 22 10 23 9 24 8 25 7 26 6 27 5 28 4 29 3 30 2 31 1 32
REMARK H PARENT
REMARK Flexibility Score: inf
ROOT
ATOM      1  C   UNL     1      25.526  22.873  13.606  1.00  0.00     0.000 C 
ENDROOT
BRANCH   1   2
ATOM      2  C   UNL     1      25.967  24.095  14.434  1.00  0.00     0.000 C 
BRANCH   2   3
ATOM      3  C   UNL     1      25.356  24.111  15.847  1.00  0.00     0.000 C 
BRANCH   3   4
ATOM      4  C   UNL     1      26.148  24.980  16.841  1.00  0.00     0.000 C 
BRANCH   4   5
ATOM      5  C   UNL     1      25.307  25.680  17.925  1.00  0.00     0.000 C 
BRANCH   5   6
ATOM      6  C   UNL     1      25.364  24.966  19.284  1.00  0.00     0.000 C 
BRANCH   6   7
ATOM      7  C   UNL     1      24.741  23.559  19.247  1.00  0.00     0.000 C 
BRANCH   7   8
ATOM      8  C   UNL     1      25.752  22.398  19.300  1.00  0.00     0.000 C 
BRANCH   8   9
ATOM      9  C   UNL     1      25.591  21.408  18.132  1.00  0.00     0.000 C 
BRANCH   9  10
ATOM     10  C   UNL     1      26.942  20.988  17.523  1.00  0.00     0.000 C 
BRANCH  10  11
ATOM     11  C   UNL     1      27.616  19.798  18.235  1.00  0.00     0.000 C 
BRANCH  11  12
ATOM     12  C   UNL     1      28.767  19.159  17.433  1.00  0.00     0.000 C 
BRANCH  12  13
ATOM     13  C   UNL     1      29.503  20.179  16.550  1.00  0.00     0.006 C 
BRANCH  13  14
ATOM     14  C   UNL     1      29.249  19.899  15.064  1.00  0.00     0.053 C 
BRANCH  14  15
ATOM     15  C   UNL     1      29.868  18.599  14.651  1.00  0.00     0.041 C 
ATOM     16  O   UNL     1      31.081  18.553  14.310  1.00  0.00    -0.550 OA
ATOM     17  O   UNL     1      29.101  17.437  14.631  1.00  0.00    -0.550 OA
ENDBRANCH  14  15
ENDBRANCH  13  14
ENDBRANCH  12  13
ENDBRANCH  11  12
ENDBRANCH  10  11
ENDBRANCH   9  10
ENDBRANCH   8   9
ENDBRANCH   7   8
ENDBRANCH   6   7
ENDBRANCH   5   6
ENDBRANCH   4   5
ENDBRANCH   3   4
ENDBRANCH   2   3
ENDBRANCH   1   2
BRANCH   1  18
ATOM     18  C   UNL     1      24.197  22.228  14.043  1.00  0.00     0.000 C 
BRANCH  18  19
ATOM     19  C   UNL     1      22.927  22.859  13.438  1.00  0.00     0.000 C 
BRANCH  19  20
ATOM     20  C   UNL     1      21.665  22.684  14.310  1.00  0.00     0.000 C 
BRANCH  20  21
ATOM     21  C   UNL     1      21.971  22.090  15.697  1.00  0.00     0.000 C 
BRANCH  21  22
ATOM     22  C   UNL     1      20.932  22.488  16.761  1.00  0.00     0.000 C 
BRANCH  22  23
ATOM     23  C   UNL     1      21.461  23.410  17.876  1.00  0.00     0.000 C 
BRANCH  23  24
ATOM     24  C   UNL     1      21.857  24.804  17.369  1.00  0.00    -0.000 C 
BRANCH  24  25
ATOM     25  C   UNL     1      21.178  25.900  18.204  1.00  0.00    -0.000 C 
BRANCH  25  26
ATOM     26  C   UNL     1      21.886  26.167  19.545  1.00  0.00    -0.000 C 
BRANCH  26  27
ATOM     27  C   UNL     1      21.704  27.591  20.101  1.00  0.00    -0.000 C 
BRANCH  27  28
ATOM     28  C   UNL     1      21.805  28.676  19.014  1.00  0.00    -0.000 C 
BRANCH  28  29
ATOM     29  C   UNL     1      22.579  29.922  19.481  1.00  0.00    -0.000 C 
BRANCH  29  30
ATOM     30  C   UNL     1      24.039  29.994  19.000  1.00  0.00    -0.000 C 
BRANCH  30  31
ATOM     31  C   UNL     1      25.053  29.938  20.149  1.00  0.00    -0.003 C 
ATOM     32  C   UNL     1      25.409  28.497  20.498  1.00  0.00     0.004 C 
ENDBRANCH  30  31
ENDBRANCH  29  30
ENDBRANCH  28  29
ENDBRANCH  27  28
ENDBRANCH  26  27
ENDBRANCH  25  26
ENDBRANCH  24  25
ENDBRANCH  23  24
ENDBRANCH  22  23
ENDBRANCH  21  22
ENDBRANCH  20  21
ENDBRANCH  19  20
ENDBRANCH  18  19
ENDBRANCH   1  18
TORSDOF 28
ENDMDL
MODEL 4
REMARK VINA RESULT:    -2.380      1.870      5.514
REMARK INTER + INTRA:          -9.783
REMARK INTER:                  -6.843
REMARK INTRA:                  -2.941
REMARK UNBOUND:                -3.509
REMARK SMILES CCCCCCCCCCCCCCCCCCCCCCCCCCCCCC(=O)[O-]
REMARK SMILES IDX 16 1 17 2 18 3 19 4 20 5 21 6 22 7 23 8 24 9 25 10 26 11
REMARK SMILES IDX 27 12 28 13 29 14 30 15 31 16 32 17 15 18 14 19 13 20 12 21
REMARK SMILES IDX 11 22 10 23 9 24 8 25 7 26 6 27 5 28 4 29 3 30 2 31 1 32
REMARK H PARENT
REMARK Flexibility Score: inf
ROOT
ATOM      1  C   UNL     1      26.300  28.033  19.964  1.00  0.00     0.000 C 
ENDROOT
BRANCH   1   2
ATOM      2  C   UNL     1      25.553  29.354  20.227  1.00  0.00     0.000 C 
BRANCH   2   3
ATOM      3  C   UNL     1      24.023  29.180  20.255  1.00  0.00     0.000 C 
BRANCH   3   4
ATOM      4  C   UNL     1      23.308  29.915  19.106  1.00  0.00     0.000 C 
BRANCH   4   5
ATOM      5  C   UNL     1      21.834  29.525  18.887  1.00  0.00     0.000 C 
BRANCH   5   6
ATOM      6  C   UNL     1      21.622  28.655  17.638  1.00  0.00     0.000 C 
BRANCH   6   7
ATOM      7  C   UNL     1      21.693  27.148  17.941  1.00  0.00     0.000 C 
BRANCH   7   8
ATOM      8  C   UNL     1      21.850  26.790  19.431  1.00  0.00     0.000 C 
BRANCH   8   9
ATOM      9  C   UNL     1      21.157  25.468  19.806  1.00  0.00     0.000 C 
BRANCH   9  10
ATOM     10  C   UNL     1      20.897  24.569  18.582  1.00  0.00     0.000 C 
BRANCH  10  11
ATOM     11  C   UNL     1      21.345  23.105  18.763  1.00  0.00     0.000 C 
BRANCH  11  12
ATOM     12  C   UNL     1      20.882  22.164  17.633  1.00  0.00     0.000 C 
BRANCH  12  13
ATOM     13  C   UNL     1      21.094  22.775  16.239  1.00  0.00     0.006 C 
BRANCH  13  14
ATOM     14  C   UNL     1      22.287  22.122  15.532  1.00  0.00     0.053 C 
BRANCH  14  15
ATOM     15  C   UNL     1      22.391  22.590  14.112  1.00  0.00     0.041 C 
ATOM     16  O   UNL     1      23.499  22.554  13.511  1.00  0.00    -0.550 OA
ATOM     17  O   UNL     1      21.265  23.079  13.455  1.00  0.00    -0.550 OA
ENDBRANCH  14  15
ENDBRANCH  13  14
ENDBRANCH  12  13
ENDBRANCH  11  12
ENDBRANCH  10  11
ENDBRANCH   9  10
ENDBRANCH   8   9
ENDBRANCH   7   8
ENDBRANCH   6   7
ENDBRANCH   5   6
ENDBRANCH   4   5
ENDBRANCH   3   4
ENDBRANCH   2   3
ENDBRANCH   1   2
BRANCH   1  18
ATOM     18  C   UNL     1      26.158  27.470  18.537  1.00  0.00     0.000 C 
BRANCH  18  19
ATOM     19  C   UNL     1      25.407  26.129  18.428  1.00  0.00     0.000 C 
BRANCH  19  20
ATOM     20  C   UNL     1      25.848  25.259  17.231  1.00  0.00     0.000 C 
BRANCH  20  21
ATOM     21  C   UNL     1      25.087  23.924  17.146  1.00  0.00     0.000 C 
BRANCH  21  22
ATOM     22  C   UNL     1      24.784  23.318  18.529  1.00  0.00     0.000 C 
BRANCH  22  23
ATOM     23  C   UNL     1      25.824  22.303  19.038  1.00  0.00     0.000 C 
BRANCH  23  24
ATOM     24  C   UNL     1      26.624  21.639  17.908  1.00  0.00    -0.000 C 
BRANCH  24  25
ATOM     25  C   UNL     1      26.952  20.180  18.259  1.00  0.00    -0.000 C 
BRANCH  25  26
ATOM     26  C   UNL     1      28.286  19.697  17.659  1.00  0.00    -0.000 C 
BRANCH  26  27
ATOM     27  C   UNL     1      28.659  20.337  16.311  1.00  0.00    -0.000 C 
BRANCH  27  28
ATOM     28  C   UNL     1      30.153  20.189  15.971  1.00  0.00    -0.000 C 
BRANCH  28  29
ATOM     29  C   UNL     1      30.414  19.183  14.835  1.00  0.00    -0.000 C 
BRANCH  29  30
ATOM     30  C   UNL     1      29.177  18.389  14.379  1.00  0.00    -0.000 C 
BRANCH  30  31
ATOM     31  C   UNL     1      29.174  16.941  14.885  1.00  0.00    -0.003 C 
ATOM     32  C   UNL     1      28.241  16.779  16.080  1.00  0.00     0.004 C 
ENDBRANCH  30  31
ENDBRANCH  29  30
ENDBRANCH  28  29
ENDBRANCH  27  28
ENDBRANCH  26  27
ENDBRANCH  25  26
ENDBRANCH  24  25
ENDBRANCH  23  24
ENDBRANCH  22  23
ENDBRANCH  21  22
ENDBRANCH  20  21
ENDBRANCH  19  20
ENDBRANCH  18  19
ENDBRANCH   1  18
TORSDOF 28
ENDMDL
MODEL 5
REMARK VINA RESULT:    -2.242      2.077      5.910
REMARK INTER + INTRA:          -9.421
REMARK INTER:                  -7.262
REMARK INTRA:                  -2.160
REMARK UNBOUND:                -3.509
REMARK SMILES CCCCCCCCCCCCCCCCCCCCCCCCCCCCCC(=O)[O-]
REMARK SMILES IDX 16 1 17 2 18 3 19 4 20 5 21 6 22 7 23 8 24 9 25 10 26 11
REMARK SMILES IDX 27 12 28 13 29 14 30 15 31 16 32 17 15 18 14 19 13 20 12 21
REMARK SMILES IDX 11 22 10 23 9 24 8 25 7 26 6 27 5 28 4 29 3 30 2 31 1 32
REMARK H PARENT
REMARK Flexibility Score: inf
ROOT
ATOM      1  C   UNL     1      25.459  26.784  20.009  1.00  0.00     0.000 C 
ENDROOT
BRANCH   1   2
ATOM      2  C   UNL     1      24.377  27.412  20.908  1.00  0.00     0.000 C 
BRANCH   2   3
ATOM      3  C   UNL     1      23.081  26.583  20.950  1.00  0.00     0.000 C 
BRANCH   3   4
ATOM      4  C   UNL     1      21.927  27.219  20.153  1.00  0.00     0.000 C 
BRANCH   4   5
ATOM      5  C   UNL     1      20.899  26.230  19.572  1.00  0.00     0.000 C 
BRANCH   5   6
ATOM      6  C   UNL     1      20.947  26.145  18.039  1.00  0.00     0.000 C 
BRANCH   6   7
ATOM      7  C   UNL     1      20.990  24.695  17.523  1.00  0.00     0.000 C 
BRANCH   7   8
ATOM      8  C   UNL     1      21.586  23.671  18.507  1.00  0.00     0.000 C 
BRANCH   8   9
ATOM      9  C   UNL     1      21.324  22.214  18.087  1.00  0.00     0.000 C 
BRANCH   9  10
ATOM     10  C   UNL     1      20.877  22.093  16.618  1.00  0.00     0.000 C 
BRANCH  10  11
ATOM     11  C   UNL     1      22.023  22.213  15.594  1.00  0.00     0.000 C 
BRANCH  11  12
ATOM     12  C   UNL     1      21.578  22.733  14.213  1.00  0.00     0.000 C 
BRANCH  12  13
ATOM     13  C   UNL     1      22.752  23.287  13.390  1.00  0.00     0.006 C 
BRANCH  13  14
ATOM     14  C   UNL     1      23.785  22.191  13.106  1.00  0.00     0.053 C 
BRANCH  14  15
ATOM     15  C   UNL     1      25.164  22.645  13.476  1.00  0.00     0.041 C 
ATOM     16  O   UNL     1      26.113  21.817  13.530  1.00  0.00    -0.550 OA
ATOM     17  O   UNL     1      25.399  23.985  13.773  1.00  0.00    -0.550 OA
ENDBRANCH  14  15
ENDBRANCH  13  14
ENDBRANCH  12  13
ENDBRANCH  11  12
ENDBRANCH  10  11
ENDBRANCH   9  10
ENDBRANCH   8   9
ENDBRANCH   7   8
ENDBRANCH   6   7
ENDBRANCH   5   6
ENDBRANCH   4   5
ENDBRANCH   3   4
ENDBRANCH   2   3
ENDBRANCH   1   2
BRANCH   1  18
ATOM     18  C   UNL     1      24.948  26.185  18.685  1.00  0.00     0.000 C 
BRANCH  18  19
ATOM     19  C   UNL     1      25.104  24.658  18.547  1.00  0.00     0.000 C 
BRANCH  19  20
ATOM     20  C   UNL     1      25.153  24.163  17.085  1.00  0.00     0.000 C 
BRANCH  20  21
ATOM     21  C   UNL     1      25.040  22.633  16.966  1.00  0.00     0.000 C 
BRANCH  21  22
ATOM     22  C   UNL     1      24.754  21.946  18.313  1.00  0.00     0.000 C 
BRANCH  22  23
ATOM     23  C   UNL     1      25.919  21.113  18.879  1.00  0.00     0.000 C 
BRANCH  23  24
ATOM     24  C   UNL     1      27.106  20.998  17.912  1.00  0.00    -0.000 C 
BRANCH  24  25
ATOM     25  C   UNL     1      27.849  19.669  18.118  1.00  0.00    -0.000 C 
BRANCH  25  26
ATOM     26  C   UNL     1      29.151  19.569  17.303  1.00  0.00    -0.000 C 
BRANCH  26  27
ATOM     27  C   UNL     1      29.091  20.208  15.904  1.00  0.00    -0.000 C 
BRANCH  27  28
ATOM     28  C   UNL     1      30.049  19.543  14.900  1.00  0.00    -0.000 C 
BRANCH  28  29
ATOM     29  C   UNL     1      29.793  18.034  14.736  1.00  0.00    -0.000 C 
BRANCH  29  30
ATOM     30  C   UNL     1      29.096  17.362  15.932  1.00  0.00    -0.000 C 
BRANCH  30  31
ATOM     31  C   UNL     1      28.134  16.243  15.515  1.00  0.00    -0.003 C 
ATOM     32  C   UNL     1      27.922  16.236  14.005  1.00  0.00     0.004 C 
ENDBRANCH  30  31
ENDBRANCH  29  30
ENDBRANCH  28  29
ENDBRANCH  27  28
ENDBRANCH  26  27
ENDBRANCH  25  26
ENDBRANCH  24  25
ENDBRANCH  23  24
ENDBRANCH  22  23
ENDBRANCH  21  22
ENDBRANCH  20  21
ENDBRANCH  19  20
ENDBRANCH  18  19
ENDBRANCH   1  18
TORSDOF 28
ENDMDL
MODEL 6
REMARK VINA RESULT:    -2.186      1.424      3.396
REMARK INTER + INTRA:          -9.274
REMARK INTER:                  -6.681
REMARK INTRA:                  -2.593
REMARK UNBOUND:                -3.509
REMARK SMILES CCCCCCCCCCCCCCCCCCCCCCCCCCCCCC(=O)[O-]
REMARK SMILES IDX 16 1 17 2 18 3 19 4 20 5 21 6 22 7 23 8 24 9 25 10 26 11
REMARK SMILES IDX 27 12 28 13 29 14 30 15 31 16 32 17 15 18 14 19 13 20 12 21
REMARK SMILES IDX 11 22 10 23 9 24 8 25 7 26 6 27 5 28 4 29 3 30 2 31 1 32
REMARK H PARENT
REMARK Flexibility Score: inf
ROOT
ATOM      1  C   UNL     1      21.842  21.282  16.664  1.00  0.00     0.000 C 
ENDROOT
BRANCH   1   2
ATOM      2  C   UNL     1      21.469  21.882  15.295  1.00  0.00     0.000 C 
BRANCH   2   3
ATOM      3  C   UNL     1      22.309  23.121  14.938  1.00  0.00     0.000 C 
BRANCH   3   4
ATOM      4  C   UNL     1      23.577  22.782  14.132  1.00  0.00     0.000 C 
BRANCH   4   5
ATOM      5  C   UNL     1      24.881  22.712  14.948  1.00  0.00     0.000 C 
BRANCH   5   6
ATOM      6  C   UNL     1      25.764  23.958  14.779  1.00  0.00     0.000 C 
BRANCH   6   7
ATOM      7  C   UNL     1      26.361  24.452  16.110  1.00  0.00     0.000 C 
BRANCH   7   8
ATOM      8  C   UNL     1      25.355  25.122  17.065  1.00  0.00     0.000 C 
BRANCH   8   9
ATOM      9  C   UNL     1      26.004  26.186  17.968  1.00  0.00     0.000 C 
BRANCH   9  10
ATOM     10  C   UNL     1      25.706  25.956  19.461  1.00  0.00     0.000 C 
BRANCH  10  11
ATOM     11  C   UNL     1      24.533  26.793  20.010  1.00  0.00     0.000 C 
BRANCH  11  12
ATOM     12  C   UNL     1      24.968  27.966  20.911  1.00  0.00     0.000 C 
BRANCH  12  13
ATOM     13  C   UNL     1      24.235  29.272  20.566  1.00  0.00     0.006 C 
BRANCH  13  14
ATOM     14  C   UNL     1      24.202  29.496  19.050  1.00  0.00     0.053 C 
BRANCH  14  15
ATOM     15  C   UNL     1      22.797  29.690  18.567  1.00  0.00     0.041 C 
ATOM     16  O   UNL     1      21.824  29.460  19.335  1.00  0.00    -0.550 OA
ATOM     17  O   UNL     1      22.561  30.117  17.263  1.00  0.00    -0.550 OA
ENDBRANCH  14  15
ENDBRANCH  13  14
ENDBRANCH  12  13
ENDBRANCH  11  12
ENDBRANCH  10  11
ENDBRANCH   9  10
ENDBRANCH   8   9
ENDBRANCH   7   8
ENDBRANCH   6   7
ENDBRANCH   5   6
ENDBRANCH   4   5
ENDBRANCH   3   4
ENDBRANCH   2   3
ENDBRANCH   1   2
BRANCH   1  18
ATOM     18  C   UNL     1      20.880  21.627  17.817  1.00  0.00     0.000 C 
BRANCH  18  19
ATOM     19  C   UNL     1      21.248  22.882  18.631  1.00  0.00     0.000 C 
BRANCH  19  20
ATOM     20  C   UNL     1      22.729  23.300  18.502  1.00  0.00     0.000 C 
BRANCH  20  21
ATOM     21  C   UNL     1      23.692  22.324  19.201  1.00  0.00     0.000 C 
BRANCH  21  22
ATOM     22  C   UNL     1      25.140  22.442  18.691  1.00  0.00     0.000 C 
BRANCH  22  23
ATOM     23  C   UNL     1      25.954  21.135  18.733  1.00  0.00     0.000 C 
BRANCH  23  24
ATOM     24  C   UNL     1      26.859  20.949  17.507  1.00  0.00    -0.000 C 
BRANCH  24  25
ATOM     25  C   UNL     1      28.205  20.328  17.913  1.00  0.00    -0.000 C 
BRANCH  25  26
ATOM     26  C   UNL     1      28.184  18.789  17.925  1.00  0.00    -0.000 C 
BRANCH  26  27
ATOM     27  C   UNL     1      29.310  18.120  17.116  1.00  0.00    -0.000 C 
BRANCH  27  28
ATOM     28  C   UNL     1      28.822  16.911  16.298  1.00  0.00    -0.000 C 
BRANCH  28  29
ATOM     29  C   UNL     1      28.849  17.163  14.779  1.00  0.00    -0.000 C 
BRANCH  29  30
ATOM     30  C   UNL     1      29.066  18.631  14.372  1.00  0.00    -0.000 C 
BRANCH  30  31
ATOM     31  C   UNL     1      30.510  19.105  14.578  1.00  0.00    -0.003 C 
ATOM     32  C   UNL     1      30.696  20.534  14.079  1.00  0.00     0.004 C 
ENDBRANCH  30  31
ENDBRANCH  29  30
ENDBRANCH  28  29
ENDBRANCH  27  28
ENDBRANCH  26  27
ENDBRANCH  25  26
ENDBRANCH  24  25
ENDBRANCH  23  24
ENDBRANCH  22  23
ENDBRANCH  21  22
ENDBRANCH  20  21
ENDBRANCH  19  20
ENDBRANCH  18  19
ENDBRANCH   1  18
TORSDOF 28
ENDMDL
MODEL 7
REMARK VINA RESULT:    -1.823      2.523      7.527
REMARK INTER + INTRA:          -8.316
REMARK INTER:                  -4.848
REMARK INTRA:                  -3.469
REMARK UNBOUND:                -3.509
REMARK SMILES CCCCCCCCCCCCCCCCCCCCCCCCCCCCCC(=O)[O-]
REMARK SMILES IDX 16 1 17 2 18 3 19 4 20 5 21 6 22 7 23 8 24 9 25 10 26 11
REMARK SMILES IDX 27 12 28 13 29 14 30 15 31 16 32 17 15 18 14 19 13 20 12 21
REMARK SMILES IDX 11 22 10 23 9 24 8 25 7 26 6 27 5 28 4 29 3 30 2 31 1 32
REMARK H PARENT
REMARK Flexibility Score: inf
ROOT
ATOM      1  C   UNL     1      28.398  18.641  17.061  1.00  0.00     0.000 C 
ENDROOT
BRANCH   1   2
ATOM      2  C   UNL     1      29.836  18.821  16.538  1.00  0.00     0.000 C 
BRANCH   2   3
ATOM      3  C   UNL     1      29.971  20.001  15.559  1.00  0.00     0.000 C 
BRANCH   3   4
ATOM      4  C   UNL     1      28.873  20.021  14.479  1.00  0.00     0.000 C 
BRANCH   4   5
ATOM      5  C   UNL     1      27.831  21.148  14.615  1.00  0.00     0.000 C 
BRANCH   5   6
ATOM      6  C   UNL     1      27.133  21.485  13.288  1.00  0.00     0.000 C 
BRANCH   6   7
ATOM      7  C   UNL     1      25.773  22.178  13.489  1.00  0.00     0.000 C 
BRANCH   7   8
ATOM      8  C   UNL     1      25.524  22.725  14.907  1.00  0.00     0.000 C 
BRANCH   8   9
ATOM      9  C   UNL     1      24.064  23.153  15.136  1.00  0.00     0.000 C 
BRANCH   9  10
ATOM     10  C   UNL     1      23.157  21.971  15.532  1.00  0.00     0.000 C 
BRANCH  10  11
ATOM     11  C   UNL     1      21.667  22.173  15.190  1.00  0.00     0.000 C 
BRANCH  11  12
ATOM     12  C   UNL     1      21.288  23.633  14.875  1.00  0.00     0.000 C 
BRANCH  12  13
ATOM     13  C   UNL     1      20.996  23.853  13.382  1.00  0.00     0.006 C 
BRANCH  13  14
ATOM     14  C   UNL     1      21.389  22.619  12.561  1.00  0.00     0.053 C 
BRANCH  14  15
ATOM     15  C   UNL     1      21.479  22.952  11.103  1.00  0.00     0.041 C 
ATOM     16  O   UNL     1      21.731  22.050  10.260  1.00  0.00    -0.550 OA
ATOM     17  O   UNL     1      21.294  24.264  10.675  1.00  0.00    -0.550 OA
ENDBRANCH  14  15
ENDBRANCH  13  14
ENDBRANCH  12  13
ENDBRANCH  11  12
ENDBRANCH  10  11
ENDBRANCH   9  10
ENDBRANCH   8   9
ENDBRANCH   7   8
ENDBRANCH   6   7
ENDBRANCH   5   6
ENDBRANCH   4   5
ENDBRANCH   3   4
ENDBRANCH   2   3
ENDBRANCH   1   2
BRANCH   1  18
ATOM     18  C   UNL     1      27.981  19.610  18.185  1.00  0.00     0.000 C 
BRANCH  18  19
ATOM     19  C   UNL     1      27.221  20.868  17.722  1.00  0.00     0.000 C 
BRANCH  19  20
ATOM     20  C   UNL     1      25.854  21.063  18.414  1.00  0.00     0.000 C 
BRANCH  20  21
ATOM     21  C   UNL     1      25.816  22.300  19.330  1.00  0.00     0.000 C 
BRANCH  21  22
ATOM     22  C   UNL     1      25.160  23.521  18.660  1.00  0.00     0.000 C 
BRANCH  22  23
ATOM     23  C   UNL     1      23.627  23.586  18.783  1.00  0.00     0.000 C 
BRANCH  23  24
ATOM     24  C   UNL     1      23.017  24.813  18.088  1.00  0.00    -0.000 C 
BRANCH  24  25
ATOM     25  C   UNL     1      21.956  25.473  18.981  1.00  0.00    -0.000 C 
BRANCH  25  26
ATOM     26  C   UNL     1      22.413  25.643  20.442  1.00  0.00    -0.000 C 
BRANCH  26  27
ATOM     27  C   UNL     1      22.687  27.095  20.870  1.00  0.00    -0.000 C 
BRANCH  27  28
ATOM     28  C   UNL     1      22.750  28.069  19.680  1.00  0.00    -0.000 C 
BRANCH  28  29
ATOM     29  C   UNL     1      24.182  28.285  19.156  1.00  0.00    -0.000 C 
BRANCH  29  30
ATOM     30  C   UNL     1      25.276  27.536  19.938  1.00  0.00    -0.000 C 
BRANCH  30  31
ATOM     31  C   UNL     1      26.257  26.786  19.028  1.00  0.00    -0.003 C 
ATOM     32  C   UNL     1      27.255  27.746  18.387  1.00  0.00     0.004 C 
ENDBRANCH  30  31
ENDBRANCH  29  30
ENDBRANCH  28  29
ENDBRANCH  27  28
ENDBRANCH  26  27
ENDBRANCH  25  26
ENDBRANCH  24  25
ENDBRANCH  23  24
ENDBRANCH  22  23
ENDBRANCH  21  22
ENDBRANCH  20  21
ENDBRANCH  19  20
ENDBRANCH  18  19
ENDBRANCH   1  18
TORSDOF 28
ENDMDL
MODEL 8
REMARK VINA RESULT:    -1.793      1.782      5.948
REMARK INTER + INTRA:          -8.237
REMARK INTER:                  -4.679
REMARK INTRA:                  -3.558
REMARK UNBOUND:                -3.509
REMARK SMILES CCCCCCCCCCCCCCCCCCCCCCCCCCCCCC(=O)[O-]
REMARK SMILES IDX 16 1 17 2 18 3 19 4 20 5 21 6 22 7 23 8 24 9 25 10 26 11
REMARK SMILES IDX 27 12 28 13 29 14 30 15 31 16 32 17 15 18 14 19 13 20 12 21
REMARK SMILES IDX 11 22 10 23 9 24 8 25 7 26 6 27 5 28 4 29 3 30 2 31 1 32
REMARK H PARENT
REMARK Flexibility Score: inf
ROOT
ATOM      1  C   UNL     1      27.838  20.378  17.855  1.00  0.00     0.000 C 
ENDROOT
BRANCH   1   2
ATOM      2  C   UNL     1      26.413  20.732  18.321  1.00  0.00     0.000 C 
BRANCH   2   3
ATOM      3  C   UNL     1      25.872  22.015  17.666  1.00  0.00     0.000 C 
BRANCH   3   4
ATOM      4  C   UNL     1      25.470  23.095  18.688  1.00  0.00     0.000 C 
BRANCH   4   5
ATOM      5  C   UNL     1      23.955  23.285  18.889  1.00  0.00     0.000 C 
BRANCH   5   6
ATOM      6  C   UNL     1      23.498  24.736  18.676  1.00  0.00     0.000 C 
BRANCH   6   7
ATOM      7  C   UNL     1      22.152  25.044  19.357  1.00  0.00     0.000 C 
BRANCH   7   8
ATOM      8  C   UNL     1      21.602  26.460  19.100  1.00  0.00     0.000 C 
BRANCH   8   9
ATOM      9  C   UNL     1      21.622  27.348  20.357  1.00  0.00     0.000 C 
BRANCH   9  10
ATOM     10  C   UNL     1      21.867  28.833  20.027  1.00  0.00     0.000 C 
BRANCH  10  11
ATOM     11  C   UNL     1      22.472  29.082  18.631  1.00  0.00     0.000 C 
BRANCH  11  12
ATOM     12  C   UNL     1      23.811  29.843  18.656  1.00  0.00     0.000 C 
BRANCH  12  13
ATOM     13  C   UNL     1      24.373  29.995  20.079  1.00  0.00     0.006 C 
BRANCH  13  14
ATOM     14  C   UNL     1      25.750  29.332  20.196  1.00  0.00     0.053 C 
BRANCH  14  15
ATOM     15  C   UNL     1      25.665  27.864  19.905  1.00  0.00     0.041 C 
ATOM     16  O   UNL     1      25.066  27.092  20.701  1.00  0.00    -0.550 OA
ATOM     17  O   UNL     1      26.257  27.347  18.756  1.00  0.00    -0.550 OA
ENDBRANCH  14  15
ENDBRANCH  13  14
ENDBRANCH  12  13
ENDBRANCH  11  12
ENDBRANCH  10  11
ENDBRANCH   9  10
ENDBRANCH   8   9
ENDBRANCH   7   8
ENDBRANCH   6   7
ENDBRANCH   5   6
ENDBRANCH   4   5
ENDBRANCH   3   4
ENDBRANCH   2   3
ENDBRANCH   1   2
BRANCH   1  18
ATOM     18  C   UNL     1      28.109  18.875  17.650  1.00  0.00     0.000 C 
BRANCH  18  19
ATOM     19  C   UNL     1      29.463  18.531  17.000  1.00  0.00     0.000 C 
BRANCH  19  20
ATOM     20  C   UNL     1      29.449  18.587  15.457  1.00  0.00     0.000 C 
BRANCH  20  21
ATOM     21  C   UNL     1      29.589  20.018  14.907  1.00  0.00     0.000 C 
BRANCH  21  22
ATOM     22  C   UNL     1      28.460  20.398  13.932  1.00  0.00     0.000 C 
BRANCH  22  23
ATOM     23  C   UNL     1      27.469  21.452  14.461  1.00  0.00     0.000 C 
BRANCH  23  24
ATOM     24  C   UNL     1      26.370  21.809  13.450  1.00  0.00    -0.000 C 
BRANCH  24  25
ATOM     25  C   UNL     1      25.255  22.623  14.124  1.00  0.00    -0.000 C 
BRANCH  25  26
ATOM     26  C   UNL     1      24.009  22.795  13.236  1.00  0.00    -0.000 C 
BRANCH  26  27
ATOM     27  C   UNL     1      22.665  22.662  13.974  1.00  0.00    -0.000 C 
BRANCH  27  28
ATOM     28  C   UNL     1      22.695  23.269  15.388  1.00  0.00    -0.000 C 
BRANCH  28  29
ATOM     29  C   UNL     1      21.317  23.261  16.075  1.00  0.00    -0.000 C 
BRANCH  29  30
ATOM     30  C   UNL     1      20.875  21.891  16.621  1.00  0.00    -0.000 C 
BRANCH  30  31
ATOM     31  C   UNL     1      22.043  20.916  16.810  1.00  0.00    -0.003 C 
ATOM     32  C   UNL     1      21.831  20.037  18.039  1.00  0.00     0.004 C 
ENDBRANCH  30  31
ENDBRANCH  29  30
ENDBRANCH  28  29
ENDBRANCH  27  28
ENDBRANCH  26  27
ENDBRANCH  25  26
ENDBRANCH  24  25
ENDBRANCH  23  24
ENDBRANCH  22  23
ENDBRANCH  21  22
ENDBRANCH  20  21
ENDBRANCH  19  20
ENDBRANCH  18  19
ENDBRANCH   1  18
TORSDOF 28
ENDMDL
MODEL 9
REMARK VINA RESULT:    -1.716      2.129      7.932
REMARK INTER + INTRA:          -8.034
REMARK INTER:                  -3.957
REMARK INTRA:                  -4.076
REMARK UNBOUND:                -3.509
REMARK SMILES CCCCCCCCCCCCCCCCCCCCCCCCCCCCCC(=O)[O-]
REMARK SMILES IDX 16 1 17 2 18 3 19 4 20 5 21 6 22 7 23 8 24 9 25 10 26 11
REMARK SMILES IDX 27 12 28 13 29 14 30 15 31 16 32 17 15 18 14 19 13 20 12 21
REMARK SMILES IDX 11 22 10 23 9 24 8 25 7 26 6 27 5 28 4 29 3 30 2 31 1 32
REMARK H PARENT
REMARK Flexibility Score: inf
ROOT
ATOM      1  C   UNL     1      29.115  18.493  16.861  1.00  0.00     0.000 C 
ENDROOT
BRANCH   1   2
ATOM      2  C   UNL     1      30.428  18.730  16.091  1.00  0.00     0.000 C 
BRANCH   2   3
ATOM      3  C   UNL     1      30.249  19.662  14.879  1.00  0.00     0.000 C 
BRANCH   3   4
ATOM      4  C   UNL     1      28.799  19.713  14.362  1.00  0.00     0.000 C 
BRANCH   4   5
ATOM      5  C   UNL     1      28.102  21.082  14.479  1.00  0.00     0.000 C 
BRANCH   5   6
ATOM      6  C   UNL     1      27.352  21.485  13.201  1.00  0.00     0.000 C 
BRANCH   6   7
ATOM      7  C   UNL     1      25.885  21.869  13.466  1.00  0.00     0.000 C 
BRANCH   7   8
ATOM      8  C   UNL     1      25.687  23.085  14.391  1.00  0.00     0.000 C 
BRANCH   8   9
ATOM      9  C   UNL     1      24.239  23.607  14.393  1.00  0.00     0.000 C 
BRANCH   9  10
ATOM     10  C   UNL     1      23.230  22.551  13.901  1.00  0.00     0.000 C 
BRANCH  10  11
ATOM     11  C   UNL     1      21.798  22.743  14.439  1.00  0.00     0.000 C 
BRANCH  11  12
ATOM     12  C   UNL     1      21.734  23.420  15.822  1.00  0.00     0.000 C 
BRANCH  12  13
ATOM     13  C   UNL     1      21.374  22.431  16.942  1.00  0.00     0.006 C 
BRANCH  13  14
ATOM     14  C   UNL     1      20.939  21.082  16.360  1.00  0.00     0.053 C 
BRANCH  14  15
ATOM     15  C   UNL     1      21.489  19.946  17.168  1.00  0.00     0.041 C 
ATOM     16  O   UNL     1      21.094  18.767  16.960  1.00  0.00    -0.550 OA
ATOM     17  O   UNL     1      22.434  20.192  18.161  1.00  0.00    -0.550 OA
ENDBRANCH  14  15
ENDBRANCH  13  14
ENDBRANCH  12  13
ENDBRANCH  11  12
ENDBRANCH  10  11
ENDBRANCH   9  10
ENDBRANCH   8   9
ENDBRANCH   7   8
ENDBRANCH   6   7
ENDBRANCH   5   6
ENDBRANCH   4   5
ENDBRANCH   3   4
ENDBRANCH   2   3
ENDBRANCH   1   2
BRANCH   1  18
ATOM     18  C   UNL     1      28.705  19.623  17.825  1.00  0.00     0.000 C 
BRANCH  18  19
ATOM     19  C   UNL     1      27.189  19.774  18.057  1.00  0.00     0.000 C 
BRANCH  19  20
ATOM     20  C   UNL     1      26.756  21.201  18.456  1.00  0.00     0.000 C 
BRANCH  20  21
ATOM     21  C   UNL     1      25.473  21.662  17.742  1.00  0.00     0.000 C 
BRANCH  21  22
ATOM     22  C   UNL     1      24.808  22.871  18.424  1.00  0.00     0.000 C 
BRANCH  22  23
ATOM     23  C   UNL     1      25.276  24.246  17.913  1.00  0.00     0.000 C 
BRANCH  23  24
ATOM     24  C   UNL     1      24.584  25.421  18.618  1.00  0.00    -0.000 C 
BRANCH  24  25
ATOM     25  C   UNL     1      23.109  25.096  18.896  1.00  0.00    -0.000 C 
BRANCH  25  26
ATOM     26  C   UNL     1      22.613  25.636  20.250  1.00  0.00    -0.000 C 
BRANCH  26  27
ATOM     27  C   UNL     1      21.711  26.880  20.160  1.00  0.00    -0.000 C 
BRANCH  27  28
ATOM     28  C   UNL     1      21.505  27.367  18.715  1.00  0.00    -0.000 C 
BRANCH  28  29
ATOM     29  C   UNL     1      22.083  28.773  18.468  1.00  0.00    -0.000 C 
BRANCH  29  30
ATOM     30  C   UNL     1      22.963  29.319  19.605  1.00  0.00    -0.000 C 
BRANCH  30  31
ATOM     31  C   UNL     1      24.464  29.215  19.305  1.00  0.00    -0.003 C 
ATOM     32  C   UNL     1      25.202  28.507  20.436  1.00  0.00     0.004 C 
ENDBRANCH  30  31
ENDBRANCH  29  30
ENDBRANCH  28  29
ENDBRANCH  27  28
ENDBRANCH  26  27
ENDBRANCH  25  26
ENDBRANCH  24  25
ENDBRANCH  23  24
ENDBRANCH  22  23
ENDBRANCH  21  22
ENDBRANCH  20  21
ENDBRANCH  19  20
ENDBRANCH  18  19
ENDBRANCH   1  18
TORSDOF 28
ENDMDL
