MODEL 1
REMARK VINA RESULT:    -3.559      0.000      0.000
REMARK INTER + INTRA:          -4.222
REMARK INTER:                  -4.184
REMARK INTRA:                  -0.038
REMARK UNBOUND:                -0.038
REMARK SMILES O=C([O-])CCC(=O)[O-]
REMARK SMILES IDX 4 1 2 2 1 3 3 4 5 5 6 6 7 7 8 8
REMARK H PARENT
REMARK Flexibility Score: inf
ROOT
ATOM      1  C   UNL     1       1.251  -0.804   0.213  1.00  0.00     0.059 C 
ENDROOT
BRANCH   1   2
ATOM      2  C   UNL     1       2.277  -0.739   1.300  1.00  0.00     0.042 C 
ATOM      3  O   UNL     1       1.933  -0.866   2.504  1.00  0.00    -0.550 OA
ATOM      4  O   UNL     1       3.608  -0.490   0.986  1.00  0.00    -0.550 OA
ENDBRANCH   1   2
BRANCH   1   5
ATOM      5  C   UNL     1       0.313  -1.992   0.433  1.00  0.00     0.059 C 
BRANCH   5   6
ATOM      6  C   UNL     1      -0.290  -2.430  -0.864  1.00  0.00     0.042 C 
ATOM      7  O   UNL     1      -1.339  -3.125  -0.872  1.00  0.00    -0.550 OA
ATOM      8  O   UNL     1       0.280  -2.028  -2.066  1.00  0.00    -0.550 OA
ENDBRANCH   5   6
ENDBRANCH   1   5
TORSDOF 3
ENDMDL
MODEL 2
REMARK VINA RESULT:    -3.557      0.096      4.068
REMARK INTER + INTRA:          -4.219
REMARK INTER:                  -4.181
REMARK INTRA:                  -0.038
REMARK UNBOUND:                -0.038
REMARK SMILES O=C([O-])CCC(=O)[O-]
REMARK SMILES IDX 4 1 2 2 1 3 3 4 5 5 6 6 7 7 8 8
REMARK H PARENT
REMARK Flexibility Score: inf
ROOT
ATOM      1  C   UNL     1       0.329  -1.947   0.509  1.00  0.00     0.059 C 
ENDROOT
BRANCH   1   2
ATOM      2  C   UNL     1      -0.313  -2.402  -0.763  1.00  0.00     0.042 C 
ATOM      3  O   UNL     1      -1.342  -3.125  -0.730  1.00  0.00    -0.550 OA
ATOM      4  O   UNL     1       0.254  -2.066  -1.986  1.00  0.00    -0.550 OA
ENDBRANCH   1   2
BRANCH   1   5
ATOM      5  C   UNL     1       1.256  -0.759   0.247  1.00  0.00     0.059 C 
BRANCH   5   6
ATOM      6  C   UNL     1       2.324  -0.687   1.291  1.00  0.00     0.042 C 
ATOM      7  O   UNL     1       2.035  -0.850   2.505  1.00  0.00    -0.550 OA
ATOM      8  O   UNL     1       3.648  -0.487   0.919  1.00  0.00    -0.550 OA
ENDBRANCH   5   6
ENDBRANCH   1   5
TORSDOF 3
ENDMDL
MODEL 3
REMARK VINA RESULT:    -3.555      1.347      4.121
REMARK INTER + INTRA:          -4.217
REMARK INTER:                  -4.109
REMARK INTRA:                  -0.108
REMARK UNBOUND:                -0.038
REMARK SMILES O=C([O-])CCC(=O)[O-]
REMARK SMILES IDX 4 1 2 2 1 3 3 4 5 5 6 6 7 7 8 8
REMARK H PARENT
REMARK Flexibility Score: inf
ROOT
ATOM      1  C   UNL     1       0.721  -0.772   0.876  1.00  0.00     0.059 C 
ENDROOT
BRANCH   1   2
ATOM      2  C   UNL     1       0.371  -1.930  -0.004  1.00  0.00     0.042 C 
ATOM      3  O   UNL     1       0.804  -1.982  -1.184  1.00  0.00    -0.550 OA
ATOM      4  O   UNL     1      -0.474  -2.928   0.465  1.00  0.00    -0.550 OA
ENDBRANCH   1   2
BRANCH   1   5
ATOM      5  C   UNL     1       1.940  -1.104   1.739  1.00  0.00     0.059 C 
BRANCH   5   6
ATOM      6  C   UNL     1       3.185  -0.546   1.126  1.00  0.00     0.042 C 
ATOM      7  O   UNL     1       3.114   0.191   0.108  1.00  0.00    -0.550 OA
ATOM      8  O   UNL     1       4.420  -0.800   1.708  1.00  0.00    -0.550 OA
ENDBRANCH   5   6
ENDBRANCH   1   5
TORSDOF 3
ENDMDL
MODEL 4
REMARK VINA RESULT:    -2.993      1.328      1.960
REMARK INTER + INTRA:          -3.556
REMARK INTER:                  -3.525
REMARK INTRA:                  -0.031
REMARK UNBOUND:                -0.038
REMARK SMILES O=C([O-])CCC(=O)[O-]
REMARK SMILES IDX 4 1 2 2 1 3 3 4 5 5 6 6 7 7 8 8
REMARK H PARENT
REMARK Flexibility Score: inf
ROOT
ATOM      1  C   UNL     1       0.850  -1.260  -0.335  1.00  0.00     0.059 C 
ENDROOT
BRANCH   1   2
ATOM      2  C   UNL     1       1.116  -1.195   1.135  1.00  0.00     0.042 C 
ATOM      3  O   UNL     1       2.239  -0.818   1.560  1.00  0.00    -0.550 OA
ATOM      4  O   UNL     1       0.138  -1.596   2.037  1.00  0.00    -0.550 OA
ENDBRANCH   1   2
BRANCH   1   5
ATOM      5  C   UNL     1      -0.014  -2.477  -0.670  1.00  0.00     0.059 C 
BRANCH   5   6
ATOM      6  C   UNL     1      -0.496  -2.405  -2.084  1.00  0.00     0.042 C 
ATOM      7  O   UNL     1       0.038  -3.117  -2.973  1.00  0.00    -0.550 OA
ATOM      8  O   UNL     1      -1.571  -1.586  -2.409  1.00  0.00    -0.550 OA
ENDBRANCH   5   6
ENDBRANCH   1   5
TORSDOF 3
ENDMDL
