MODEL 1
REMARK VINA RESULT:    -7.165      0.000      0.000
REMARK INTER + INTRA:          -8.035
REMARK INTER:                  -7.793
REMARK INTRA:                  -0.242
REMARK UNBOUND:                -0.242
REMARK SMILES CC(=O)[C@@H]1CC[C@H]2[C@@H]3CC=C4C[C@H](O)CC[C@]4(C)[C@H]3CC[C@@]12C
REMARK SMILES IDX 4 1 5 2 6 3 7 4 22 5 21 6 20 7 19 8 8 9 9 10 10 11 11 12
REMARK SMILES IDX 17 13 16 14 15 15 13 16 12 17 18 18 23 19 2 20 1 21 3 22
REMARK SMILES IDX 14 23
REMARK H PARENT 14 24
REMARK Flexibility Score: inf
ROOT
ATOM      1  C   UNL     1      -0.642  18.810  48.625  1.00  0.00     0.062 C 
ATOM      2  C   UNL     1      -2.107  18.398  48.833  1.00  0.00     0.012 C 
ATOM      3  C   UNL     1      -2.931  19.689  48.851  1.00  0.00     0.005 C 
ATOM      4  C   UNL     1      -1.937  20.861  48.707  1.00  0.00    -0.001 C 
ATOM      5  C   UNL     1      -0.726  20.223  47.975  1.00  0.00    -0.020 C 
ATOM      6  C   UNL     1       0.571  21.062  48.124  1.00  0.00     0.008 C 
ATOM      7  C   UNL     1       0.853  21.513  49.552  1.00  0.00     0.005 C 
ATOM      8  C   UNL     1      -0.324  22.338  50.115  1.00  0.00     0.003 C 
ATOM      9  C   UNL     1      -1.617  21.482  50.113  1.00  0.00     0.000 C 
ATOM     10  C   UNL     1      -2.801  22.365  50.561  1.00  0.00     0.031 C 
ATOM     11  C   UNL     1      -2.520  23.167  51.796  1.00  0.00    -0.027 C 
ATOM     12  C   UNL     1      -1.285  23.558  52.163  1.00  0.00    -0.065 C 
ATOM     13  C   UNL     1      -0.017  22.959  51.539  1.00  0.00    -0.008 C 
ATOM     14  C   UNL     1       1.040  24.099  51.374  1.00  0.00     0.014 C 
ATOM     15  C   UNL     1       1.216  24.974  52.627  1.00  0.00     0.033 C 
ATOM     16  C   UNL     1      -0.113  25.586  53.081  1.00  0.00     0.118 C 
ATOM     17  C   UNL     1      -1.147  24.488  53.356  1.00  0.00     0.063 C 
ATOM     18  C   UNL     1       0.535  21.885  52.518  1.00  0.00     0.016 C 
ATOM     19  C   UNL     1      -1.053  20.132  46.453  1.00  0.00     0.012 C 
ENDROOT
BRANCH   1  20
ATOM     20  C   UNL     1       0.175  17.750  47.894  1.00  0.00     0.133 C 
ATOM     21  C   UNL     1      -0.464  16.485  47.397  1.00  0.00     0.088 C 
ATOM     22  O   UNL     1       1.388  17.855  47.799  1.00  0.00    -0.300 OA
ENDBRANCH   1  20
BRANCH  16  23
ATOM     23  O   UNL     1      -0.587  26.470  52.097  1.00  0.00    -0.393 OA
ATOM     24  H   UNL     1      -1.191  27.112  52.554  1.00  0.00     0.210 HD
ENDBRANCH  16  23
TORSDOF 2
ENDMDL
MODEL 2
REMARK VINA RESULT:    -6.975      1.565      6.954
REMARK INTER + INTRA:          -7.829
REMARK INTER:                  -7.722
REMARK INTRA:                  -0.107
REMARK UNBOUND:                -0.242
REMARK SMILES CC(=O)[C@@H]1CC[C@H]2[C@@H]3CC=C4C[C@H](O)CC[C@]4(C)[C@H]3CC[C@@]12C
REMARK SMILES IDX 4 1 5 2 6 3 7 4 22 5 21 6 20 7 19 8 8 9 9 10 10 11 11 12
REMARK SMILES IDX 17 13 16 14 15 15 13 16 12 17 18 18 23 19 2 20 1 21 3 22
REMARK SMILES IDX 14 23
REMARK H PARENT 14 24
REMARK Flexibility Score: inf
ROOT
ATOM      1  C   UNL     1      -0.176  22.692  51.549  1.00  0.00     0.062 C 
ATOM      2  C   UNL     1       1.358  22.779  51.559  1.00  0.00     0.012 C 
ATOM      3  C   UNL     1       1.825  22.520  50.124  1.00  0.00     0.005 C 
ATOM      4  C   UNL     1       0.563  22.228  49.285  1.00  0.00    -0.001 C 
ATOM      5  C   UNL     1      -0.568  22.951  50.065  1.00  0.00    -0.020 C 
ATOM      6  C   UNL     1      -1.980  22.430  49.687  1.00  0.00     0.008 C 
ATOM      7  C   UNL     1      -2.091  20.911  49.663  1.00  0.00     0.005 C 
ATOM      8  C   UNL     1      -1.071  20.296  48.682  1.00  0.00     0.003 C 
ATOM      9  C   UNL     1       0.369  20.680  49.108  1.00  0.00     0.000 C 
ATOM     10  C   UNL     1       1.360  20.160  48.046  1.00  0.00     0.031 C 
ATOM     11  C   UNL     1       1.127  18.733  47.651  1.00  0.00    -0.027 C 
ATOM     12  C   UNL     1      -0.075  18.129  47.722  1.00  0.00    -0.065 C 
ATOM     13  C   UNL     1      -1.249  18.732  48.505  1.00  0.00    -0.008 C 
ATOM     14  C   UNL     1      -2.567  18.461  47.710  1.00  0.00     0.014 C 
ATOM     15  C   UNL     1      -2.715  17.010  47.222  1.00  0.00     0.033 C 
ATOM     16  C   UNL     1      -1.518  16.574  46.371  1.00  0.00     0.118 C 
ATOM     17  C   UNL     1      -0.211  16.726  47.159  1.00  0.00     0.063 C 
ATOM     18  C   UNL     1      -1.323  18.013  49.882  1.00  0.00     0.016 C 
ATOM     19  C   UNL     1      -0.522  24.470  49.719  1.00  0.00     0.012 C 
ENDROOT
BRANCH   1  20
ATOM     20  C   UNL     1      -0.828  23.573  52.610  1.00  0.00     0.133 C 
ATOM     21  C   UNL     1      -0.021  24.157  53.734  1.00  0.00     0.088 C 
ATOM     22  O   UNL     1      -2.039  23.728  52.633  1.00  0.00    -0.300 OA
ENDBRANCH   1  20
BRANCH  16  23
ATOM     23  O   UNL     1      -1.471  17.339  45.193  1.00  0.00    -0.393 OA
ATOM     24  H   UNL     1      -1.636  18.282  45.456  1.00  0.00     0.210 HD
ENDBRANCH  16  23
TORSDOF 2
ENDMDL
MODEL 3
REMARK VINA RESULT:    -6.771      2.153      6.935
REMARK INTER + INTRA:          -7.607
REMARK INTER:                  -7.433
REMARK INTRA:                  -0.174
REMARK UNBOUND:                -0.242
REMARK SMILES CC(=O)[C@@H]1CC[C@H]2[C@@H]3CC=C4C[C@H](O)CC[C@]4(C)[C@H]3CC[C@@]12C
REMARK SMILES IDX 4 1 5 2 6 3 7 4 22 5 21 6 20 7 19 8 8 9 9 10 10 11 11 12
REMARK SMILES IDX 17 13 16 14 15 15 13 16 12 17 18 18 23 19 2 20 1 21 3 22
REMARK SMILES IDX 14 23
REMARK H PARENT 14 24
REMARK Flexibility Score: inf
ROOT
ATOM      1  C   UNL     1      -1.707  25.740  51.517  1.00  0.00     0.062 C 
ATOM      2  C   UNL     1      -1.112  26.722  50.496  1.00  0.00     0.012 C 
ATOM      3  C   UNL     1      -1.540  26.231  49.110  1.00  0.00     0.005 C 
ATOM      4  C   UNL     1      -2.343  24.930  49.320  1.00  0.00    -0.001 C 
ATOM      5  C   UNL     1      -2.894  25.071  50.764  1.00  0.00    -0.020 C 
ATOM      6  C   UNL     1      -3.338  23.713  51.369  1.00  0.00     0.008 C 
ATOM      7  C   UNL     1      -2.322  22.593  51.181  1.00  0.00     0.005 C 
ATOM      8  C   UNL     1      -2.008  22.376  49.686  1.00  0.00     0.003 C 
ATOM      9  C   UNL     1      -1.428  23.677  49.074  1.00  0.00     0.000 C 
ATOM     10  C   UNL     1      -1.239  23.475  47.556  1.00  0.00     0.031 C 
ATOM     11  C   UNL     1      -0.550  22.192  47.200  1.00  0.00    -0.027 C 
ATOM     12  C   UNL     1      -0.593  21.088  47.969  1.00  0.00    -0.065 C 
ATOM     13  C   UNL     1      -1.076  21.123  49.426  1.00  0.00    -0.008 C 
ATOM     14  C   UNL     1      -1.892  19.820  49.709  1.00  0.00     0.014 C 
ATOM     15  C   UNL     1      -1.203  18.533  49.224  1.00  0.00     0.033 C 
ATOM     16  C   UNL     1      -0.866  18.598  47.731  1.00  0.00     0.118 C 
ATOM     17  C   UNL     1       0.025  19.809  47.431  1.00  0.00     0.063 C 
ATOM     18  C   UNL     1       0.179  21.151  50.344  1.00  0.00     0.016 C 
ATOM     19  C   UNL     1      -4.146  26.000  50.732  1.00  0.00     0.012 C 
ENDROOT
BRANCH   1  20
ATOM     20  C   UNL     1      -2.008  26.393  52.862  1.00  0.00     0.133 C 
ATOM     21  C   UNL     1      -2.404  25.567  54.053  1.00  0.00     0.088 C 
ATOM     22  O   UNL     1      -2.047  27.608  52.970  1.00  0.00    -0.300 OA
ENDBRANCH   1  20
BRANCH  16  23
ATOM     23  O   UNL     1      -2.053  18.667  46.981  1.00  0.00    -0.393 OA
ATOM     24  H   UNL     1      -2.082  19.569  46.570  1.00  0.00     0.210 HD
ENDBRANCH  16  23
TORSDOF 2
ENDMDL
MODEL 4
REMARK VINA RESULT:    -6.762      1.426      6.678
REMARK INTER + INTRA:          -7.596
REMARK INTER:                  -7.331
REMARK INTRA:                  -0.265
REMARK UNBOUND:                -0.242
REMARK SMILES CC(=O)[C@@H]1CC[C@H]2[C@@H]3CC=C4C[C@H](O)CC[C@]4(C)[C@H]3CC[C@@]12C
REMARK SMILES IDX 4 1 5 2 6 3 7 4 22 5 21 6 20 7 19 8 8 9 9 10 10 11 11 12
REMARK SMILES IDX 17 13 16 14 15 15 13 16 12 17 18 18 23 19 2 20 1 21 3 22
REMARK SMILES IDX 14 23
REMARK H PARENT 14 24
REMARK Flexibility Score: inf
ROOT
ATOM      1  C   UNL     1      -0.716  23.882  50.237  1.00  0.00     0.062 C 
ATOM      2  C   UNL     1      -2.237  24.074  50.332  1.00  0.00     0.012 C 
ATOM      3  C   UNL     1      -2.837  22.700  50.646  1.00  0.00     0.005 C 
ATOM      4  C   UNL     1      -1.667  21.694  50.680  1.00  0.00    -0.001 C 
ATOM      5  C   UNL     1      -0.440  22.575  51.036  1.00  0.00    -0.020 C 
ATOM      6  C   UNL     1       0.908  21.892  50.681  1.00  0.00     0.008 C 
ATOM      7  C   UNL     1       0.942  21.285  49.283  1.00  0.00     0.005 C 
ATOM      8  C   UNL     1      -0.187  20.249  49.102  1.00  0.00     0.003 C 
ATOM      9  C   UNL     1      -1.565  20.927  49.312  1.00  0.00     0.000 C 
ATOM     10  C   UNL     1      -2.668  19.849  49.250  1.00  0.00     0.031 C 
ATOM     11  C   UNL     1      -2.540  18.924  48.077  1.00  0.00    -0.027 C 
ATOM     12  C   UNL     1      -1.367  18.643  47.477  1.00  0.00    -0.065 C 
ATOM     13  C   UNL     1      -0.102  19.478  47.721  1.00  0.00    -0.008 C 
ATOM     14  C   UNL     1       1.128  18.514  47.757  1.00  0.00     0.014 C 
ATOM     15  C   UNL     1       1.163  17.501  46.599  1.00  0.00     0.033 C 
ATOM     16  C   UNL     1      -0.122  16.670  46.536  1.00  0.00     0.118 C 
ATOM     17  C   UNL     1      -1.348  17.581  46.393  1.00  0.00     0.063 C 
ATOM     18  C   UNL     1       0.055  20.466  46.531  1.00  0.00     0.016 C 
ATOM     19  C   UNL     1      -0.441  22.835  52.573  1.00  0.00     0.012 C 
ENDROOT
BRANCH   1  20
ATOM     20  C   UNL     1       0.067  25.127  50.638  1.00  0.00     0.133 C 
ATOM     21  C   UNL     1      -0.615  26.289  51.304  1.00  0.00     0.088 C 
ATOM     22  O   UNL     1       1.240  25.254  50.324  1.00  0.00    -0.300 OA
ENDBRANCH   1  20
BRANCH  16  23
ATOM     23  O   UNL     1      -0.232  15.880  47.692  1.00  0.00    -0.393 OA
ATOM     24  H   UNL     1      -1.178  15.930  47.986  1.00  0.00     0.210 HD
ENDBRANCH  16  23
TORSDOF 2
ENDMDL
MODEL 5
REMARK VINA RESULT:    -6.523      1.863      2.693
REMARK INTER + INTRA:          -7.337
REMARK INTER:                  -7.077
REMARK INTRA:                  -0.260
REMARK UNBOUND:                -0.242
REMARK SMILES CC(=O)[C@@H]1CC[C@H]2[C@@H]3CC=C4C[C@H](O)CC[C@]4(C)[C@H]3CC[C@@]12C
REMARK SMILES IDX 4 1 5 2 6 3 7 4 22 5 21 6 20 7 19 8 8 9 9 10 10 11 11 12
REMARK SMILES IDX 17 13 16 14 15 15 13 16 12 17 18 18 23 19 2 20 1 21 3 22
REMARK SMILES IDX 14 23
REMARK H PARENT 14 24
REMARK Flexibility Score: inf
ROOT
ATOM      1  C   UNL     1      -1.189  20.271  47.971  1.00  0.00     0.062 C 
ATOM      2  C   UNL     1      -1.600  20.839  46.604  1.00  0.00     0.012 C 
ATOM      3  C   UNL     1      -1.115  22.292  46.565  1.00  0.00     0.005 C 
ATOM      4  C   UNL     1      -0.468  22.588  47.934  1.00  0.00    -0.001 C 
ATOM      5  C   UNL     1      -0.020  21.189  48.436  1.00  0.00    -0.020 C 
ATOM      6  C   UNL     1       0.234  21.157  49.966  1.00  0.00     0.008 C 
ATOM      7  C   UNL     1      -0.872  21.806  50.789  1.00  0.00     0.005 C 
ATOM      8  C   UNL     1      -1.088  23.274  50.366  1.00  0.00     0.003 C 
ATOM      9  C   UNL     1      -1.484  23.339  48.868  1.00  0.00     0.000 C 
ATOM     10  C   UNL     1      -1.572  24.819  48.438  1.00  0.00     0.031 C 
ATOM     11  C   UNL     1      -2.358  25.676  49.385  1.00  0.00    -0.027 C 
ATOM     12  C   UNL     1      -2.488  25.405  50.698  1.00  0.00    -0.065 C 
ATOM     13  C   UNL     1      -2.119  24.039  51.293  1.00  0.00    -0.008 C 
ATOM     14  C   UNL     1      -1.464  24.269  52.694  1.00  0.00     0.014 C 
ATOM     15  C   UNL     1      -2.240  25.245  53.594  1.00  0.00     0.033 C 
ATOM     16  C   UNL     1      -2.450  26.600  52.911  1.00  0.00     0.118 C 
ATOM     17  C   UNL     1      -3.188  26.425  51.578  1.00  0.00     0.063 C 
ATOM     18  C   UNL     1      -3.433  23.226  51.468  1.00  0.00     0.016 C 
ATOM     19  C   UNL     1       1.318  20.811  47.731  1.00  0.00     0.012 C 
ENDROOT
BRANCH   1  20
ATOM     20  C   UNL     1      -0.929  18.769  47.936  1.00  0.00     0.133 C 
ATOM     21  C   UNL     1      -0.737  18.046  46.634  1.00  0.00     0.088 C 
ATOM     22  O   UNL     1      -0.987  18.104  48.958  1.00  0.00    -0.300 OA
ENDBRANCH   1  20
BRANCH  16  23
ATOM     23  O   UNL     1      -1.208  27.223  52.704  1.00  0.00    -0.393 OA
ATOM     24  H   UNL     1      -0.697  27.134  53.551  1.00  0.00     0.210 HD
ENDBRANCH  16  23
TORSDOF 2
ENDMDL
MODEL 6
REMARK VINA RESULT:    -6.510      4.230      7.052
REMARK INTER + INTRA:          -7.323
REMARK INTER:                  -7.111
REMARK INTRA:                  -0.212
REMARK UNBOUND:                -0.242
REMARK SMILES CC(=O)[C@@H]1CC[C@H]2[C@@H]3CC=C4C[C@H](O)CC[C@]4(C)[C@H]3CC[C@@]12C
REMARK SMILES IDX 4 1 5 2 6 3 7 4 22 5 21 6 20 7 19 8 8 9 9 10 10 11 11 12
REMARK SMILES IDX 17 13 16 14 15 15 13 16 12 17 18 18 23 19 2 20 1 21 3 22
REMARK SMILES IDX 14 23
REMARK H PARENT 14 24
REMARK Flexibility Score: inf
ROOT
ATOM      1  C   UNL     1       4.624  18.562  45.235  1.00  0.00     0.062 C 
ATOM      2  C   UNL     1       4.828  20.085  45.247  1.00  0.00     0.012 C 
ATOM      3  C   UNL     1       4.305  20.590  46.595  1.00  0.00     0.005 C 
ATOM      4  C   UNL     1       3.746  19.365  47.349  1.00  0.00    -0.001 C 
ATOM      5  C   UNL     1       4.529  18.172  46.739  1.00  0.00    -0.020 C 
ATOM      6  C   UNL     1       3.833  16.809  46.993  1.00  0.00     0.008 C 
ATOM      7  C   UNL     1       2.339  16.813  46.692  1.00  0.00     0.005 C 
ATOM      8  C   UNL     1       1.610  17.890  47.521  1.00  0.00     0.003 C 
ATOM      9  C   UNL     1       2.185  19.292  47.190  1.00  0.00     0.000 C 
ATOM     10  C   UNL     1       1.529  20.334  48.120  1.00  0.00     0.031 C 
ATOM     11  C   UNL     1       0.036  20.215  48.200  1.00  0.00    -0.027 C 
ATOM     12  C   UNL     1      -0.629  19.061  47.999  1.00  0.00    -0.065 C 
ATOM     13  C   UNL     1       0.035  17.834  47.360  1.00  0.00    -0.008 C 
ATOM     14  C   UNL     1      -0.500  16.551  48.076  1.00  0.00     0.014 C 
ATOM     15  C   UNL     1      -2.029  16.520  48.242  1.00  0.00     0.033 C 
ATOM     16  C   UNL     1      -2.542  17.758  48.983  1.00  0.00     0.118 C 
ATOM     17  C   UNL     1      -2.126  19.039  48.249  1.00  0.00     0.063 C 
ATOM     18  C   UNL     1      -0.378  17.795  45.861  1.00  0.00     0.016 C 
ATOM     19  C   UNL     1       5.939  18.109  47.402  1.00  0.00     0.012 C 
ENDROOT
BRANCH   1  20
ATOM     20  C   UNL     1       5.657  17.831  44.385  1.00  0.00     0.133 C 
ATOM     21  C   UNL     1       6.705  18.587  43.618  1.00  0.00     0.088 C 
ATOM     22  O   UNL     1       5.585  16.623  44.218  1.00  0.00    -0.300 OA
ENDBRANCH   1  20
BRANCH  16  23
ATOM     23  O   UNL     1      -2.045  17.764  50.297  1.00  0.00    -0.393 OA
ATOM     24  H   UNL     1      -1.620  18.649  50.440  1.00  0.00     0.210 HD
ENDBRANCH  16  23
TORSDOF 2
ENDMDL
MODEL 7
REMARK VINA RESULT:    -6.465      4.531      7.353
REMARK INTER + INTRA:          -7.274
REMARK INTER:                  -7.018
REMARK INTRA:                  -0.256
REMARK UNBOUND:                -0.242
REMARK SMILES CC(=O)[C@@H]1CC[C@H]2[C@@H]3CC=C4C[C@H](O)CC[C@]4(C)[C@H]3CC[C@@]12C
REMARK SMILES IDX 4 1 5 2 6 3 7 4 22 5 21 6 20 7 19 8 8 9 9 10 10 11 11 12
REMARK SMILES IDX 17 13 16 14 15 15 13 16 12 17 18 18 23 19 2 20 1 21 3 22
REMARK SMILES IDX 14 23
REMARK H PARENT 14 24
REMARK Flexibility Score: inf
ROOT
ATOM      1  C   UNL     1      -0.233  17.983  48.351  1.00  0.00     0.062 C 
ATOM      2  C   UNL     1      -0.508  19.456  48.693  1.00  0.00     0.012 C 
ATOM      3  C   UNL     1       0.325  20.299  47.724  1.00  0.00     0.005 C 
ATOM      4  C   UNL     1       1.131  19.315  46.849  1.00  0.00    -0.001 C 
ATOM      5  C   UNL     1       0.279  18.018  46.881  1.00  0.00    -0.020 C 
ATOM      6  C   UNL     1       1.090  16.762  46.467  1.00  0.00     0.008 C 
ATOM      7  C   UNL     1       2.448  16.651  47.151  1.00  0.00     0.005 C 
ATOM      8  C   UNL     1       3.312  17.899  46.871  1.00  0.00     0.003 C 
ATOM      9  C   UNL     1       2.595  19.168  47.398  1.00  0.00     0.000 C 
ATOM     10  C   UNL     1       3.417  20.410  46.996  1.00  0.00     0.031 C 
ATOM     11  C   UNL     1       4.881  20.286  47.293  1.00  0.00    -0.027 C 
ATOM     12  C   UNL     1       5.530  19.107  47.349  1.00  0.00    -0.065 C 
ATOM     13  C   UNL     1       4.788  17.767  47.430  1.00  0.00    -0.008 C 
ATOM     14  C   UNL     1       5.562  16.717  46.568  1.00  0.00     0.014 C 
ATOM     15  C   UNL     1       7.080  16.700  46.819  1.00  0.00     0.033 C 
ATOM     16  C   UNL     1       7.704  18.083  46.605  1.00  0.00     0.118 C 
ATOM     17  C   UNL     1       7.039  19.123  47.516  1.00  0.00     0.063 C 
ATOM     18  C   UNL     1       4.790  17.311  48.917  1.00  0.00     0.016 C 
ATOM     19  C   UNL     1      -0.898  18.168  45.870  1.00  0.00     0.012 C 
ENDROOT
BRANCH   1  20
ATOM     20  C   UNL     1      -1.414  17.070  48.661  1.00  0.00     0.133 C 
ATOM     21  C   UNL     1      -2.789  17.631  48.885  1.00  0.00     0.088 C 
ATOM     22  O   UNL     1      -1.245  15.875  48.846  1.00  0.00    -0.300 OA
ENDBRANCH   1  20
BRANCH  16  23
ATOM     23  O   UNL     1       7.574  18.458  45.257  1.00  0.00    -0.393 OA
ATOM     24  H   UNL     1       8.051  17.773  44.721  1.00  0.00     0.210 HD
ENDBRANCH  16  23
TORSDOF 2
ENDMDL
MODEL 8
REMARK VINA RESULT:    -6.410      4.290      6.755
REMARK INTER + INTRA:          -7.214
REMARK INTER:                  -7.028
REMARK INTRA:                  -0.186
REMARK UNBOUND:                -0.242
REMARK SMILES CC(=O)[C@@H]1CC[C@H]2[C@@H]3CC=C4C[C@H](O)CC[C@]4(C)[C@H]3CC[C@@]12C
REMARK SMILES IDX 4 1 5 2 6 3 7 4 22 5 21 6 20 7 19 8 8 9 9 10 10 11 11 12
REMARK SMILES IDX 17 13 16 14 15 15 13 16 12 17 18 18 23 19 2 20 1 21 3 22
REMARK SMILES IDX 14 23
REMARK H PARENT 14 24
REMARK Flexibility Score: inf
ROOT
ATOM      1  C   UNL     1       5.876  17.631  47.432  1.00  0.00     0.062 C 
ATOM      2  C   UNL     1       5.496  16.313  48.122  1.00  0.00     0.012 C 
ATOM      3  C   UNL     1       4.126  15.905  47.571  1.00  0.00     0.005 C 
ATOM      4  C   UNL     1       3.682  17.016  46.597  1.00  0.00    -0.001 C 
ATOM      5  C   UNL     1       5.022  17.647  46.131  1.00  0.00    -0.020 C 
ATOM      6  C   UNL     1       4.834  19.060  45.518  1.00  0.00     0.008 C 
ATOM      7  C   UNL     1       3.950  19.981  46.351  1.00  0.00     0.005 C 
ATOM      8  C   UNL     1       2.555  19.360  46.571  1.00  0.00     0.003 C 
ATOM      9  C   UNL     1       2.690  18.004  47.309  1.00  0.00     0.000 C 
ATOM     10  C   UNL     1       1.298  17.345  47.405  1.00  0.00     0.031 C 
ATOM     11  C   UNL     1       0.224  18.274  47.886  1.00  0.00    -0.027 C 
ATOM     12  C   UNL     1       0.265  19.610  47.713  1.00  0.00    -0.065 C 
ATOM     13  C   UNL     1       1.549  20.342  47.299  1.00  0.00    -0.008 C 
ATOM     14  C   UNL     1       1.166  21.494  46.314  1.00  0.00     0.014 C 
ATOM     15  C   UNL     1      -0.017  22.356  46.788  1.00  0.00     0.033 C 
ATOM     16  C   UNL     1      -1.259  21.505  47.070  1.00  0.00     0.118 C 
ATOM     17  C   UNL     1      -0.950  20.427  48.116  1.00  0.00     0.063 C 
ATOM     18  C   UNL     1       2.183  20.953  48.581  1.00  0.00     0.016 C 
ATOM     19  C   UNL     1       5.645  16.739  45.028  1.00  0.00     0.012 C 
ENDROOT
BRANCH   1  20
ATOM     20  C   UNL     1       7.383  17.810  47.283  1.00  0.00     0.133 C 
ATOM     21  C   UNL     1       7.973  19.143  46.919  1.00  0.00     0.088 C 
ATOM     22  O   UNL     1       8.134  16.849  47.344  1.00  0.00    -0.300 OA
ENDBRANCH   1  20
BRANCH  16  23
ATOM     23  O   UNL     1      -1.709  20.914  45.877  1.00  0.00    -0.393 OA
ATOM     24  H   UNL     1      -2.682  21.098  45.814  1.00  0.00     0.210 HD
ENDBRANCH  16  23
TORSDOF 2
ENDMDL
MODEL 9
REMARK VINA RESULT:    -6.252      3.751      7.347
REMARK INTER + INTRA:          -7.043
REMARK INTER:                  -6.902
REMARK INTRA:                  -0.141
REMARK UNBOUND:                -0.242
REMARK SMILES CC(=O)[C@@H]1CC[C@H]2[C@@H]3CC=C4C[C@H](O)CC[C@]4(C)[C@H]3CC[C@@]12C
REMARK SMILES IDX 4 1 5 2 6 3 7 4 22 5 21 6 20 7 19 8 8 9 9 10 10 11 11 12
REMARK SMILES IDX 17 13 16 14 15 15 13 16 12 17 18 18 23 19 2 20 1 21 3 22
REMARK SMILES IDX 14 23
REMARK H PARENT 14 24
REMARK Flexibility Score: inf
ROOT
ATOM      1  C   UNL     1      -0.462  19.423  48.884  1.00  0.00     0.062 C 
ATOM      2  C   UNL     1      -0.140  20.760  49.568  1.00  0.00     0.012 C 
ATOM      3  C   UNL     1       0.879  21.479  48.679  1.00  0.00     0.005 C 
ATOM      4  C   UNL     1       1.193  20.534  47.499  1.00  0.00    -0.001 C 
ATOM      5  C   UNL     1      -0.079  19.651  47.392  1.00  0.00    -0.020 C 
ATOM      6  C   UNL     1       0.170  18.340  46.599  1.00  0.00     0.008 C 
ATOM      7  C   UNL     1       1.432  17.596  47.020  1.00  0.00     0.005 C 
ATOM      8  C   UNL     1       2.679  18.493  46.875  1.00  0.00     0.003 C 
ATOM      9  C   UNL     1       2.529  19.753  47.765  1.00  0.00     0.000 C 
ATOM     10  C   UNL     1       3.727  20.692  47.508  1.00  0.00     0.031 C 
ATOM     11  C   UNL     1       5.054  19.996  47.536  1.00  0.00    -0.027 C 
ATOM     12  C   UNL     1       5.216  18.692  47.238  1.00  0.00    -0.065 C 
ATOM     13  C   UNL     1       4.032  17.719  47.152  1.00  0.00    -0.008 C 
ATOM     14  C   UNL     1       4.294  16.723  45.976  1.00  0.00     0.014 C 
ATOM     15  C   UNL     1       5.708  16.116  45.973  1.00  0.00     0.033 C 
ATOM     16  C   UNL     1       6.789  17.202  45.960  1.00  0.00     0.118 C 
ATOM     17  C   UNL     1       6.628  18.140  47.163  1.00  0.00     0.063 C 
ATOM     18  C   UNL     1       3.968  16.928  48.490  1.00  0.00     0.016 C 
ATOM     19  C   UNL     1      -1.182  20.452  46.636  1.00  0.00     0.012 C 
ENDROOT
BRANCH   1  20
ATOM     20  C   UNL     1      -1.874  18.930  49.178  1.00  0.00     0.133 C 
ATOM     21  C   UNL     1      -2.189  17.461  49.219  1.00  0.00     0.088 C 
ATOM     22  O   UNL     1      -2.802  19.718  49.272  1.00  0.00    -0.300 OA
ENDBRANCH   1  20
BRANCH  16  23
ATOM     23  O   UNL     1       6.714  17.929  44.759  1.00  0.00    -0.393 OA
ATOM     24  H   UNL     1       5.941  17.568  44.252  1.00  0.00     0.210 HD
ENDBRANCH  16  23
TORSDOF 2
ENDMDL
