MODEL 1
REMARK VINA RESULT:    -4.612      0.000      0.000
REMARK INTER + INTRA:          -9.918
REMARK INTER:                  -8.387
REMARK INTRA:                  -1.531
REMARK UNBOUND:                -1.531
REMARK SMILES CCCCCCCCCCCCCCCC(=O)[O-]
REMARK SMILES IDX 9 1 10 2 11 3 12 4 13 5 14 6 15 7 16 8 17 9 18 10 8 11 7 12
REMARK SMILES IDX 6 13 5 14 4 15 3 16 2 17 1 18
REMARK H PARENT
REMARK Flexibility Score: inf
ROOT
ATOM      1  C   UNL     1       8.920  14.544  22.367  1.00  0.00     0.000 C 
ENDROOT
BRANCH   1   2
ATOM      2  C   UNL     1       9.968  13.437  22.574  1.00  0.00     0.000 C 
BRANCH   2   3
ATOM      3  C   UNL     1      11.409  13.977  22.552  1.00  0.00     0.000 C 
BRANCH   3   4
ATOM      4  C   UNL     1      11.986  14.175  23.963  1.00  0.00     0.000 C 
BRANCH   4   5
ATOM      5  C   UNL     1      11.558  15.506  24.599  1.00  0.00     0.000 C 
BRANCH   5   6
ATOM      6  C   UNL     1      12.746  16.188  25.297  1.00  0.00     0.006 C 
BRANCH   6   7
ATOM      7  C   UNL     1      12.887  17.662  24.896  1.00  0.00     0.053 C 
BRANCH   7   8
ATOM      8  C   UNL     1      13.986  17.866  23.899  1.00  0.00     0.041 C 
ATOM      9  O   UNL     1      13.974  17.239  22.806  1.00  0.00    -0.550 OA
ATOM     10  O   UNL     1      15.040  18.722  24.190  1.00  0.00    -0.550 OA
ENDBRANCH   7   8
ENDBRANCH   6   7
ENDBRANCH   5   6
ENDBRANCH   4   5
ENDBRANCH   3   4
ENDBRANCH   2   3
ENDBRANCH   1   2
BRANCH   1  11
ATOM     11  C   UNL     1       7.523  13.984  22.049  1.00  0.00     0.000 C 
BRANCH  11  12
ATOM     12  C   UNL     1       6.849  13.343  23.274  1.00  0.00    -0.000 C 
BRANCH  12  13
ATOM     13  C   UNL     1       6.229  11.971  22.957  1.00  0.00    -0.000 C 
BRANCH  13  14
ATOM     14  C   UNL     1       6.730  11.391  21.624  1.00  0.00    -0.000 C 
BRANCH  14  15
ATOM     15  C   UNL     1       7.756  10.263  21.813  1.00  0.00    -0.000 C 
BRANCH  15  16
ATOM     16  C   UNL     1       8.782  10.259  20.671  1.00  0.00    -0.000 C 
BRANCH  16  17
ATOM     17  C   UNL     1       8.640  11.478  19.744  1.00  0.00    -0.003 C 
ATOM     18  C   UNL     1       9.977  11.939  19.166  1.00  0.00     0.004 C 
ENDBRANCH  16  17
ENDBRANCH  15  16
ENDBRANCH  14  15
ENDBRANCH  13  14
ENDBRANCH  12  13
ENDBRANCH  11  12
ENDBRANCH   1  11
TORSDOF 14
ENDMDL
MODEL 2
REMARK VINA RESULT:    -4.411      1.550      2.093
REMARK INTER + INTRA:          -9.552
REMARK INTER:                  -7.937
REMARK INTRA:                  -1.615
REMARK UNBOUND:                -1.531
REMARK SMILES CCCCCCCCCCCCCCCC(=O)[O-]
REMARK SMILES IDX 9 1 10 2 11 3 12 4 13 5 14 6 15 7 16 8 17 9 18 10 8 11 7 12
REMARK SMILES IDX 6 13 5 14 4 15 3 16 2 17 1 18
REMARK H PARENT
REMARK Flexibility Score: inf
ROOT
ATOM      1  C   UNL     1      10.162  13.956  21.807  1.00  0.00     0.000 C 
ENDROOT
BRANCH   1   2
ATOM      2  C   UNL     1      11.105  13.069  22.638  1.00  0.00     0.000 C 
BRANCH   2   3
ATOM      3  C   UNL     1      12.542  13.618  22.686  1.00  0.00     0.000 C 
BRANCH   3   4
ATOM      4  C   UNL     1      13.017  13.902  24.120  1.00  0.00     0.000 C 
BRANCH   4   5
ATOM      5  C   UNL     1      13.297  15.391  24.370  1.00  0.00     0.000 C 
BRANCH   5   6
ATOM      6  C   UNL     1      12.107  16.063  25.073  1.00  0.00     0.006 C 
BRANCH   6   7
ATOM      7  C   UNL     1      12.269  17.586  25.162  1.00  0.00     0.053 C 
BRANCH   7   8
ATOM      8  C   UNL     1      11.174  18.306  24.436  1.00  0.00     0.041 C 
ATOM      9  O   UNL     1      10.675  19.356  24.921  1.00  0.00    -0.550 OA
ATOM     10  O   UNL     1      10.682  17.799  23.240  1.00  0.00    -0.550 OA
ENDBRANCH   7   8
ENDBRANCH   6   7
ENDBRANCH   5   6
ENDBRANCH   4   5
ENDBRANCH   3   4
ENDBRANCH   2   3
ENDBRANCH   1   2
BRANCH   1  11
ATOM     11  C   UNL     1       8.990  14.512  22.635  1.00  0.00     0.000 C 
BRANCH  11  12
ATOM     12  C   UNL     1       7.627  13.981  22.161  1.00  0.00    -0.000 C 
BRANCH  12  13
ATOM     13  C   UNL     1       6.788  13.397  23.312  1.00  0.00    -0.000 C 
BRANCH  13  14
ATOM     14  C   UNL     1       6.286  11.974  23.012  1.00  0.00    -0.000 C 
BRANCH  14  15
ATOM     15  C   UNL     1       6.635  11.506  21.591  1.00  0.00    -0.000 C 
BRANCH  15  16
ATOM     16  C   UNL     1       7.578  10.294  21.630  1.00  0.00    -0.000 C 
BRANCH  16  17
ATOM     17  C   UNL     1       8.935  10.579  20.966  1.00  0.00    -0.003 C 
ATOM     18  C   UNL     1       8.795  11.276  19.613  1.00  0.00     0.004 C 
ENDBRANCH  16  17
ENDBRANCH  15  16
ENDBRANCH  14  15
ENDBRANCH  13  14
ENDBRANCH  12  13
ENDBRANCH  11  12
ENDBRANCH   1  11
TORSDOF 14
ENDMDL
MODEL 3
REMARK VINA RESULT:    -4.394      1.589      3.703
REMARK INTER + INTRA:          -9.521
REMARK INTER:                  -8.189
REMARK INTRA:                  -1.331
REMARK UNBOUND:                -1.531
REMARK SMILES CCCCCCCCCCCCCCCC(=O)[O-]
REMARK SMILES IDX 9 1 10 2 11 3 12 4 13 5 14 6 15 7 16 8 17 9 18 10 8 11 7 12
REMARK SMILES IDX 6 13 5 14 4 15 3 16 2 17 1 18
REMARK H PARENT
REMARK Flexibility Score: inf
ROOT
ATOM      1  C   UNL     1      11.209  16.099  23.319  1.00  0.00     0.000 C 
ENDROOT
BRANCH   1   2
ATOM      2  C   UNL     1      11.549  15.639  24.747  1.00  0.00     0.000 C 
BRANCH   2   3
ATOM      3  C   UNL     1      12.780  16.363  25.322  1.00  0.00     0.000 C 
BRANCH   3   4
ATOM      4  C   UNL     1      12.444  17.766  25.851  1.00  0.00     0.000 C 
BRANCH   4   5
ATOM      5  C   UNL     1      13.155  18.882  25.069  1.00  0.00     0.000 C 
BRANCH   5   6
ATOM      6  C   UNL     1      14.305  18.312  24.224  1.00  0.00     0.006 C 
BRANCH   6   7
ATOM      7  C   UNL     1      14.726  19.265  23.098  1.00  0.00     0.053 C 
BRANCH   7   8
ATOM      8  C   UNL     1      14.324  18.749  21.751  1.00  0.00     0.041 C 
ATOM      9  O   UNL     1      13.127  18.428  21.527  1.00  0.00    -0.550 OA
ATOM     10  O   UNL     1      15.277  18.590  20.753  1.00  0.00    -0.550 OA
ENDBRANCH   7   8
ENDBRANCH   6   7
ENDBRANCH   5   6
ENDBRANCH   4   5
ENDBRANCH   3   4
ENDBRANCH   2   3
ENDBRANCH   1   2
BRANCH   1  11
ATOM     11  C   UNL     1      11.488  15.012  22.265  1.00  0.00     0.000 C 
BRANCH  11  12
ATOM     12  C   UNL     1      11.781  13.640  22.895  1.00  0.00    -0.000 C 
BRANCH  12  13
ATOM     13  C   UNL     1      10.624  12.643  22.703  1.00  0.00    -0.000 C 
BRANCH  13  14
ATOM     14  C   UNL     1       9.890  12.843  21.367  1.00  0.00    -0.000 C 
BRANCH  14  15
ATOM     15  C   UNL     1       8.385  12.546  21.464  1.00  0.00    -0.000 C 
BRANCH  15  16
ATOM     16  C   UNL     1       7.658  13.652  22.243  1.00  0.00    -0.000 C 
BRANCH  16  17
ATOM     17  C   UNL     1       6.641  13.094  23.251  1.00  0.00    -0.003 C 
ATOM     18  C   UNL     1       6.182  11.678  22.905  1.00  0.00     0.004 C 
ENDBRANCH  16  17
ENDBRANCH  15  16
ENDBRANCH  14  15
ENDBRANCH  13  14
ENDBRANCH  12  13
ENDBRANCH  11  12
ENDBRANCH   1  11
TORSDOF 14
ENDMDL
MODEL 4
REMARK VINA RESULT:    -4.390      3.723      8.058
REMARK INTER + INTRA:          -9.514
REMARK INTER:                  -8.093
REMARK INTRA:                  -1.421
REMARK UNBOUND:                -1.531
REMARK SMILES CCCCCCCCCCCCCCCC(=O)[O-]
REMARK SMILES IDX 9 1 10 2 11 3 12 4 13 5 14 6 15 7 16 8 17 9 18 10 8 11 7 12
REMARK SMILES IDX 6 13 5 14 4 15 3 16 2 17 1 18
REMARK H PARENT
REMARK Flexibility Score: inf
ROOT
ATOM      1  C   UNL     1      11.429  16.357  24.530  1.00  0.00     0.000 C 
ENDROOT
BRANCH   1   2
ATOM      2  C   UNL     1      11.227  14.873  24.179  1.00  0.00     0.000 C 
BRANCH   2   3
ATOM      3  C   UNL     1      10.997  14.648  22.674  1.00  0.00     0.000 C 
BRANCH   3   4
ATOM      4  C   UNL     1       9.505  14.614  22.304  1.00  0.00     0.000 C 
BRANCH   4   5
ATOM      5  C   UNL     1       9.051  13.239  21.792  1.00  0.00     0.000 C 
BRANCH   5   6
ATOM      6  C   UNL     1       7.519  13.172  21.684  1.00  0.00     0.006 C 
BRANCH   6   7
ATOM      7  C   UNL     1       7.023  11.766  21.321  1.00  0.00     0.053 C 
BRANCH   7   8
ATOM      8  C   UNL     1       6.579  11.003  22.531  1.00  0.00     0.041 C 
ATOM      9  O   UNL     1       7.431  10.518  23.322  1.00  0.00    -0.550 OA
ATOM     10  O   UNL     1       5.226  10.799  22.767  1.00  0.00    -0.550 OA
ENDBRANCH   7   8
ENDBRANCH   6   7
ENDBRANCH   5   6
ENDBRANCH   4   5
ENDBRANCH   3   4
ENDBRANCH   2   3
ENDBRANCH   1   2
BRANCH   1  11
ATOM     11  C   UNL     1      12.617  16.584  25.481  1.00  0.00     0.000 C 
BRANCH  11  12
ATOM     12  C   UNL     1      12.636  18.002  26.075  1.00  0.00    -0.000 C 
BRANCH  12  13
ATOM     13  C   UNL     1      12.918  19.082  25.015  1.00  0.00    -0.000 C 
BRANCH  13  14
ATOM     14  C   UNL     1      14.202  18.803  24.216  1.00  0.00    -0.000 C 
BRANCH  14  15
ATOM     15  C   UNL     1      14.036  19.068  22.711  1.00  0.00    -0.000 C 
BRANCH  15  16
ATOM     16  C   UNL     1      14.052  17.752  21.920  1.00  0.00    -0.000 C 
BRANCH  16  17
ATOM     17  C   UNL     1      12.713  17.464  21.222  1.00  0.00    -0.003 C 
ATOM     18  C   UNL     1      11.684  18.573  21.440  1.00  0.00     0.004 C 
ENDBRANCH  16  17
ENDBRANCH  15  16
ENDBRANCH  14  15
ENDBRANCH  13  14
ENDBRANCH  12  13
ENDBRANCH  11  12
ENDBRANCH   1  11
TORSDOF 14
ENDMDL
MODEL 5
REMARK VINA RESULT:    -4.346      4.664      7.293
REMARK INTER + INTRA:          -9.435
REMARK INTER:                  -7.019
REMARK INTRA:                  -2.416
REMARK UNBOUND:                -1.531
REMARK SMILES CCCCCCCCCCCCCCCC(=O)[O-]
REMARK SMILES IDX 9 1 10 2 11 3 12 4 13 5 14 6 15 7 16 8 17 9 18 10 8 11 7 12
REMARK SMILES IDX 6 13 5 14 4 15 3 16 2 17 1 18
REMARK H PARENT
REMARK Flexibility Score: inf
ROOT
ATOM      1  C   UNL     1      10.593  17.029  22.243  1.00  0.00     0.000 C 
ENDROOT
BRANCH   1   2
ATOM      2  C   UNL     1      11.433  17.934  21.326  1.00  0.00     0.000 C 
BRANCH   2   3
ATOM      3  C   UNL     1      12.796  17.313  20.972  1.00  0.00     0.000 C 
BRANCH   3   4
ATOM      4  C   UNL     1      13.601  18.177  19.989  1.00  0.00     0.000 C 
BRANCH   4   5
ATOM      5  C   UNL     1      15.085  18.287  20.371  1.00  0.00     0.000 C 
BRANCH   5   6
ATOM      6  C   UNL     1      15.529  19.757  20.434  1.00  0.00     0.006 C 
BRANCH   6   7
ATOM      7  C   UNL     1      14.432  20.716  19.951  1.00  0.00     0.053 C 
BRANCH   7   8
ATOM      8  C   UNL     1      14.951  21.688  18.937  1.00  0.00     0.041 C 
ATOM      9  O   UNL     1      16.096  21.532  18.437  1.00  0.00    -0.550 OA
ATOM     10  O   UNL     1      14.183  22.785  18.568  1.00  0.00    -0.550 OA
ENDBRANCH   7   8
ENDBRANCH   6   7
ENDBRANCH   5   6
ENDBRANCH   4   5
ENDBRANCH   3   4
ENDBRANCH   2   3
ENDBRANCH   1   2
BRANCH   1  11
ATOM     11  C   UNL     1      11.394  15.835  22.791  1.00  0.00     0.000 C 
BRANCH  11  12
ATOM     12  C   UNL     1      11.352  15.749  24.326  1.00  0.00    -0.000 C 
BRANCH  12  13
ATOM     13  C   UNL     1      12.752  15.835  24.960  1.00  0.00    -0.000 C 
BRANCH  13  14
ATOM     14  C   UNL     1      13.217  17.286  25.168  1.00  0.00    -0.000 C 
BRANCH  14  15
ATOM     15  C   UNL     1      14.284  17.720  24.151  1.00  0.00    -0.000 C 
BRANCH  15  16
ATOM     16  C   UNL     1      14.163  19.219  23.838  1.00  0.00    -0.000 C 
BRANCH  16  17
ATOM     17  C   UNL     1      12.717  19.730  23.944  1.00  0.00    -0.003 C 
ATOM     18  C   UNL     1      12.458  20.956  23.069  1.00  0.00     0.004 C 
ENDBRANCH  16  17
ENDBRANCH  15  16
ENDBRANCH  14  15
ENDBRANCH  13  14
ENDBRANCH  12  13
ENDBRANCH  11  12
ENDBRANCH   1  11
TORSDOF 14
ENDMDL
MODEL 6
REMARK VINA RESULT:    -4.341      2.124      4.074
REMARK INTER + INTRA:          -9.425
REMARK INTER:                  -8.142
REMARK INTRA:                  -1.283
REMARK UNBOUND:                -1.531
REMARK SMILES CCCCCCCCCCCCCCCC(=O)[O-]
REMARK SMILES IDX 9 1 10 2 11 3 12 4 13 5 14 6 15 7 16 8 17 9 18 10 8 11 7 12
REMARK SMILES IDX 6 13 5 14 4 15 3 16 2 17 1 18
REMARK H PARENT
REMARK Flexibility Score: inf
ROOT
ATOM      1  C   UNL     1      11.490  15.234  24.843  1.00  0.00     0.000 C 
ENDROOT
BRANCH   1   2
ATOM      2  C   UNL     1      11.324  16.740  24.579  1.00  0.00     0.000 C 
BRANCH   2   3
ATOM      3  C   UNL     1      12.555  17.554  25.015  1.00  0.00     0.000 C 
BRANCH   3   4
ATOM      4  C   UNL     1      13.189  18.332  23.851  1.00  0.00     0.000 C 
BRANCH   4   5
ATOM      5  C   UNL     1      13.990  17.430  22.898  1.00  0.00     0.000 C 
BRANCH   5   6
ATOM      6  C   UNL     1      13.354  17.408  21.500  1.00  0.00     0.006 C 
BRANCH   6   7
ATOM      7  C   UNL     1      12.136  18.337  21.400  1.00  0.00     0.053 C 
BRANCH   7   8
ATOM      8  C   UNL     1      12.430  19.554  20.579  1.00  0.00     0.041 C 
ATOM      9  O   UNL     1      13.615  19.831  20.257  1.00  0.00    -0.550 OA
ATOM     10  O   UNL     1      11.398  20.401  20.196  1.00  0.00    -0.550 OA
ENDBRANCH   7   8
ENDBRANCH   6   7
ENDBRANCH   5   6
ENDBRANCH   4   5
ENDBRANCH   3   4
ENDBRANCH   2   3
ENDBRANCH   1   2
BRANCH   1  11
ATOM     11  C   UNL     1      11.309  14.388  23.570  1.00  0.00     0.000 C 
BRANCH  11  12
ATOM     12  C   UNL     1      10.220  14.945  22.639  1.00  0.00    -0.000 C 
BRANCH  12  13
ATOM     13  C   UNL     1       9.228  13.863  22.177  1.00  0.00    -0.000 C 
BRANCH  13  14
ATOM     14  C   UNL     1       7.767  14.339  22.234  1.00  0.00    -0.000 C 
BRANCH  14  15
ATOM     15  C   UNL     1       6.895  13.475  23.159  1.00  0.00    -0.000 C 
BRANCH  15  16
ATOM     16  C   UNL     1       7.176  11.982  22.937  1.00  0.00    -0.000 C 
BRANCH  16  17
ATOM     17  C   UNL     1       6.224  11.347  21.910  1.00  0.00    -0.003 C 
ATOM     18  C   UNL     1       5.033  10.648  22.563  1.00  0.00     0.004 C 
ENDBRANCH  16  17
ENDBRANCH  15  16
ENDBRANCH  14  15
ENDBRANCH  13  14
ENDBRANCH  12  13
ENDBRANCH  11  12
ENDBRANCH   1  11
TORSDOF 14
ENDMDL
MODEL 7
REMARK VINA RESULT:    -4.331      3.539      7.811
REMARK INTER + INTRA:          -9.406
REMARK INTER:                  -7.836
REMARK INTRA:                  -1.570
REMARK UNBOUND:                -1.531
REMARK SMILES CCCCCCCCCCCCCCCC(=O)[O-]
REMARK SMILES IDX 9 1 10 2 11 3 12 4 13 5 14 6 15 7 16 8 17 9 18 10 8 11 7 12
REMARK SMILES IDX 6 13 5 14 4 15 3 16 2 17 1 18
REMARK H PARENT
REMARK Flexibility Score: inf
ROOT
ATOM      1  C   UNL     1      13.218  15.976  23.440  1.00  0.00     0.000 C 
ENDROOT
BRANCH   1   2
ATOM      2  C   UNL     1      12.808  14.653  24.108  1.00  0.00     0.000 C 
BRANCH   2   3
ATOM      3  C   UNL     1      11.293  14.394  24.023  1.00  0.00     0.000 C 
BRANCH   3   4
ATOM      4  C   UNL     1      10.616  15.214  22.912  1.00  0.00     0.000 C 
BRANCH   4   5
ATOM      5  C   UNL     1       9.474  14.451  22.223  1.00  0.00     0.000 C 
BRANCH   5   6
ATOM      6  C   UNL     1       9.888  13.004  21.916  1.00  0.00     0.006 C 
BRANCH   6   7
ATOM      7  C   UNL     1       8.916  11.981  22.520  1.00  0.00     0.053 C 
BRANCH   7   8
ATOM      8  C   UNL     1       7.491  12.308  22.196  1.00  0.00     0.041 C 
ATOM      9  O   UNL     1       7.059  12.164  21.021  1.00  0.00    -0.550 OA
ATOM     10  O   UNL     1       6.648  12.802  23.183  1.00  0.00    -0.550 OA
ENDBRANCH   7   8
ENDBRANCH   6   7
ENDBRANCH   5   6
ENDBRANCH   4   5
ENDBRANCH   3   4
ENDBRANCH   2   3
ENDBRANCH   1   2
BRANCH   1  11
ATOM     11  C   UNL     1      13.750  17.008  24.449  1.00  0.00     0.000 C 
BRANCH  11  12
ATOM     12  C   UNL     1      12.822  17.181  25.663  1.00  0.00    -0.000 C 
BRANCH  12  13
ATOM     13  C   UNL     1      12.287  18.618  25.798  1.00  0.00    -0.000 C 
BRANCH  13  14
ATOM     14  C   UNL     1      11.303  18.988  24.677  1.00  0.00    -0.000 C 
BRANCH  14  15
ATOM     15  C   UNL     1      11.824  20.119  23.776  1.00  0.00    -0.000 C 
BRANCH  15  16
ATOM     16  C   UNL     1      12.051  19.616  22.343  1.00  0.00    -0.000 C 
BRANCH  16  17
ATOM     17  C   UNL     1      13.318  20.206  21.703  1.00  0.00    -0.003 C 
ATOM     18  C   UNL     1      14.568  19.986  22.555  1.00  0.00     0.004 C 
ENDBRANCH  16  17
ENDBRANCH  15  16
ENDBRANCH  14  15
ENDBRANCH  13  14
ENDBRANCH  12  13
ENDBRANCH  11  12
ENDBRANCH   1  11
TORSDOF 14
ENDMDL
MODEL 8
REMARK VINA RESULT:    -4.276      4.274      6.796
REMARK INTER + INTRA:          -9.306
REMARK INTER:                  -7.059
REMARK INTRA:                  -2.248
REMARK UNBOUND:                -1.531
REMARK SMILES CCCCCCCCCCCCCCCC(=O)[O-]
REMARK SMILES IDX 9 1 10 2 11 3 12 4 13 5 14 6 15 7 16 8 17 9 18 10 8 11 7 12
REMARK SMILES IDX 6 13 5 14 4 15 3 16 2 17 1 18
REMARK H PARENT
REMARK Flexibility Score: inf
ROOT
ATOM      1  C   UNL     1      11.858  19.479  23.580  1.00  0.00     0.000 C 
ENDROOT
BRANCH   1   2
ATOM      2  C   UNL     1      12.103  20.879  22.990  1.00  0.00     0.000 C 
BRANCH   2   3
ATOM      3  C   UNL     1      13.464  20.991  22.281  1.00  0.00     0.000 C 
BRANCH   3   4
ATOM      4  C   UNL     1      14.342  19.747  22.488  1.00  0.00     0.000 C 
BRANCH   4   5
ATOM      5  C   UNL     1      14.822  19.131  21.165  1.00  0.00     0.000 C 
BRANCH   5   6
ATOM      6  C   UNL     1      13.901  17.982  20.728  1.00  0.00     0.006 C 
BRANCH   6   7
ATOM      7  C   UNL     1      13.390  18.161  19.292  1.00  0.00     0.053 C 
BRANCH   7   8
ATOM      8  C   UNL     1      12.270  19.152  19.217  1.00  0.00     0.041 C 
ATOM      9  O   UNL     1      11.301  19.075  20.018  1.00  0.00    -0.550 OA
ATOM     10  O   UNL     1      12.280  20.142  18.243  1.00  0.00    -0.550 OA
ENDBRANCH   7   8
ENDBRANCH   6   7
ENDBRANCH   5   6
ENDBRANCH   4   5
ENDBRANCH   3   4
ENDBRANCH   2   3
ENDBRANCH   1   2
BRANCH   1  11
ATOM     11  C   UNL     1      11.286  19.530  25.007  1.00  0.00     0.000 C 
BRANCH  11  12
ATOM     12  C   UNL     1      12.115  18.706  26.006  1.00  0.00    -0.000 C 
BRANCH  12  13
ATOM     13  C   UNL     1      13.115  17.765  25.309  1.00  0.00    -0.000 C 
BRANCH  13  14
ATOM     14  C   UNL     1      12.884  16.288  25.669  1.00  0.00    -0.000 C 
BRANCH  14  15
ATOM     15  C   UNL     1      13.201  15.335  24.507  1.00  0.00    -0.000 C 
BRANCH  15  16
ATOM     16  C   UNL     1      12.518  15.803  23.213  1.00  0.00    -0.000 C 
BRANCH  16  17
ATOM     17  C   UNL     1      10.999  15.568  23.228  1.00  0.00    -0.003 C 
ATOM     18  C   UNL     1      10.243  16.534  22.317  1.00  0.00     0.004 C 
ENDBRANCH  16  17
ENDBRANCH  15  16
ENDBRANCH  14  15
ENDBRANCH  13  14
ENDBRANCH  12  13
ENDBRANCH  11  12
ENDBRANCH   1  11
TORSDOF 14
ENDMDL
MODEL 9
REMARK VINA RESULT:    -4.241      3.847      8.365
REMARK INTER + INTRA:          -9.244
REMARK INTER:                  -7.551
REMARK INTRA:                  -1.693
REMARK UNBOUND:                -1.531
REMARK SMILES CCCCCCCCCCCCCCCC(=O)[O-]
REMARK SMILES IDX 9 1 10 2 11 3 12 4 13 5 14 6 15 7 16 8 17 9 18 10 8 11 7 12
REMARK SMILES IDX 6 13 5 14 4 15 3 16 2 17 1 18
REMARK H PARENT
REMARK Flexibility Score: inf
ROOT
ATOM      1  C   UNL     1      11.480  18.156  21.297  1.00  0.00     0.000 C 
ENDROOT
BRANCH   1   2
ATOM      2  C   UNL     1      11.735  16.754  21.876  1.00  0.00     0.000 C 
BRANCH   2   3
ATOM      3  C   UNL     1      10.556  16.243  22.723  1.00  0.00     0.000 C 
BRANCH   3   4
ATOM      4  C   UNL     1      10.581  14.717  22.907  1.00  0.00     0.000 C 
BRANCH   4   5
ATOM      5  C   UNL     1       9.714  13.979  21.875  1.00  0.00     0.000 C 
BRANCH   5   6
ATOM      6  C   UNL     1       9.015  12.768  22.511  1.00  0.00     0.006 C 
BRANCH   6   7
ATOM      7  C   UNL     1       7.491  12.940  22.570  1.00  0.00     0.053 C 
BRANCH   7   8
ATOM      8  C   UNL     1       6.773  11.714  22.098  1.00  0.00     0.041 C 
ATOM      9  O   UNL     1       7.220  11.054  21.123  1.00  0.00    -0.550 OA
ATOM     10  O   UNL     1       5.593  11.318  22.714  1.00  0.00    -0.550 OA
ENDBRANCH   7   8
ENDBRANCH   6   7
ENDBRANCH   5   6
ENDBRANCH   4   5
ENDBRANCH   3   4
ENDBRANCH   2   3
ENDBRANCH   1   2
BRANCH   1  11
ATOM     11  C   UNL     1      12.694  18.710  20.531  1.00  0.00     0.000 C 
BRANCH  11  12
ATOM     12  C   UNL     1      13.474  19.761  21.339  1.00  0.00    -0.000 C 
BRANCH  12  13
ATOM     13  C   UNL     1      14.749  19.185  21.981  1.00  0.00    -0.000 C 
BRANCH  13  14
ATOM     14  C   UNL     1      14.688  19.184  23.517  1.00  0.00    -0.000 C 
BRANCH  14  15
ATOM     15  C   UNL     1      14.375  17.798  24.100  1.00  0.00    -0.000 C 
BRANCH  15  16
ATOM     16  C   UNL     1      13.113  17.844  24.974  1.00  0.00    -0.000 C 
BRANCH  16  17
ATOM     17  C   UNL     1      12.505  19.253  25.060  1.00  0.00    -0.003 C 
ATOM     18  C   UNL     1      10.982  19.248  24.928  1.00  0.00     0.004 C 
ENDBRANCH  16  17
ENDBRANCH  15  16
ENDBRANCH  14  15
ENDBRANCH  13  14
ENDBRANCH  12  13
ENDBRANCH  11  12
ENDBRANCH   1  11
TORSDOF 14
ENDMDL
