MODEL 1
REMARK VINA RESULT:    -2.312      0.000      0.000
REMARK INTER + INTRA:          -2.312
REMARK INTER:                  -2.312
REMARK INTRA:                   0.000
REMARK UNBOUND:                 0.000
REMARK SMILES CC(=O)[O-]
REMARK SMILES IDX 1 1 2 2 3 3 4 4
REMARK H PARENT
REMARK Flexibility Score: inf
ROOT
ATOM      1  C   UNL     1      32.018  33.747  26.429  1.00  0.00     0.063 C 
ATOM      2  C   UNL     1      32.320  33.251  27.802  1.00  0.00     0.038 C 
ATOM      3  O   UNL     1      32.471  32.018  28.010  1.00  0.00    -0.550 OA
ATOM      4  O   UNL     1      32.386  34.141  28.866  1.00  0.00    -0.550 OA
ENDROOT
TORSDOF 0
ENDMDL
MODEL 2
REMARK VINA RESULT:    -2.254      1.337      1.705
REMARK INTER + INTRA:          -2.254
REMARK INTER:                  -2.254
REMARK INTRA:                   0.000
REMARK UNBOUND:                 0.000
REMARK SMILES CC(=O)[O-]
REMARK SMILES IDX 1 1 2 2 3 3 4 4
REMARK H PARENT
REMARK Flexibility Score: inf
ROOT
ATOM      1  C   UNL     1      32.130  32.161  27.425  1.00  0.00     0.063 C 
ATOM      2  C   UNL     1      32.056  33.628  27.680  1.00  0.00     0.038 C 
ATOM      3  O   UNL     1      31.745  34.416  26.748  1.00  0.00    -0.550 OA
ATOM      4  O   UNL     1      32.381  34.135  28.931  1.00  0.00    -0.550 OA
ENDROOT
TORSDOF 0
ENDMDL
MODEL 3
REMARK VINA RESULT:    -1.999      4.997      5.621
REMARK INTER + INTRA:          -1.999
REMARK INTER:                  -1.999
REMARK INTRA:                   0.000
REMARK UNBOUND:                 0.000
REMARK SMILES CC(=O)[O-]
REMARK SMILES IDX 1 1 2 2 3 3 4 4
REMARK H PARENT
REMARK Flexibility Score: inf
ROOT
ATOM      1  C   UNL     1      35.500  35.445  32.920  1.00  0.00     0.063 C 
ATOM      2  C   UNL     1      34.175  35.401  32.240  1.00  0.00     0.038 C 
ATOM      3  O   UNL     1      34.110  35.279  30.989  1.00  0.00    -0.550 OA
ATOM      4  O   UNL     1      33.007  35.546  32.980  1.00  0.00    -0.550 OA
ENDROOT
TORSDOF 0
ENDMDL
MODEL 4
REMARK VINA RESULT:    -1.994     18.636     18.974
REMARK INTER + INTRA:          -1.994
REMARK INTER:                  -1.994
REMARK INTRA:                   0.000
REMARK UNBOUND:                 0.000
REMARK SMILES CC(=O)[O-]
REMARK SMILES IDX 1 1 2 2 3 3 4 4
REMARK H PARENT
REMARK Flexibility Score: inf
ROOT
ATOM      1  C   UNL     1      43.415  17.043  27.668  1.00  0.00     0.063 C 
ATOM      2  C   UNL     1      42.341  17.329  28.661  1.00  0.00     0.038 C 
ATOM      3  O   UNL     1      42.639  17.633  29.846  1.00  0.00    -0.550 OA
ATOM      4  O   UNL     1      41.005  17.210  28.296  1.00  0.00    -0.550 OA
ENDROOT
TORSDOF 0
ENDMDL
MODEL 5
REMARK VINA RESULT:    -1.974      6.588      6.915
REMARK INTER + INTRA:          -1.974
REMARK INTER:                  -1.974
REMARK INTRA:                   0.000
REMARK UNBOUND:                 0.000
REMARK SMILES CC(=O)[O-]
REMARK SMILES IDX 1 1 2 2 3 3 4 4
REMARK H PARENT
REMARK Flexibility Score: inf
ROOT
ATOM      1  C   UNL     1      35.434  35.867  21.185  1.00  0.00     0.063 C 
ATOM      2  C   UNL     1      35.547  36.299  22.607  1.00  0.00     0.038 C 
ATOM      3  O   UNL     1      36.680  36.462  23.131  1.00  0.00    -0.550 OA
ATOM      4  O   UNL     1      34.402  36.472  23.376  1.00  0.00    -0.550 OA
ENDROOT
TORSDOF 0
ENDMDL
MODEL 6
REMARK VINA RESULT:    -1.943     14.825     15.484
REMARK INTER + INTRA:          -1.943
REMARK INTER:                  -1.943
REMARK INTRA:                   0.000
REMARK UNBOUND:                 0.000
REMARK SMILES CC(=O)[O-]
REMARK SMILES IDX 1 1 2 2 3 3 4 4
REMARK H PARENT
REMARK Flexibility Score: inf
ROOT
ATOM      1  C   UNL     1      33.104  20.459  37.352  1.00  0.00     0.063 C 
ATOM      2  C   UNL     1      33.572  20.303  35.945  1.00  0.00     0.038 C 
ATOM      3  O   UNL     1      33.736  19.154  35.456  1.00  0.00    -0.550 OA
ATOM      4  O   UNL     1      33.880  21.425  35.185  1.00  0.00    -0.550 OA
ENDROOT
TORSDOF 0
ENDMDL
MODEL 7
REMARK VINA RESULT:    -1.942     14.379     14.994
REMARK INTER + INTRA:          -1.942
REMARK INTER:                  -1.942
REMARK INTRA:                   0.000
REMARK UNBOUND:                 0.000
REMARK SMILES CC(=O)[O-]
REMARK SMILES IDX 1 1 2 2 3 3 4 4
REMARK H PARENT
REMARK Flexibility Score: inf
ROOT
ATOM      1  C   UNL     1      31.957  21.125  35.143  1.00  0.00     0.063 C 
ATOM      2  C   UNL     1      33.302  20.625  35.546  1.00  0.00     0.038 C 
ATOM      3  O   UNL     1      34.204  21.438  35.880  1.00  0.00    -0.550 OA
ATOM      4  O   UNL     1      33.582  19.265  35.503  1.00  0.00    -0.550 OA
ENDROOT
TORSDOF 0
ENDMDL
MODEL 8
REMARK VINA RESULT:    -1.930     20.844     21.256
REMARK INTER + INTRA:          -1.930
REMARK INTER:                  -1.930
REMARK INTRA:                   0.000
REMARK UNBOUND:                 0.000
REMARK SMILES CC(=O)[O-]
REMARK SMILES IDX 1 1 2 2 3 3 4 4
REMARK H PARENT
REMARK Flexibility Score: inf
ROOT
ATOM      1  C   UNL     1      46.869  26.619  41.032  1.00  0.00     0.063 C 
ATOM      2  C   UNL     1      47.502  25.494  40.288  1.00  0.00     0.038 C 
ATOM      3  O   UNL     1      46.794  24.715  39.596  1.00  0.00    -0.550 OA
ATOM      4  O   UNL     1      48.869  25.267  40.397  1.00  0.00    -0.550 OA
ENDROOT
TORSDOF 0
ENDMDL
MODEL 9
REMARK VINA RESULT:    -1.850     13.292     13.721
REMARK INTER + INTRA:          -1.850
REMARK INTER:                  -1.850
REMARK INTRA:                   0.000
REMARK UNBOUND:                 0.000
REMARK SMILES CC(=O)[O-]
REMARK SMILES IDX 1 1 2 2 3 3 4 4
REMARK H PARENT
REMARK Flexibility Score: inf
ROOT
ATOM      1  C   UNL     1      42.398  36.381  34.063  1.00  0.00     0.063 C 
ATOM      2  C   UNL     1      43.428  36.360  35.139  1.00  0.00     0.038 C 
ATOM      3  O   UNL     1      43.124  35.975  36.299  1.00  0.00    -0.550 OA
ATOM      4  O   UNL     1      44.715  36.815  34.881  1.00  0.00    -0.550 OA
ENDROOT
TORSDOF 0
ENDMDL
