MODEL 1
REMARK VINA RESULT:    -3.607      0.000      0.000
REMARK INTER + INTRA:          -4.690
REMARK INTER:                  -4.451
REMARK INTRA:                  -0.239
REMARK UNBOUND:                -0.239
REMARK SMILES CCCCCC(=O)[O-]
REMARK SMILES IDX 4 1 5 2 6 3 7 4 8 5 3 6 2 7 1 8
REMARK H PARENT
REMARK Flexibility Score: inf
ROOT
ATOM      1  C   UNL     1      -3.422  56.251  46.665  1.00  0.00     0.006 C 
ENDROOT
BRANCH   1   2
ATOM      2  C   UNL     1      -2.126  56.750  47.309  1.00  0.00     0.053 C 
BRANCH   2   3
ATOM      3  C   UNL     1      -2.399  57.309  48.670  1.00  0.00     0.041 C 
ATOM      4  O   UNL     1      -2.625  56.538  49.638  1.00  0.00    -0.550 OA
ATOM      5  O   UNL     1      -2.452  58.685  48.857  1.00  0.00    -0.550 OA
ENDBRANCH   2   3
ENDBRANCH   1   2
BRANCH   1   6
ATOM      6  C   UNL     1      -4.125  57.377  45.898  1.00  0.00     0.000 C 
BRANCH   6   7
ATOM      7  C   UNL     1      -3.114  58.231  45.125  1.00  0.00    -0.003 C 
ATOM      8  C   UNL     1      -3.342  59.718  45.376  1.00  0.00     0.004 C 
ENDBRANCH   6   7
ENDBRANCH   1   6
TORSDOF 4
ENDMDL
MODEL 2
REMARK VINA RESULT:    -3.602      2.263      3.100
REMARK INTER + INTRA:          -4.684
REMARK INTER:                  -4.412
REMARK INTRA:                  -0.272
REMARK UNBOUND:                -0.239
REMARK SMILES CCCCCC(=O)[O-]
REMARK SMILES IDX 4 1 5 2 6 3 7 4 8 5 3 6 2 7 1 8
REMARK H PARENT
REMARK Flexibility Score: inf
ROOT
ATOM      1  C   UNL     1      -2.609  57.302  48.971  1.00  0.00     0.006 C 
ENDROOT
BRANCH   1   2
ATOM      2  C   UNL     1      -1.870  56.502  47.895  1.00  0.00     0.053 C 
BRANCH   2   3
ATOM      3  C   UNL     1      -2.216  57.014  46.532  1.00  0.00     0.041 C 
ATOM      4  O   UNL     1      -1.313  57.443  45.768  1.00  0.00    -0.550 OA
ATOM      5  O   UNL     1      -3.544  57.061  46.124  1.00  0.00    -0.550 OA
ENDBRANCH   2   3
ENDBRANCH   1   2
BRANCH   1   6
ATOM      6  C   UNL     1      -2.219  58.784  48.922  1.00  0.00     0.000 C 
BRANCH   6   7
ATOM      7  C   UNL     1      -3.461  59.678  48.837  1.00  0.00    -0.003 C 
ATOM      8  C   UNL     1      -3.509  60.430  47.510  1.00  0.00     0.004 C 
ENDBRANCH   6   7
ENDBRANCH   1   6
TORSDOF 4
ENDMDL
MODEL 3
REMARK VINA RESULT:    -3.510      2.301      3.458
REMARK INTER + INTRA:          -4.570
REMARK INTER:                  -4.358
REMARK INTRA:                  -0.211
REMARK UNBOUND:                -0.239
REMARK SMILES CCCCCC(=O)[O-]
REMARK SMILES IDX 4 1 5 2 6 3 7 4 8 5 3 6 2 7 1 8
REMARK H PARENT
REMARK Flexibility Score: inf
ROOT
ATOM      1  C   UNL     1      -2.188  56.668  47.549  1.00  0.00     0.006 C 
ENDROOT
BRANCH   1   2
ATOM      2  C   UNL     1      -3.368  56.632  46.574  1.00  0.00     0.053 C 
BRANCH   2   3
ATOM      3  C   UNL     1      -3.268  57.752  45.588  1.00  0.00     0.041 C 
ATOM      4  O   UNL     1      -4.123  58.676  45.589  1.00  0.00    -0.550 OA
ATOM      5  O   UNL     1      -2.257  57.751  44.635  1.00  0.00    -0.550 OA
ENDBRANCH   2   3
ENDBRANCH   1   2
BRANCH   1   6
ATOM      6  C   UNL     1      -2.586  57.334  48.871  1.00  0.00     0.000 C 
BRANCH   6   7
ATOM      7  C   UNL     1      -2.208  58.819  48.876  1.00  0.00    -0.003 C 
ATOM      8  C   UNL     1      -3.450  59.705  48.876  1.00  0.00     0.004 C 
ENDBRANCH   6   7
ENDBRANCH   1   6
TORSDOF 4
ENDMDL
MODEL 4
REMARK VINA RESULT:    -3.499      0.956      1.012
REMARK INTER + INTRA:          -4.557
REMARK INTER:                  -4.360
REMARK INTRA:                  -0.196
REMARK UNBOUND:                -0.239
REMARK SMILES CCCCCC(=O)[O-]
REMARK SMILES IDX 4 1 5 2 6 3 7 4 8 5 3 6 2 7 1 8
REMARK H PARENT
REMARK Flexibility Score: inf
ROOT
ATOM      1  C   UNL     1      -3.786  56.873  46.436  1.00  0.00     0.006 C 
ENDROOT
BRANCH   1   2
ATOM      2  C   UNL     1      -2.565  56.478  47.270  1.00  0.00     0.053 C 
BRANCH   2   3
ATOM      3  C   UNL     1      -2.618  57.128  48.617  1.00  0.00     0.041 C 
ATOM      4  O   UNL     1      -2.611  56.424  49.660  1.00  0.00    -0.550 OA
ATOM      5  O   UNL     1      -2.725  58.509  48.719  1.00  0.00    -0.550 OA
ENDBRANCH   2   3
ENDBRANCH   1   2
BRANCH   1   6
ATOM      6  C   UNL     1      -3.392  57.819  45.295  1.00  0.00     0.000 C 
BRANCH   6   7
ATOM      7  C   UNL     1      -1.872  57.837  45.096  1.00  0.00    -0.003 C 
ATOM      8  C   UNL     1      -1.320  59.256  45.198  1.00  0.00     0.004 C 
ENDBRANCH   6   7
ENDBRANCH   1   6
TORSDOF 4
ENDMDL
MODEL 5
REMARK VINA RESULT:    -3.393      1.714      2.141
REMARK INTER + INTRA:          -4.425
REMARK INTER:                  -4.222
REMARK INTRA:                  -0.203
REMARK UNBOUND:                -0.239
REMARK SMILES CCCCCC(=O)[O-]
REMARK SMILES IDX 4 1 5 2 6 3 7 4 8 5 3 6 2 7 1 8
REMARK H PARENT
REMARK Flexibility Score: inf
ROOT
ATOM      1  C   UNL     1      -3.402  57.714  45.782  1.00  0.00     0.006 C 
ENDROOT
BRANCH   1   2
ATOM      2  C   UNL     1      -3.613  56.641  46.854  1.00  0.00     0.053 C 
BRANCH   2   3
ATOM      3  C   UNL     1      -2.364  56.447  47.654  1.00  0.00     0.041 C 
ATOM      4  O   UNL     1      -2.411  56.443  48.912  1.00  0.00    -0.550 OA
ATOM      5  O   UNL     1      -1.139  56.319  47.011  1.00  0.00    -0.550 OA
ENDBRANCH   2   3
ENDBRANCH   1   2
BRANCH   1   6
ATOM      6  C   UNL     1      -4.123  59.014  46.156  1.00  0.00     0.000 C 
BRANCH   6   7
ATOM      7  C   UNL     1      -3.189  59.963  46.915  1.00  0.00    -0.003 C 
ATOM      8  C   UNL     1      -3.515  59.982  48.406  1.00  0.00     0.004 C 
ENDBRANCH   6   7
ENDBRANCH   1   6
TORSDOF 4
ENDMDL
MODEL 6
REMARK VINA RESULT:    -3.380      1.739      3.239
REMARK INTER + INTRA:          -4.409
REMARK INTER:                  -4.167
REMARK INTRA:                  -0.242
REMARK UNBOUND:                -0.239
REMARK SMILES CCCCCC(=O)[O-]
REMARK SMILES IDX 4 1 5 2 6 3 7 4 8 5 3 6 2 7 1 8
REMARK H PARENT
REMARK Flexibility Score: inf
ROOT
ATOM      1  C   UNL     1      -3.445  57.629  45.546  1.00  0.00     0.006 C 
ENDROOT
BRANCH   1   2
ATOM      2  C   UNL     1      -4.084  58.984  45.862  1.00  0.00     0.053 C 
BRANCH   2   3
ATOM      3  C   UNL     1      -3.225  59.760  46.810  1.00  0.00     0.041 C 
ATOM      4  O   UNL     1      -2.042  60.053  46.497  1.00  0.00    -0.550 OA
ATOM      5  O   UNL     1      -3.716  60.117  48.060  1.00  0.00    -0.550 OA
ENDBRANCH   2   3
ENDBRANCH   1   2
BRANCH   1   6
ATOM      6  C   UNL     1      -3.652  56.640  46.699  1.00  0.00     0.000 C 
BRANCH   6   7
ATOM      7  C   UNL     1      -2.329  56.345  47.415  1.00  0.00    -0.003 C 
ATOM      8  C   UNL     1      -2.397  56.746  48.886  1.00  0.00     0.004 C 
ENDBRANCH   6   7
ENDBRANCH   1   6
TORSDOF 4
ENDMDL
MODEL 7
REMARK VINA RESULT:    -3.334      2.536      3.661
REMARK INTER + INTRA:          -4.352
REMARK INTER:                  -4.148
REMARK INTRA:                  -0.204
REMARK UNBOUND:                -0.239
REMARK SMILES CCCCCC(=O)[O-]
REMARK SMILES IDX 4 1 5 2 6 3 7 4 8 5 3 6 2 7 1 8
REMARK H PARENT
REMARK Flexibility Score: inf
ROOT
ATOM      1  C   UNL     1      -2.228  58.698  48.658  1.00  0.00     0.006 C 
ENDROOT
BRANCH   1   2
ATOM      2  C   UNL     1      -3.426  59.651  48.720  1.00  0.00     0.053 C 
BRANCH   2   3
ATOM      3  C   UNL     1      -3.803  60.107  47.346  1.00  0.00     0.041 C 
ATOM      4  O   UNL     1      -4.123  59.267  46.465  1.00  0.00    -0.550 OA
ATOM      5  O   UNL     1      -3.753  61.457  47.024  1.00  0.00    -0.550 OA
ENDBRANCH   2   3
ENDBRANCH   1   2
BRANCH   1   6
ATOM      6  C   UNL     1      -2.625  57.285  49.099  1.00  0.00     0.000 C 
BRANCH   6   7
ATOM      7  C   UNL     1      -2.082  56.231  48.127  1.00  0.00    -0.003 C 
ATOM      8  C   UNL     1      -1.631  56.871  46.817  1.00  0.00     0.004 C 
ENDBRANCH   6   7
ENDBRANCH   1   6
TORSDOF 4
ENDMDL
MODEL 8
REMARK VINA RESULT:    -3.331      2.210      3.685
REMARK INTER + INTRA:          -4.348
REMARK INTER:                  -4.198
REMARK INTRA:                  -0.150
REMARK UNBOUND:                -0.239
REMARK SMILES CCCCCC(=O)[O-]
REMARK SMILES IDX 4 1 5 2 6 3 7 4 8 5 3 6 2 7 1 8
REMARK H PARENT
REMARK Flexibility Score: inf
ROOT
ATOM      1  C   UNL     1      -3.975  57.585  46.389  1.00  0.00     0.006 C 
ENDROOT
BRANCH   1   2
ATOM      2  C   UNL     1      -3.396  58.093  45.065  1.00  0.00     0.053 C 
BRANCH   2   3
ATOM      3  C   UNL     1      -2.699  59.401  45.266  1.00  0.00     0.041 C 
ATOM      4  O   UNL     1      -1.501  59.427  45.651  1.00  0.00    -0.550 OA
ATOM      5  O   UNL     1      -3.387  60.592  45.075  1.00  0.00    -0.550 OA
ENDBRANCH   2   3
ENDBRANCH   1   2
BRANCH   1   6
ATOM      6  C   UNL     1      -3.267  56.303  46.843  1.00  0.00     0.000 C 
BRANCH   6   7
ATOM      7  C   UNL     1      -2.056  56.626  47.725  1.00  0.00    -0.003 C 
ATOM      8  C   UNL     1      -2.454  56.719  49.196  1.00  0.00     0.004 C 
ENDBRANCH   6   7
ENDBRANCH   1   6
TORSDOF 4
ENDMDL
MODEL 9
REMARK VINA RESULT:    -3.299     13.601     14.225
REMARK INTER + INTRA:          -4.309
REMARK INTER:                  -4.206
REMARK INTRA:                  -0.103
REMARK UNBOUND:                -0.239
REMARK SMILES CCCCCC(=O)[O-]
REMARK SMILES IDX 4 1 5 2 6 3 7 4 8 5 3 6 2 7 1 8
REMARK H PARENT
REMARK Flexibility Score: inf
ROOT
ATOM      1  C   UNL     1       5.316  60.757  56.999  1.00  0.00     0.006 C 
ENDROOT
BRANCH   1   2
ATOM      2  C   UNL     1       4.134  61.306  57.803  1.00  0.00     0.053 C 
BRANCH   2   3
ATOM      3  C   UNL     1       4.501  62.602  58.455  1.00  0.00     0.041 C 
ATOM      4  O   UNL     1       3.886  63.658  58.156  1.00  0.00    -0.550 OA
ATOM      5  O   UNL     1       5.557  62.651  59.358  1.00  0.00    -0.550 OA
ENDBRANCH   2   3
ENDBRANCH   1   2
BRANCH   1   6
ATOM      6  C   UNL     1       5.925  59.528  57.684  1.00  0.00     0.000 C 
BRANCH   6   7
ATOM      7  C   UNL     1       6.933  58.829  56.766  1.00  0.00    -0.003 C 
ATOM      8  C   UNL     1       7.782  59.843  56.004  1.00  0.00     0.004 C 
ENDBRANCH   6   7
ENDBRANCH   1   6
TORSDOF 4
ENDMDL
