MODEL 1
REMARK VINA RESULT:    -5.386      0.000      0.000
REMARK INTER + INTRA:          -6.621
REMARK INTER:                  -6.330
REMARK INTRA:                  -0.291
REMARK UNBOUND:                -0.291
REMARK SMILES O=c1c(O)c(-c2ccc(O)cc2)oc2cc(O)cc(O)c12
REMARK SMILES IDX 5 1 3 2 2 3 1 4 21 5 19 6 18 7 16 8 15 9 14 10 13 11 6 12
REMARK SMILES IDX 7 13 8 14 9 15 12 16 11 17 10 18 4 20 20 22 17 24
REMARK H PARENT 10 19 4 21 20 23 17 25
REMARK Flexibility Score: inf
ROOT
ATOM      1  C   UNL     1      -4.480  88.340  -8.492  1.00  0.00     0.180 A 
ATOM      2  C   UNL     1      -3.364  88.072  -7.676  1.00  0.00     0.208 A 
ATOM      3  C   UNL     1      -2.881  86.755  -7.599  1.00  0.00     0.238 A 
ATOM      4  O   UNL     1      -1.876  86.504  -6.880  1.00  0.00    -0.285 OA
ATOM      5  C   UNL     1      -3.530  85.731  -8.318  1.00  0.00     0.111 A 
ATOM      6  C   UNL     1      -3.110  84.380  -8.292  1.00  0.00     0.134 A 
ATOM      7  C   UNL     1      -3.816  83.417  -9.029  1.00  0.00     0.093 A 
ATOM      8  C   UNL     1      -4.931  83.778  -9.789  1.00  0.00     0.123 A 
ATOM      9  C   UNL     1      -5.350  85.112  -9.820  1.00  0.00     0.094 A 
ATOM     10  C   UNL     1      -4.659  86.087  -9.094  1.00  0.00     0.146 A 
ATOM     11  O   UNL     1      -5.075  87.347  -9.144  1.00  0.00    -0.452 OA
ENDROOT
BRANCH   1  12
ATOM     12  C   UNL     1      -5.035  89.705  -8.639  1.00  0.00     0.021 A 
ATOM     13  C   UNL     1      -4.522  90.556  -9.632  1.00  0.00     0.016 A 
ATOM     14  C   UNL     1      -5.016  91.856  -9.775  1.00  0.00     0.047 A 
ATOM     15  C   UNL     1      -6.018  92.326  -8.916  1.00  0.00     0.115 A 
ATOM     16  C   UNL     1      -6.027  90.191  -7.769  1.00  0.00     0.016 A 
ATOM     17  C   UNL     1      -6.518  91.493  -7.912  1.00  0.00     0.047 A 
BRANCH  15  18
ATOM     18  O   UNL     1      -6.518  93.620  -9.049  1.00  0.00    -0.508 OA
ATOM     19  H   UNL     1      -5.904  94.410  -9.216  1.00  0.00     0.293 HD
ENDBRANCH  15  18
ENDBRANCH   1  12
BRANCH   2  20
ATOM     20  O   UNL     1      -2.768  89.094  -6.934  1.00  0.00    -0.502 OA
ATOM     21  H   UNL     1      -1.763  89.188  -6.847  1.00  0.00     0.293 HD
ENDBRANCH   2  20
BRANCH   6  22
ATOM     22  O   UNL     1      -2.001  83.986  -7.540  1.00  0.00    -0.507 OA
ATOM     23  H   UNL     1      -2.033  83.938  -6.529  1.00  0.00     0.293 HD
ENDBRANCH   6  22
BRANCH   8  24
ATOM     24  O   UNL     1      -5.614  82.803 -10.511  1.00  0.00    -0.508 OA
ATOM     25  H   UNL     1      -5.138  82.205 -11.177  1.00  0.00     0.293 HD
ENDBRANCH   8  24
TORSDOF 5
ENDMDL
MODEL 2
REMARK VINA RESULT:    -5.295      1.976      7.379
REMARK INTER + INTRA:          -6.514
REMARK INTER:                  -6.231
REMARK INTRA:                  -0.283
REMARK UNBOUND:                -0.291
REMARK SMILES O=c1c(O)c(-c2ccc(O)cc2)oc2cc(O)cc(O)c12
REMARK SMILES IDX 5 1 3 2 2 3 1 4 21 5 19 6 18 7 16 8 15 9 14 10 13 11 6 12
REMARK SMILES IDX 7 13 8 14 9 15 12 16 11 17 10 18 4 20 20 22 17 24
REMARK H PARENT 10 19 4 21 20 23 17 25
REMARK Flexibility Score: inf
ROOT
ATOM      1  C   UNL     1      -4.720  84.969  -8.812  1.00  0.00     0.180 A 
ATOM      2  C   UNL     1      -5.889  85.082  -9.589  1.00  0.00     0.208 A 
ATOM      3  C   UNL     1      -6.355  86.362  -9.930  1.00  0.00     0.238 A 
ATOM      4  O   UNL     1      -7.395  86.476 -10.635  1.00  0.00    -0.285 OA
ATOM      5  C   UNL     1      -5.661  87.501  -9.475  1.00  0.00     0.111 A 
ATOM      6  C   UNL     1      -6.066  88.825  -9.770  1.00  0.00     0.134 A 
ATOM      7  C   UNL     1      -5.326  89.907  -9.270  1.00  0.00     0.093 A 
ATOM      8  C   UNL     1      -4.193  89.692  -8.483  1.00  0.00     0.123 A 
ATOM      9  C   UNL     1      -3.786  88.387  -8.189  1.00  0.00     0.094 A 
ATOM     10  C   UNL     1      -4.510  87.295  -8.678  1.00  0.00     0.146 A 
ATOM     11  O   UNL     1      -4.100  86.065  -8.388  1.00  0.00    -0.452 OA
ENDROOT
BRANCH   1  12
ATOM     12  C   UNL     1      -4.156  83.655  -8.428  1.00  0.00     0.021 A 
ATOM     13  C   UNL     1      -4.625  83.014  -7.269  1.00  0.00     0.016 A 
ATOM     14  C   UNL     1      -4.091  81.783  -6.875  1.00  0.00     0.047 A 
ATOM     15  C   UNL     1      -3.070  81.186  -7.627  1.00  0.00     0.115 A 
ATOM     16  C   UNL     1      -3.117  83.059  -9.166  1.00  0.00     0.016 A 
ATOM     17  C   UNL     1      -2.583  81.828  -8.769  1.00  0.00     0.047 A 
BRANCH  15  18
ATOM     18  O   UNL     1      -2.529  79.960  -7.244  1.00  0.00    -0.508 OA
ATOM     19  H   UNL     1      -2.523  79.165  -7.872  1.00  0.00     0.293 HD
ENDBRANCH  15  18
ENDBRANCH   1  12
BRANCH   2  20
ATOM     20  O   UNL     1      -6.587  83.940  -9.987  1.00  0.00    -0.502 OA
ATOM     21  H   UNL     1      -7.582  83.827  -9.827  1.00  0.00     0.293 HD
ENDBRANCH   2  20
BRANCH   6  22
ATOM     22  O   UNL     1      -7.195  89.074 -10.552  1.00  0.00    -0.507 OA
ATOM     23  H   UNL     1      -7.702  88.325 -11.009  1.00  0.00     0.293 HD
ENDBRANCH   6  22
BRANCH   8  24
ATOM     24  O   UNL     1      -3.476  90.784  -8.000  1.00  0.00    -0.508 OA
ATOM     25  H   UNL     1      -2.919  90.721  -7.155  1.00  0.00     0.293 HD
ENDBRANCH   8  24
TORSDOF 5
ENDMDL
MODEL 3
REMARK VINA RESULT:    -5.029      7.734     10.287
REMARK INTER + INTRA:          -6.202
REMARK INTER:                  -5.920
REMARK INTRA:                  -0.282
REMARK UNBOUND:                -0.291
REMARK SMILES O=c1c(O)c(-c2ccc(O)cc2)oc2cc(O)cc(O)c12
REMARK SMILES IDX 5 1 3 2 2 3 1 4 21 5 19 6 18 7 16 8 15 9 14 10 13 11 6 12
REMARK SMILES IDX 7 13 8 14 9 15 12 16 11 17 10 18 4 20 20 22 17 24
REMARK H PARENT 10 19 4 21 20 23 17 25
REMARK Flexibility Score: inf
ROOT
ATOM      1  C   UNL     1      -4.143  92.073 -15.607  1.00  0.00     0.180 A 
ATOM      2  C   UNL     1      -3.027  91.489 -16.236  1.00  0.00     0.208 A 
ATOM      3  C   UNL     1      -2.876  91.639 -17.624  1.00  0.00     0.238 A 
ATOM      4  O   UNL     1      -1.875  91.129 -18.197  1.00  0.00    -0.285 OA
ATOM      5  C   UNL     1      -3.848  92.347 -18.359  1.00  0.00     0.111 A 
ATOM      6  C   UNL     1      -3.773  92.539 -19.759  1.00  0.00     0.134 A 
ATOM      7  C   UNL     1      -4.787  93.249 -20.420  1.00  0.00     0.093 A 
ATOM      8  C   UNL     1      -5.872  93.768 -19.709  1.00  0.00     0.123 A 
ATOM      9  C   UNL     1      -5.952  93.583 -18.326  1.00  0.00     0.094 A 
ATOM     10  C   UNL     1      -4.950  92.880 -17.649  1.00  0.00     0.146 A 
ATOM     11  O   UNL     1      -5.047  92.721 -16.334  1.00  0.00    -0.452 OA
ENDROOT
BRANCH   1  12
ATOM     12  C   UNL     1      -4.362  91.976 -14.145  1.00  0.00     0.021 A 
ATOM     13  C   UNL     1      -5.022  90.853 -13.619  1.00  0.00     0.016 A 
ATOM     14  C   UNL     1      -5.260  90.751 -12.245  1.00  0.00     0.047 A 
ATOM     15  C   UNL     1      -4.853  91.777 -11.382  1.00  0.00     0.115 A 
ATOM     16  C   UNL     1      -3.975  93.011 -13.275  1.00  0.00     0.016 A 
ATOM     17  C   UNL     1      -4.215  92.908 -11.901  1.00  0.00     0.047 A 
BRANCH  15  18
ATOM     18  O   UNL     1      -5.085  91.687 -10.011  1.00  0.00    -0.508 OA
ATOM     19  H   UNL     1      -4.467  92.128  -9.340  1.00  0.00     0.293 HD
ENDBRANCH  15  18
ENDBRANCH   1  12
BRANCH   2  20
ATOM     20  O   UNL     1      -2.103  90.750 -15.494  1.00  0.00    -0.502 OA
ATOM     21  H   UNL     1      -1.843  89.802 -15.739  1.00  0.00     0.293 HD
ENDBRANCH   2  20
BRANCH   6  22
ATOM     22  O   UNL     1      -2.703  92.031 -20.498  1.00  0.00    -0.507 OA
ATOM     23  H   UNL     1      -1.855  91.706 -20.051  1.00  0.00     0.293 HD
ENDBRANCH   6  22
BRANCH   8  24
ATOM     24  O   UNL     1      -6.865  94.469 -20.389  1.00  0.00    -0.508 OA
ATOM     25  H   UNL     1      -6.974  94.395 -21.394  1.00  0.00     0.293 HD
ENDBRANCH   8  24
TORSDOF 5
ENDMDL
MODEL 4
REMARK VINA RESULT:    -5.021      1.640      3.065
REMARK INTER + INTRA:          -6.193
REMARK INTER:                  -6.156
REMARK INTRA:                  -0.036
REMARK UNBOUND:                -0.291
REMARK SMILES O=c1c(O)c(-c2ccc(O)cc2)oc2cc(O)cc(O)c12
REMARK SMILES IDX 5 1 3 2 2 3 1 4 21 5 19 6 18 7 16 8 15 9 14 10 13 11 6 12
REMARK SMILES IDX 7 13 8 14 9 15 12 16 11 17 10 18 4 20 20 22 17 24
REMARK H PARENT 10 19 4 21 20 23 17 25
REMARK Flexibility Score: inf
ROOT
ATOM      1  C   UNL     1      -5.211  88.005  -9.121  1.00  0.00     0.180 A 
ATOM      2  C   UNL     1      -6.473  87.527  -9.524  1.00  0.00     0.208 A 
ATOM      3  C   UNL     1      -6.660  86.143  -9.667  1.00  0.00     0.238 A 
ATOM      4  O   UNL     1      -7.788  85.703 -10.017  1.00  0.00    -0.285 OA
ATOM      5  C   UNL     1      -5.583  85.266  -9.426  1.00  0.00     0.111 A 
ATOM      6  C   UNL     1      -5.686  83.859  -9.551  1.00  0.00     0.134 A 
ATOM      7  C   UNL     1      -4.565  83.054  -9.303  1.00  0.00     0.093 A 
ATOM      8  C   UNL     1      -3.345  83.626  -8.934  1.00  0.00     0.123 A 
ATOM      9  C   UNL     1      -3.236  85.014  -8.807  1.00  0.00     0.094 A 
ATOM     10  C   UNL     1      -4.343  85.834  -9.049  1.00  0.00     0.146 A 
ATOM     11  O   UNL     1      -4.215  87.149  -8.917  1.00  0.00    -0.452 OA
ENDROOT
BRANCH   1  12
ATOM     12  C   UNL     1      -4.941  89.449  -8.930  1.00  0.00     0.021 A 
ATOM     13  C   UNL     1      -5.127  90.334 -10.005  1.00  0.00     0.016 A 
ATOM     14  C   UNL     1      -4.857  91.698  -9.854  1.00  0.00     0.047 A 
ATOM     15  C   UNL     1      -4.382  92.190  -8.630  1.00  0.00     0.115 A 
ATOM     16  C   UNL     1      -4.446  89.947  -7.712  1.00  0.00     0.016 A 
ATOM     17  C   UNL     1      -4.174  91.311  -7.563  1.00  0.00     0.047 A 
BRANCH  15  18
ATOM     18  O   UNL     1      -4.110  93.547  -8.468  1.00  0.00    -0.508 OA
ATOM     19  H   UNL     1      -4.766  94.258  -8.769  1.00  0.00     0.293 HD
ENDBRANCH  15  18
ENDBRANCH   1  12
BRANCH   2  20
ATOM     20  O   UNL     1      -7.510  88.420  -9.805  1.00  0.00    -0.502 OA
ATOM     21  H   UNL     1      -7.400  89.196 -10.447  1.00  0.00     0.293 HD
ENDBRANCH   2  20
BRANCH   6  22
ATOM     22  O   UNL     1      -6.890  83.258  -9.921  1.00  0.00    -0.507 OA
ATOM     23  H   UNL     1      -7.023  82.255  -9.867  1.00  0.00     0.293 HD
ENDBRANCH   6  22
BRANCH   8  24
ATOM     24  O   UNL     1      -2.247  82.804  -8.693  1.00  0.00    -0.508 OA
ATOM     25  H   UNL     1      -2.359  81.840  -8.402  1.00  0.00     0.293 HD
ENDBRANCH   8  24
TORSDOF 5
ENDMDL
MODEL 5
REMARK VINA RESULT:    -4.983      6.576      9.274
REMARK INTER + INTRA:          -6.148
REMARK INTER:                  -5.859
REMARK INTRA:                  -0.289
REMARK UNBOUND:                -0.291
REMARK SMILES O=c1c(O)c(-c2ccc(O)cc2)oc2cc(O)cc(O)c12
REMARK SMILES IDX 5 1 3 2 2 3 1 4 21 5 19 6 18 7 16 8 15 9 14 10 13 11 6 12
REMARK SMILES IDX 7 13 8 14 9 15 12 16 11 17 10 18 4 20 20 22 17 24
REMARK H PARENT 10 19 4 21 20 23 17 25
REMARK Flexibility Score: inf
ROOT
ATOM      1  C   UNL     1      -4.078  92.350 -15.641  1.00  0.00     0.180 A 
ATOM      2  C   UNL     1      -4.670  91.072 -15.648  1.00  0.00     0.208 A 
ATOM      3  C   UNL     1      -5.120  90.527 -14.435  1.00  0.00     0.238 A 
ATOM      4  O   UNL     1      -5.662  89.388 -14.431  1.00  0.00    -0.285 OA
ATOM      5  C   UNL     1      -4.954  91.254 -13.239  1.00  0.00     0.111 A 
ATOM      6  C   UNL     1      -5.376  90.775 -11.976  1.00  0.00     0.134 A 
ATOM      7  C   UNL     1      -5.166  91.556 -10.829  1.00  0.00     0.093 A 
ATOM      8  C   UNL     1      -4.544  92.803 -10.921  1.00  0.00     0.123 A 
ATOM      9  C   UNL     1      -4.125  93.283 -12.166  1.00  0.00     0.094 A 
ATOM     10  C   UNL     1      -4.327  92.520 -13.321  1.00  0.00     0.146 A 
ATOM     11  O   UNL     1      -3.924  93.000 -14.491  1.00  0.00    -0.452 OA
ENDROOT
BRANCH   1  12
ATOM     12  C   UNL     1      -3.595  93.000 -16.881  1.00  0.00     0.021 A 
ATOM     13  C   UNL     1      -4.467  93.823 -17.613  1.00  0.00     0.016 A 
ATOM     14  C   UNL     1      -4.040  94.429 -18.799  1.00  0.00     0.047 A 
ATOM     15  C   UNL     1      -2.741  94.206 -19.275  1.00  0.00     0.115 A 
ATOM     16  C   UNL     1      -2.300  92.766 -17.376  1.00  0.00     0.016 A 
ATOM     17  C   UNL     1      -1.875  93.371 -18.563  1.00  0.00     0.047 A 
BRANCH  15  18
ATOM     18  O   UNL     1      -2.305  94.804 -20.455  1.00  0.00    -0.508 OA
ATOM     19  H   UNL     1      -2.081  94.254 -21.276  1.00  0.00     0.293 HD
ENDBRANCH  15  18
ENDBRANCH   1  12
BRANCH   2  20
ATOM     20  O   UNL     1      -4.778  90.350 -16.839  1.00  0.00    -0.502 OA
ATOM     21  H   UNL     1      -5.495  90.544 -17.528  1.00  0.00     0.293 HD
ENDBRANCH   2  20
BRANCH   6  22
ATOM     22  O   UNL     1      -6.000  89.533 -11.850  1.00  0.00    -0.507 OA
ATOM     23  H   UNL     1      -5.507  88.723 -11.494  1.00  0.00     0.293 HD
ENDBRANCH   6  22
BRANCH   8  24
ATOM     24  O   UNL     1      -4.347  93.558  -9.768  1.00  0.00    -0.508 OA
ATOM     25  H   UNL     1      -3.577  93.371  -9.136  1.00  0.00     0.293 HD
ENDBRANCH   8  24
TORSDOF 5
ENDMDL
MODEL 6
REMARK VINA RESULT:    -4.972      5.134      7.315
REMARK INTER + INTRA:          -6.134
REMARK INTER:                  -5.891
REMARK INTRA:                  -0.243
REMARK UNBOUND:                -0.291
REMARK SMILES O=c1c(O)c(-c2ccc(O)cc2)oc2cc(O)cc(O)c12
REMARK SMILES IDX 5 1 3 2 2 3 1 4 21 5 19 6 18 7 16 8 15 9 14 10 13 11 6 12
REMARK SMILES IDX 7 13 8 14 9 15 12 16 11 17 10 18 4 20 20 22 17 24
REMARK H PARENT 10 19 4 21 20 23 17 25
REMARK Flexibility Score: inf
ROOT
ATOM      1  C   UNL     1      -4.412  91.840 -13.704  1.00  0.00     0.180 A 
ATOM      2  C   UNL     1      -4.169  92.624 -12.560  1.00  0.00     0.208 A 
ATOM      3  C   UNL     1      -4.720  92.223 -11.333  1.00  0.00     0.238 A 
ATOM      4  O   UNL     1      -4.500  92.912 -10.300  1.00  0.00    -0.285 OA
ATOM      5  C   UNL     1      -5.519  91.063 -11.273  1.00  0.00     0.111 A 
ATOM      6  C   UNL     1      -6.114  90.592 -10.078  1.00  0.00     0.134 A 
ATOM      7  C   UNL     1      -6.904  89.433 -10.103  1.00  0.00     0.093 A 
ATOM      8  C   UNL     1      -7.109  88.737 -11.296  1.00  0.00     0.123 A 
ATOM      9  C   UNL     1      -6.523  89.195 -12.480  1.00  0.00     0.094 A 
ATOM     10  C   UNL     1      -5.731  90.348 -12.476  1.00  0.00     0.146 A 
ATOM     11  O   UNL     1      -5.182  90.760 -13.613  1.00  0.00    -0.452 OA
ENDROOT
BRANCH   1  12
ATOM     12  C   UNL     1      -3.850  92.186 -15.029  1.00  0.00     0.021 A 
ATOM     13  C   UNL     1      -4.451  93.202 -15.791  1.00  0.00     0.016 A 
ATOM     14  C   UNL     1      -3.951  93.531 -17.054  1.00  0.00     0.047 A 
ATOM     15  C   UNL     1      -2.853  92.836 -17.579  1.00  0.00     0.115 A 
ATOM     16  C   UNL     1      -2.760  91.480 -15.571  1.00  0.00     0.016 A 
ATOM     17  C   UNL     1      -2.262  91.809 -16.836  1.00  0.00     0.047 A 
BRANCH  15  18
ATOM     18  O   UNL     1      -2.345  93.155 -18.837  1.00  0.00    -0.508 OA
ATOM     19  H   UNL     1      -1.463  92.778 -19.162  1.00  0.00     0.293 HD
ENDBRANCH  15  18
ENDBRANCH   1  12
BRANCH   2  20
ATOM     20  O   UNL     1      -3.416  93.797 -12.655  1.00  0.00    -0.502 OA
ATOM     21  H   UNL     1      -2.720  93.939 -13.378  1.00  0.00     0.293 HD
ENDBRANCH   2  20
BRANCH   6  22
ATOM     22  O   UNL     1      -5.930  91.267  -8.870  1.00  0.00    -0.507 OA
ATOM     23  H   UNL     1      -5.080  91.166  -8.328  1.00  0.00     0.293 HD
ENDBRANCH   6  22
BRANCH   8  24
ATOM     24  O   UNL     1      -7.898  87.589 -11.294  1.00  0.00    -0.508 OA
ATOM     25  H   UNL     1      -8.385  87.281 -10.460  1.00  0.00     0.293 HD
ENDBRANCH   8  24
TORSDOF 5
ENDMDL
MODEL 7
REMARK VINA RESULT:    -4.922      5.957      7.992
REMARK INTER + INTRA:          -6.076
REMARK INTER:                  -5.787
REMARK INTRA:                  -0.290
REMARK UNBOUND:                -0.291
REMARK SMILES O=c1c(O)c(-c2ccc(O)cc2)oc2cc(O)cc(O)c12
REMARK SMILES IDX 5 1 3 2 2 3 1 4 21 5 19 6 18 7 16 8 15 9 14 10 13 11 6 12
REMARK SMILES IDX 7 13 8 14 9 15 12 16 11 17 10 18 4 20 20 22 17 24
REMARK H PARENT 10 19 4 21 20 23 17 25
REMARK Flexibility Score: inf
ROOT
ATOM      1  C   UNL     1      -5.635  91.862 -14.881  1.00  0.00     0.180 A 
ATOM      2  C   UNL     1      -4.830  92.572 -13.971  1.00  0.00     0.208 A 
ATOM      3  C   UNL     1      -4.760  92.130 -12.639  1.00  0.00     0.238 A 
ATOM      4  O   UNL     1      -4.034  92.751 -11.817  1.00  0.00    -0.285 OA
ATOM      5  C   UNL     1      -5.508  91.005 -12.238  1.00  0.00     0.111 A 
ATOM      6  C   UNL     1      -5.496  90.497 -10.917  1.00  0.00     0.134 A 
ATOM      7  C   UNL     1      -6.277  89.377 -10.594  1.00  0.00     0.093 A 
ATOM      8  C   UNL     1      -7.067  88.756 -11.564  1.00  0.00     0.123 A 
ATOM      9  C   UNL     1      -7.082  89.251 -12.872  1.00  0.00     0.094 A 
ATOM     10  C   UNL     1      -6.310  90.366 -13.214  1.00  0.00     0.146 A 
ATOM     11  O   UNL     1      -6.338  90.813 -14.464  1.00  0.00    -0.452 OA
ENDROOT
BRANCH   1  12
ATOM     12  C   UNL     1      -5.746  92.254 -16.305  1.00  0.00     0.021 A 
ATOM     13  C   UNL     1      -6.861  92.993 -16.733  1.00  0.00     0.016 A 
ATOM     14  C   UNL     1      -6.997  93.355 -18.077  1.00  0.00     0.047 A 
ATOM     15  C   UNL     1      -6.028  92.968 -19.012  1.00  0.00     0.115 A 
ATOM     16  C   UNL     1      -4.788  91.852 -17.253  1.00  0.00     0.016 A 
ATOM     17  C   UNL     1      -4.927  92.214 -18.597  1.00  0.00     0.047 A 
BRANCH  15  18
ATOM     18  O   UNL     1      -6.153  93.323 -20.353  1.00  0.00    -0.508 OA
ATOM     19  H   UNL     1      -6.190  92.622 -21.085  1.00  0.00     0.293 HD
ENDBRANCH  15  18
ENDBRANCH   1  12
BRANCH   2  20
ATOM     20  O   UNL     1      -4.137  93.713 -14.380  1.00  0.00    -0.502 OA
ATOM     21  H   UNL     1      -3.131  93.725 -14.500  1.00  0.00     0.293 HD
ENDBRANCH   2  20
BRANCH   6  22
ATOM     22  O   UNL     1      -4.719  91.096  -9.924  1.00  0.00    -0.507 OA
ATOM     23  H   UNL     1      -5.015  91.944  -9.455  1.00  0.00     0.293 HD
ENDBRANCH   6  22
BRANCH   8  24
ATOM     24  O   UNL     1      -7.832  87.646 -11.218  1.00  0.00    -0.508 OA
ATOM     25  H   UNL     1      -7.417  86.727 -11.111  1.00  0.00     0.293 HD
ENDBRANCH   8  24
TORSDOF 5
ENDMDL
MODEL 8
REMARK VINA RESULT:    -4.807      7.500      9.872
REMARK INTER + INTRA:          -5.940
REMARK INTER:                  -5.682
REMARK INTRA:                  -0.258
REMARK UNBOUND:                -0.291
REMARK SMILES O=c1c(O)c(-c2ccc(O)cc2)oc2cc(O)cc(O)c12
REMARK SMILES IDX 5 1 3 2 2 3 1 4 21 5 19 6 18 7 16 8 15 9 14 10 13 11 6 12
REMARK SMILES IDX 7 13 8 14 9 15 12 16 11 17 10 18 4 20 20 22 17 24
REMARK H PARENT 10 19 4 21 20 23 17 25
REMARK Flexibility Score: inf
ROOT
ATOM      1  C   UNL     1      -5.151  91.284 -15.413  1.00  0.00     0.180 A 
ATOM      2  C   UNL     1      -3.755  91.135 -15.533  1.00  0.00     0.208 A 
ATOM      3  C   UNL     1      -3.125  91.576 -16.709  1.00  0.00     0.238 A 
ATOM      4  O   UNL     1      -1.876  91.458 -16.824  1.00  0.00    -0.285 OA
ATOM      5  C   UNL     1      -3.898  92.136 -17.746  1.00  0.00     0.111 A 
ATOM      6  C   UNL     1      -3.343  92.600 -18.962  1.00  0.00     0.134 A 
ATOM      7  C   UNL     1      -4.181  93.136 -19.951  1.00  0.00     0.093 A 
ATOM      8  C   UNL     1      -5.560  93.217 -19.747  1.00  0.00     0.123 A 
ATOM      9  C   UNL     1      -6.116  92.762 -18.548  1.00  0.00     0.094 A 
ATOM     10  C   UNL     1      -5.297  92.225 -17.549  1.00  0.00     0.146 A 
ATOM     11  O   UNL     1      -5.849  91.804 -16.418  1.00  0.00    -0.452 OA
ENDROOT
BRANCH   1  12
ATOM     12  C   UNL     1      -5.884  90.862 -14.198  1.00  0.00     0.021 A 
ATOM     13  C   UNL     1      -5.859  91.681 -13.056  1.00  0.00     0.016 A 
ATOM     14  C   UNL     1      -6.526  91.291 -11.891  1.00  0.00     0.047 A 
ATOM     15  C   UNL     1      -7.212  90.071 -11.847  1.00  0.00     0.115 A 
ATOM     16  C   UNL     1      -6.558  89.629 -14.139  1.00  0.00     0.016 A 
ATOM     17  C   UNL     1      -7.223  89.240 -12.971  1.00  0.00     0.047 A 
BRANCH  15  18
ATOM     18  O   UNL     1      -7.880  89.672 -10.691  1.00  0.00    -0.508 OA
ATOM     19  H   UNL     1      -8.817  89.287 -10.727  1.00  0.00     0.293 HD
ENDBRANCH  15  18
ENDBRANCH   1  12
BRANCH   2  20
ATOM     20  O   UNL     1      -3.018  90.532 -14.512  1.00  0.00    -0.502 OA
ATOM     21  H   UNL     1      -2.901  90.960 -13.601  1.00  0.00     0.293 HD
ENDBRANCH   2  20
BRANCH   6  22
ATOM     22  O   UNL     1      -1.968  92.532 -19.196  1.00  0.00    -0.507 OA
ATOM     23  H   UNL     1      -1.348  93.294 -18.953  1.00  0.00     0.293 HD
ENDBRANCH   6  22
BRANCH   8  24
ATOM     24  O   UNL     1      -6.371  93.754 -20.745  1.00  0.00    -0.508 OA
ATOM     25  H   UNL     1      -7.049  93.187 -21.240  1.00  0.00     0.293 HD
ENDBRANCH   8  24
TORSDOF 5
ENDMDL
