MODEL 1
REMARK VINA RESULT:    -3.406      0.000      0.000
REMARK INTER + INTRA:          -4.812
REMARK INTER:                  -4.402
REMARK INTRA:                  -0.411
REMARK UNBOUND:                -0.411
REMARK SMILES CCO[C@@H]1O[C@H](CO)[C@@H](O)[C@H](O)[C@H]1O
REMARK SMILES IDX 4 1 13 2 11 3 9 4 6 5 5 6 3 7 2 8 1 9 14 10 12 12 7 14 8 15
REMARK SMILES IDX 10 17
REMARK H PARENT 14 11 12 13 8 16 10 18
REMARK Flexibility Score: inf
ROOT
ATOM      1  C   UNL     1       6.889  34.125  33.627  1.00  0.00     0.281 C 
ATOM      2  C   UNL     1       6.804  33.211  32.389  1.00  0.00     0.202 C 
ATOM      3  C   UNL     1       8.077  32.372  32.231  1.00  0.00     0.179 C 
ATOM      4  C   UNL     1       8.420  31.657  33.553  1.00  0.00     0.177 C 
ATOM      5  C   UNL     1       8.360  32.617  34.769  1.00  0.00     0.178 C 
ATOM      6  O   UNL     1       7.171  33.400  34.818  1.00  0.00    -0.341 OA
ENDROOT
BRANCH   1   7
ATOM      7  O   UNL     1       7.854  35.148  33.415  1.00  0.00    -0.350 OA
BRANCH   7   8
ATOM      8  C   UNL     1       7.514  36.354  34.074  1.00  0.00     0.160 C 
ATOM      9  C   UNL     1       7.258  37.484  33.079  1.00  0.00     0.035 C 
ENDBRANCH   7   8
ENDBRANCH   1   7
BRANCH   2  10
ATOM     10  O   UNL     1       5.692  32.357  32.498  1.00  0.00    -0.385 OA
ATOM     11  H   UNL     1       5.568  32.165  33.464  1.00  0.00     0.211 HD
ENDBRANCH   2  10
BRANCH   3  12
ATOM     12  O   UNL     1       9.138  33.192  31.816  1.00  0.00    -0.387 OA
ATOM     13  H   UNL     1       8.864  33.605  30.955  1.00  0.00     0.211 HD
ENDBRANCH   3  12
BRANCH   5  14
ATOM     14  C   UNL     1       9.635  33.461  34.968  1.00  0.00     0.191 C 
BRANCH  14  15
ATOM     15  O   UNL     1      10.732  32.811  34.385  1.00  0.00    -0.394 OA
ATOM     16  H   UNL     1      10.606  32.882  33.403  1.00  0.00     0.210 HD
ENDBRANCH  14  15
ENDBRANCH   5  14
BRANCH   4  17
ATOM     17  O   UNL     1       7.517  30.601  33.770  1.00  0.00    -0.387 OA
ATOM     18  H   UNL     1       6.868  30.617  33.019  1.00  0.00     0.211 HD
ENDBRANCH   4  17
TORSDOF 7
ENDMDL
MODEL 2
REMARK VINA RESULT:    -3.375      1.862      3.719
REMARK INTER + INTRA:          -4.772
REMARK INTER:                  -4.352
REMARK INTRA:                  -0.420
REMARK UNBOUND:                -0.411
REMARK SMILES CCO[C@@H]1O[C@H](CO)[C@@H](O)[C@H](O)[C@H]1O
REMARK SMILES IDX 4 1 13 2 11 3 9 4 6 5 5 6 3 7 2 8 1 9 14 10 12 12 7 14 8 15
REMARK SMILES IDX 10 17
REMARK H PARENT 14 11 12 13 8 16 10 18
REMARK Flexibility Score: inf
ROOT
ATOM      1  C   UNL     1       7.502  32.259  34.652  1.00  0.00     0.281 C 
ATOM      2  C   UNL     1       8.326  31.654  33.498  1.00  0.00     0.202 C 
ATOM      3  C   UNL     1       8.495  32.657  32.352  1.00  0.00     0.179 C 
ATOM      4  C   UNL     1       9.009  34.009  32.888  1.00  0.00     0.177 C 
ATOM      5  C   UNL     1       8.209  34.487  34.127  1.00  0.00     0.178 C 
ATOM      6  O   UNL     1       8.051  33.483  35.125  1.00  0.00    -0.341 OA
ENDROOT
BRANCH   1   7
ATOM      7  O   UNL     1       6.149  32.429  34.251  1.00  0.00    -0.350 OA
BRANCH   7   8
ATOM      8  C   UNL     1       5.426  31.212  34.263  1.00  0.00     0.160 C 
ATOM      9  C   UNL     1       4.049  31.371  33.623  1.00  0.00     0.035 C 
ENDBRANCH   7   8
ENDBRANCH   1   7
BRANCH   2  10
ATOM     10  O   UNL     1       9.593  31.262  33.966  1.00  0.00    -0.385 OA
ATOM     11  H   UNL     1       9.444  30.714  34.780  1.00  0.00     0.211 HD
ENDBRANCH   2  10
BRANCH   3  12
ATOM     12  O   UNL     1       7.273  32.819  31.678  1.00  0.00    -0.387 OA
ATOM     13  H   UNL     1       6.559  32.810  32.369  1.00  0.00     0.211 HD
ENDBRANCH   3  12
BRANCH   5  14
ATOM     14  C   UNL     1       6.885  35.199  33.785  1.00  0.00     0.191 C 
BRANCH  14  15
ATOM     15  O   UNL     1       6.142  35.411  34.955  1.00  0.00    -0.394 OA
ATOM     16  H   UNL     1       5.391  34.762  34.927  1.00  0.00     0.210 HD
ENDBRANCH  14  15
ENDBRANCH   5  14
BRANCH   4  17
ATOM     17  O   UNL     1      10.364  33.892  33.245  1.00  0.00    -0.387 OA
ATOM     18  H   UNL     1      10.596  32.928  33.188  1.00  0.00     0.211 HD
ENDBRANCH   4  17
TORSDOF 7
ENDMDL
MODEL 3
REMARK VINA RESULT:    -3.348      1.448      2.966
REMARK INTER + INTRA:          -4.738
REMARK INTER:                  -4.302
REMARK INTRA:                  -0.435
REMARK UNBOUND:                -0.411
REMARK SMILES CCO[C@@H]1O[C@H](CO)[C@@H](O)[C@H](O)[C@H]1O
REMARK SMILES IDX 4 1 13 2 11 3 9 4 6 5 5 6 3 7 2 8 1 9 14 10 12 12 7 14 8 15
REMARK SMILES IDX 10 17
REMARK H PARENT 14 11 12 13 8 16 10 18
REMARK Flexibility Score: inf
ROOT
ATOM      1  C   UNL     1       7.726  34.568  33.619  1.00  0.00     0.281 C 
ATOM      2  C   UNL     1       9.128  33.933  33.695  1.00  0.00     0.202 C 
ATOM      3  C   UNL     1       9.041  32.405  33.770  1.00  0.00     0.179 C 
ATOM      4  C   UNL     1       8.132  31.859  32.650  1.00  0.00     0.177 C 
ATOM      5  C   UNL     1       6.793  32.634  32.556  1.00  0.00     0.178 C 
ATOM      6  O   UNL     1       6.954  34.049  32.543  1.00  0.00    -0.341 OA
ENDROOT
BRANCH   1   7
ATOM      7  O   UNL     1       7.047  34.405  34.857  1.00  0.00    -0.350 OA
BRANCH   7   8
ATOM      8  C   UNL     1       6.150  35.467  35.125  1.00  0.00     0.160 C 
ATOM      9  C   UNL     1       6.780  36.824  34.818  1.00  0.00     0.035 C 
ENDBRANCH   7   8
ENDBRANCH   1   7
BRANCH   2  10
ATOM     10  O   UNL     1       9.884  34.302  32.568  1.00  0.00    -0.385 OA
ATOM     11  H   UNL     1       9.589  33.724  31.818  1.00  0.00     0.211 HD
ENDBRANCH   2  10
BRANCH   3  12
ATOM     12  O   UNL     1       8.565  32.017  35.033  1.00  0.00    -0.387 OA
ATOM     13  H   UNL     1       9.317  31.568  35.500  1.00  0.00     0.211 HD
ENDBRANCH   3  12
BRANCH   5  14
ATOM     14  C   UNL     1       5.724  32.168  33.563  1.00  0.00     0.191 C 
BRANCH  14  15
ATOM     15  O   UNL     1       6.081  30.920  34.093  1.00  0.00    -0.394 OA
ATOM     16  H   UNL     1       5.504  30.251  33.639  1.00  0.00     0.210 HD
ENDBRANCH  14  15
ENDBRANCH   5  14
BRANCH   4  17
ATOM     17  O   UNL     1       8.795  31.955  31.413  1.00  0.00    -0.387 OA
ATOM     18  H   UNL     1       9.559  32.576  31.542  1.00  0.00     0.211 HD
ENDBRANCH   4  17
TORSDOF 7
ENDMDL
MODEL 4
REMARK VINA RESULT:    -3.275      9.404     11.022
REMARK INTER + INTRA:          -4.642
REMARK INTER:                  -4.452
REMARK INTRA:                  -0.191
REMARK UNBOUND:                -0.411
REMARK SMILES CCO[C@@H]1O[C@H](CO)[C@@H](O)[C@H](O)[C@H]1O
REMARK SMILES IDX 4 1 13 2 11 3 9 4 6 5 5 6 3 7 2 8 1 9 14 10 12 12 7 14 8 15
REMARK SMILES IDX 10 17
REMARK H PARENT 14 11 12 13 8 16 10 18
REMARK Flexibility Score: inf
ROOT
ATOM      1  C   UNL     1      17.427  36.332  32.734  1.00  0.00     0.281 C 
ATOM      2  C   UNL     1      17.515  37.073  34.083  1.00  0.00     0.202 C 
ATOM      3  C   UNL     1      17.351  38.585  33.896  1.00  0.00     0.179 C 
ATOM      4  C   UNL     1      16.093  38.893  33.058  1.00  0.00     0.177 C 
ATOM      5  C   UNL     1      16.014  38.016  31.782  1.00  0.00     0.178 C 
ATOM      6  O   UNL     1      16.227  36.630  32.030  1.00  0.00    -0.341 OA
ENDROOT
BRANCH   1   7
ATOM      7  O   UNL     1      18.569  36.624  31.940  1.00  0.00    -0.350 OA
BRANCH   7   8
ATOM      8  C   UNL     1      19.737  35.983  32.419  1.00  0.00     0.160 C 
ATOM      9  C   UNL     1      20.060  34.727  31.613  1.00  0.00     0.035 C 
ENDBRANCH   7   8
ENDBRANCH   1   7
BRANCH   2  10
ATOM     10  O   UNL     1      16.521  36.600  34.957  1.00  0.00    -0.385 OA
ATOM     11  H   UNL     1      16.289  35.681  34.662  1.00  0.00     0.211 HD
ENDBRANCH   2  10
BRANCH   3  12
ATOM     12  O   UNL     1      18.499  39.116  33.287  1.00  0.00    -0.387 OA
ATOM     13  H   UNL     1      18.342  39.095  32.307  1.00  0.00     0.211 HD
ENDBRANCH   3  12
BRANCH   5  14
ATOM     14  C   UNL     1      16.852  38.545  30.602  1.00  0.00     0.191 C 
BRANCH  14  15
ATOM     15  O   UNL     1      16.027  38.749  29.486  1.00  0.00    -0.394 OA
ATOM     16  H   UNL     1      16.601  38.607  28.688  1.00  0.00     0.210 HD
ENDBRANCH  14  15
ENDBRANCH   5  14
BRANCH   4  17
ATOM     17  O   UNL     1      14.941  38.666  33.832  1.00  0.00    -0.387 OA
ATOM     18  H   UNL     1      15.243  38.539  34.770  1.00  0.00     0.211 HD
ENDBRANCH   4  17
TORSDOF 7
ENDMDL
MODEL 5
REMARK VINA RESULT:    -3.117      1.664      3.451
REMARK INTER + INTRA:          -4.439
REMARK INTER:                  -4.195
REMARK INTRA:                  -0.244
REMARK UNBOUND:                -0.411
REMARK SMILES CCO[C@@H]1O[C@H](CO)[C@@H](O)[C@H](O)[C@H]1O
REMARK SMILES IDX 4 1 13 2 11 3 9 4 6 5 5 6 3 7 2 8 1 9 14 10 12 12 7 14 8 15
REMARK SMILES IDX 10 17
REMARK H PARENT 14 11 12 13 8 16 10 18
REMARK Flexibility Score: inf
ROOT
ATOM      1  C   UNL     1       9.056  33.513  33.342  1.00  0.00     0.281 C 
ATOM      2  C   UNL     1       8.828  32.060  32.881  1.00  0.00     0.202 C 
ATOM      3  C   UNL     1       7.506  31.507  33.423  1.00  0.00     0.179 C 
ATOM      4  C   UNL     1       6.349  32.481  33.122  1.00  0.00     0.177 C 
ATOM      5  C   UNL     1       6.704  33.943  33.497  1.00  0.00     0.178 C 
ATOM      6  O   UNL     1       7.970  34.366  33.000  1.00  0.00    -0.341 OA
ENDROOT
BRANCH   1   7
ATOM      7  O   UNL     1       9.310  33.549  34.740  1.00  0.00    -0.350 OA
BRANCH   7   8
ATOM      8  C   UNL     1      10.624  33.131  35.060  1.00  0.00     0.160 C 
ATOM      9  C   UNL     1      11.673  34.059  34.452  1.00  0.00     0.035 C 
ENDBRANCH   7   8
ENDBRANCH   1   7
BRANCH   2  10
ATOM     10  O   UNL     1       8.819  31.998  31.476  1.00  0.00    -0.385 OA
ATOM     11  H   UNL     1       9.328  31.186  31.218  1.00  0.00     0.211 HD
ENDBRANCH   2  10
BRANCH   3  12
ATOM     12  O   UNL     1       7.618  31.276  34.804  1.00  0.00    -0.387 OA
ATOM     13  H   UNL     1       6.726  31.460  35.200  1.00  0.00     0.211 HD
ENDBRANCH   3  12
BRANCH   5  14
ATOM     14  C   UNL     1       6.510  34.275  34.989  1.00  0.00     0.191 C 
BRANCH  14  15
ATOM     15  O   UNL     1       5.975  35.564  35.125  1.00  0.00    -0.394 OA
ATOM     16  H   UNL     1       6.409  36.118  34.425  1.00  0.00     0.210 HD
ENDBRANCH  14  15
ENDBRANCH   5  14
BRANCH   4  17
ATOM     17  O   UNL     1       6.033  32.432  31.752  1.00  0.00    -0.387 OA
ATOM     18  H   UNL     1       6.145  31.489  31.463  1.00  0.00     0.211 HD
ENDBRANCH   4  17
TORSDOF 7
ENDMDL
MODEL 6
REMARK VINA RESULT:    -3.102      1.815      2.359
REMARK INTER + INTRA:          -4.420
REMARK INTER:                  -3.999
REMARK INTRA:                  -0.421
REMARK UNBOUND:                -0.411
REMARK SMILES CCO[C@@H]1O[C@H](CO)[C@@H](O)[C@H](O)[C@H]1O
REMARK SMILES IDX 4 1 13 2 11 3 9 4 6 5 5 6 3 7 2 8 1 9 14 10 12 12 7 14 8 15
REMARK SMILES IDX 10 17
REMARK H PARENT 14 11 12 13 8 16 10 18
REMARK Flexibility Score: inf
ROOT
ATOM      1  C   UNL     1       6.218  33.410  34.433  1.00  0.00     0.281 C 
ATOM      2  C   UNL     1       4.868  32.809  33.996  1.00  0.00     0.202 C 
ATOM      3  C   UNL     1       5.070  31.629  33.040  1.00  0.00     0.179 C 
ATOM      4  C   UNL     1       6.077  30.621  33.629  1.00  0.00     0.177 C 
ATOM      5  C   UNL     1       7.355  31.319  34.162  1.00  0.00     0.178 C 
ATOM      6  O   UNL     1       7.086  32.437  35.003  1.00  0.00    -0.341 OA
ENDROOT
BRANCH   1   7
ATOM      7  O   UNL     1       6.840  34.065  33.336  1.00  0.00    -0.350 OA
BRANCH   7   8
ATOM      8  C   UNL     1       7.169  35.411  33.627  1.00  0.00     0.160 C 
ATOM      9  C   UNL     1       8.675  35.650  33.557  1.00  0.00     0.035 C 
ENDBRANCH   7   8
ENDBRANCH   1   7
BRANCH   2  10
ATOM     10  O   UNL     1       4.147  32.378  35.124  1.00  0.00    -0.385 OA
ATOM     11  H   UNL     1       3.495  31.699  34.809  1.00  0.00     0.211 HD
ENDBRANCH   2  10
BRANCH   3  12
ATOM     12  O   UNL     1       5.506  32.100  31.790  1.00  0.00    -0.387 OA
ATOM     13  H   UNL     1       5.589  31.308  31.197  1.00  0.00     0.211 HD
ENDBRANCH   3  12
BRANCH   5  14
ATOM     14  C   UNL     1       8.402  31.632  33.075  1.00  0.00     0.191 C 
BRANCH  14  15
ATOM     15  O   UNL     1       9.495  32.300  33.644  1.00  0.00    -0.394 OA
ATOM     16  H   UNL     1      10.155  31.598  33.882  1.00  0.00     0.210 HD
ENDBRANCH  14  15
ENDBRANCH   5  14
BRANCH   4  17
ATOM     17  O   UNL     1       5.476  29.914  34.686  1.00  0.00    -0.387 OA
ATOM     18  H   UNL     1       5.137  30.589  35.330  1.00  0.00     0.211 HD
ENDBRANCH   4  17
TORSDOF 7
ENDMDL
MODEL 7
REMARK VINA RESULT:    -2.934      8.055     10.066
REMARK INTER + INTRA:          -4.202
REMARK INTER:                  -3.795
REMARK INTRA:                  -0.406
REMARK UNBOUND:                -0.411
REMARK SMILES CCO[C@@H]1O[C@H](CO)[C@@H](O)[C@H](O)[C@H]1O
REMARK SMILES IDX 4 1 13 2 11 3 9 4 6 5 5 6 3 7 2 8 1 9 14 10 12 12 7 14 8 15
REMARK SMILES IDX 10 17
REMARK H PARENT 14 11 12 13 8 16 10 18
REMARK Flexibility Score: inf
ROOT
ATOM      1  C   UNL     1      16.447  36.609  33.621  1.00  0.00     0.281 C 
ATOM      2  C   UNL     1      17.597  36.302  32.642  1.00  0.00     0.202 C 
ATOM      3  C   UNL     1      17.570  37.250  31.439  1.00  0.00     0.179 C 
ATOM      4  C   UNL     1      17.480  38.716  31.908  1.00  0.00     0.177 C 
ATOM      5  C   UNL     1      16.383  38.918  32.985  1.00  0.00     0.178 C 
ATOM      6  O   UNL     1      16.443  37.967  34.044  1.00  0.00    -0.341 OA
ENDROOT
BRANCH   1   7
ATOM      7  O   UNL     1      15.200  36.255  33.036  1.00  0.00    -0.350 OA
BRANCH   7   8
ATOM      8  C   UNL     1      14.375  35.525  33.926  1.00  0.00     0.160 C 
ATOM      9  C   UNL     1      13.724  34.329  33.235  1.00  0.00     0.035 C 
ENDBRANCH   7   8
ENDBRANCH   1   7
BRANCH   2  10
ATOM     10  O   UNL     1      18.833  36.421  33.302  1.00  0.00    -0.385 OA
ATOM     11  H   UNL     1      19.042  37.389  33.355  1.00  0.00     0.211 HD
ENDBRANCH   2  10
BRANCH   3  12
ATOM     12  O   UNL     1      16.489  36.926  30.603  1.00  0.00    -0.387 OA
ATOM     13  H   UNL     1      15.663  37.034  31.144  1.00  0.00     0.211 HD
ENDBRANCH   3  12
BRANCH   5  14
ATOM     14  C   UNL     1      14.961  39.081  32.413  1.00  0.00     0.191 C 
BRANCH  14  15
ATOM     15  O   UNL     1      14.023  39.055  33.454  1.00  0.00    -0.394 OA
ATOM     16  H   UNL     1      13.144  38.870  33.030  1.00  0.00     0.210 HD
ENDBRANCH  14  15
ENDBRANCH   5  14
BRANCH   4  17
ATOM     17  O   UNL     1      18.716  39.118  32.444  1.00  0.00    -0.387 OA
ATOM     18  H   UNL     1      19.290  39.385  31.680  1.00  0.00     0.211 HD
ENDBRANCH   4  17
TORSDOF 7
ENDMDL
MODEL 8
REMARK VINA RESULT:    -2.867      1.832      2.148
REMARK INTER + INTRA:          -4.116
REMARK INTER:                  -3.731
REMARK INTRA:                  -0.385
REMARK UNBOUND:                -0.411
REMARK SMILES CCO[C@@H]1O[C@H](CO)[C@@H](O)[C@H](O)[C@H]1O
REMARK SMILES IDX 4 1 13 2 11 3 9 4 6 5 5 6 3 7 2 8 1 9 14 10 12 12 7 14 8 15
REMARK SMILES IDX 10 17
REMARK H PARENT 14 11 12 13 8 16 10 18
REMARK Flexibility Score: inf
ROOT
ATOM      1  C   UNL     1       9.037  35.035  33.832  1.00  0.00     0.281 C 
ATOM      2  C   UNL     1       7.807  34.519  33.060  1.00  0.00     0.202 C 
ATOM      3  C   UNL     1       7.814  32.990  32.964  1.00  0.00     0.179 C 
ATOM      4  C   UNL     1       8.027  32.362  34.356  1.00  0.00     0.177 C 
ATOM      5  C   UNL     1       9.203  33.022  35.120  1.00  0.00     0.178 C 
ATOM      6  O   UNL     1       9.154  34.446  35.121  1.00  0.00    -0.341 OA
ENDROOT
BRANCH   1   7
ATOM      7  O   UNL     1      10.218  34.825  33.068  1.00  0.00    -0.350 OA
BRANCH   7   8
ATOM      8  C   UNL     1      10.826  36.041  32.670  1.00  0.00     0.160 C 
ATOM      9  C   UNL     1      10.141  37.246  33.309  1.00  0.00     0.035 C 
ENDBRANCH   7   8
ENDBRANCH   1   7
BRANCH   2  10
ATOM     10  O   UNL     1       6.627  34.942  33.698  1.00  0.00    -0.385 OA
ATOM     11  H   UNL     1       5.870  34.514  33.221  1.00  0.00     0.211 HD
ENDBRANCH   2  10
BRANCH   3  12
ATOM     12  O   UNL     1       8.814  32.574  32.070  1.00  0.00    -0.387 OA
ATOM     13  H   UNL     1       8.436  32.656  31.156  1.00  0.00     0.211 HD
ENDBRANCH   3  12
BRANCH   5  14
ATOM     14  C   UNL     1      10.591  32.476  34.732  1.00  0.00     0.191 C 
BRANCH  14  15
ATOM     15  O   UNL     1      10.486  31.128  34.361  1.00  0.00    -0.394 OA
ATOM     16  H   UNL     1      10.797  30.601  35.142  1.00  0.00     0.210 HD
ENDBRANCH  14  15
ENDBRANCH   5  14
BRANCH   4  17
ATOM     17  O   UNL     1       6.857  32.503  35.123  1.00  0.00    -0.387 OA
ATOM     18  H   UNL     1       6.149  32.838  34.513  1.00  0.00     0.211 HD
ENDBRANCH   4  17
TORSDOF 7
ENDMDL
