MODEL 1
REMARK VINA RESULT:    -4.436      0.000      0.000
REMARK INTER + INTRA:          -7.168
REMARK INTER:                  -6.770
REMARK INTRA:                  -0.398
REMARK UNBOUND:                -0.398
REMARK SMILES CCCCCCCCCCC(=O)[O-]
REMARK SMILES IDX 7 1 8 2 9 3 10 4 11 5 12 6 13 7 6 8 5 9 4 10 3 11 2 12 1 13
REMARK H PARENT
REMARK Flexibility Score: inf
ROOT
ATOM      1  C   UNL     1      22.633  21.767  36.218  1.00  0.00     0.000 C 
ENDROOT
BRANCH   1   2
ATOM      2  C   UNL     1      24.066  22.152  35.807  1.00  0.00     0.000 C 
BRANCH   2   3
ATOM      3  C   UNL     1      25.153  21.851  36.858  1.00  0.00     0.006 C 
BRANCH   3   4
ATOM      4  C   UNL     1      24.618  21.297  38.188  1.00  0.00     0.053 C 
BRANCH   4   5
ATOM      5  C   UNL     1      24.526  22.360  39.240  1.00  0.00     0.041 C 
ATOM      6  O   UNL     1      24.646  22.059  40.457  1.00  0.00    -0.550 OA
ATOM      7  O   UNL     1      24.276  23.677  38.877  1.00  0.00    -0.550 OA
ENDBRANCH   4   5
ENDBRANCH   3   4
ENDBRANCH   2   3
ENDBRANCH   1   2
BRANCH   1   8
ATOM      8  C   UNL     1      21.653  21.760  35.032  1.00  0.00     0.000 C 
BRANCH   8   9
ATOM      9  C   UNL     1      20.215  21.420  35.460  1.00  0.00    -0.000 C 
BRANCH   9  10
ATOM     10  C   UNL     1      19.514  20.476  34.469  1.00  0.00    -0.000 C 
BRANCH  10  11
ATOM     11  C   UNL     1      19.874  20.774  33.003  1.00  0.00    -0.000 C 
BRANCH  11  12
ATOM     12  C   UNL     1      18.998  21.842  32.323  1.00  0.00    -0.003 C 
ATOM     13  C   UNL     1      17.639  22.019  32.999  1.00  0.00     0.004 C 
ENDBRANCH  11  12
ENDBRANCH  10  11
ENDBRANCH   9  10
ENDBRANCH   8   9
ENDBRANCH   1   8
TORSDOF 9
ENDMDL
MODEL 2
REMARK VINA RESULT:    -4.428      3.690      6.979
REMARK INTER + INTRA:          -7.155
REMARK INTER:                  -6.620
REMARK INTRA:                  -0.535
REMARK UNBOUND:                -0.398
REMARK SMILES CCCCCCCCCCC(=O)[O-]
REMARK SMILES IDX 7 1 8 2 9 3 10 4 11 5 12 6 13 7 6 8 5 9 4 10 3 11 2 12 1 13
REMARK H PARENT
REMARK Flexibility Score: inf
ROOT
ATOM      1  C   UNL     1      22.349  21.866  35.008  1.00  0.00     0.000 C 
ENDROOT
BRANCH   1   2
ATOM      2  C   UNL     1      20.820  21.962  35.158  1.00  0.00     0.000 C 
BRANCH   2   3
ATOM      3  C   UNL     1      20.029  20.771  34.580  1.00  0.00     0.006 C 
BRANCH   3   4
ATOM      4  C   UNL     1      19.904  20.772  33.048  1.00  0.00     0.053 C 
BRANCH   4   5
ATOM      5  C   UNL     1      19.097  21.933  32.554  1.00  0.00     0.041 C 
ATOM      6  O   UNL     1      19.644  22.842  31.875  1.00  0.00    -0.550 OA
ATOM      7  O   UNL     1      17.748  22.027  32.871  1.00  0.00    -0.550 OA
ENDBRANCH   4   5
ENDBRANCH   3   4
ENDBRANCH   2   3
ENDBRANCH   1   2
BRANCH   1   8
ATOM      8  C   UNL     1      23.105  22.388  36.243  1.00  0.00     0.000 C 
BRANCH   8   9
ATOM      9  C   UNL     1      24.616  22.113  36.166  1.00  0.00    -0.000 C 
BRANCH   9  10
ATOM     10  C   UNL     1      25.098  21.163  37.276  1.00  0.00    -0.000 C 
BRANCH  10  11
ATOM     11  C   UNL     1      24.120  21.083  38.461  1.00  0.00    -0.000 C 
BRANCH  11  12
ATOM     12  C   UNL     1      24.538  21.889  39.704  1.00  0.00    -0.003 C 
ATOM     13  C   UNL     1      24.015  23.325  39.687  1.00  0.00     0.004 C 
ENDBRANCH  11  12
ENDBRANCH  10  11
ENDBRANCH   9  10
ENDBRANCH   8   9
ENDBRANCH   1   8
TORSDOF 9
ENDMDL
MODEL 3
REMARK VINA RESULT:    -4.427      3.625      6.509
REMARK INTER + INTRA:          -7.154
REMARK INTER:                  -6.127
REMARK INTRA:                  -1.027
REMARK UNBOUND:                -0.398
REMARK SMILES CCCCCCCCCCC(=O)[O-]
REMARK SMILES IDX 7 1 8 2 9 3 10 4 11 5 12 6 13 7 6 8 5 9 4 10 3 11 2 12 1 13
REMARK H PARENT
REMARK Flexibility Score: inf
ROOT
ATOM      1  C   UNL     1      21.226  22.813  36.966  1.00  0.00     0.000 C 
ENDROOT
BRANCH   1   2
ATOM      2  C   UNL     1      21.288  21.503  36.159  1.00  0.00     0.000 C 
BRANCH   2   3
ATOM      3  C   UNL     1      21.630  21.670  34.665  1.00  0.00     0.006 C 
BRANCH   3   4
ATOM      4  C   UNL     1      20.524  22.329  33.827  1.00  0.00     0.053 C 
BRANCH   4   5
ATOM      5  C   UNL     1      19.777  21.328  33.000  1.00  0.00     0.041 C 
ATOM      6  O   UNL     1      18.844  21.702  32.241  1.00  0.00    -0.550 OA
ATOM      7  O   UNL     1      20.091  19.978  33.092  1.00  0.00    -0.550 OA
ENDBRANCH   4   5
ENDBRANCH   3   4
ENDBRANCH   2   3
ENDBRANCH   1   2
BRANCH   1   8
ATOM      8  C   UNL     1      21.784  22.662  38.393  1.00  0.00     0.000 C 
BRANCH   8   9
ATOM      9  C   UNL     1      22.938  23.638  38.678  1.00  0.00    -0.000 C 
BRANCH   9  10
ATOM     10  C   UNL     1      23.719  24.012  37.407  1.00  0.00    -0.000 C 
BRANCH  10  11
ATOM     11  C   UNL     1      25.074  23.290  37.304  1.00  0.00    -0.000 C 
BRANCH  11  12
ATOM     12  C   UNL     1      25.033  21.931  36.581  1.00  0.00    -0.003 C 
ATOM     13  C   UNL     1      24.980  20.745  37.544  1.00  0.00     0.004 C 
ENDBRANCH  11  12
ENDBRANCH  10  11
ENDBRANCH   9  10
ENDBRANCH   8   9
ENDBRANCH   1   8
TORSDOF 9
ENDMDL
MODEL 4
REMARK VINA RESULT:    -4.424     10.692     12.310
REMARK INTER + INTRA:          -7.150
REMARK INTER:                  -6.657
REMARK INTRA:                  -0.493
REMARK UNBOUND:                -0.398
REMARK SMILES CCCCCCCCCCC(=O)[O-]
REMARK SMILES IDX 7 1 8 2 9 3 10 4 11 5 12 6 13 7 6 8 5 9 4 10 3 11 2 12 1 13
REMARK H PARENT
REMARK Flexibility Score: inf
ROOT
ATOM      1  C   UNL     1      18.461  22.282  48.287  1.00  0.00     0.000 C 
ENDROOT
BRANCH   1   2
ATOM      2  C   UNL     1      19.833  22.648  48.880  1.00  0.00     0.000 C 
BRANCH   2   3
ATOM      3  C   UNL     1      20.558  23.817  48.183  1.00  0.00     0.006 C 
BRANCH   3   4
ATOM      4  C   UNL     1      21.554  23.392  47.093  1.00  0.00     0.053 C 
BRANCH   4   5
ATOM      5  C   UNL     1      20.908  23.310  45.745  1.00  0.00     0.041 C 
ATOM      6  O   UNL     1      20.289  24.302  45.277  1.00  0.00    -0.550 OA
ATOM      7  O   UNL     1      20.961  22.126  45.020  1.00  0.00    -0.550 OA
ENDBRANCH   4   5
ENDBRANCH   3   4
ENDBRANCH   2   3
ENDBRANCH   1   2
BRANCH   1   8
ATOM      8  C   UNL     1      17.623  23.517  47.912  1.00  0.00     0.000 C 
BRANCH   8   9
ATOM      9  C   UNL     1      16.571  23.208  46.833  1.00  0.00    -0.000 C 
BRANCH   9  10
ATOM     10  C   UNL     1      15.140  23.189  47.396  1.00  0.00    -0.000 C 
BRANCH  10  11
ATOM     11  C   UNL     1      14.206  22.240  46.625  1.00  0.00    -0.000 C 
BRANCH  11  12
ATOM     12  C   UNL     1      12.714  22.617  46.669  1.00  0.00    -0.003 C 
ATOM     13  C   UNL     1      12.482  24.097  46.971  1.00  0.00     0.004 C 
ENDBRANCH  11  12
ENDBRANCH  10  11
ENDBRANCH   9  10
ENDBRANCH   8   9
ENDBRANCH   1   8
TORSDOF 9
ENDMDL
MODEL 5
REMARK VINA RESULT:    -4.422     11.823     12.851
REMARK INTER + INTRA:          -7.147
REMARK INTER:                  -6.638
REMARK INTRA:                  -0.509
REMARK UNBOUND:                -0.398
REMARK SMILES CCCCCCCCCCC(=O)[O-]
REMARK SMILES IDX 7 1 8 2 9 3 10 4 11 5 12 6 13 7 6 8 5 9 4 10 3 11 2 12 1 13
REMARK H PARENT
REMARK Flexibility Score: inf
ROOT
ATOM      1  C   UNL     1      16.650  22.946  47.753  1.00  0.00     0.000 C 
ENDROOT
BRANCH   1   2
ATOM      2  C   UNL     1      17.759  22.677  46.718  1.00  0.00     0.000 C 
BRANCH   2   3
ATOM      3  C   UNL     1      18.980  21.902  47.253  1.00  0.00     0.006 C 
BRANCH   3   4
ATOM      4  C   UNL     1      19.396  22.274  48.685  1.00  0.00     0.053 C 
BRANCH   4   5
ATOM      5  C   UNL     1      20.276  23.486  48.714  1.00  0.00     0.041 C 
ATOM      6  O   UNL     1      21.377  23.485  48.103  1.00  0.00    -0.550 OA
ATOM      7  O   UNL     1      19.894  24.605  49.443  1.00  0.00    -0.550 OA
ENDBRANCH   4   5
ENDBRANCH   3   4
ENDBRANCH   2   3
ENDBRANCH   1   2
BRANCH   1   8
ATOM      8  C   UNL     1      15.314  23.351  47.105  1.00  0.00     0.000 C 
BRANCH   8   9
ATOM      9  C   UNL     1      14.143  23.312  48.101  1.00  0.00    -0.000 C 
BRANCH   9  10
ATOM     10  C   UNL     1      12.776  23.238  47.399  1.00  0.00    -0.000 C 
BRANCH  10  11
ATOM     11  C   UNL     1      12.598  21.954  46.570  1.00  0.00    -0.000 C 
BRANCH  11  12
ATOM     12  C   UNL     1      12.265  22.180  45.084  1.00  0.00    -0.003 C 
ATOM     13  C   UNL     1      12.428  23.637  44.651  1.00  0.00     0.004 C 
ENDBRANCH  11  12
ENDBRANCH  10  11
ENDBRANCH   9  10
ENDBRANCH   8   9
ENDBRANCH   1   8
TORSDOF 9
ENDMDL
MODEL 6
REMARK VINA RESULT:    -4.384     11.783     14.226
REMARK INTER + INTRA:          -7.089
REMARK INTER:                  -6.692
REMARK INTRA:                  -0.396
REMARK UNBOUND:                -0.398
REMARK SMILES CCCCCCCCCCC(=O)[O-]
REMARK SMILES IDX 7 1 8 2 9 3 10 4 11 5 12 6 13 7 6 8 5 9 4 10 3 11 2 12 1 13
REMARK H PARENT
REMARK Flexibility Score: inf
ROOT
ATOM      1  C   UNL     1      15.349  23.238  46.914  1.00  0.00     0.000 C 
ENDROOT
BRANCH   1   2
ATOM      2  C   UNL     1      13.989  23.111  47.625  1.00  0.00     0.000 C 
BRANCH   2   3
ATOM      3  C   UNL     1      12.757  23.367  46.733  1.00  0.00     0.006 C 
BRANCH   3   4
ATOM      4  C   UNL     1      12.501  22.286  45.672  1.00  0.00     0.053 C 
BRANCH   4   5
ATOM      5  C   UNL     1      12.314  22.874  44.308  1.00  0.00     0.041 C 
ATOM      6  O   UNL     1      11.294  22.588  43.628  1.00  0.00    -0.550 OA
ATOM      7  O   UNL     1      13.283  23.714  43.774  1.00  0.00    -0.550 OA
ENDBRANCH   4   5
ENDBRANCH   3   4
ENDBRANCH   2   3
ENDBRANCH   1   2
BRANCH   1   8
ATOM      8  C   UNL     1      16.537  23.239  47.892  1.00  0.00     0.000 C 
BRANCH   8   9
ATOM      9  C   UNL     1      17.794  22.587  47.290  1.00  0.00    -0.000 C 
BRANCH   9  10
ATOM     10  C   UNL     1      18.719  21.992  48.365  1.00  0.00    -0.000 C 
BRANCH  10  11
ATOM     11  C   UNL     1      19.784  22.989  48.856  1.00  0.00    -0.000 C 
BRANCH  11  12
ATOM     12  C   UNL     1      20.320  23.950  47.779  1.00  0.00    -0.003 C 
ATOM     13  C   UNL     1      21.559  23.414  47.063  1.00  0.00     0.004 C 
ENDBRANCH  11  12
ENDBRANCH  10  11
ENDBRANCH   9  10
ENDBRANCH   8   9
ENDBRANCH   1   8
TORSDOF 9
ENDMDL
MODEL 7
REMARK VINA RESULT:    -4.367      3.382      6.780
REMARK INTER + INTRA:          -7.062
REMARK INTER:                  -6.516
REMARK INTRA:                  -0.547
REMARK UNBOUND:                -0.398
REMARK SMILES CCCCCCCCCCC(=O)[O-]
REMARK SMILES IDX 7 1 8 2 9 3 10 4 11 5 12 6 13 7 6 8 5 9 4 10 3 11 2 12 1 13
REMARK H PARENT
REMARK Flexibility Score: inf
ROOT
ATOM      1  C   UNL     1      21.453  21.603  34.416  1.00  0.00     0.000 C 
ENDROOT
BRANCH   1   2
ATOM      2  C   UNL     1      20.522  20.585  33.733  1.00  0.00     0.000 C 
BRANCH   2   3
ATOM      3  C   UNL     1      19.579  21.174  32.664  1.00  0.00     0.006 C 
BRANCH   3   4
ATOM      4  C   UNL     1      18.986  22.546  33.022  1.00  0.00     0.053 C 
BRANCH   4   5
ATOM      5  C   UNL     1      17.859  22.431  34.001  1.00  0.00     0.041 C 
ATOM      6  O   UNL     1      17.990  22.873  35.173  1.00  0.00    -0.550 OA
ATOM      7  O   UNL     1      16.676  21.806  33.629  1.00  0.00    -0.550 OA
ENDBRANCH   4   5
ENDBRANCH   3   4
ENDBRANCH   2   3
ENDBRANCH   1   2
BRANCH   1   8
ATOM      8  C   UNL     1      21.320  21.599  35.949  1.00  0.00     0.000 C 
BRANCH   8   9
ATOM      9  C   UNL     1      22.508  22.286  36.644  1.00  0.00    -0.000 C 
BRANCH   9  10
ATOM     10  C   UNL     1      23.827  22.100  35.874  1.00  0.00    -0.000 C 
BRANCH  10  11
ATOM     11  C   UNL     1      25.040  21.915  36.802  1.00  0.00    -0.000 C 
BRANCH  11  12
ATOM     12  C   UNL     1      24.793  21.008  38.022  1.00  0.00    -0.003 C 
ATOM     13  C   UNL     1      24.710  21.785  39.335  1.00  0.00     0.004 C 
ENDBRANCH  11  12
ENDBRANCH  10  11
ENDBRANCH   9  10
ENDBRANCH   8   9
ENDBRANCH   1   8
TORSDOF 9
ENDMDL
MODEL 8
REMARK VINA RESULT:    -4.342     11.530     12.669
REMARK INTER + INTRA:          -7.025
REMARK INTER:                  -6.328
REMARK INTRA:                  -0.697
REMARK UNBOUND:                -0.398
REMARK SMILES CCCCCCCCCCC(=O)[O-]
REMARK SMILES IDX 7 1 8 2 9 3 10 4 11 5 12 6 13 7 6 8 5 9 4 10 3 11 2 12 1 13
REMARK H PARENT
REMARK Flexibility Score: inf
ROOT
ATOM      1  C   UNL     1      16.247  23.348  46.525  1.00  0.00     0.000 C 
ENDROOT
BRANCH   1   2
ATOM      2  C   UNL     1      17.108  23.068  47.771  1.00  0.00     0.000 C 
BRANCH   2   3
ATOM      3  C   UNL     1      18.367  22.214  47.519  1.00  0.00     0.006 C 
BRANCH   3   4
ATOM      4  C   UNL     1      19.367  22.193  48.685  1.00  0.00     0.053 C 
BRANCH   4   5
ATOM      5  C   UNL     1      20.260  23.396  48.678  1.00  0.00     0.041 C 
ATOM      6  O   UNL     1      21.302  23.408  47.971  1.00  0.00    -0.550 OA
ATOM      7  O   UNL     1      19.958  24.490  49.477  1.00  0.00    -0.550 OA
ENDBRANCH   4   5
ENDBRANCH   3   4
ENDBRANCH   2   3
ENDBRANCH   1   2
BRANCH   1   8
ATOM      8  C   UNL     1      16.280  22.197  45.504  1.00  0.00     0.000 C 
BRANCH   8   9
ATOM      9  C   UNL     1      15.045  21.286  45.606  1.00  0.00    -0.000 C 
BRANCH   9  10
ATOM     10  C   UNL     1      13.779  21.947  45.034  1.00  0.00    -0.000 C 
BRANCH  10  11
ATOM     11  C   UNL     1      12.590  21.905  46.010  1.00  0.00    -0.000 C 
BRANCH  11  12
ATOM     12  C   UNL     1      12.815  22.647  47.340  1.00  0.00    -0.003 C 
ATOM     13  C   UNL     1      12.520  24.144  47.246  1.00  0.00     0.004 C 
ENDBRANCH  11  12
ENDBRANCH  10  11
ENDBRANCH   9  10
ENDBRANCH   8   9
ENDBRANCH   1   8
TORSDOF 9
ENDMDL
MODEL 9
REMARK VINA RESULT:    -4.313     10.659     13.200
REMARK INTER + INTRA:          -6.979
REMARK INTER:                  -6.042
REMARK INTRA:                  -0.937
REMARK UNBOUND:                -0.398
REMARK SMILES CCCCCCCCCCC(=O)[O-]
REMARK SMILES IDX 7 1 8 2 9 3 10 4 11 5 12 6 13 7 6 8 5 9 4 10 3 11 2 12 1 13
REMARK H PARENT
REMARK Flexibility Score: inf
ROOT
ATOM      1  C   UNL     1      17.915  22.200  48.357  1.00  0.00     0.000 C 
ENDROOT
BRANCH   1   2
ATOM      2  C   UNL     1      17.540  23.445  47.532  1.00  0.00     0.000 C 
BRANCH   2   3
ATOM      3  C   UNL     1      16.357  23.257  46.562  1.00  0.00     0.006 C 
BRANCH   3   4
ATOM      4  C   UNL     1      14.983  23.155  47.243  1.00  0.00     0.053 C 
BRANCH   4   5
ATOM      5  C   UNL     1      14.110  22.128  46.590  1.00  0.00     0.041 C 
ATOM      6  O   UNL     1      12.917  21.979  46.964  1.00  0.00    -0.550 OA
ATOM      7  O   UNL     1      14.625  21.312  45.590  1.00  0.00    -0.550 OA
ENDBRANCH   4   5
ENDBRANCH   3   4
ENDBRANCH   2   3
ENDBRANCH   1   2
BRANCH   1   8
ATOM      8  C   UNL     1      19.435  22.028  48.523  1.00  0.00     0.000 C 
BRANCH   8   9
ATOM      9  C   UNL     1      20.141  23.349  48.873  1.00  0.00    -0.000 C 
BRANCH   9  10
ATOM     10  C   UNL     1      21.354  23.624  47.968  1.00  0.00    -0.000 C 
BRANCH  10  11
ATOM     11  C   UNL     1      21.247  22.932  46.597  1.00  0.00    -0.000 C 
BRANCH  11  12
ATOM     12  C   UNL     1      20.685  23.813  45.467  1.00  0.00    -0.003 C 
ATOM     13  C   UNL     1      19.732  23.058  44.540  1.00  0.00     0.004 C 
ENDBRANCH  11  12
ENDBRANCH  10  11
ENDBRANCH   9  10
ENDBRANCH   8   9
ENDBRANCH   1   8
TORSDOF 9
ENDMDL
