MODEL 1
REMARK VINA RESULT:    -4.550      0.000      0.000
REMARK INTER + INTRA:          -9.287
REMARK INTER:                  -7.741
REMARK INTRA:                  -1.545
REMARK UNBOUND:                -1.545
REMARK SMILES CCCCCCCCCCCCCC(=O)[O-]
REMARK SMILES IDX 8 1 9 2 10 3 11 4 12 5 13 6 14 7 15 8 16 9 7 10 6 11 5 12
REMARK SMILES IDX 4 13 3 14 2 15 1 16
REMARK H PARENT
REMARK Flexibility Score: inf
ROOT
ATOM      1  C   UNL     1      57.548  -4.278  30.555  1.00  0.00     0.000 C 
ENDROOT
BRANCH   1   2
ATOM      2  C   UNL     1      56.771  -3.717  31.755  1.00  0.00     0.000 C 
BRANCH   2   3
ATOM      3  C   UNL     1      55.295  -4.155  31.770  1.00  0.00     0.000 C 
BRANCH   3   4
ATOM      4  C   UNL     1      54.274  -3.003  31.875  1.00  0.00     0.000 C 
BRANCH   4   5
ATOM      5  C   UNL     1      54.698  -1.688  31.191  1.00  0.00     0.006 C 
BRANCH   5   6
ATOM      6  C   UNL     1      53.966  -1.396  29.872  1.00  0.00     0.053 C 
BRANCH   6   7
ATOM      7  C   UNL     1      54.851  -1.610  28.682  1.00  0.00     0.041 C 
ATOM      8  O   UNL     1      55.441  -2.709  28.521  1.00  0.00    -0.550 OA
ATOM      9  O   UNL     1      55.049  -0.582  27.770  1.00  0.00    -0.550 OA
ENDBRANCH   6   7
ENDBRANCH   5   6
ENDBRANCH   4   5
ENDBRANCH   3   4
ENDBRANCH   2   3
ENDBRANCH   1   2
BRANCH   1  10
ATOM     10  C   UNL     1      58.993  -3.758  30.545  1.00  0.00     0.000 C 
BRANCH  10  11
ATOM     11  C   UNL     1      59.354  -2.989  31.826  1.00  0.00    -0.000 C 
BRANCH  11  12
ATOM     12  C   UNL     1      59.838  -1.558  31.540  1.00  0.00    -0.000 C 
BRANCH  12  13
ATOM     13  C   UNL     1      60.064  -1.300  30.042  1.00  0.00    -0.000 C 
BRANCH  13  14
ATOM     14  C   UNL     1      59.000  -0.367  29.438  1.00  0.00    -0.000 C 
BRANCH  14  15
ATOM     15  C   UNL     1      57.915   0.025  30.453  1.00  0.00    -0.003 C 
ATOM     16  C   UNL     1      57.097   1.235  30.004  1.00  0.00     0.004 C 
ENDBRANCH  14  15
ENDBRANCH  13  14
ENDBRANCH  12  13
ENDBRANCH  11  12
ENDBRANCH  10  11
ENDBRANCH   1  10
TORSDOF 12
ENDMDL
MODEL 2
REMARK VINA RESULT:    -4.428      1.071      3.344
REMARK INTER + INTRA:          -9.080
REMARK INTER:                  -7.515
REMARK INTRA:                  -1.565
REMARK UNBOUND:                -1.545
REMARK SMILES CCCCCCCCCCCCCC(=O)[O-]
REMARK SMILES IDX 8 1 9 2 10 3 11 4 12 5 13 6 14 7 15 8 16 9 7 10 6 11 5 12
REMARK SMILES IDX 4 13 3 14 2 15 1 16
REMARK H PARENT
REMARK Flexibility Score: inf
ROOT
ATOM      1  C   UNL     1      58.602  -0.329  29.580  1.00  0.00     0.000 C 
ENDROOT
BRANCH   1   2
ATOM      2  C   UNL     1      58.663  -0.139  31.102  1.00  0.00     0.000 C 
BRANCH   2   3
ATOM      3  C   UNL     1      57.340  -0.494  31.805  1.00  0.00     0.000 C 
BRANCH   3   4
ATOM      4  C   UNL     1      56.066  -0.183  30.992  1.00  0.00     0.000 C 
BRANCH   4   5
ATOM      5  C   UNL     1      54.951  -1.242  31.095  1.00  0.00     0.006 C 
BRANCH   5   6
ATOM      6  C   UNL     1      54.078  -1.368  29.837  1.00  0.00     0.053 C 
BRANCH   6   7
ATOM      7  C   UNL     1      54.903  -1.552  28.600  1.00  0.00     0.041 C 
ATOM      8  O   UNL     1      55.470  -2.653  28.375  1.00  0.00    -0.550 OA
ATOM      9  O   UNL     1      55.072  -0.497  27.714  1.00  0.00    -0.550 OA
ENDBRANCH   6   7
ENDBRANCH   5   6
ENDBRANCH   4   5
ENDBRANCH   3   4
ENDBRANCH   2   3
ENDBRANCH   1   2
BRANCH   1  10
ATOM     10  C   UNL     1      59.716  -1.270  29.099  1.00  0.00     0.000 C 
BRANCH  10  11
ATOM     11  C   UNL     1      60.378  -2.041  30.251  1.00  0.00    -0.000 C 
BRANCH  11  12
ATOM     12  C   UNL     1      59.952  -3.518  30.296  1.00  0.00    -0.000 C 
BRANCH  12  13
ATOM     13  C   UNL     1      58.482  -3.720  29.897  1.00  0.00    -0.000 C 
BRANCH  13  14
ATOM     14  C   UNL     1      57.583  -4.048  31.102  1.00  0.00    -0.000 C 
BRANCH  14  15
ATOM     15  C   UNL     1      56.263  -4.716  30.688  1.00  0.00    -0.003 C 
ATOM     16  C   UNL     1      55.290  -4.873  31.857  1.00  0.00     0.004 C 
ENDBRANCH  14  15
ENDBRANCH  13  14
ENDBRANCH  12  13
ENDBRANCH  11  12
ENDBRANCH  10  11
ENDBRANCH   1  10
TORSDOF 12
ENDMDL
MODEL 3
REMARK VINA RESULT:    -4.286      2.176      4.675
REMARK INTER + INTRA:          -8.838
REMARK INTER:                  -7.077
REMARK INTRA:                  -1.761
REMARK UNBOUND:                -1.545
REMARK SMILES CCCCCCCCCCCCCC(=O)[O-]
REMARK SMILES IDX 8 1 9 2 10 3 11 4 12 5 13 6 14 7 15 8 16 9 7 10 6 11 5 12
REMARK SMILES IDX 4 13 3 14 2 15 1 16
REMARK H PARENT
REMARK Flexibility Score: inf
ROOT
ATOM      1  C   UNL     1      57.444  -4.175  30.797  1.00  0.00     0.000 C 
ENDROOT
BRANCH   1   2
ATOM      2  C   UNL     1      57.860  -3.448  32.084  1.00  0.00     0.000 C 
BRANCH   2   3
ATOM      3  C   UNL     1      58.410  -2.034  31.822  1.00  0.00     0.000 C 
BRANCH   3   4
ATOM      4  C   UNL     1      57.862  -1.346  30.554  1.00  0.00     0.000 C 
BRANCH   4   5
ATOM      5  C   UNL     1      58.934  -0.791  29.596  1.00  0.00     0.006 C 
BRANCH   5   6
ATOM      6  C   UNL     1      60.324  -1.425  29.763  1.00  0.00     0.053 C 
BRANCH   6   7
ATOM      7  C   UNL     1      60.645  -2.371  28.646  1.00  0.00     0.041 C 
ATOM      8  O   UNL     1      60.106  -3.507  28.603  1.00  0.00    -0.550 OA
ATOM      9  O   UNL     1      61.566  -2.008  27.673  1.00  0.00    -0.550 OA
ENDBRANCH   6   7
ENDBRANCH   5   6
ENDBRANCH   4   5
ENDBRANCH   3   4
ENDBRANCH   2   3
ENDBRANCH   1   2
BRANCH   1  10
ATOM     10  C   UNL     1      55.968  -4.598  30.858  1.00  0.00     0.000 C 
BRANCH  10  11
ATOM     11  C   UNL     1      55.260  -4.092  32.125  1.00  0.00    -0.000 C 
BRANCH  11  12
ATOM     12  C   UNL     1      54.047  -3.201  31.808  1.00  0.00    -0.000 C 
BRANCH  12  13
ATOM     13  C   UNL     1      54.454  -1.782  31.379  1.00  0.00    -0.000 C 
BRANCH  13  14
ATOM     14  C   UNL     1      53.816  -1.365  30.043  1.00  0.00    -0.000 C 
BRANCH  14  15
ATOM     15  C   UNL     1      54.661  -1.784  28.830  1.00  0.00    -0.003 C 
ATOM     16  C   UNL     1      55.119  -0.592  27.991  1.00  0.00     0.004 C 
ENDBRANCH  14  15
ENDBRANCH  13  14
ENDBRANCH  12  13
ENDBRANCH  11  12
ENDBRANCH  10  11
ENDBRANCH   1  10
TORSDOF 12
ENDMDL
MODEL 4
REMARK VINA RESULT:    -4.213      1.502      3.978
REMARK INTER + INTRA:          -8.714
REMARK INTER:                  -6.903
REMARK INTRA:                  -1.810
REMARK UNBOUND:                -1.545
REMARK SMILES CCCCCCCCCCCCCC(=O)[O-]
REMARK SMILES IDX 8 1 9 2 10 3 11 4 12 5 13 6 14 7 15 8 16 9 7 10 6 11 5 12
REMARK SMILES IDX 4 13 3 14 2 15 1 16
REMARK H PARENT
REMARK Flexibility Score: inf
ROOT
ATOM      1  C   UNL     1      60.378  -1.392  28.875  1.00  0.00     0.000 C 
ENDROOT
BRANCH   1   2
ATOM      2  C   UNL     1      58.891  -1.014  28.935  1.00  0.00     0.000 C 
BRANCH   2   3
ATOM      3  C   UNL     1      58.634   0.286  29.718  1.00  0.00     0.000 C 
BRANCH   3   4
ATOM      4  C   UNL     1      57.503   0.205  30.764  1.00  0.00     0.000 C 
BRANCH   4   5
ATOM      5  C   UNL     1      56.258  -0.588  30.320  1.00  0.00     0.006 C 
BRANCH   5   6
ATOM      6  C   UNL     1      55.189  -0.751  31.411  1.00  0.00     0.053 C 
BRANCH   6   7
ATOM      7  C   UNL     1      54.041  -1.595  30.947  1.00  0.00     0.041 C 
ATOM      8  O   UNL     1      53.653  -1.535  29.751  1.00  0.00    -0.550 OA
ATOM      9  O   UNL     1      53.378  -2.421  31.845  1.00  0.00    -0.550 OA
ENDBRANCH   6   7
ENDBRANCH   5   6
ENDBRANCH   4   5
ENDBRANCH   3   4
ENDBRANCH   2   3
ENDBRANCH   1   2
BRANCH   1  10
ATOM     10  C   UNL     1      60.842  -2.006  30.204  1.00  0.00     0.000 C 
BRANCH  10  11
ATOM     11  C   UNL     1      59.989  -3.212  30.628  1.00  0.00    -0.000 C 
BRANCH  11  12
ATOM     12  C   UNL     1      59.202  -2.953  31.924  1.00  0.00    -0.000 C 
BRANCH  12  13
ATOM     13  C   UNL     1      57.840  -3.663  31.938  1.00  0.00    -0.000 C 
BRANCH  13  14
ATOM     14  C   UNL     1      57.384  -4.092  30.533  1.00  0.00    -0.000 C 
BRANCH  14  15
ATOM     15  C   UNL     1      55.973  -4.700  30.531  1.00  0.00    -0.003 C 
ATOM     16  C   UNL     1      55.445  -4.970  31.940  1.00  0.00     0.004 C 
ENDBRANCH  14  15
ENDBRANCH  13  14
ENDBRANCH  12  13
ENDBRANCH  11  12
ENDBRANCH  10  11
ENDBRANCH   1  10
TORSDOF 12
ENDMDL
MODEL 5
REMARK VINA RESULT:    -4.205      2.858      5.692
REMARK INTER + INTRA:          -8.701
REMARK INTER:                  -6.871
REMARK INTRA:                  -1.830
REMARK UNBOUND:                -1.545
REMARK SMILES CCCCCCCCCCCCCC(=O)[O-]
REMARK SMILES IDX 8 1 9 2 10 3 11 4 12 5 13 6 14 7 15 8 16 9 7 10 6 11 5 12
REMARK SMILES IDX 4 13 3 14 2 15 1 16
REMARK H PARENT
REMARK Flexibility Score: inf
ROOT
ATOM      1  C   UNL     1      56.911   0.003  30.803  1.00  0.00     0.000 C 
ENDROOT
BRANCH   1   2
ATOM      2  C   UNL     1      58.053  -0.389  31.751  1.00  0.00     0.000 C 
BRANCH   2   3
ATOM      3  C   UNL     1      59.311  -0.871  31.006  1.00  0.00     0.000 C 
BRANCH   3   4
ATOM      4  C   UNL     1      59.363  -0.506  29.508  1.00  0.00     0.000 C 
BRANCH   4   5
ATOM      5  C   UNL     1      60.401  -1.288  28.679  1.00  0.00     0.006 C 
BRANCH   5   6
ATOM      6  C   UNL     1      60.498  -2.780  29.030  1.00  0.00     0.053 C 
BRANCH   6   7
ATOM      7  C   UNL     1      61.848  -3.344  28.708  1.00  0.00     0.041 C 
ATOM      8  O   UNL     1      62.730  -3.428  29.602  1.00  0.00    -0.550 OA
ATOM      9  O   UNL     1      62.142  -3.745  27.411  1.00  0.00    -0.550 OA
ENDBRANCH   6   7
ENDBRANCH   5   6
ENDBRANCH   4   5
ENDBRANCH   3   4
ENDBRANCH   2   3
ENDBRANCH   1   2
BRANCH   1  10
ATOM     10  C   UNL     1      55.566  -0.543  31.308  1.00  0.00     0.000 C 
BRANCH  10  11
ATOM     11  C   UNL     1      54.837  -1.389  30.253  1.00  0.00    -0.000 C 
BRANCH  11  12
ATOM     12  C   UNL     1      55.791  -1.959  29.189  1.00  0.00    -0.000 C 
BRANCH  12  13
ATOM     13  C   UNL     1      56.035  -3.466  29.363  1.00  0.00    -0.000 C 
BRANCH  13  14
ATOM     14  C   UNL     1      57.220  -3.768  30.297  1.00  0.00    -0.000 C 
BRANCH  14  15
ATOM     15  C   UNL     1      56.769  -4.204  31.700  1.00  0.00    -0.003 C 
ATOM     16  C   UNL     1      55.366  -4.810  31.705  1.00  0.00     0.004 C 
ENDBRANCH  14  15
ENDBRANCH  13  14
ENDBRANCH  12  13
ENDBRANCH  11  12
ENDBRANCH  10  11
ENDBRANCH   1  10
TORSDOF 12
ENDMDL
MODEL 6
REMARK VINA RESULT:    -4.184      2.788      4.898
REMARK INTER + INTRA:          -8.665
REMARK INTER:                  -7.181
REMARK INTRA:                  -1.484
REMARK UNBOUND:                -1.545
REMARK SMILES CCCCCCCCCCCCCC(=O)[O-]
REMARK SMILES IDX 8 1 9 2 10 3 11 4 12 5 13 6 14 7 15 8 16 9 7 10 6 11 5 12
REMARK SMILES IDX 4 13 3 14 2 15 1 16
REMARK H PARENT
REMARK Flexibility Score: inf
ROOT
ATOM      1  C   UNL     1      56.224  -4.403  30.648  1.00  0.00     0.000 C 
ENDROOT
BRANCH   1   2
ATOM      2  C   UNL     1      57.656  -4.038  31.064  1.00  0.00     0.000 C 
BRANCH   2   3
ATOM      3  C   UNL     1      58.561  -3.702  29.865  1.00  0.00     0.000 C 
BRANCH   3   4
ATOM      4  C   UNL     1      59.856  -2.942  30.218  1.00  0.00     0.000 C 
BRANCH   4   5
ATOM      5  C   UNL     1      59.903  -1.474  29.749  1.00  0.00     0.006 C 
BRANCH   5   6
ATOM      6  C   UNL     1      60.717  -1.244  28.468  1.00  0.00     0.053 C 
BRANCH   6   7
ATOM      7  C   UNL     1      61.946  -2.099  28.424  1.00  0.00     0.041 C 
ATOM      8  O   UNL     1      61.997  -3.096  27.657  1.00  0.00    -0.550 OA
ATOM      9  O   UNL     1      63.020  -1.815  29.256  1.00  0.00    -0.550 OA
ENDBRANCH   6   7
ENDBRANCH   5   6
ENDBRANCH   4   5
ENDBRANCH   3   4
ENDBRANCH   2   3
ENDBRANCH   1   2
BRANCH   1  10
ATOM     10  C   UNL     1      55.199  -3.799  31.619  1.00  0.00     0.000 C 
BRANCH  10  11
ATOM     11  C   UNL     1      54.891  -2.325  31.312  1.00  0.00    -0.000 C 
BRANCH  11  12
ATOM     12  C   UNL     1      54.859  -2.029  29.803  1.00  0.00    -0.000 C 
BRANCH  12  13
ATOM     13  C   UNL     1      55.796  -0.877  29.408  1.00  0.00    -0.000 C 
BRANCH  13  14
ATOM     14  C   UNL     1      56.486  -0.236  30.624  1.00  0.00    -0.000 C 
BRANCH  14  15
ATOM     15  C   UNL     1      57.262   1.039  30.257  1.00  0.00    -0.003 C 
ATOM     16  C   UNL     1      57.127   1.406  28.779  1.00  0.00     0.004 C 
ENDBRANCH  14  15
ENDBRANCH  13  14
ENDBRANCH  12  13
ENDBRANCH  11  12
ENDBRANCH  10  11
ENDBRANCH   1  10
TORSDOF 12
ENDMDL
MODEL 7
REMARK VINA RESULT:    -4.173      2.238      5.327
REMARK INTER + INTRA:          -8.645
REMARK INTER:                  -6.906
REMARK INTRA:                  -1.739
REMARK UNBOUND:                -1.545
REMARK SMILES CCCCCCCCCCCCCC(=O)[O-]
REMARK SMILES IDX 8 1 9 2 10 3 11 4 12 5 13 6 14 7 15 8 16 9 7 10 6 11 5 12
REMARK SMILES IDX 4 13 3 14 2 15 1 16
REMARK H PARENT
REMARK Flexibility Score: inf
ROOT
ATOM      1  C   UNL     1      57.513   0.601  29.106  1.00  0.00     0.000 C 
ENDROOT
BRANCH   1   2
ATOM      2  C   UNL     1      57.414   0.472  30.633  1.00  0.00     0.000 C 
BRANCH   2   3
ATOM      3  C   UNL     1      58.636  -0.226  31.256  1.00  0.00     0.000 C 
BRANCH   3   4
ATOM      4  C   UNL     1      58.439  -1.721  31.579  1.00  0.00     0.000 C 
BRANCH   4   5
ATOM      5  C   UNL     1      59.558  -2.653  31.074  1.00  0.00     0.006 C 
BRANCH   5   6
ATOM      6  C   UNL     1      59.344  -3.188  29.650  1.00  0.00     0.053 C 
BRANCH   6   7
ATOM      7  C   UNL     1      60.366  -2.657  28.694  1.00  0.00     0.041 C 
ATOM      8  O   UNL     1      61.117  -3.447  28.065  1.00  0.00    -0.550 OA
ATOM      9  O   UNL     1      60.512  -1.286  28.523  1.00  0.00    -0.550 OA
ENDBRANCH   6   7
ENDBRANCH   5   6
ENDBRANCH   4   5
ENDBRANCH   3   4
ENDBRANCH   2   3
ENDBRANCH   1   2
BRANCH   1  10
ATOM     10  C   UNL     1      56.242   0.072  28.426  1.00  0.00     0.000 C 
BRANCH  10  11
ATOM     11  C   UNL     1      55.782  -1.278  29.000  1.00  0.00    -0.000 C 
BRANCH  11  12
ATOM     12  C   UNL     1      54.255  -1.360  29.167  1.00  0.00    -0.000 C 
BRANCH  12  13
ATOM     13  C   UNL     1      53.836  -1.689  30.608  1.00  0.00    -0.000 C 
BRANCH  13  14
ATOM     14  C   UNL     1      55.013  -2.190  31.464  1.00  0.00    -0.000 C 
BRANCH  14  15
ATOM     15  C   UNL     1      54.875  -3.672  31.845  1.00  0.00    -0.003 C 
ATOM     16  C   UNL     1      55.942  -4.550  31.192  1.00  0.00     0.004 C 
ENDBRANCH  14  15
ENDBRANCH  13  14
ENDBRANCH  12  13
ENDBRANCH  11  12
ENDBRANCH  10  11
ENDBRANCH   1  10
TORSDOF 12
ENDMDL
MODEL 8
REMARK VINA RESULT:    -4.075      3.295      6.009
REMARK INTER + INTRA:          -8.480
REMARK INTER:                  -6.613
REMARK INTRA:                  -1.867
REMARK UNBOUND:                -1.545
REMARK SMILES CCCCCCCCCCCCCC(=O)[O-]
REMARK SMILES IDX 8 1 9 2 10 3 11 4 12 5 13 6 14 7 15 8 16 9 7 10 6 11 5 12
REMARK SMILES IDX 4 13 3 14 2 15 1 16
REMARK H PARENT
REMARK Flexibility Score: inf
ROOT
ATOM      1  C   UNL     1      58.430   0.050  29.512  1.00  0.00     0.000 C 
ENDROOT
BRANCH   1   2
ATOM      2  C   UNL     1      59.590  -0.925  29.269  1.00  0.00     0.000 C 
BRANCH   2   3
ATOM      3  C   UNL     1      60.089  -1.598  30.561  1.00  0.00     0.000 C 
BRANCH   3   4
ATOM      4  C   UNL     1      60.987  -2.834  30.349  1.00  0.00     0.000 C 
BRANCH   4   5
ATOM      5  C   UNL     1      60.827  -3.533  28.984  1.00  0.00     0.006 C 
BRANCH   5   6
ATOM      6  C   UNL     1      62.104  -4.210  28.465  1.00  0.00     0.053 C 
BRANCH   6   7
ATOM      7  C   UNL     1      62.536  -3.650  27.145  1.00  0.00     0.041 C 
ATOM      8  O   UNL     1      62.356  -2.432  26.883  1.00  0.00    -0.550 OA
ATOM      9  O   UNL     1      63.109  -4.482  26.191  1.00  0.00    -0.550 OA
ENDBRANCH   6   7
ENDBRANCH   5   6
ENDBRANCH   4   5
ENDBRANCH   3   4
ENDBRANCH   2   3
ENDBRANCH   1   2
BRANCH   1  10
ATOM     10  C   UNL     1      57.941  -0.030  30.966  1.00  0.00     0.000 C 
BRANCH  10  11
ATOM     11  C   UNL     1      56.411  -0.128  31.071  1.00  0.00    -0.000 C 
BRANCH  11  12
ATOM     12  C   UNL     1      55.804  -1.055  30.005  1.00  0.00    -0.000 C 
BRANCH  12  13
ATOM     13  C   UNL     1      55.642  -2.500  30.503  1.00  0.00    -0.000 C 
BRANCH  13  14
ATOM     14  C   UNL     1      56.523  -3.493  29.725  1.00  0.00    -0.000 C 
BRANCH  14  15
ATOM     15  C   UNL     1      57.529  -4.221  30.630  1.00  0.00    -0.003 C 
ATOM     16  C   UNL     1      57.482  -3.732  32.077  1.00  0.00     0.004 C 
ENDBRANCH  14  15
ENDBRANCH  13  14
ENDBRANCH  12  13
ENDBRANCH  11  12
ENDBRANCH  10  11
ENDBRANCH   1  10
TORSDOF 12
ENDMDL
MODEL 9
REMARK VINA RESULT:    -3.925      3.196      5.382
REMARK INTER + INTRA:          -8.224
REMARK INTER:                  -6.547
REMARK INTRA:                  -1.678
REMARK UNBOUND:                -1.545
REMARK SMILES CCCCCCCCCCCCCC(=O)[O-]
REMARK SMILES IDX 8 1 9 2 10 3 11 4 12 5 13 6 14 7 15 8 16 9 7 10 6 11 5 12
REMARK SMILES IDX 4 13 3 14 2 15 1 16
REMARK H PARENT
REMARK Flexibility Score: inf
ROOT
ATOM      1  C   UNL     1      58.516  -3.556  30.749  1.00  0.00     0.000 C 
ENDROOT
BRANCH   1   2
ATOM      2  C   UNL     1      59.427  -2.689  31.631  1.00  0.00     0.000 C 
BRANCH   2   3
ATOM      3  C   UNL     1      60.144  -1.579  30.841  1.00  0.00     0.000 C 
BRANCH   3   4
ATOM      4  C   UNL     1      59.741  -1.469  29.357  1.00  0.00     0.000 C 
BRANCH   4   5
ATOM      5  C   UNL     1      60.915  -1.470  28.357  1.00  0.00     0.006 C 
BRANCH   5   6
ATOM      6  C   UNL     1      62.242  -1.978  28.939  1.00  0.00     0.053 C 
BRANCH   6   7
ATOM      7  C   UNL     1      62.915  -2.956  28.026  1.00  0.00     0.041 C 
ATOM      8  O   UNL     1      64.097  -3.325  28.252  1.00  0.00    -0.550 OA
ATOM      9  O   UNL     1      62.247  -3.435  26.907  1.00  0.00    -0.550 OA
ENDBRANCH   6   7
ENDBRANCH   5   6
ENDBRANCH   4   5
ENDBRANCH   3   4
ENDBRANCH   2   3
ENDBRANCH   1   2
BRANCH   1  10
ATOM     10  C   UNL     1      57.212  -3.905  31.483  1.00  0.00     0.000 C 
BRANCH  10  11
ATOM     11  C   UNL     1      55.972  -3.302  30.804  1.00  0.00    -0.000 C 
BRANCH  11  12
ATOM     12  C   UNL     1      56.308  -2.595  29.480  1.00  0.00    -0.000 C 
BRANCH  12  13
ATOM     13  C   UNL     1      55.818  -1.139  29.449  1.00  0.00    -0.000 C 
BRANCH  13  14
ATOM     14  C   UNL     1      56.233  -0.351  30.703  1.00  0.00    -0.000 C 
BRANCH  14  15
ATOM     15  C   UNL     1      57.188   0.809  30.380  1.00  0.00    -0.003 C 
ATOM     16  C   UNL     1      57.073   1.282  28.931  1.00  0.00     0.004 C 
ENDBRANCH  14  15
ENDBRANCH  13  14
ENDBRANCH  12  13
ENDBRANCH  11  12
ENDBRANCH  10  11
ENDBRANCH   1  10
TORSDOF 12
ENDMDL
