MODEL 1
REMARK VINA RESULT:    -2.395      0.000      0.000
REMARK INTER + INTRA:          -2.712
REMARK INTER:                  -2.675
REMARK INTRA:                  -0.036
REMARK UNBOUND:                -0.036
REMARK SMILES CCCC(=O)[O-]
REMARK SMILES IDX 3 1 4 2 5 3 6 4 2 5 1 6
REMARK H PARENT
REMARK Flexibility Score: inf
ROOT
ATOM      1  C   UNL     1      -3.779   7.613  40.539  1.00  0.00     0.052 C 
ENDROOT
BRANCH   1   2
ATOM      2  C   UNL     1      -3.473   7.735  42.000  1.00  0.00     0.041 C 
ATOM      3  O   UNL     1      -4.401   7.663  42.849  1.00  0.00    -0.550 OA
ATOM      4  O   UNL     1      -2.169   7.961  42.422  1.00  0.00    -0.550 OA
ENDBRANCH   1   2
BRANCH   1   5
ATOM      5  C   UNL     1      -2.525   7.803  39.677  1.00  0.00     0.003 C 
ATOM      6  C   UNL     1      -2.558   9.110  38.885  1.00  0.00     0.004 C 
ENDBRANCH   1   5
TORSDOF 2
ENDMDL
MODEL 2
REMARK VINA RESULT:    -2.291      3.159      4.136
REMARK INTER + INTRA:          -2.595
REMARK INTER:                  -2.561
REMARK INTRA:                  -0.034
REMARK UNBOUND:                -0.036
REMARK SMILES CCCC(=O)[O-]
REMARK SMILES IDX 3 1 4 2 5 3 6 4 2 5 1 6
REMARK H PARENT
REMARK Flexibility Score: inf
ROOT
ATOM      1  C   UNL     1      -2.617   9.092  38.945  1.00  0.00     0.052 C 
ENDROOT
BRANCH   1   2
ATOM      2  C   UNL     1      -1.949   8.500  37.742  1.00  0.00     0.041 C 
ATOM      3  O   UNL     1      -2.091   9.037  36.611  1.00  0.00    -0.550 OA
ATOM      4  O   UNL     1      -1.197   7.338  37.863  1.00  0.00    -0.550 OA
ENDBRANCH   1   2
BRANCH   1   5
ATOM      5  C   UNL     1      -2.477   8.188  40.177  1.00  0.00     0.003 C 
ATOM      6  C   UNL     1      -3.809   7.570  40.599  1.00  0.00     0.004 C 
ENDBRANCH   1   5
TORSDOF 2
ENDMDL
MODEL 3
REMARK VINA RESULT:    -2.274      2.201      3.228
REMARK INTER + INTRA:          -2.576
REMARK INTER:                  -2.570
REMARK INTRA:                  -0.006
REMARK UNBOUND:                -0.036
REMARK SMILES CCCC(=O)[O-]
REMARK SMILES IDX 3 1 4 2 5 3 6 4 2 5 1 6
REMARK H PARENT
REMARK Flexibility Score: inf
ROOT
ATOM      1  C   UNL     1      -3.803   7.630  40.662  1.00  0.00     0.052 C 
ENDROOT
BRANCH   1   2
ATOM      2  C   UNL     1      -2.723   8.103  39.739  1.00  0.00     0.041 C 
ATOM      3  O   UNL     1      -2.903   9.125  39.024  1.00  0.00    -0.550 OA
ATOM      4  O   UNL     1      -1.531   7.396  39.642  1.00  0.00    -0.550 OA
ENDBRANCH   1   2
BRANCH   1   5
ATOM      5  C   UNL     1      -3.304   7.510  42.108  1.00  0.00     0.003 C 
ATOM      6  C   UNL     1      -4.362   7.936  43.125  1.00  0.00     0.004 C 
ENDBRANCH   1   5
TORSDOF 2
ENDMDL
MODEL 4
REMARK VINA RESULT:    -2.270      1.336      1.753
REMARK INTER + INTRA:          -2.572
REMARK INTER:                  -2.552
REMARK INTRA:                  -0.020
REMARK UNBOUND:                -0.036
REMARK SMILES CCCC(=O)[O-]
REMARK SMILES IDX 3 1 4 2 5 3 6 4 2 5 1 6
REMARK H PARENT
REMARK Flexibility Score: inf
ROOT
ATOM      1  C   UNL     1      -1.869   8.315  39.725  1.00  0.00     0.052 C 
ENDROOT
BRANCH   1   2
ATOM      2  C   UNL     1      -2.826   7.896  40.797  1.00  0.00     0.041 C 
ATOM      3  O   UNL     1      -4.027   7.645  40.511  1.00  0.00    -0.550 OA
ATOM      4  O   UNL     1      -2.402   7.814  42.117  1.00  0.00    -0.550 OA
ENDBRANCH   1   2
BRANCH   1   5
ATOM      5  C   UNL     1      -2.567   9.123  38.623  1.00  0.00     0.003 C 
ATOM      6  C   UNL     1      -1.971   8.856  37.241  1.00  0.00     0.004 C 
ENDBRANCH   1   5
TORSDOF 2
ENDMDL
MODEL 5
REMARK VINA RESULT:    -2.235      2.161      2.642
REMARK INTER + INTRA:          -2.532
REMARK INTER:                  -2.497
REMARK INTRA:                  -0.036
REMARK UNBOUND:                -0.036
REMARK SMILES CCCC(=O)[O-]
REMARK SMILES IDX 3 1 4 2 5 3 6 4 2 5 1 6
REMARK H PARENT
REMARK Flexibility Score: inf
ROOT
ATOM      1  C   UNL     1      -3.532   7.570  40.470  1.00  0.00     0.052 C 
ENDROOT
BRANCH   1   2
ATOM      2  C   UNL     1      -3.423   6.108  40.165  1.00  0.00     0.041 C 
ATOM      3  O   UNL     1      -2.294   5.583  39.975  1.00  0.00    -0.550 OA
ATOM      4  O   UNL     1      -4.570   5.332  40.057  1.00  0.00    -0.550 OA
ENDBRANCH   1   2
BRANCH   1   5
ATOM      5  C   UNL     1      -2.277   8.337  40.033  1.00  0.00     0.003 C 
ATOM      6  C   UNL     1      -2.498   9.124  38.742  1.00  0.00     0.004 C 
ENDBRANCH   1   5
TORSDOF 2
ENDMDL
MODEL 6
REMARK VINA RESULT:    -2.212      2.471      3.193
REMARK INTER + INTRA:          -2.507
REMARK INTER:                  -2.461
REMARK INTRA:                  -0.046
REMARK UNBOUND:                -0.036
REMARK SMILES CCCC(=O)[O-]
REMARK SMILES IDX 3 1 4 2 5 3 6 4 2 5 1 6
REMARK H PARENT
REMARK Flexibility Score: inf
ROOT
ATOM      1  C   UNL     1      -2.431   7.812  40.976  1.00  0.00     0.052 C 
ENDROOT
BRANCH   1   2
ATOM      2  C   UNL     1      -1.942   8.377  39.678  1.00  0.00     0.041 C 
ATOM      3  O   UNL     1      -2.689   9.125  38.992  1.00  0.00    -0.550 OA
ATOM      4  O   UNL     1      -0.676   8.051  39.208  1.00  0.00    -0.550 OA
ENDBRANCH   1   2
BRANCH   1   5
ATOM      5  C   UNL     1      -3.855   7.255  40.854  1.00  0.00     0.003 C 
ATOM      6  C   UNL     1      -3.872   5.797  40.398  1.00  0.00     0.004 C 
ENDBRANCH   1   5
TORSDOF 2
ENDMDL
MODEL 7
REMARK VINA RESULT:    -2.155      1.428      2.696
REMARK INTER + INTRA:          -2.443
REMARK INTER:                  -2.408
REMARK INTRA:                  -0.035
REMARK UNBOUND:                -0.036
REMARK SMILES CCCC(=O)[O-]
REMARK SMILES IDX 3 1 4 2 5 3 6 4 2 5 1 6
REMARK H PARENT
REMARK Flexibility Score: inf
ROOT
ATOM      1  C   UNL     1      -2.718   7.907  40.099  1.00  0.00     0.052 C 
ENDROOT
BRANCH   1   2
ATOM      2  C   UNL     1      -1.708   8.139  41.180  1.00  0.00     0.041 C 
ATOM      3  O   UNL     1      -0.523   8.445  40.883  1.00  0.00    -0.550 OA
ATOM      4  O   UNL     1      -2.066   7.984  42.513  1.00  0.00    -0.550 OA
ENDBRANCH   1   2
BRANCH   1   5
ATOM      5  C   UNL     1      -4.006   7.280  40.648  1.00  0.00     0.003 C 
ATOM      6  C   UNL     1      -4.153   5.812  40.250  1.00  0.00     0.004 C 
ENDBRANCH   1   5
TORSDOF 2
ENDMDL
MODEL 8
REMARK VINA RESULT:    -2.024      3.371      4.540
REMARK INTER + INTRA:          -2.297
REMARK INTER:                  -2.258
REMARK INTRA:                  -0.039
REMARK UNBOUND:                -0.036
REMARK SMILES CCCC(=O)[O-]
REMARK SMILES IDX 3 1 4 2 5 3 6 4 2 5 1 6
REMARK H PARENT
REMARK Flexibility Score: inf
ROOT
ATOM      1  C   UNL     1      -1.591   8.329  37.877  1.00  0.00     0.052 C 
ENDROOT
BRANCH   1   2
ATOM      2  C   UNL     1      -0.154   8.740  37.972  1.00  0.00     0.041 C 
ATOM      3  O   UNL     1       0.323   9.124  39.073  1.00  0.00    -0.550 OA
ATOM      4  O   UNL     1       0.649   8.731  36.839  1.00  0.00    -0.550 OA
ENDBRANCH   1   2
BRANCH   1   5
ATOM      5  C   UNL     1      -2.447   8.996  38.962  1.00  0.00     0.003 C 
ATOM      6  C   UNL     1      -2.990   7.989  39.974  1.00  0.00     0.004 C 
ENDBRANCH   1   5
TORSDOF 2
ENDMDL
MODEL 9
REMARK VINA RESULT:    -1.155     16.030     16.784
REMARK INTER + INTRA:          -1.326
REMARK INTER:                  -1.312
REMARK INTRA:                  -0.014
REMARK UNBOUND:                -0.036
REMARK SMILES CCCC(=O)[O-]
REMARK SMILES IDX 3 1 4 2 5 3 6 4 2 5 1 6
REMARK H PARENT
REMARK Flexibility Score: inf
ROOT
ATOM      1  C   UNL     1       3.413   4.657  26.650  1.00  0.00     0.052 C 
ENDROOT
BRANCH   1   2
ATOM      2  C   UNL     1       4.525   3.658  26.559  1.00  0.00     0.041 C 
ATOM      3  O   UNL     1       4.589   2.706  27.382  1.00  0.00    -0.550 OA
ATOM      4  O   UNL     1       5.508   3.795  25.588  1.00  0.00    -0.550 OA
ENDBRANCH   1   2
BRANCH   1   5
ATOM      5  C   UNL     1       3.798   5.997  26.010  1.00  0.00     0.003 C 
ATOM      6  C   UNL     1       3.500   7.185  26.924  1.00  0.00     0.004 C 
ENDBRANCH   1   5
TORSDOF 2
ENDMDL
