MODEL 1
REMARK VINA RESULT:    -4.840      0.000      0.000
REMARK INTER + INTRA:          -8.820
REMARK INTER:                  -7.670
REMARK INTRA:                  -1.150
REMARK UNBOUND:                -1.150
REMARK SMILES CCCCCCCCCCCC(=O)[O-]
REMARK SMILES IDX 7 1 8 2 9 3 10 4 11 5 12 6 13 7 14 8 6 9 5 10 4 11 3 12 2 13
REMARK SMILES IDX 1 14
REMARK H PARENT
REMARK Flexibility Score: inf
ROOT
ATOM      1  C   UNL     1       0.442  45.937   9.348  1.00  0.00     0.000 C 
ENDROOT
BRANCH   1   2
ATOM      2  C   UNL     1       1.380  47.133   9.124  1.00  0.00     0.000 C 
BRANCH   2   3
ATOM      3  C   UNL     1       2.709  46.995   9.884  1.00  0.00     0.000 C 
BRANCH   3   4
ATOM      4  C   UNL     1       3.900  47.032   8.915  1.00  0.00     0.006 C 
BRANCH   4   5
ATOM      5  C   UNL     1       5.217  46.642   9.599  1.00  0.00     0.053 C 
BRANCH   5   6
ATOM      6  C   UNL     1       6.295  47.650   9.342  1.00  0.00     0.041 C 
ATOM      7  O   UNL     1       7.496  47.378   9.606  1.00  0.00    -0.550 OA
ATOM      8  O   UNL     1       5.969  48.904   8.840  1.00  0.00    -0.550 OA
ENDBRANCH   5   6
ENDBRANCH   4   5
ENDBRANCH   3   4
ENDBRANCH   2   3
ENDBRANCH   1   2
BRANCH   1   9
ATOM      9  C   UNL     1       1.139  44.761  10.049  1.00  0.00     0.000 C 
BRANCH   9  10
ATOM     10  C   UNL     1       1.586  43.703   9.032  1.00  0.00    -0.000 C 
BRANCH  10  11
ATOM     11  C   UNL     1       2.926  43.077   9.443  1.00  0.00    -0.000 C 
BRANCH  11  12
ATOM     12  C   UNL     1       2.879  42.441  10.842  1.00  0.00    -0.000 C 
BRANCH  12  13
ATOM     13  C   UNL     1       4.112  42.784  11.689  1.00  0.00    -0.003 C 
ATOM     14  C   UNL     1       4.058  44.227  12.181  1.00  0.00     0.004 C 
ENDBRANCH  12  13
ENDBRANCH  11  12
ENDBRANCH  10  11
ENDBRANCH   9  10
ENDBRANCH   1   9
TORSDOF 10
ENDMDL
MODEL 2
REMARK VINA RESULT:    -4.813      3.560      5.662
REMARK INTER + INTRA:          -8.777
REMARK INTER:                  -7.857
REMARK INTRA:                  -0.921
REMARK UNBOUND:                -1.150
REMARK SMILES CCCCCCCCCCCC(=O)[O-]
REMARK SMILES IDX 7 1 8 2 9 3 10 4 11 5 12 6 13 7 14 8 6 9 5 10 4 11 3 12 2 13
REMARK SMILES IDX 1 14
REMARK H PARENT
REMARK Flexibility Score: inf
ROOT
ATOM      1  C   UNL     1       1.502  44.849  10.420  1.00  0.00     0.000 C 
ENDROOT
BRANCH   1   2
ATOM      2  C   UNL     1       1.755  43.849   9.280  1.00  0.00     0.000 C 
BRANCH   2   3
ATOM      3  C   UNL     1       2.651  42.676   9.710  1.00  0.00     0.000 C 
BRANCH   3   4
ATOM      4  C   UNL     1       2.672  42.534  11.239  1.00  0.00     0.006 C 
BRANCH   4   5
ATOM      5  C   UNL     1       4.038  42.072  11.761  1.00  0.00     0.053 C 
BRANCH   5   6
ATOM      6  C   UNL     1       3.941  40.765  12.486  1.00  0.00     0.041 C 
ATOM      7  O   UNL     1       4.954  40.275  13.052  1.00  0.00    -0.550 OA
ATOM      8  O   UNL     1       2.738  40.070  12.510  1.00  0.00    -0.550 OA
ENDBRANCH   5   6
ENDBRANCH   4   5
ENDBRANCH   3   4
ENDBRANCH   2   3
ENDBRANCH   1   2
BRANCH   1   9
ATOM      9  C   UNL     1       2.236  46.182  10.213  1.00  0.00     0.000 C 
BRANCH   9  10
ATOM     10  C   UNL     1       3.633  46.143  10.845  1.00  0.00    -0.000 C 
BRANCH  10  11
ATOM     11  C   UNL     1       4.724  46.093   9.765  1.00  0.00    -0.000 C 
BRANCH  11  12
ATOM     12  C   UNL     1       4.723  47.337   8.864  1.00  0.00    -0.000 C 
BRANCH  12  13
ATOM     13  C   UNL     1       5.914  48.267   9.138  1.00  0.00    -0.003 C 
ATOM     14  C   UNL     1       7.179  47.466   9.433  1.00  0.00     0.004 C 
ENDBRANCH  12  13
ENDBRANCH  11  12
ENDBRANCH  10  11
ENDBRANCH   9  10
ENDBRANCH   1   9
TORSDOF 10
ENDMDL
MODEL 3
REMARK VINA RESULT:    -4.750      0.925      3.208
REMARK INTER + INTRA:          -8.677
REMARK INTER:                  -7.382
REMARK INTRA:                  -1.295
REMARK UNBOUND:                -1.150
REMARK SMILES CCCCCCCCCCCC(=O)[O-]
REMARK SMILES IDX 7 1 8 2 9 3 10 4 11 5 12 6 13 7 14 8 6 9 5 10 4 11 3 12 2 13
REMARK SMILES IDX 1 14
REMARK H PARENT
REMARK Flexibility Score: inf
ROOT
ATOM      1  C   UNL     1       3.251  43.834  11.753  1.00  0.00     0.000 C 
ENDROOT
BRANCH   1   2
ATOM      2  C   UNL     1       4.485  44.742  11.635  1.00  0.00     0.000 C 
BRANCH   2   3
ATOM      3  C   UNL     1       4.173  46.080  10.946  1.00  0.00     0.000 C 
BRANCH   3   4
ATOM      4  C   UNL     1       4.671  46.077   9.493  1.00  0.00     0.006 C 
BRANCH   4   5
ATOM      5  C   UNL     1       4.823  47.496   8.928  1.00  0.00     0.053 C 
BRANCH   5   6
ATOM      6  C   UNL     1       6.205  48.033   9.146  1.00  0.00     0.041 C 
ATOM      7  O   UNL     1       7.139  47.262   9.490  1.00  0.00    -0.550 OA
ATOM      8  O   UNL     1       6.453  49.392   9.001  1.00  0.00    -0.550 OA
ENDBRANCH   5   6
ENDBRANCH   4   5
ENDBRANCH   3   4
ENDBRANCH   2   3
ENDBRANCH   1   2
BRANCH   1   9
ATOM      9  C   UNL     1       3.251  42.698  10.719  1.00  0.00     0.000 C 
BRANCH   9  10
ATOM     10  C   UNL     1       2.309  43.019   9.552  1.00  0.00    -0.000 C 
BRANCH  10  11
ATOM     11  C   UNL     1       1.270  44.074   9.958  1.00  0.00    -0.000 C 
BRANCH  11  12
ATOM     12  C   UNL     1       0.947  45.056   8.821  1.00  0.00    -0.000 C 
BRANCH  12  13
ATOM     13  C   UNL     1       0.977  46.521   9.279  1.00  0.00    -0.003 C 
ATOM     14  C   UNL     1       0.856  47.471   8.090  1.00  0.00     0.004 C 
ENDBRANCH  12  13
ENDBRANCH  11  12
ENDBRANCH  10  11
ENDBRANCH   9  10
ENDBRANCH   1   9
TORSDOF 10
ENDMDL
MODEL 4
REMARK VINA RESULT:    -4.707      3.509      5.496
REMARK INTER + INTRA:          -8.609
REMARK INTER:                  -7.557
REMARK INTRA:                  -1.052
REMARK UNBOUND:                -1.150
REMARK SMILES CCCCCCCCCCCC(=O)[O-]
REMARK SMILES IDX 7 1 8 2 9 3 10 4 11 5 12 6 13 7 14 8 6 9 5 10 4 11 3 12 2 13
REMARK SMILES IDX 1 14
REMARK H PARENT
REMARK Flexibility Score: inf
ROOT
ATOM      1  C   UNL     1       0.660  44.748  10.941  1.00  0.00     0.000 C 
ENDROOT
BRANCH   1   2
ATOM      2  C   UNL     1       1.432  43.731  11.797  1.00  0.00     0.000 C 
BRANCH   2   3
ATOM      3  C   UNL     1       2.892  44.144  12.035  1.00  0.00     0.000 C 
BRANCH   3   4
ATOM      4  C   UNL     1       3.850  42.991  11.699  1.00  0.00     0.006 C 
BRANCH   4   5
ATOM      5  C   UNL     1       3.102  41.693  11.367  1.00  0.00     0.053 C 
BRANCH   5   6
ATOM      6  C   UNL     1       3.439  40.598  12.332  1.00  0.00     0.041 C 
ATOM      7  O   UNL     1       2.527  39.874  12.815  1.00  0.00    -0.550 OA
ATOM      8  O   UNL     1       4.756  40.396  12.724  1.00  0.00    -0.550 OA
ENDBRANCH   5   6
ENDBRANCH   4   5
ENDBRANCH   3   4
ENDBRANCH   2   3
ENDBRANCH   1   2
BRANCH   1   9
ATOM      9  C   UNL     1       1.250  44.904   9.532  1.00  0.00     0.000 C 
BRANCH   9  10
ATOM     10  C   UNL     1       1.208  46.369   9.079  1.00  0.00    -0.000 C 
BRANCH  10  11
ATOM     11  C   UNL     1       2.457  47.127   9.551  1.00  0.00    -0.000 C 
BRANCH  11  12
ATOM     12  C   UNL     1       3.760  46.514   9.014  1.00  0.00    -0.000 C 
BRANCH  12  13
ATOM     13  C   UNL     1       4.908  46.580  10.031  1.00  0.00    -0.003 C 
ATOM     14  C   UNL     1       6.082  47.386   9.482  1.00  0.00     0.004 C 
ENDBRANCH  12  13
ENDBRANCH  11  12
ENDBRANCH  10  11
ENDBRANCH   9  10
ENDBRANCH   1   9
TORSDOF 10
ENDMDL
MODEL 5
REMARK VINA RESULT:    -4.688      2.592      4.682
REMARK INTER + INTRA:          -8.578
REMARK INTER:                  -7.547
REMARK INTRA:                  -1.032
REMARK UNBOUND:                -1.150
REMARK SMILES CCCCCCCCCCCC(=O)[O-]
REMARK SMILES IDX 7 1 8 2 9 3 10 4 11 5 12 6 13 7 14 8 6 9 5 10 4 11 3 12 2 13
REMARK SMILES IDX 1 14
REMARK H PARENT
REMARK Flexibility Score: inf
ROOT
ATOM      1  C   UNL     1       0.682  46.402   8.698  1.00  0.00     0.000 C 
ENDROOT
BRANCH   1   2
ATOM      2  C   UNL     1       0.376  45.510   9.912  1.00  0.00     0.000 C 
BRANCH   2   3
ATOM      3  C   UNL     1       1.622  44.782  10.441  1.00  0.00     0.000 C 
BRANCH   3   4
ATOM      4  C   UNL     1       2.126  43.748   9.423  1.00  0.00     0.006 C 
BRANCH   4   5
ATOM      5  C   UNL     1       3.569  43.310   9.706  1.00  0.00     0.053 C 
BRANCH   5   6
ATOM      6  C   UNL     1       3.729  42.799  11.105  1.00  0.00     0.041 C 
ATOM      7  O   UNL     1       3.201  41.707  11.447  1.00  0.00    -0.550 OA
ATOM      8  O   UNL     1       4.433  43.545  12.041  1.00  0.00    -0.550 OA
ENDBRANCH   5   6
ENDBRANCH   4   5
ENDBRANCH   3   4
ENDBRANCH   2   3
ENDBRANCH   1   2
BRANCH   1   9
ATOM      9  C   UNL     1       1.679  47.525   9.025  1.00  0.00     0.000 C 
BRANCH   9  10
ATOM     10  C   UNL     1       2.470  47.937   7.777  1.00  0.00    -0.000 C 
BRANCH  10  11
ATOM     11  C   UNL     1       3.980  47.928   8.055  1.00  0.00    -0.000 C 
BRANCH  11  12
ATOM     12  C   UNL     1       4.367  46.969   9.192  1.00  0.00    -0.000 C 
BRANCH  12  13
ATOM     13  C   UNL     1       5.850  47.076   9.576  1.00  0.00    -0.003 C 
ATOM     14  C   UNL     1       6.389  48.477   9.304  1.00  0.00     0.004 C 
ENDBRANCH  12  13
ENDBRANCH  11  12
ENDBRANCH  10  11
ENDBRANCH   9  10
ENDBRANCH   1   9
TORSDOF 10
ENDMDL
MODEL 6
REMARK VINA RESULT:    -4.591      1.555      2.240
REMARK INTER + INTRA:          -8.425
REMARK INTER:                  -7.574
REMARK INTRA:                  -0.850
REMARK UNBOUND:                -1.150
REMARK SMILES CCCCCCCCCCCC(=O)[O-]
REMARK SMILES IDX 7 1 8 2 9 3 10 4 11 5 12 6 13 7 14 8 6 9 5 10 4 11 3 12 2 13
REMARK SMILES IDX 1 14
REMARK H PARENT
REMARK Flexibility Score: inf
ROOT
ATOM      1  C   UNL     1       0.907  44.785  10.967  1.00  0.00     0.000 C 
ENDROOT
BRANCH   1   2
ATOM      2  C   UNL     1       1.548  45.049   9.595  1.00  0.00     0.000 C 
BRANCH   2   3
ATOM      3  C   UNL     1       2.508  46.249   9.611  1.00  0.00     0.000 C 
BRANCH   3   4
ATOM      4  C   UNL     1       3.941  45.808   9.278  1.00  0.00     0.006 C 
BRANCH   4   5
ATOM      5  C   UNL     1       4.983  46.494  10.171  1.00  0.00     0.053 C 
BRANCH   5   6
ATOM      6  C   UNL     1       5.851  47.433   9.391  1.00  0.00     0.041 C 
ATOM      7  O   UNL     1       7.104  47.383   9.504  1.00  0.00    -0.550 OA
ATOM      8  O   UNL     1       5.274  48.387   8.562  1.00  0.00    -0.550 OA
ENDBRANCH   5   6
ENDBRANCH   4   5
ENDBRANCH   3   4
ENDBRANCH   2   3
ENDBRANCH   1   2
BRANCH   1   9
ATOM      9  C   UNL     1       1.509  43.563  11.677  1.00  0.00     0.000 C 
BRANCH   9  10
ATOM     10  C   UNL     1       2.900  43.885  12.237  1.00  0.00    -0.000 C 
BRANCH  10  11
ATOM     11  C   UNL     1       3.939  42.867  11.745  1.00  0.00    -0.000 C 
BRANCH  11  12
ATOM     12  C   UNL     1       3.422  41.421  11.794  1.00  0.00    -0.000 C 
BRANCH  12  13
ATOM     13  C   UNL     1       4.322  40.499  12.628  1.00  0.00    -0.003 C 
ATOM     14  C   UNL     1       3.672  39.133  12.830  1.00  0.00     0.004 C 
ENDBRANCH  12  13
ENDBRANCH  11  12
ENDBRANCH  10  11
ENDBRANCH   9  10
ENDBRANCH   1   9
TORSDOF 10
ENDMDL
MODEL 7
REMARK VINA RESULT:    -4.535      2.071      4.395
REMARK INTER + INTRA:          -8.336
REMARK INTER:                  -7.329
REMARK INTRA:                  -1.007
REMARK UNBOUND:                -1.150
REMARK SMILES CCCCCCCCCCCC(=O)[O-]
REMARK SMILES IDX 7 1 8 2 9 3 10 4 11 5 12 6 13 7 14 8 6 9 5 10 4 11 3 12 2 13
REMARK SMILES IDX 1 14
REMARK H PARENT
REMARK Flexibility Score: inf
ROOT
ATOM      1  C   UNL     1       2.646  43.331  10.330  1.00  0.00     0.000 C 
ENDROOT
BRANCH   1   2
ATOM      2  C   UNL     1       1.510  44.009   9.548  1.00  0.00     0.000 C 
BRANCH   2   3
ATOM      3  C   UNL     1       0.770  45.070  10.378  1.00  0.00     0.000 C 
BRANCH   3   4
ATOM      4  C   UNL     1       0.000  46.038   9.468  1.00  0.00     0.006 C 
BRANCH   4   5
ATOM      5  C   UNL     1       0.740  46.311   8.151  1.00  0.00     0.053 C 
BRANCH   5   6
ATOM      6  C   UNL     1       1.270  47.710   8.093  1.00  0.00     0.041 C 
ATOM      7  O   UNL     1       2.401  47.941   7.587  1.00  0.00    -0.550 OA
ATOM      8  O   UNL     1       0.530  48.758   8.627  1.00  0.00    -0.550 OA
ENDBRANCH   5   6
ENDBRANCH   4   5
ENDBRANCH   3   4
ENDBRANCH   2   3
ENDBRANCH   1   2
BRANCH   1   9
ATOM      9  C   UNL     1       3.023  44.096  11.608  1.00  0.00     0.000 C 
BRANCH   9  10
ATOM     10  C   UNL     1       4.371  44.809  11.443  1.00  0.00    -0.000 C 
BRANCH  10  11
ATOM     11  C   UNL     1       4.186  46.194  10.807  1.00  0.00    -0.000 C 
BRANCH  11  12
ATOM     12  C   UNL     1       4.846  46.305   9.425  1.00  0.00    -0.000 C 
BRANCH  12  13
ATOM     13  C   UNL     1       5.549  47.653   9.211  1.00  0.00    -0.003 C 
ATOM     14  C   UNL     1       7.055  47.529   9.427  1.00  0.00     0.004 C 
ENDBRANCH  12  13
ENDBRANCH  11  12
ENDBRANCH  10  11
ENDBRANCH   9  10
ENDBRANCH   1   9
TORSDOF 10
ENDMDL
MODEL 8
REMARK VINA RESULT:    -4.460      2.493      4.828
REMARK INTER + INTRA:          -8.218
REMARK INTER:                  -7.346
REMARK INTRA:                  -0.872
REMARK UNBOUND:                -1.150
REMARK SMILES CCCCCCCCCCCC(=O)[O-]
REMARK SMILES IDX 7 1 8 2 9 3 10 4 11 5 12 6 13 7 14 8 6 9 5 10 4 11 3 12 2 13
REMARK SMILES IDX 1 14
REMARK H PARENT
REMARK Flexibility Score: inf
ROOT
ATOM      1  C   UNL     1       0.857  46.323   9.241  1.00  0.00     0.000 C 
ENDROOT
BRANCH   1   2
ATOM      2  C   UNL     1       1.008  44.962   9.940  1.00  0.00     0.000 C 
BRANCH   2   3
ATOM      3  C   UNL     1       1.481  43.855   8.986  1.00  0.00     0.000 C 
BRANCH   3   4
ATOM      4  C   UNL     1       2.367  42.839   9.721  1.00  0.00     0.006 C 
BRANCH   4   5
ATOM      5  C   UNL     1       2.357  43.052  11.241  1.00  0.00     0.053 C 
BRANCH   5   6
ATOM      6  C   UNL     1       3.701  42.788  11.846  1.00  0.00     0.041 C 
ATOM      7  O   UNL     1       4.147  41.612  11.917  1.00  0.00    -0.550 OA
ATOM      8  O   UNL     1       4.450  43.838  12.363  1.00  0.00    -0.550 OA
ENDBRANCH   5   6
ENDBRANCH   4   5
ENDBRANCH   3   4
ENDBRANCH   2   3
ENDBRANCH   1   2
BRANCH   1   9
ATOM      9  C   UNL     1       2.160  47.137   9.241  1.00  0.00     0.000 C 
BRANCH   9  10
ATOM     10  C   UNL     1       3.162  46.568  10.253  1.00  0.00    -0.000 C 
BRANCH  10  11
ATOM     11  C   UNL     1       4.405  46.012   9.544  1.00  0.00    -0.000 C 
BRANCH  11  12
ATOM     12  C   UNL     1       5.647  46.892   9.747  1.00  0.00    -0.000 C 
BRANCH  12  13
ATOM     13  C   UNL     1       5.628  48.153   8.870  1.00  0.00    -0.003 C 
ATOM     14  C   UNL     1       6.603  49.203   9.397  1.00  0.00     0.004 C 
ENDBRANCH  12  13
ENDBRANCH  11  12
ENDBRANCH  10  11
ENDBRANCH   9  10
ENDBRANCH   1   9
TORSDOF 10
ENDMDL
MODEL 9
REMARK VINA RESULT:    -4.447      2.037      4.047
REMARK INTER + INTRA:          -8.197
REMARK INTER:                  -7.156
REMARK INTRA:                  -1.042
REMARK UNBOUND:                -1.150
REMARK SMILES CCCCCCCCCCCC(=O)[O-]
REMARK SMILES IDX 7 1 8 2 9 3 10 4 11 5 12 6 13 7 14 8 6 9 5 10 4 11 3 12 2 13
REMARK SMILES IDX 1 14
REMARK H PARENT
REMARK Flexibility Score: inf
ROOT
ATOM      1  C   UNL     1       1.397  43.111  11.872  1.00  0.00     0.000 C 
ENDROOT
BRANCH   1   2
ATOM      2  C   UNL     1       0.733  44.419  11.411  1.00  0.00     0.000 C 
BRANCH   2   3
ATOM      3  C   UNL     1       0.954  44.701   9.916  1.00  0.00     0.000 C 
BRANCH   3   4
ATOM      4  C   UNL     1       0.290  46.023   9.504  1.00  0.00     0.006 C 
BRANCH   4   5
ATOM      5  C   UNL     1       0.633  46.421   8.063  1.00  0.00     0.053 C 
BRANCH   5   6
ATOM      6  C   UNL     1       1.337  47.742   8.005  1.00  0.00     0.041 C 
ATOM      7  O   UNL     1       2.523  47.813   7.588  1.00  0.00    -0.550 OA
ATOM      8  O   UNL     1       0.693  48.893   8.444  1.00  0.00    -0.550 OA
ENDBRANCH   5   6
ENDBRANCH   4   5
ENDBRANCH   3   4
ENDBRANCH   2   3
ENDBRANCH   1   2
BRANCH   1   9
ATOM      9  C   UNL     1       2.587  42.708  10.988  1.00  0.00     0.000 C 
BRANCH   9  10
ATOM     10  C   UNL     1       3.909  42.833  11.757  1.00  0.00    -0.000 C 
BRANCH  10  11
ATOM     11  C   UNL     1       4.368  44.297  11.826  1.00  0.00    -0.000 C 
BRANCH  11  12
ATOM     12  C   UNL     1       4.508  44.941  10.438  1.00  0.00    -0.000 C 
BRANCH  12  13
ATOM     13  C   UNL     1       4.390  46.471  10.481  1.00  0.00    -0.003 C 
ATOM     14  C   UNL     1       5.359  47.125   9.500  1.00  0.00     0.004 C 
ENDBRANCH  12  13
ENDBRANCH  11  12
ENDBRANCH  10  11
ENDBRANCH   9  10
ENDBRANCH   1   9
TORSDOF 10
ENDMDL
