MODEL 1
REMARK VINA RESULT:    -2.414      0.000      0.000
REMARK INTER + INTRA:          -6.781
REMARK INTER:                  -5.237
REMARK INTRA:                  -1.544
REMARK UNBOUND:                -1.544
REMARK SMILES CCCCCCCCCCCCCCCCCCCCCC(=O)[O-]
REMARK SMILES IDX 12 1 11 2 10 3 9 4 8 5 7 6 6 7 5 8 4 9 3 10 2 11 1 12 13 13
REMARK SMILES IDX 14 14 15 15 16 16 17 17 18 18 19 19 20 20 21 21 22 22 23 23
REMARK SMILES IDX 24 24
REMARK H PARENT
REMARK Flexibility Score: inf
ROOT
ATOM      1  C   UNL     1      55.147   2.572  23.860  1.00  0.00     0.000 C 
ENDROOT
BRANCH   1   2
ATOM      2  C   UNL     1      55.034   2.609  22.325  1.00  0.00     0.000 C 
BRANCH   2   3
ATOM      3  C   UNL     1      53.632   3.009  21.841  1.00  0.00     0.000 C 
BRANCH   3   4
ATOM      4  C   UNL     1      52.691   1.803  21.684  1.00  0.00    -0.000 C 
BRANCH   4   5
ATOM      5  C   UNL     1      53.415   0.538  21.202  1.00  0.00    -0.000 C 
BRANCH   5   6
ATOM      6  C   UNL     1      52.662  -0.117  20.038  1.00  0.00    -0.000 C 
BRANCH   6   7
ATOM      7  C   UNL     1      51.369   0.648  19.717  1.00  0.00    -0.000 C 
BRANCH   7   8
ATOM      8  C   UNL     1      50.103  -0.148  20.102  1.00  0.00    -0.000 C 
BRANCH   8   9
ATOM      9  C   UNL     1      50.241  -0.942  21.416  1.00  0.00    -0.000 C 
BRANCH   9  10
ATOM     10  C   UNL     1      49.877  -0.161  22.690  1.00  0.00    -0.000 C 
BRANCH  10  11
ATOM     11  C   UNL     1      50.448  -0.803  23.964  1.00  0.00    -0.003 C 
ATOM     12  C   UNL     1      50.938   0.262  24.943  1.00  0.00     0.004 C 
ENDBRANCH  10  11
ENDBRANCH   9  10
ENDBRANCH   8   9
ENDBRANCH   7   8
ENDBRANCH   6   7
ENDBRANCH   5   6
ENDBRANCH   4   5
ENDBRANCH   3   4
ENDBRANCH   2   3
ENDBRANCH   1   2
BRANCH   1  13
ATOM     13  C   UNL     1      56.554   2.262  24.406  1.00  0.00     0.000 C 
BRANCH  13  14
ATOM     14  C   UNL     1      57.020   0.804  24.232  1.00  0.00     0.000 C 
BRANCH  14  15
ATOM     15  C   UNL     1      56.483   0.124  22.954  1.00  0.00     0.000 C 
BRANCH  15  16
ATOM     16  C   UNL     1      57.599  -0.203  21.945  1.00  0.00     0.000 C 
BRANCH  16  17
ATOM     17  C   UNL     1      58.782  -0.959  22.579  1.00  0.00     0.000 C 
BRANCH  17  18
ATOM     18  C   UNL     1      58.472  -2.398  23.032  1.00  0.00     0.000 C 
BRANCH  18  19
ATOM     19  C   UNL     1      58.737  -2.625  24.529  1.00  0.00     0.000 C 
BRANCH  19  20
ATOM     20  C   UNL     1      59.721  -1.598  25.123  1.00  0.00     0.006 C 
BRANCH  20  21
ATOM     21  C   UNL     1      61.205  -1.965  24.952  1.00  0.00     0.053 C 
BRANCH  21  22
ATOM     22  C   UNL     1      62.083  -0.752  24.885  1.00  0.00     0.041 C 
ATOM     23  O   UNL     1      61.605   0.389  25.125  1.00  0.00    -0.550 OA
ATOM     24  O   UNL     1      63.435  -0.885  24.596  1.00  0.00    -0.550 OA
ENDBRANCH  21  22
ENDBRANCH  20  21
ENDBRANCH  19  20
ENDBRANCH  18  19
ENDBRANCH  17  18
ENDBRANCH  16  17
ENDBRANCH  15  16
ENDBRANCH  14  15
ENDBRANCH  13  14
ENDBRANCH   1  13
TORSDOF 20
ENDMDL
MODEL 2
REMARK VINA RESULT:    -2.345      3.692      8.171
REMARK INTER + INTRA:          -6.631
REMARK INTER:                  -4.536
REMARK INTRA:                  -2.094
REMARK UNBOUND:                -1.544
REMARK SMILES CCCCCCCCCCCCCCCCCCCCCC(=O)[O-]
REMARK SMILES IDX 12 1 11 2 10 3 9 4 8 5 7 6 6 7 5 8 4 9 3 10 2 11 1 12 13 13
REMARK SMILES IDX 14 14 15 15 16 16 17 17 18 18 19 19 20 20 21 21 22 22 23 23
REMARK SMILES IDX 24 24
REMARK H PARENT
REMARK Flexibility Score: inf
ROOT
ATOM      1  C   UNL     1      55.081   1.098  23.045  1.00  0.00     0.000 C 
ENDROOT
BRANCH   1   2
ATOM      2  C   UNL     1      55.546   1.140  24.513  1.00  0.00     0.000 C 
BRANCH   2   3
ATOM      3  C   UNL     1      56.437   2.354  24.820  1.00  0.00     0.000 C 
BRANCH   3   4
ATOM      4  C   UNL     1      57.920   1.981  24.970  1.00  0.00    -0.000 C 
BRANCH   4   5
ATOM      5  C   UNL     1      58.144   0.469  25.123  1.00  0.00    -0.000 C 
BRANCH   5   6
ATOM      6  C   UNL     1      59.640   0.131  25.109  1.00  0.00    -0.000 C 
BRANCH   6   7
ATOM      7  C   UNL     1      59.871  -1.332  24.702  1.00  0.00    -0.000 C 
BRANCH   7   8
ATOM      8  C   UNL     1      58.572  -2.166  24.736  1.00  0.00    -0.000 C 
BRANCH   8   9
ATOM      9  C   UNL     1      57.910  -2.344  23.355  1.00  0.00    -0.000 C 
BRANCH   9  10
ATOM     10  C   UNL     1      58.498  -1.469  22.234  1.00  0.00    -0.000 C 
BRANCH  10  11
ATOM     11  C   UNL     1      57.437  -1.010  21.221  1.00  0.00    -0.003 C 
ATOM     12  C   UNL     1      57.706   0.418  20.755  1.00  0.00     0.004 C 
ENDBRANCH  10  11
ENDBRANCH   9  10
ENDBRANCH   8   9
ENDBRANCH   7   8
ENDBRANCH   6   7
ENDBRANCH   5   6
ENDBRANCH   4   5
ENDBRANCH   3   4
ENDBRANCH   2   3
ENDBRANCH   1   2
BRANCH   1  13
ATOM     13  C   UNL     1      54.215   2.292  22.600  1.00  0.00     0.000 C 
BRANCH  13  14
ATOM     14  C   UNL     1      53.001   2.595  23.499  1.00  0.00     0.000 C 
BRANCH  14  15
ATOM     15  C   UNL     1      52.536   1.392  24.347  1.00  0.00     0.000 C 
BRANCH  15  16
ATOM     16  C   UNL     1      51.017   1.399  24.601  1.00  0.00     0.000 C 
BRANCH  16  17
ATOM     17  C   UNL     1      50.233   0.543  23.589  1.00  0.00     0.000 C 
BRANCH  17  18
ATOM     18  C   UNL     1      50.628  -0.945  23.544  1.00  0.00     0.000 C 
BRANCH  18  19
ATOM     19  C   UNL     1      50.951  -1.438  22.124  1.00  0.00     0.000 C 
BRANCH  19  20
ATOM     20  C   UNL     1      52.263  -0.846  21.573  1.00  0.00     0.006 C 
BRANCH  20  21
ATOM     21  C   UNL     1      52.153  -0.268  20.152  1.00  0.00     0.053 C 
BRANCH  21  22
ATOM     22  C   UNL     1      51.194   0.881  20.083  1.00  0.00     0.041 C 
ATOM     23  O   UNL     1      51.581   2.047  20.361  1.00  0.00    -0.550 OA
ATOM     24  O   UNL     1      49.883   0.671  19.674  1.00  0.00    -0.550 OA
ENDBRANCH  21  22
ENDBRANCH  20  21
ENDBRANCH  19  20
ENDBRANCH  18  19
ENDBRANCH  17  18
ENDBRANCH  16  17
ENDBRANCH  15  16
ENDBRANCH  14  15
ENDBRANCH  13  14
ENDBRANCH   1  13
TORSDOF 20
ENDMDL
MODEL 3
REMARK VINA RESULT:    -2.139      1.417      2.814
REMARK INTER + INTRA:          -6.184
REMARK INTER:                  -5.053
REMARK INTRA:                  -1.131
REMARK UNBOUND:                -1.544
REMARK SMILES CCCCCCCCCCCCCCCCCCCCCC(=O)[O-]
REMARK SMILES IDX 12 1 11 2 10 3 9 4 8 5 7 6 6 7 5 8 4 9 3 10 2 11 1 12 13 13
REMARK SMILES IDX 14 14 15 15 16 16 17 17 18 18 19 19 20 20 21 21 22 22 23 23
REMARK SMILES IDX 24 24
REMARK H PARENT
REMARK Flexibility Score: inf
ROOT
ATOM      1  C   UNL     1      56.015   1.443  22.586  1.00  0.00     0.000 C 
ENDROOT
BRANCH   1   2
ATOM      2  C   UNL     1      56.469   2.299  23.783  1.00  0.00     0.000 C 
BRANCH   2   3
ATOM      3  C   UNL     1      55.294   2.969  24.513  1.00  0.00     0.000 C 
BRANCH   3   4
ATOM      4  C   UNL     1      53.926   2.522  23.973  1.00  0.00    -0.000 C 
BRANCH   4   5
ATOM      5  C   UNL     1      52.749   3.116  24.760  1.00  0.00    -0.000 C 
BRANCH   5   6
ATOM      6  C   UNL     1      51.418   2.839  24.051  1.00  0.00    -0.000 C 
BRANCH   6   7
ATOM      7  C   UNL     1      51.226   1.334  23.805  1.00  0.00    -0.000 C 
BRANCH   7   8
ATOM      8  C   UNL     1      50.089   1.041  22.803  1.00  0.00    -0.000 C 
BRANCH   8   9
ATOM      9  C   UNL     1      50.584   0.597  21.411  1.00  0.00    -0.000 C 
BRANCH   9  10
ATOM     10  C   UNL     1      51.850   1.315  20.912  1.00  0.00    -0.000 C 
BRANCH  10  11
ATOM     11  C   UNL     1      53.056   0.371  20.782  1.00  0.00    -0.003 C 
ATOM     12  C   UNL     1      52.996  -0.741  21.825  1.00  0.00     0.004 C 
ENDBRANCH  10  11
ENDBRANCH   9  10
ENDBRANCH   8   9
ENDBRANCH   7   8
ENDBRANCH   6   7
ENDBRANCH   5   6
ENDBRANCH   4   5
ENDBRANCH   3   4
ENDBRANCH   2   3
ENDBRANCH   1   2
BRANCH   1  13
ATOM     13  C   UNL     1      56.844   1.625  21.300  1.00  0.00     0.000 C 
BRANCH  13  14
ATOM     14  C   UNL     1      57.496   0.342  20.750  1.00  0.00     0.000 C 
BRANCH  14  15
ATOM     15  C   UNL     1      58.199  -0.512  21.827  1.00  0.00     0.000 C 
BRANCH  15  16
ATOM     16  C   UNL     1      57.235  -1.488  22.528  1.00  0.00     0.000 C 
BRANCH  16  17
ATOM     17  C   UNL     1      56.976  -1.124  24.003  1.00  0.00     0.000 C 
BRANCH  17  18
ATOM     18  C   UNL     1      58.103  -1.509  24.980  1.00  0.00     0.000 C 
BRANCH  18  19
ATOM     19  C   UNL     1      59.261  -2.255  24.297  1.00  0.00     0.000 C 
BRANCH  19  20
ATOM     20  C   UNL     1      60.575  -2.175  25.098  1.00  0.00     0.006 C 
BRANCH  20  21
ATOM     21  C   UNL     1      61.225  -0.781  25.119  1.00  0.00     0.053 C 
BRANCH  21  22
ATOM     22  C   UNL     1      62.716  -0.852  24.995  1.00  0.00     0.041 C 
ATOM     23  O   UNL     1      63.388   0.199  24.819  1.00  0.00    -0.550 OA
ATOM     24  O   UNL     1      63.368  -2.073  25.113  1.00  0.00    -0.550 OA
ENDBRANCH  21  22
ENDBRANCH  20  21
ENDBRANCH  19  20
ENDBRANCH  18  19
ENDBRANCH  17  18
ENDBRANCH  16  17
ENDBRANCH  15  16
ENDBRANCH  14  15
ENDBRANCH  13  14
ENDBRANCH   1  13
TORSDOF 20
ENDMDL
MODEL 4
REMARK VINA RESULT:    -1.896      2.178      3.660
REMARK INTER + INTRA:          -5.657
REMARK INTER:                  -4.427
REMARK INTRA:                  -1.231
REMARK UNBOUND:                -1.544
REMARK SMILES CCCCCCCCCCCCCCCCCCCCCC(=O)[O-]
REMARK SMILES IDX 12 1 11 2 10 3 9 4 8 5 7 6 6 7 5 8 4 9 3 10 2 11 1 12 13 13
REMARK SMILES IDX 14 14 15 15 16 16 17 17 18 18 19 19 20 20 21 21 22 22 23 23
REMARK SMILES IDX 24 24
REMARK H PARENT
REMARK Flexibility Score: inf
ROOT
ATOM      1  C   UNL     1      54.070   3.125  23.879  1.00  0.00     0.000 C 
ENDROOT
BRANCH   1   2
ATOM      2  C   UNL     1      52.893   2.180  24.184  1.00  0.00     0.000 C 
BRANCH   2   3
ATOM      3  C   UNL     1      51.713   2.369  23.217  1.00  0.00     0.000 C 
BRANCH   3   4
ATOM      4  C   UNL     1      50.586   1.350  23.449  1.00  0.00    -0.000 C 
BRANCH   4   5
ATOM      5  C   UNL     1      51.030   0.149  24.298  1.00  0.00    -0.000 C 
BRANCH   5   6
ATOM      6  C   UNL     1      50.455  -1.159  23.742  1.00  0.00    -0.000 C 
BRANCH   6   7
ATOM      7  C   UNL     1      50.349  -1.109  22.210  1.00  0.00    -0.000 C 
BRANCH   7   8
ATOM      8  C   UNL     1      51.714  -0.860  21.533  1.00  0.00    -0.000 C 
BRANCH   8   9
ATOM      9  C   UNL     1      51.607  -0.397  20.066  1.00  0.00    -0.000 C 
BRANCH   9  10
ATOM     10  C   UNL     1      50.220   0.123  19.648  1.00  0.00    -0.000 C 
BRANCH  10  11
ATOM     11  C   UNL     1      50.287   1.478  18.925  1.00  0.00    -0.003 C 
ATOM     12  C   UNL     1      50.479   2.621  19.917  1.00  0.00     0.004 C 
ENDBRANCH  10  11
ENDBRANCH   9  10
ENDBRANCH   8   9
ENDBRANCH   7   8
ENDBRANCH   6   7
ENDBRANCH   5   6
ENDBRANCH   4   5
ENDBRANCH   3   4
ENDBRANCH   2   3
ENDBRANCH   1   2
BRANCH   1  13
ATOM     13  C   UNL     1      54.764   2.888  22.523  1.00  0.00     0.000 C 
BRANCH  13  14
ATOM     14  C   UNL     1      56.229   2.420  22.607  1.00  0.00     0.000 C 
BRANCH  14  15
ATOM     15  C   UNL     1      57.015   3.034  23.786  1.00  0.00     0.000 C 
BRANCH  15  16
ATOM     16  C   UNL     1      57.657   1.964  24.689  1.00  0.00     0.000 C 
BRANCH  16  17
ATOM     17  C   UNL     1      56.683   0.832  25.068  1.00  0.00     0.000 C 
BRANCH  17  18
ATOM     18  C   UNL     1      56.928  -0.509  24.351  1.00  0.00     0.000 C 
BRANCH  18  19
ATOM     19  C   UNL     1      57.884  -1.435  25.121  1.00  0.00     0.000 C 
BRANCH  19  20
ATOM     20  C   UNL     1      59.219  -1.659  24.384  1.00  0.00     0.006 C 
BRANCH  20  21
ATOM     21  C   UNL     1      59.256  -1.101  22.950  1.00  0.00     0.053 C 
BRANCH  21  22
ATOM     22  C   UNL     1      58.259  -1.775  22.057  1.00  0.00     0.041 C 
ATOM     23  O   UNL     1      58.224  -3.032  21.981  1.00  0.00    -0.550 OA
ATOM     24  O   UNL     1      57.343  -1.017  21.338  1.00  0.00    -0.550 OA
ENDBRANCH  21  22
ENDBRANCH  20  21
ENDBRANCH  19  20
ENDBRANCH  18  19
ENDBRANCH  17  18
ENDBRANCH  16  17
ENDBRANCH  15  16
ENDBRANCH  14  15
ENDBRANCH  13  14
ENDBRANCH   1  13
TORSDOF 20
ENDMDL
MODEL 5
REMARK VINA RESULT:    -1.781      1.177      2.769
REMARK INTER + INTRA:          -5.407
REMARK INTER:                  -3.716
REMARK INTRA:                  -1.691
REMARK UNBOUND:                -1.544
REMARK SMILES CCCCCCCCCCCCCCCCCCCCCC(=O)[O-]
REMARK SMILES IDX 12 1 11 2 10 3 9 4 8 5 7 6 6 7 5 8 4 9 3 10 2 11 1 12 13 13
REMARK SMILES IDX 14 14 15 15 16 16 17 17 18 18 19 19 20 20 21 21 22 22 23 23
REMARK SMILES IDX 24 24
REMARK H PARENT
REMARK Flexibility Score: inf
ROOT
ATOM      1  C   UNL     1      54.196   2.657  22.816  1.00  0.00     0.000 C 
ENDROOT
BRANCH   1   2
ATOM      2  C   UNL     1      52.970   1.733  22.942  1.00  0.00     0.000 C 
BRANCH   2   3
ATOM      3  C   UNL     1      51.639   2.494  22.842  1.00  0.00     0.000 C 
BRANCH   3   4
ATOM      4  C   UNL     1      50.426   1.619  23.201  1.00  0.00    -0.000 C 
BRANCH   4   5
ATOM      5  C   UNL     1      50.784   0.455  24.136  1.00  0.00    -0.000 C 
BRANCH   5   6
ATOM      6  C   UNL     1      50.537  -0.895  23.452  1.00  0.00    -0.000 C 
BRANCH   6   7
ATOM      7  C   UNL     1      50.110  -0.703  21.989  1.00  0.00    -0.000 C 
BRANCH   7   8
ATOM      8  C   UNL     1      51.129  -1.299  20.995  1.00  0.00    -0.000 C 
BRANCH   8   9
ATOM      9  C   UNL     1      51.218  -0.535  19.658  1.00  0.00    -0.000 C 
BRANCH   9  10
ATOM     10  C   UNL     1      51.173   0.998  19.782  1.00  0.00    -0.000 C 
BRANCH  10  11
ATOM     11  C   UNL     1      49.875   1.602  19.224  1.00  0.00    -0.003 C 
ATOM     12  C   UNL     1      50.161   2.863  18.414  1.00  0.00     0.004 C 
ENDBRANCH  10  11
ENDBRANCH   9  10
ENDBRANCH   8   9
ENDBRANCH   7   8
ENDBRANCH   6   7
ENDBRANCH   5   6
ENDBRANCH   4   5
ENDBRANCH   3   4
ENDBRANCH   2   3
ENDBRANCH   1   2
BRANCH   1  13
ATOM     13  C   UNL     1      55.336   2.114  21.933  1.00  0.00     0.000 C 
BRANCH  13  14
ATOM     14  C   UNL     1      56.581   1.623  22.696  1.00  0.00     0.000 C 
BRANCH  14  15
ATOM     15  C   UNL     1      56.257   0.872  24.005  1.00  0.00     0.000 C 
BRANCH  15  16
ATOM     16  C   UNL     1      56.514  -0.642  23.897  1.00  0.00     0.000 C 
BRANCH  16  17
ATOM     17  C   UNL     1      56.945  -1.081  22.485  1.00  0.00     0.000 C 
BRANCH  17  18
ATOM     18  C   UNL     1      58.443  -1.407  22.329  1.00  0.00     0.000 C 
BRANCH  18  19
ATOM     19  C   UNL     1      58.922  -2.501  23.297  1.00  0.00     0.000 C 
BRANCH  19  20
ATOM     20  C   UNL     1      59.498  -1.927  24.606  1.00  0.00     0.006 C 
BRANCH  20  21
ATOM     21  C   UNL     1      61.020  -2.098  24.761  1.00  0.00     0.053 C 
BRANCH  21  22
ATOM     22  C   UNL     1      61.713  -0.790  24.996  1.00  0.00     0.041 C 
ATOM     23  O   UNL     1      61.042   0.268  25.125  1.00  0.00    -0.550 OA
ATOM     24  O   UNL     1      63.097  -0.746  25.113  1.00  0.00    -0.550 OA
ENDBRANCH  21  22
ENDBRANCH  20  21
ENDBRANCH  19  20
ENDBRANCH  18  19
ENDBRANCH  17  18
ENDBRANCH  16  17
ENDBRANCH  15  16
ENDBRANCH  14  15
ENDBRANCH  13  14
ENDBRANCH   1  13
TORSDOF 20
ENDMDL
MODEL 6
REMARK VINA RESULT:    -1.741      3.487      8.512
REMARK INTER + INTRA:          -5.322
REMARK INTER:                  -5.266
REMARK INTRA:                  -0.055
REMARK UNBOUND:                -1.544
REMARK SMILES CCCCCCCCCCCCCCCCCCCCCC(=O)[O-]
REMARK SMILES IDX 12 1 11 2 10 3 9 4 8 5 7 6 6 7 5 8 4 9 3 10 2 11 1 12 13 13
REMARK SMILES IDX 14 14 15 15 16 16 17 17 18 18 19 19 20 20 21 21 22 22 23 23
REMARK SMILES IDX 24 24
REMARK H PARENT
REMARK Flexibility Score: inf
ROOT
ATOM      1  C   UNL     1      55.629   1.240  21.989  1.00  0.00     0.000 C 
ENDROOT
BRANCH   1   2
ATOM      2  C   UNL     1      57.084   1.025  21.531  1.00  0.00     0.000 C 
BRANCH   2   3
ATOM      3  C   UNL     1      57.422  -0.457  21.305  1.00  0.00     0.000 C 
BRANCH   3   4
ATOM      4  C   UNL     1      57.188  -1.318  22.557  1.00  0.00    -0.000 C 
BRANCH   4   5
ATOM      5  C   UNL     1      56.180  -0.694  23.532  1.00  0.00    -0.000 C 
BRANCH   5   6
ATOM      6  C   UNL     1      56.815  -0.468  24.910  1.00  0.00    -0.000 C 
BRANCH   6   7
ATOM      7  C   UNL     1      58.347  -0.559  24.833  1.00  0.00    -0.000 C 
BRANCH   7   8
ATOM      8  C   UNL     1      58.851  -2.018  24.819  1.00  0.00    -0.000 C 
BRANCH   8   9
ATOM      9  C   UNL     1      60.356  -2.161  25.125  1.00  0.00    -0.000 C 
BRANCH   9  10
ATOM     10  C   UNL     1      61.204  -0.915  24.814  1.00  0.00    -0.000 C 
BRANCH  10  11
ATOM     11  C   UNL     1      62.709  -1.156  25.010  1.00  0.00    -0.003 C 
ATOM     12  C   UNL     1      63.465   0.164  25.125  1.00  0.00     0.004 C 
ENDBRANCH  10  11
ENDBRANCH   9  10
ENDBRANCH   8   9
ENDBRANCH   7   8
ENDBRANCH   6   7
ENDBRANCH   5   6
ENDBRANCH   4   5
ENDBRANCH   3   4
ENDBRANCH   2   3
ENDBRANCH   1   2
BRANCH   1  13
ATOM     13  C   UNL     1      55.292   2.673  22.445  1.00  0.00     0.000 C 
BRANCH  13  14
ATOM     14  C   UNL     1      55.701   3.016  23.890  1.00  0.00     0.000 C 
BRANCH  14  15
ATOM     15  C   UNL     1      54.512   3.116  24.869  1.00  0.00     0.000 C 
BRANCH  15  16
ATOM     16  C   UNL     1      53.167   2.773  24.202  1.00  0.00     0.000 C 
BRANCH  16  17
ATOM     17  C   UNL     1      52.836   1.269  24.251  1.00  0.00     0.000 C 
BRANCH  17  18
ATOM     18  C   UNL     1      51.566   0.903  25.041  1.00  0.00     0.000 C 
BRANCH  18  19
ATOM     19  C   UNL     1      50.438   0.363  24.146  1.00  0.00     0.000 C 
BRANCH  19  20
ATOM     20  C   UNL     1      50.405   1.035  22.759  1.00  0.00     0.006 C 
BRANCH  20  21
ATOM     21  C   UNL     1      50.494   0.057  21.575  1.00  0.00     0.053 C 
BRANCH  21  22
ATOM     22  C   UNL     1      51.557   0.453  20.596  1.00  0.00     0.041 C 
ATOM     23  O   UNL     1      52.189   1.532  20.748  1.00  0.00    -0.550 OA
ATOM     24  O   UNL     1      51.877  -0.387  19.537  1.00  0.00    -0.550 OA
ENDBRANCH  21  22
ENDBRANCH  20  21
ENDBRANCH  19  20
ENDBRANCH  18  19
ENDBRANCH  17  18
ENDBRANCH  16  17
ENDBRANCH  15  16
ENDBRANCH  14  15
ENDBRANCH  13  14
ENDBRANCH   1  13
TORSDOF 20
ENDMDL
MODEL 7
REMARK VINA RESULT:    -1.687      3.967      6.580
REMARK INTER + INTRA:          -5.203
REMARK INTER:                  -3.549
REMARK INTRA:                  -1.654
REMARK UNBOUND:                -1.544
REMARK SMILES CCCCCCCCCCCCCCCCCCCCCC(=O)[O-]
REMARK SMILES IDX 12 1 11 2 10 3 9 4 8 5 7 6 6 7 5 8 4 9 3 10 2 11 1 12 13 13
REMARK SMILES IDX 14 14 15 15 16 16 17 17 18 18 19 19 20 20 21 21 22 22 23 23
REMARK SMILES IDX 24 24
REMARK H PARENT
REMARK Flexibility Score: inf
ROOT
ATOM      1  C   UNL     1      58.052  -1.683  24.675  1.00  0.00     0.000 C 
ENDROOT
BRANCH   1   2
ATOM      2  C   UNL     1      58.477  -2.385  23.372  1.00  0.00     0.000 C 
BRANCH   2   3
ATOM      3  C   UNL     1      58.322  -1.488  22.134  1.00  0.00     0.000 C 
BRANCH   3   4
ATOM      4  C   UNL     1      56.939  -1.619  21.475  1.00  0.00    -0.000 C 
BRANCH   4   5
ATOM      5  C   UNL     1      55.973  -0.498  21.883  1.00  0.00    -0.000 C 
BRANCH   5   6
ATOM      6  C   UNL     1      54.660  -1.075  22.428  1.00  0.00    -0.000 C 
BRANCH   6   7
ATOM      7  C   UNL     1      53.450  -0.289  21.901  1.00  0.00    -0.000 C 
BRANCH   7   8
ATOM      8  C   UNL     1      52.239  -1.199  21.606  1.00  0.00    -0.000 C 
BRANCH   8   9
ATOM      9  C   UNL     1      51.351  -0.699  20.449  1.00  0.00    -0.000 C 
BRANCH   9  10
ATOM     10  C   UNL     1      51.830   0.598  19.775  1.00  0.00    -0.000 C 
BRANCH  10  11
ATOM     11  C   UNL     1      50.818   1.746  19.908  1.00  0.00    -0.003 C 
ATOM     12  C   UNL     1      49.901   1.813  18.689  1.00  0.00     0.004 C 
ENDBRANCH  10  11
ENDBRANCH   9  10
ENDBRANCH   8   9
ENDBRANCH   7   8
ENDBRANCH   6   7
ENDBRANCH   5   6
ENDBRANCH   4   5
ENDBRANCH   3   4
ENDBRANCH   2   3
ENDBRANCH   1   2
BRANCH   1  13
ATOM     13  C   UNL     1      58.406  -0.185  24.756  1.00  0.00     0.000 C 
BRANCH  13  14
ATOM     14  C   UNL     1      57.200   0.774  24.795  1.00  0.00     0.000 C 
BRANCH  14  15
ATOM     15  C   UNL     1      57.377   2.035  23.921  1.00  0.00     0.000 C 
BRANCH  15  16
ATOM     16  C   UNL     1      56.361   2.099  22.766  1.00  0.00     0.000 C 
BRANCH  16  17
ATOM     17  C   UNL     1      55.045   2.797  23.158  1.00  0.00     0.000 C 
BRANCH  17  18
ATOM     18  C   UNL     1      54.870   3.066  24.664  1.00  0.00     0.000 C 
BRANCH  18  19
ATOM     19  C   UNL     1      53.406   2.970  25.125  1.00  0.00     0.000 C 
BRANCH  19  20
ATOM     20  C   UNL     1      52.573   2.002  24.262  1.00  0.00     0.006 C 
BRANCH  20  21
ATOM     21  C   UNL     1      51.470   1.253  25.029  1.00  0.00     0.053 C 
BRANCH  21  22
ATOM     22  C   UNL     1      50.452   0.651  24.109  1.00  0.00     0.041 C 
ATOM     23  O   UNL     1      50.099   1.265  23.067  1.00  0.00    -0.550 OA
ATOM     24  O   UNL     1      49.922  -0.604  24.380  1.00  0.00    -0.550 OA
ENDBRANCH  21  22
ENDBRANCH  20  21
ENDBRANCH  19  20
ENDBRANCH  18  19
ENDBRANCH  17  18
ENDBRANCH  16  17
ENDBRANCH  15  16
ENDBRANCH  14  15
ENDBRANCH  13  14
ENDBRANCH   1  13
TORSDOF 20
ENDMDL
MODEL 8
REMARK VINA RESULT:    -1.668     19.658     21.659
REMARK INTER + INTRA:          -5.162
REMARK INTER:                  -3.810
REMARK INTRA:                  -1.352
REMARK UNBOUND:                -1.544
REMARK SMILES CCCCCCCCCCCCCCCCCCCCCC(=O)[O-]
REMARK SMILES IDX 12 1 11 2 10 3 9 4 8 5 7 6 6 7 5 8 4 9 3 10 2 11 1 12 13 13
REMARK SMILES IDX 14 14 15 15 16 16 17 17 18 18 19 19 20 20 21 21 22 22 23 23
REMARK SMILES IDX 24 24
REMARK H PARENT
REMARK Flexibility Score: inf
ROOT
ATOM      1  C   UNL     1      56.576 -16.501   9.746  1.00  0.00     0.000 C 
ENDROOT
BRANCH   1   2
ATOM      2  C   UNL     1      56.815 -17.018  11.177  1.00  0.00     0.000 C 
BRANCH   2   3
ATOM      3  C   UNL     1      56.214 -16.097  12.250  1.00  0.00     0.000 C 
BRANCH   3   4
ATOM      4  C   UNL     1      55.029 -16.740  12.989  1.00  0.00    -0.000 C 
BRANCH   4   5
ATOM      5  C   UNL     1      53.699 -16.020  12.727  1.00  0.00    -0.000 C 
BRANCH   5   6
ATOM      6  C   UNL     1      52.510 -16.886  13.160  1.00  0.00    -0.000 C 
BRANCH   6   7
ATOM      7  C   UNL     1      51.772 -16.257  14.352  1.00  0.00    -0.000 C 
BRANCH   7   8
ATOM      8  C   UNL     1      50.306 -16.729  14.453  1.00  0.00    -0.000 C 
BRANCH   8   9
ATOM      9  C   UNL     1      49.875 -17.125  15.880  1.00  0.00    -0.000 C 
BRANCH   9  10
ATOM     10  C   UNL     1      50.764 -16.567  17.005  1.00  0.00    -0.000 C 
BRANCH  10  11
ATOM     11  C   UNL     1      50.005 -16.396  18.331  1.00  0.00    -0.003 C 
ATOM     12  C   UNL     1      50.954 -15.998  19.458  1.00  0.00     0.004 C 
ENDBRANCH  10  11
ENDBRANCH   9  10
ENDBRANCH   8   9
ENDBRANCH   7   8
ENDBRANCH   6   7
ENDBRANCH   5   6
ENDBRANCH   4   5
ENDBRANCH   3   4
ENDBRANCH   2   3
ENDBRANCH   1   2
BRANCH   1  13
ATOM     13  C   UNL     1      56.747 -14.980   9.564  1.00  0.00     0.000 C 
BRANCH  13  14
ATOM     14  C   UNL     1      57.527 -14.553   8.306  1.00  0.00     0.000 C 
BRANCH  14  15
ATOM     15  C   UNL     1      58.173 -15.728   7.542  1.00  0.00     0.000 C 
BRANCH  15  16
ATOM     16  C   UNL     1      57.894 -15.673   6.028  1.00  0.00     0.000 C 
BRANCH  16  17
ATOM     17  C   UNL     1      56.446 -15.263   5.697  1.00  0.00     0.000 C 
BRANCH  17  18
ATOM     18  C   UNL     1      55.366 -16.276   6.118  1.00  0.00     0.000 C 
BRANCH  18  19
ATOM     19  C   UNL     1      54.285 -16.482   5.043  1.00  0.00     0.000 C 
BRANCH  19  20
ATOM     20  C   UNL     1      52.931 -15.858   5.433  1.00  0.00     0.006 C 
BRANCH  20  21
ATOM     21  C   UNL     1      52.581 -15.978   6.926  1.00  0.00     0.053 C 
BRANCH  21  22
ATOM     22  C   UNL     1      51.140 -15.663   7.194  1.00  0.00     0.041 C 
ATOM     23  O   UNL     1      50.498 -14.917   6.408  1.00  0.00    -0.550 OA
ATOM     24  O   UNL     1      50.496 -16.223   8.290  1.00  0.00    -0.550 OA
ENDBRANCH  21  22
ENDBRANCH  20  21
ENDBRANCH  19  20
ENDBRANCH  18  19
ENDBRANCH  17  18
ENDBRANCH  16  17
ENDBRANCH  15  16
ENDBRANCH  14  15
ENDBRANCH  13  14
ENDBRANCH   1  13
TORSDOF 20
ENDMDL
