MODEL 1
REMARK VINA RESULT:    -5.350      0.000      0.000
REMARK INTER + INTRA:         -10.675
REMARK INTER:                  -9.417
REMARK INTRA:                  -1.258
REMARK UNBOUND:                -1.258
REMARK SMILES CCCCCCCCCCCCCCC(=O)[O-]
REMARK SMILES IDX 9 1 10 2 11 3 12 4 13 5 14 6 15 7 16 8 17 9 8 10 7 11 6 12
REMARK SMILES IDX 5 13 4 14 3 15 2 16 1 17
REMARK H PARENT
REMARK Flexibility Score: inf
ROOT
ATOM      1  C   UNL     1      24.096  12.485  35.670  1.00  0.00     0.000 C 
ENDROOT
BRANCH   1   2
ATOM      2  C   UNL     1      25.634  12.442  35.733  1.00  0.00     0.000 C 
BRANCH   2   3
ATOM      3  C   UNL     1      26.211  11.218  34.990  1.00  0.00     0.000 C 
BRANCH   3   4
ATOM      4  C   UNL     1      27.662  11.414  34.517  1.00  0.00     0.000 C 
BRANCH   4   5
ATOM      5  C   UNL     1      27.872  12.734  33.762  1.00  0.00     0.006 C 
BRANCH   5   6
ATOM      6  C   UNL     1      27.140  12.718  32.417  1.00  0.00     0.053 C 
BRANCH   6   7
ATOM      7  C   UNL     1      27.988  12.071  31.367  1.00  0.00     0.041 C 
ATOM      8  O   UNL     1      27.822  10.857  31.077  1.00  0.00    -0.550 OA
ATOM      9  O   UNL     1      28.995  12.796  30.744  1.00  0.00    -0.550 OA
ENDBRANCH   6   7
ENDBRANCH   5   6
ENDBRANCH   4   5
ENDBRANCH   3   4
ENDBRANCH   2   3
ENDBRANCH   1   2
BRANCH   1  10
ATOM     10  C   UNL     1      23.491  11.226  35.031  1.00  0.00     0.000 C 
BRANCH  10  11
ATOM     11  C   UNL     1      22.373  10.606  35.888  1.00  0.00    -0.000 C 
BRANCH  11  12
ATOM     12  C   UNL     1      21.182  10.123  35.043  1.00  0.00    -0.000 C 
BRANCH  12  13
ATOM     13  C   UNL     1      19.829  10.411  35.715  1.00  0.00    -0.000 C 
BRANCH  13  14
ATOM     14  C   UNL     1      19.124  11.641  35.119  1.00  0.00    -0.000 C 
BRANCH  14  15
ATOM     15  C   UNL     1      19.288  12.899  35.986  1.00  0.00    -0.000 C 
BRANCH  15  16
ATOM     16  C   UNL     1      20.487  13.732  35.519  1.00  0.00    -0.003 C 
ATOM     17  C   UNL     1      20.396  14.045  34.028  1.00  0.00     0.004 C 
ENDBRANCH  15  16
ENDBRANCH  14  15
ENDBRANCH  13  14
ENDBRANCH  12  13
ENDBRANCH  11  12
ENDBRANCH  10  11
ENDBRANCH   1  10
TORSDOF 13
ENDMDL
MODEL 2
REMARK VINA RESULT:    -5.332      0.901      1.325
REMARK INTER + INTRA:         -10.642
REMARK INTER:                  -9.376
REMARK INTRA:                  -1.267
REMARK UNBOUND:                -1.258
REMARK SMILES CCCCCCCCCCCCCCC(=O)[O-]
REMARK SMILES IDX 9 1 10 2 11 3 12 4 13 5 14 6 15 7 16 8 17 9 8 10 7 11 6 12
REMARK SMILES IDX 5 13 4 14 3 15 2 16 1 17
REMARK H PARENT
REMARK Flexibility Score: inf
ROOT
ATOM      1  C   UNL     1      25.180  12.313  35.759  1.00  0.00     0.000 C 
ENDROOT
BRANCH   1   2
ATOM      2  C   UNL     1      25.743  11.598  34.517  1.00  0.00     0.000 C 
BRANCH   2   3
ATOM      3  C   UNL     1      27.187  11.097  34.739  1.00  0.00     0.000 C 
BRANCH   3   4
ATOM      4  C   UNL     1      28.259  12.038  34.162  1.00  0.00     0.000 C 
BRANCH   4   5
ATOM      5  C   UNL     1      27.712  12.972  33.074  1.00  0.00     0.006 C 
BRANCH   5   6
ATOM      6  C   UNL     1      28.274  12.600  31.699  1.00  0.00     0.053 C 
BRANCH   6   7
ATOM      7  C   UNL     1      27.314  11.723  30.960  1.00  0.00     0.041 C 
ATOM      8  O   UNL     1      26.156  12.137  30.689  1.00  0.00    -0.550 OA
ATOM      9  O   UNL     1      27.679  10.428  30.615  1.00  0.00    -0.550 OA
ENDBRANCH   6   7
ENDBRANCH   5   6
ENDBRANCH   4   5
ENDBRANCH   3   4
ENDBRANCH   2   3
ENDBRANCH   1   2
BRANCH   1  10
ATOM     10  C   UNL     1      23.645  12.384  35.759  1.00  0.00     0.000 C 
BRANCH  10  11
ATOM     11  C   UNL     1      23.001  11.265  34.922  1.00  0.00    -0.000 C 
BRANCH  11  12
ATOM     12  C   UNL     1      22.133  10.320  35.770  1.00  0.00    -0.000 C 
BRANCH  12  13
ATOM     13  C   UNL     1      20.729  10.117  35.175  1.00  0.00    -0.000 C 
BRANCH  13  14
ATOM     14  C   UNL     1      19.654  10.938  35.905  1.00  0.00    -0.000 C 
BRANCH  14  15
ATOM     15  C   UNL     1      19.222  12.185  35.118  1.00  0.00    -0.000 C 
BRANCH  15  16
ATOM     16  C   UNL     1      20.006  13.420  35.577  1.00  0.00    -0.003 C 
ATOM     17  C   UNL     1      20.617  14.159  34.389  1.00  0.00     0.004 C 
ENDBRANCH  15  16
ENDBRANCH  14  15
ENDBRANCH  13  14
ENDBRANCH  12  13
ENDBRANCH  11  12
ENDBRANCH  10  11
ENDBRANCH   1  10
TORSDOF 13
ENDMDL
MODEL 3
REMARK VINA RESULT:    -5.155      0.977      2.268
REMARK INTER + INTRA:         -10.330
REMARK INTER:                  -9.090
REMARK INTRA:                  -1.240
REMARK UNBOUND:                -1.258
REMARK SMILES CCCCCCCCCCCCCCC(=O)[O-]
REMARK SMILES IDX 9 1 10 2 11 3 12 4 13 5 14 6 15 7 16 8 17 9 8 10 7 11 6 12
REMARK SMILES IDX 5 13 4 14 3 15 2 16 1 17
REMARK H PARENT
REMARK Flexibility Score: inf
ROOT
ATOM      1  C   UNL     1      24.774  11.135  35.654  1.00  0.00     0.000 C 
ENDROOT
BRANCH   1   2
ATOM      2  C   UNL     1      26.042  11.976  35.413  1.00  0.00     0.000 C 
BRANCH   2   3
ATOM      3  C   UNL     1      27.180  11.145  34.782  1.00  0.00     0.000 C 
BRANCH   3   4
ATOM      4  C   UNL     1      28.206  11.994  34.011  1.00  0.00     0.000 C 
BRANCH   4   5
ATOM      5  C   UNL     1      27.557  13.120  33.194  1.00  0.00     0.006 C 
BRANCH   5   6
ATOM      6  C   UNL     1      26.982  12.583  31.881  1.00  0.00     0.053 C 
BRANCH   6   7
ATOM      7  C   UNL     1      28.079  12.090  30.990  1.00  0.00     0.041 C 
ATOM      8  O   UNL     1      29.035  12.850  30.683  1.00  0.00    -0.550 OA
ATOM      9  O   UNL     1      28.020  10.809  30.458  1.00  0.00    -0.550 OA
ENDBRANCH   6   7
ENDBRANCH   5   6
ENDBRANCH   4   5
ENDBRANCH   3   4
ENDBRANCH   2   3
ENDBRANCH   1   2
BRANCH   1  10
ATOM     10  C   UNL     1      23.591  11.580  34.781  1.00  0.00     0.000 C 
BRANCH  10  11
ATOM     11  C   UNL     1      22.673  12.586  35.496  1.00  0.00    -0.000 C 
BRANCH  11  12
ATOM     12  C   UNL     1      21.587  13.157  34.569  1.00  0.00    -0.000 C 
BRANCH  12  13
ATOM     13  C   UNL     1      20.215  13.252  35.257  1.00  0.00    -0.000 C 
BRANCH  13  14
ATOM     14  C   UNL     1      19.755  11.907  35.845  1.00  0.00    -0.000 C 
BRANCH  14  15
ATOM     15  C   UNL     1      19.185  10.956  34.781  1.00  0.00    -0.000 C 
BRANCH  15  16
ATOM     16  C   UNL     1      20.142   9.787  34.522  1.00  0.00    -0.003 C 
ATOM     17  C   UNL     1      20.782   9.299  35.819  1.00  0.00     0.004 C 
ENDBRANCH  15  16
ENDBRANCH  14  15
ENDBRANCH  13  14
ENDBRANCH  12  13
ENDBRANCH  11  12
ENDBRANCH  10  11
ENDBRANCH   1  10
TORSDOF 13
ENDMDL
MODEL 4
REMARK VINA RESULT:    -5.112      1.120      1.789
REMARK INTER + INTRA:         -10.255
REMARK INTER:                  -8.818
REMARK INTRA:                  -1.437
REMARK UNBOUND:                -1.258
REMARK SMILES CCCCCCCCCCCCCCC(=O)[O-]
REMARK SMILES IDX 9 1 10 2 11 3 12 4 13 5 14 6 15 7 16 8 17 9 8 10 7 11 6 12
REMARK SMILES IDX 5 13 4 14 3 15 2 16 1 17
REMARK H PARENT
REMARK Flexibility Score: inf
ROOT
ATOM      1  C   UNL     1      24.396  12.276  35.092  1.00  0.00     0.000 C 
ENDROOT
BRANCH   1   2
ATOM      2  C   UNL     1      25.362  11.131  35.451  1.00  0.00     0.000 C 
BRANCH   2   3
ATOM      3  C   UNL     1      26.772  11.355  34.864  1.00  0.00     0.000 C 
BRANCH   3   4
ATOM      4  C   UNL     1      27.146  12.840  34.712  1.00  0.00     0.000 C 
BRANCH   4   5
ATOM      5  C   UNL     1      27.475  13.228  33.263  1.00  0.00     0.006 C 
BRANCH   5   6
ATOM      6  C   UNL     1      26.937  12.184  32.281  1.00  0.00     0.053 C 
BRANCH   6   7
ATOM      7  C   UNL     1      27.964  11.866  31.240  1.00  0.00     0.041 C 
ATOM      8  O   UNL     1      28.877  12.693  30.977  1.00  0.00    -0.550 OA
ATOM      9  O   UNL     1      27.883  10.680  30.523  1.00  0.00    -0.550 OA
ENDBRANCH   6   7
ENDBRANCH   5   6
ENDBRANCH   4   5
ENDBRANCH   3   4
ENDBRANCH   2   3
ENDBRANCH   1   2
BRANCH   1  10
ATOM     10  C   UNL     1      23.062  12.188  35.849  1.00  0.00     0.000 C 
BRANCH  10  11
ATOM     11  C   UNL     1      22.257  10.928  35.485  1.00  0.00    -0.000 C 
BRANCH  11  12
ATOM     12  C   UNL     1      20.741  11.183  35.464  1.00  0.00    -0.000 C 
BRANCH  12  13
ATOM     13  C   UNL     1      20.383  12.635  35.828  1.00  0.00    -0.000 C 
BRANCH  13  14
ATOM     14  C   UNL     1      19.639  13.361  34.695  1.00  0.00    -0.000 C 
BRANCH  14  15
ATOM     15  C   UNL     1      20.587  14.113  33.748  1.00  0.00    -0.000 C 
BRANCH  15  16
ATOM     16  C   UNL     1      20.616  13.453  32.365  1.00  0.00    -0.003 C 
ATOM     17  C   UNL     1      21.860  12.585  32.193  1.00  0.00     0.004 C 
ENDBRANCH  15  16
ENDBRANCH  14  15
ENDBRANCH  13  14
ENDBRANCH  12  13
ENDBRANCH  11  12
ENDBRANCH  10  11
ENDBRANCH   1  10
TORSDOF 13
ENDMDL
MODEL 5
REMARK VINA RESULT:    -5.033      1.562      3.014
REMARK INTER + INTRA:         -10.116
REMARK INTER:                  -8.250
REMARK INTRA:                  -1.866
REMARK UNBOUND:                -1.258
REMARK SMILES CCCCCCCCCCCCCCC(=O)[O-]
REMARK SMILES IDX 9 1 10 2 11 3 12 4 13 5 14 6 15 7 16 8 17 9 8 10 7 11 6 12
REMARK SMILES IDX 5 13 4 14 3 15 2 16 1 17
REMARK H PARENT
REMARK Flexibility Score: inf
ROOT
ATOM      1  C   UNL     1      22.071  10.573  35.673  1.00  0.00     0.000 C 
ENDROOT
BRANCH   1   2
ATOM      2  C   UNL     1      23.122  11.344  34.852  1.00  0.00     0.000 C 
BRANCH   2   3
ATOM      3  C   UNL     1      23.708  12.539  35.635  1.00  0.00     0.000 C 
BRANCH   3   4
ATOM      4  C   UNL     1      25.199  12.375  35.981  1.00  0.00     0.000 C 
BRANCH   4   5
ATOM      5  C   UNL     1      25.828  11.130  35.341  1.00  0.00     0.006 C 
BRANCH   5   6
ATOM      6  C   UNL     1      27.090  11.496  34.555  1.00  0.00     0.053 C 
BRANCH   6   7
ATOM      7  C   UNL     1      26.795  12.579  33.565  1.00  0.00     0.041 C 
ATOM      8  O   UNL     1      26.031  12.355  32.589  1.00  0.00    -0.550 OA
ATOM      9  O   UNL     1      27.403  13.821  33.692  1.00  0.00    -0.550 OA
ENDBRANCH   6   7
ENDBRANCH   5   6
ENDBRANCH   4   5
ENDBRANCH   3   4
ENDBRANCH   2   3
ENDBRANCH   1   2
BRANCH   1  10
ATOM     10  C   UNL     1      20.754  10.367  34.909  1.00  0.00     0.000 C 
BRANCH  10  11
ATOM     11  C   UNL     1      19.556  11.037  35.604  1.00  0.00    -0.000 C 
BRANCH  11  12
ATOM     12  C   UNL     1      19.879  12.456  36.100  1.00  0.00    -0.000 C 
BRANCH  12  13
ATOM     13  C   UNL     1      19.432  13.543  35.107  1.00  0.00    -0.000 C 
BRANCH  13  14
ATOM     14  C   UNL     1      20.602  14.115  34.291  1.00  0.00    -0.000 C 
BRANCH  14  15
ATOM     15  C   UNL     1      20.287  14.219  32.791  1.00  0.00    -0.000 C 
BRANCH  15  16
ATOM     16  C   UNL     1      20.386  12.847  32.114  1.00  0.00    -0.003 C 
ATOM     17  C   UNL     1      21.829  12.520  31.737  1.00  0.00     0.004 C 
ENDBRANCH  15  16
ENDBRANCH  14  15
ENDBRANCH  13  14
ENDBRANCH  12  13
ENDBRANCH  11  12
ENDBRANCH  10  11
ENDBRANCH   1  10
TORSDOF 13
ENDMDL
MODEL 6
REMARK VINA RESULT:    -4.994      2.832      6.750
REMARK INTER + INTRA:         -10.046
REMARK INTER:                  -8.663
REMARK INTRA:                  -1.383
REMARK UNBOUND:                -1.258
REMARK SMILES CCCCCCCCCCCCCCC(=O)[O-]
REMARK SMILES IDX 9 1 10 2 11 3 12 4 13 5 14 6 15 7 16 8 17 9 8 10 7 11 6 12
REMARK SMILES IDX 5 13 4 14 3 15 2 16 1 17
REMARK H PARENT
REMARK Flexibility Score: inf
ROOT
ATOM      1  C   UNL     1      23.265  11.457  35.009  1.00  0.00     0.000 C 
ENDROOT
BRANCH   1   2
ATOM      2  C   UNL     1      22.165  10.667  35.741  1.00  0.00     0.000 C 
BRANCH   2   3
ATOM      3  C   UNL     1      20.749  11.099  35.303  1.00  0.00     0.000 C 
BRANCH   3   4
ATOM      4  C   UNL     1      20.261  12.389  35.984  1.00  0.00     0.000 C 
BRANCH   4   5
ATOM      5  C   UNL     1      19.562  13.350  35.013  1.00  0.00     0.006 C 
BRANCH   5   6
ATOM      6  C   UNL     1      20.584  14.182  34.234  1.00  0.00     0.053 C 
BRANCH   6   7
ATOM      7  C   UNL     1      20.596  13.780  32.792  1.00  0.00     0.041 C 
ATOM      8  O   UNL     1      21.479  12.993  32.361  1.00  0.00    -0.550 OA
ATOM      9  O   UNL     1      19.663  14.315  31.914  1.00  0.00    -0.550 OA
ENDBRANCH   6   7
ENDBRANCH   5   6
ENDBRANCH   4   5
ENDBRANCH   3   4
ENDBRANCH   2   3
ENDBRANCH   1   2
BRANCH   1  10
ATOM     10  C   UNL     1      24.027  12.416  35.937  1.00  0.00     0.000 C 
BRANCH  10  11
ATOM     11  C   UNL     1      25.524  12.505  35.595  1.00  0.00    -0.000 C 
BRANCH  11  12
ATOM     12  C   UNL     1      26.111  11.153  35.156  1.00  0.00    -0.000 C 
BRANCH  12  13
ATOM     13  C   UNL     1      27.612  11.240  34.833  1.00  0.00    -0.000 C 
BRANCH  13  14
ATOM     14  C   UNL     1      28.001  12.582  34.190  1.00  0.00    -0.000 C 
BRANCH  14  15
ATOM     15  C   UNL     1      27.840  12.578  32.662  1.00  0.00    -0.000 C 
BRANCH  15  16
ATOM     16  C   UNL     1      26.600  13.374  32.241  1.00  0.00    -0.003 C 
ATOM     17  C   UNL     1      25.637  12.510  31.431  1.00  0.00     0.004 C 
ENDBRANCH  15  16
ENDBRANCH  14  15
ENDBRANCH  13  14
ENDBRANCH  12  13
ENDBRANCH  11  12
ENDBRANCH  10  11
ENDBRANCH   1  10
TORSDOF 13
ENDMDL
MODEL 7
REMARK VINA RESULT:    -4.993      1.404      2.800
REMARK INTER + INTRA:         -10.046
REMARK INTER:                  -8.816
REMARK INTRA:                  -1.230
REMARK UNBOUND:                -1.258
REMARK SMILES CCCCCCCCCCCCCCC(=O)[O-]
REMARK SMILES IDX 9 1 10 2 11 3 12 4 13 5 14 6 15 7 16 8 17 9 8 10 7 11 6 12
REMARK SMILES IDX 5 13 4 14 3 15 2 16 1 17
REMARK H PARENT
REMARK Flexibility Score: inf
ROOT
ATOM      1  C   UNL     1      23.039  11.213  34.898  1.00  0.00     0.000 C 
ENDROOT
BRANCH   1   2
ATOM      2  C   UNL     1      24.204  10.873  35.845  1.00  0.00     0.000 C 
BRANCH   2   3
ATOM      3  C   UNL     1      25.263  11.995  35.890  1.00  0.00     0.000 C 
BRANCH   3   4
ATOM      4  C   UNL     1      26.569  11.638  35.159  1.00  0.00     0.000 C 
BRANCH   4   5
ATOM      5  C   UNL     1      27.607  12.768  35.201  1.00  0.00     0.006 C 
BRANCH   5   6
ATOM      6  C   UNL     1      27.291  13.842  34.156  1.00  0.00     0.053 C 
BRANCH   6   7
ATOM      7  C   UNL     1      27.175  13.230  32.795  1.00  0.00     0.041 C 
ATOM      8  O   UNL     1      26.065  13.208  32.202  1.00  0.00    -0.550 OA
ATOM      9  O   UNL     1      28.283  12.636  32.203  1.00  0.00    -0.550 OA
ENDBRANCH   6   7
ENDBRANCH   5   6
ENDBRANCH   4   5
ENDBRANCH   3   4
ENDBRANCH   2   3
ENDBRANCH   1   2
BRANCH   1  10
ATOM     10  C   UNL     1      22.712  12.715  34.872  1.00  0.00     0.000 C 
BRANCH  10  11
ATOM     11  C   UNL     1      21.270  12.999  34.417  1.00  0.00    -0.000 C 
BRANCH  11  12
ATOM     12  C   UNL     1      20.325  13.285  35.596  1.00  0.00    -0.000 C 
BRANCH  12  13
ATOM     13  C   UNL     1      19.568  12.029  36.061  1.00  0.00    -0.000 C 
BRANCH  13  14
ATOM     14  C   UNL     1      18.977  11.228  34.889  1.00  0.00    -0.000 C 
BRANCH  14  15
ATOM     15  C   UNL     1      19.505   9.786  34.827  1.00  0.00    -0.000 C 
BRANCH  15  16
ATOM     16  C   UNL     1      20.195   9.400  36.141  1.00  0.00    -0.003 C 
ATOM     17  C   UNL     1      19.429   8.295  36.863  1.00  0.00     0.004 C 
ENDBRANCH  15  16
ENDBRANCH  14  15
ENDBRANCH  13  14
ENDBRANCH  12  13
ENDBRANCH  11  12
ENDBRANCH  10  11
ENDBRANCH   1  10
TORSDOF 13
ENDMDL
MODEL 8
REMARK VINA RESULT:    -4.961      3.711      7.060
REMARK INTER + INTRA:          -9.988
REMARK INTER:                  -8.003
REMARK INTRA:                  -1.986
REMARK UNBOUND:                -1.258
REMARK SMILES CCCCCCCCCCCCCCC(=O)[O-]
REMARK SMILES IDX 9 1 10 2 11 3 12 4 13 5 14 6 15 7 16 8 17 9 8 10 7 11 6 12
REMARK SMILES IDX 5 13 4 14 3 15 2 16 1 17
REMARK H PARENT
REMARK Flexibility Score: inf
ROOT
ATOM      1  C   UNL     1      22.465  12.541  33.357  1.00  0.00     0.000 C 
ENDROOT
BRANCH   1   2
ATOM      2  C   UNL     1      21.158  12.822  32.593  1.00  0.00     0.000 C 
BRANCH   2   3
ATOM      3  C   UNL     1      20.428  14.071  33.131  1.00  0.00     0.000 C 
BRANCH   3   4
ATOM      4  C   UNL     1      20.374  14.138  34.667  1.00  0.00     0.000 C 
BRANCH   4   5
ATOM      5  C   UNL     1      19.157  13.411  35.255  1.00  0.00     0.006 C 
BRANCH   5   6
ATOM      6  C   UNL     1      19.592  12.250  36.152  1.00  0.00     0.053 C 
BRANCH   6   7
ATOM      7  C   UNL     1      19.279  10.939  35.502  1.00  0.00     0.041 C 
ATOM      8  O   UNL     1      19.595   9.859  36.067  1.00  0.00    -0.550 OA
ATOM      9  O   UNL     1      18.683  10.910  34.247  1.00  0.00    -0.550 OA
ENDBRANCH   6   7
ENDBRANCH   5   6
ENDBRANCH   4   5
ENDBRANCH   3   4
ENDBRANCH   2   3
ENDBRANCH   1   2
BRANCH   1  10
ATOM     10  C   UNL     1      22.497  11.139  33.984  1.00  0.00     0.000 C 
BRANCH  10  11
ATOM     11  C   UNL     1      23.129  11.132  35.387  1.00  0.00    -0.000 C 
BRANCH  11  12
ATOM     12  C   UNL     1      23.522  12.541  35.863  1.00  0.00    -0.000 C 
BRANCH  12  13
ATOM     13  C   UNL     1      25.014  12.646  36.221  1.00  0.00    -0.000 C 
BRANCH  13  14
ATOM     14  C   UNL     1      25.897  11.748  35.339  1.00  0.00    -0.000 C 
BRANCH  14  15
ATOM     15  C   UNL     1      27.262  12.380  35.024  1.00  0.00    -0.000 C 
BRANCH  15  16
ATOM     16  C   UNL     1      27.204  13.188  33.723  1.00  0.00    -0.003 C 
ATOM     17  C   UNL     1      26.191  12.593  32.748  1.00  0.00     0.004 C 
ENDBRANCH  15  16
ENDBRANCH  14  15
ENDBRANCH  13  14
ENDBRANCH  12  13
ENDBRANCH  11  12
ENDBRANCH  10  11
ENDBRANCH   1  10
TORSDOF 13
ENDMDL
MODEL 9
REMARK VINA RESULT:    -4.918      3.748      7.302
REMARK INTER + INTRA:          -9.913
REMARK INTER:                  -8.524
REMARK INTRA:                  -1.389
REMARK UNBOUND:                -1.258
REMARK SMILES CCCCCCCCCCCCCCC(=O)[O-]
REMARK SMILES IDX 9 1 10 2 11 3 12 4 13 5 14 6 15 7 16 8 17 9 8 10 7 11 6 12
REMARK SMILES IDX 5 13 4 14 3 15 2 16 1 17
REMARK H PARENT
REMARK Flexibility Score: inf
ROOT
ATOM      1  C   UNL     1      23.285  11.424  35.190  1.00  0.00     0.000 C 
ENDROOT
BRANCH   1   2
ATOM      2  C   UNL     1      23.253  11.893  33.724  1.00  0.00     0.000 C 
BRANCH   2   3
ATOM      3  C   UNL     1      21.835  11.814  33.119  1.00  0.00     0.000 C 
BRANCH   3   4
ATOM      4  C   UNL     1      21.231  13.190  32.787  1.00  0.00     0.000 C 
BRANCH   4   5
ATOM      5  C   UNL     1      19.968  13.501  33.600  1.00  0.00     0.006 C 
BRANCH   5   6
ATOM      6  C   UNL     1      20.307  13.727  35.076  1.00  0.00     0.053 C 
BRANCH   6   7
ATOM      7  C   UNL     1      19.495  12.820  35.946  1.00  0.00     0.041 C 
ATOM      8  O   UNL     1      19.732  11.583  35.968  1.00  0.00    -0.550 OA
ATOM      9  O   UNL     1      18.443  13.332  36.693  1.00  0.00    -0.550 OA
ENDBRANCH   6   7
ENDBRANCH   5   6
ENDBRANCH   4   5
ENDBRANCH   3   4
ENDBRANCH   2   3
ENDBRANCH   1   2
BRANCH   1  10
ATOM     10  C   UNL     1      24.694  11.476  35.801  1.00  0.00     0.000 C 
BRANCH  10  11
ATOM     11  C   UNL     1      25.208  12.916  35.979  1.00  0.00    -0.000 C 
BRANCH  11  12
ATOM     12  C   UNL     1      26.536  13.162  35.243  1.00  0.00    -0.000 C 
BRANCH  12  13
ATOM     13  C   UNL     1      27.349  11.871  35.046  1.00  0.00    -0.000 C 
BRANCH  13  14
ATOM     14  C   UNL     1      28.239  11.919  33.793  1.00  0.00    -0.000 C 
BRANCH  14  15
ATOM     15  C   UNL     1      27.473  11.579  32.506  1.00  0.00    -0.000 C 
BRANCH  15  16
ATOM     16  C   UNL     1      27.136  12.850  31.717  1.00  0.00    -0.003 C 
ATOM     17  C   UNL     1      25.700  12.816  31.202  1.00  0.00     0.004 C 
ENDBRANCH  15  16
ENDBRANCH  14  15
ENDBRANCH  13  14
ENDBRANCH  12  13
ENDBRANCH  11  12
ENDBRANCH  10  11
ENDBRANCH   1  10
TORSDOF 13
ENDMDL
