MODEL 1
REMARK VINA RESULT:    -7.065      0.000      0.000
REMARK INTER + INTRA:         -12.413
REMARK INTER:                 -10.989
REMARK INTRA:                  -1.424
REMARK UNBOUND:                -1.424
REMARK SMILES COc1cc(CNC(=O)CCCCC=CC(C)C)ccc1O
REMARK SMILES IDX 11 1 12 2 13 3 14 4 15 5 16 6 17 7 18 8 10 9 8 10 9 11 7 12
REMARK SMILES IDX 6 14 5 15 4 16 19 17 3 18 20 19 21 20 2 21 1 22 22 23
REMARK H PARENT 7 13 22 24
REMARK Flexibility Score: inf
ROOT
ATOM      1  C   UNL     1     -14.692 -27.395  -7.589  1.00  0.00     0.010 C 
ENDROOT
BRANCH   1   2
ATOM      2  C   UNL     1     -14.182 -26.219  -8.435  1.00  0.00     0.005 C 
BRANCH   2   3
ATOM      3  C   UNL     1     -12.998 -26.610  -9.333  1.00  0.00     0.027 C 
BRANCH   3   4
ATOM      4  C   UNL     1     -13.356 -26.462 -10.787  1.00  0.00    -0.031 C 
ATOM      5  C   UNL     1     -14.425 -27.077 -11.316  1.00  0.00    -0.028 C 
BRANCH   5   6
ATOM      6  C   UNL     1     -14.781 -26.920 -12.774  1.00  0.00     0.005 C 
ATOM      7  C   UNL     1     -13.802 -27.710 -13.654  1.00  0.00     0.012 C 
ATOM      8  C   UNL     1     -14.778 -25.437 -13.168  1.00  0.00     0.012 C 
ENDBRANCH   5   6
ENDBRANCH   3   4
ENDBRANCH   2   3
ENDBRANCH   1   2
BRANCH   1   9
ATOM      9  C   UNL     1     -13.567 -28.348  -7.161  1.00  0.00     0.100 C 
BRANCH   9  10
ATOM     10  C   UNL     1     -13.618 -29.601  -7.980  1.00  0.00     0.220 C 
ATOM     11  O   UNL     1     -12.541 -30.170  -8.310  1.00  0.00    -0.275 OA
ATOM     12  N   UNL     1     -14.883 -30.186  -8.321  1.00  0.00    -0.352 N 
ATOM     13  H   UNL     1     -15.759 -29.678  -8.068  1.00  0.00     0.163 HD
BRANCH  12  14
ATOM     14  C   UNL     1     -15.000 -31.549  -8.829  1.00  0.00     0.151 C 
BRANCH  14  15
ATOM     15  C   UNL     1     -15.030 -31.531 -10.332  1.00  0.00    -0.025 A 
ATOM     16  C   UNL     1     -14.136 -32.332 -11.062  1.00  0.00     0.056 A 
ATOM     17  C   UNL     1     -15.896 -30.664 -11.015  1.00  0.00     0.009 A 
ATOM     18  C   UNL     1     -14.119 -32.288 -12.472  1.00  0.00     0.160 A 
ATOM     19  C   UNL     1     -15.883 -30.614 -12.411  1.00  0.00     0.050 A 
ATOM     20  C   UNL     1     -15.003 -31.420 -13.142  1.00  0.00     0.157 A 
BRANCH  18  21
ATOM     21  O   UNL     1     -13.241 -33.081 -13.230  1.00  0.00    -0.493 OA
ATOM     22  C   UNL     1     -11.842 -32.842 -13.357  1.00  0.00     0.278 C 
ENDBRANCH  18  21
BRANCH  20  23
ATOM     23  O   UNL     1     -15.019 -31.343 -14.535  1.00  0.00    -0.504 OA
ATOM     24  H   UNL     1     -15.802 -30.949 -15.045  1.00  0.00     0.293 HD
ENDBRANCH  20  23
ENDBRANCH  14  15
ENDBRANCH  12  14
ENDBRANCH   9  10
ENDBRANCH   1   9
TORSDOF 10
ENDMDL
MODEL 2
REMARK VINA RESULT:    -7.008      1.064      1.485
REMARK INTER + INTRA:         -12.324
REMARK INTER:                 -10.304
REMARK INTRA:                  -2.020
REMARK UNBOUND:                -1.424
REMARK SMILES COc1cc(CNC(=O)CCCCC=CC(C)C)ccc1O
REMARK SMILES IDX 11 1 12 2 13 3 14 4 15 5 16 6 17 7 18 8 10 9 8 10 9 11 7 12
REMARK SMILES IDX 6 14 5 15 4 16 19 17 3 18 20 19 21 20 2 21 1 22 22 23
REMARK H PARENT 7 13 22 24
REMARK Flexibility Score: inf
ROOT
ATOM      1  C   UNL     1     -12.729 -27.664  -6.919  1.00  0.00     0.010 C 
ENDROOT
BRANCH   1   2
ATOM      2  C   UNL     1     -13.192 -26.383  -7.628  1.00  0.00     0.005 C 
BRANCH   2   3
ATOM      3  C   UNL     1     -14.624 -26.498  -8.174  1.00  0.00     0.027 C 
BRANCH   3   4
ATOM      4  C   UNL     1     -14.616 -26.942  -9.611  1.00  0.00    -0.031 C 
ATOM      5  C   UNL     1     -13.595 -26.650 -10.433  1.00  0.00    -0.028 C 
BRANCH   5   6
ATOM      6  C   UNL     1     -13.591 -27.104 -11.872  1.00  0.00     0.005 C 
ATOM      7  C   UNL     1     -15.023 -27.156 -12.423  1.00  0.00     0.012 C 
ATOM      8  C   UNL     1     -12.919 -28.478 -11.999  1.00  0.00     0.012 C 
ENDBRANCH   5   6
ENDBRANCH   3   4
ENDBRANCH   2   3
ENDBRANCH   1   2
BRANCH   1   9
ATOM      9  C   UNL     1     -11.584 -28.369  -7.658  1.00  0.00     0.100 C 
BRANCH   9  10
ATOM     10  C   UNL     1     -12.062 -29.674  -8.216  1.00  0.00     0.220 C 
ATOM     11  O   UNL     1     -11.222 -30.578  -8.485  1.00  0.00    -0.275 OA
ATOM     12  N   UNL     1     -13.466 -29.918  -8.374  1.00  0.00    -0.352 N 
ATOM     13  H   UNL     1     -14.138 -29.142  -8.180  1.00  0.00     0.163 HD
BRANCH  12  14
ATOM     14  C   UNL     1     -14.005 -31.255  -8.603  1.00  0.00     0.151 C 
BRANCH  14  15
ATOM     15  C   UNL     1     -14.389 -31.407 -10.049  1.00  0.00    -0.025 A 
ATOM     16  C   UNL     1     -13.604 -32.199 -10.905  1.00  0.00     0.056 A 
ATOM     17  C   UNL     1     -15.484 -30.704 -10.571  1.00  0.00     0.009 A 
ATOM     18  C   UNL     1     -13.924 -32.311 -12.273  1.00  0.00     0.160 A 
ATOM     19  C   UNL     1     -15.805 -30.809 -11.927  1.00  0.00     0.050 A 
ATOM     20  C   UNL     1     -15.035 -31.608 -12.778  1.00  0.00     0.157 A 
BRANCH  18  21
ATOM     21  O   UNL     1     -13.163 -33.101 -13.153  1.00  0.00    -0.493 OA
ATOM     22  C   UNL     1     -11.809 -32.836 -13.510  1.00  0.00     0.278 C 
ENDBRANCH  18  21
BRANCH  20  23
ATOM     23  O   UNL     1     -15.386 -31.689 -14.127  1.00  0.00    -0.504 OA
ATOM     24  H   UNL     1     -15.319 -32.554 -14.652  1.00  0.00     0.293 HD
ENDBRANCH  20  23
ENDBRANCH  14  15
ENDBRANCH  12  14
ENDBRANCH   9  10
ENDBRANCH   1   9
TORSDOF 10
ENDMDL
MODEL 3
REMARK VINA RESULT:    -6.647      1.978      3.812
REMARK INTER + INTRA:         -11.763
REMARK INTER:                  -9.930
REMARK INTRA:                  -1.833
REMARK UNBOUND:                -1.424
REMARK SMILES COc1cc(CNC(=O)CCCCC=CC(C)C)ccc1O
REMARK SMILES IDX 11 1 12 2 13 3 14 4 15 5 16 6 17 7 18 8 10 9 8 10 9 11 7 12
REMARK SMILES IDX 6 14 5 15 4 16 19 17 3 18 20 19 21 20 2 21 1 22 22 23
REMARK H PARENT 7 13 22 24
REMARK Flexibility Score: inf
ROOT
ATOM      1  C   UNL     1     -14.701 -26.831  -8.639  1.00  0.00     0.010 C 
ENDROOT
BRANCH   1   2
ATOM      2  C   UNL     1     -13.657 -26.954  -7.520  1.00  0.00     0.005 C 
BRANCH   2   3
ATOM      3  C   UNL     1     -13.522 -28.391  -6.995  1.00  0.00     0.027 C 
BRANCH   3   4
ATOM      4  C   UNL     1     -14.201 -29.365  -7.919  1.00  0.00    -0.031 C 
ATOM      5  C   UNL     1     -13.504 -30.274  -8.619  1.00  0.00    -0.028 C 
BRANCH   5   6
ATOM      6  C   UNL     1     -14.193 -31.252  -9.540  1.00  0.00     0.005 C 
ATOM      7  C   UNL     1     -15.648 -31.468  -9.103  1.00  0.00     0.012 C 
ATOM      8  C   UNL     1     -13.437 -32.587  -9.564  1.00  0.00     0.012 C 
ENDBRANCH   5   6
ENDBRANCH   3   4
ENDBRANCH   2   3
ENDBRANCH   1   2
BRANCH   1   9
ATOM      9  C   UNL     1     -14.320 -25.783  -9.693  1.00  0.00     0.100 C 
BRANCH   9  10
ATOM     10  C   UNL     1     -14.155 -26.437 -11.030  1.00  0.00     0.220 C 
ATOM     11  O   UNL     1     -14.331 -25.757 -12.079  1.00  0.00    -0.275 OA
ATOM     12  N   UNL     1     -13.730 -27.804 -11.114  1.00  0.00    -0.352 N 
ATOM     13  H   UNL     1     -13.627 -28.356 -10.233  1.00  0.00     0.163 HD
BRANCH  12  14
ATOM     14  C   UNL     1     -13.248 -28.396 -12.358  1.00  0.00     0.151 C 
BRANCH  14  15
ATOM     15  C   UNL     1     -13.964 -29.694 -12.614  1.00  0.00    -0.025 A 
ATOM     16  C   UNL     1     -13.238 -30.829 -13.013  1.00  0.00     0.056 A 
ATOM     17  C   UNL     1     -15.362 -29.763 -12.530  1.00  0.00     0.009 A 
ATOM     18  C   UNL     1     -13.901 -32.039 -13.305  1.00  0.00     0.160 A 
ATOM     19  C   UNL     1     -16.025 -30.958 -12.819  1.00  0.00     0.050 A 
ATOM     20  C   UNL     1     -15.304 -32.094 -13.204  1.00  0.00     0.157 A 
BRANCH  18  21
ATOM     21  O   UNL     1     -13.203 -33.193 -13.700  1.00  0.00    -0.493 OA
ATOM     22  C   UNL     1     -11.797 -33.376 -13.556  1.00  0.00     0.278 C 
ENDBRANCH  18  21
BRANCH  20  23
ATOM     23  O   UNL     1     -16.001 -33.270 -13.485  1.00  0.00    -0.504 OA
ATOM     24  H   UNL     1     -15.631 -34.186 -13.256  1.00  0.00     0.293 HD
ENDBRANCH  20  23
ENDBRANCH  14  15
ENDBRANCH  12  14
ENDBRANCH   9  10
ENDBRANCH   1   9
TORSDOF 10
ENDMDL
MODEL 4
REMARK VINA RESULT:    -6.621      2.232      3.996
REMARK INTER + INTRA:         -11.721
REMARK INTER:                  -9.635
REMARK INTRA:                  -2.086
REMARK UNBOUND:                -1.424
REMARK SMILES COc1cc(CNC(=O)CCCCC=CC(C)C)ccc1O
REMARK SMILES IDX 11 1 12 2 13 3 14 4 15 5 16 6 17 7 18 8 10 9 8 10 9 11 7 12
REMARK SMILES IDX 6 14 5 15 4 16 19 17 3 18 20 19 21 20 2 21 1 22 22 23
REMARK H PARENT 7 13 22 24
REMARK Flexibility Score: inf
ROOT
ATOM      1  C   UNL     1     -12.138 -27.203  -6.736  1.00  0.00     0.010 C 
ENDROOT
BRANCH   1   2
ATOM      2  C   UNL     1     -13.021 -26.188  -7.476  1.00  0.00     0.005 C 
BRANCH   2   3
ATOM      3  C   UNL     1     -14.325 -26.813  -7.998  1.00  0.00     0.027 C 
BRANCH   3   4
ATOM      4  C   UNL     1     -14.360 -28.291  -7.721  1.00  0.00    -0.031 C 
ATOM      5  C   UNL     1     -14.504 -29.189  -8.708  1.00  0.00    -0.028 C 
BRANCH   5   6
ATOM      6  C   UNL     1     -14.534 -30.671  -8.424  1.00  0.00     0.005 C 
ATOM      7  C   UNL     1     -13.186 -31.313  -8.780  1.00  0.00     0.012 C 
ATOM      8  C   UNL     1     -15.670 -31.343  -9.205  1.00  0.00     0.012 C 
ENDBRANCH   5   6
ENDBRANCH   3   4
ENDBRANCH   2   3
ENDBRANCH   1   2
BRANCH   1   9
ATOM      9  C   UNL     1     -10.721 -27.291  -7.320  1.00  0.00     0.100 C 
BRANCH   9  10
ATOM     10  C   UNL     1     -10.680 -28.313  -8.414  1.00  0.00     0.220 C 
ATOM     11  O   UNL     1     -10.548 -29.533  -8.118  1.00  0.00    -0.275 OA
ATOM     12  N   UNL     1     -10.862 -27.912  -9.779  1.00  0.00    -0.352 N 
ATOM     13  H   UNL     1     -10.932 -26.894 -10.001  1.00  0.00     0.163 HD
BRANCH  12  14
ATOM     14  C   UNL     1     -11.149 -28.870 -10.841  1.00  0.00     0.151 C 
BRANCH  14  15
ATOM     15  C   UNL     1     -12.520 -28.610 -11.402  1.00  0.00    -0.025 A 
ATOM     16  C   UNL     1     -13.280 -29.673 -11.921  1.00  0.00     0.056 A 
ATOM     17  C   UNL     1     -13.020 -27.303 -11.481  1.00  0.00     0.009 A 
ATOM     18  C   UNL     1     -14.545 -29.438 -12.496  1.00  0.00     0.160 A 
ATOM     19  C   UNL     1     -14.273 -27.062 -12.050  1.00  0.00     0.050 A 
ATOM     20  C   UNL     1     -15.037 -28.120 -12.555  1.00  0.00     0.157 A 
BRANCH  18  21
ATOM     21  O   UNL     1     -15.331 -30.480 -13.017  1.00  0.00    -0.493 OA
ATOM     22  C   UNL     1     -15.078 -31.866 -12.805  1.00  0.00     0.278 C 
ENDBRANCH  18  21
BRANCH  20  23
ATOM     23  O   UNL     1     -16.284 -27.841 -13.117  1.00  0.00    -0.504 OA
ATOM     24  H   UNL     1     -17.128 -28.321 -12.825  1.00  0.00     0.293 HD
ENDBRANCH  20  23
ENDBRANCH  14  15
ENDBRANCH  12  14
ENDBRANCH   9  10
ENDBRANCH   1   9
TORSDOF 10
ENDMDL
MODEL 5
REMARK VINA RESULT:    -6.563      2.355      4.861
REMARK INTER + INTRA:         -11.631
REMARK INTER:                  -9.323
REMARK INTRA:                  -2.308
REMARK UNBOUND:                -1.424
REMARK SMILES COc1cc(CNC(=O)CCCCC=CC(C)C)ccc1O
REMARK SMILES IDX 11 1 12 2 13 3 14 4 15 5 16 6 17 7 18 8 10 9 8 10 9 11 7 12
REMARK SMILES IDX 6 14 5 15 4 16 19 17 3 18 20 19 21 20 2 21 1 22 22 23
REMARK H PARENT 7 13 22 24
REMARK Flexibility Score: inf
ROOT
ATOM      1  C   UNL     1     -12.630 -32.467  -9.071  1.00  0.00     0.010 C 
ENDROOT
BRANCH   1   2
ATOM      2  C   UNL     1     -13.960 -32.550  -9.833  1.00  0.00     0.005 C 
BRANCH   2   3
ATOM      3  C   UNL     1     -15.003 -31.551  -9.308  1.00  0.00     0.027 C 
BRANCH   3   4
ATOM      4  C   UNL     1     -14.364 -30.535  -8.401  1.00  0.00    -0.031 C 
ATOM      5  C   UNL     1     -14.840 -29.284  -8.299  1.00  0.00    -0.028 C 
BRANCH   5   6
ATOM      6  C   UNL     1     -14.197 -28.272  -7.383  1.00  0.00     0.005 C 
ATOM      7  C   UNL     1     -14.467 -26.846  -7.884  1.00  0.00     0.012 C 
ATOM      8  C   UNL     1     -12.687 -28.526  -7.281  1.00  0.00     0.012 C 
ENDBRANCH   5   6
ENDBRANCH   3   4
ENDBRANCH   2   3
ENDBRANCH   1   2
BRANCH   1   9
ATOM      9  C   UNL     1     -11.417 -32.774  -9.960  1.00  0.00     0.100 C 
BRANCH   9  10
ATOM     10  C   UNL     1     -10.899 -31.511 -10.574  1.00  0.00     0.220 C 
ATOM     11  O   UNL     1     -10.335 -31.556 -11.703  1.00  0.00    -0.275 OA
ATOM     12  N   UNL     1     -11.106 -30.253  -9.916  1.00  0.00    -0.352 N 
ATOM     13  H   UNL     1     -11.542 -30.246  -8.967  1.00  0.00     0.163 HD
BRANCH  12  14
ATOM     14  C   UNL     1     -10.917 -28.976 -10.597  1.00  0.00     0.151 C 
BRANCH  14  15
ATOM     15  C   UNL     1     -12.240 -28.466 -11.097  1.00  0.00    -0.025 A 
ATOM     16  C   UNL     1     -13.184 -29.364 -11.625  1.00  0.00     0.056 A 
ATOM     17  C   UNL     1     -12.513 -27.091 -11.111  1.00  0.00     0.009 A 
ATOM     18  C   UNL     1     -14.408 -28.895 -12.145  1.00  0.00     0.160 A 
ATOM     19  C   UNL     1     -13.723 -26.620 -11.625  1.00  0.00     0.050 A 
ATOM     20  C   UNL     1     -14.671 -27.512 -12.139  1.00  0.00     0.157 A 
BRANCH  18  21
ATOM     21  O   UNL     1     -15.375 -29.768 -12.673  1.00  0.00    -0.493 OA
ATOM     22  C   UNL     1     -15.114 -31.106 -13.088  1.00  0.00     0.278 C 
ENDBRANCH  18  21
BRANCH  20  23
ATOM     23  O   UNL     1     -15.869 -27.004 -12.644  1.00  0.00    -0.504 OA
ATOM     24  H   UNL     1     -15.961 -26.692 -13.604  1.00  0.00     0.293 HD
ENDBRANCH  20  23
ENDBRANCH  14  15
ENDBRANCH  12  14
ENDBRANCH   9  10
ENDBRANCH   1   9
TORSDOF 10
ENDMDL
MODEL 6
REMARK VINA RESULT:    -6.548      2.057      4.505
REMARK INTER + INTRA:         -11.609
REMARK INTER:                  -9.923
REMARK INTRA:                  -1.686
REMARK UNBOUND:                -1.424
REMARK SMILES COc1cc(CNC(=O)CCCCC=CC(C)C)ccc1O
REMARK SMILES IDX 11 1 12 2 13 3 14 4 15 5 16 6 17 7 18 8 10 9 8 10 9 11 7 12
REMARK SMILES IDX 6 14 5 15 4 16 19 17 3 18 20 19 21 20 2 21 1 22 22 23
REMARK H PARENT 7 13 22 24
REMARK Flexibility Score: inf
ROOT
ATOM      1  C   UNL     1     -11.085 -28.462  -7.392  1.00  0.00     0.010 C 
ENDROOT
BRANCH   1   2
ATOM      2  C   UNL     1     -10.943 -29.974  -7.622  1.00  0.00     0.005 C 
BRANCH   2   3
ATOM      3  C   UNL     1     -10.667 -30.322  -9.092  1.00  0.00     0.027 C 
BRANCH   3   4
ATOM      4  C   UNL     1     -11.924 -30.777  -9.782  1.00  0.00    -0.031 C 
ATOM      5  C   UNL     1     -13.053 -31.021  -9.098  1.00  0.00    -0.028 C 
BRANCH   5   6
ATOM      6  C   UNL     1     -14.312 -31.472  -9.797  1.00  0.00     0.005 C 
ATOM      7  C   UNL     1     -15.530 -31.287  -8.882  1.00  0.00     0.012 C 
ATOM      8  C   UNL     1     -14.187 -32.939 -10.231  1.00  0.00     0.012 C 
ENDBRANCH   5   6
ENDBRANCH   3   4
ENDBRANCH   2   3
ENDBRANCH   1   2
BRANCH   1   9
ATOM      9  C   UNL     1     -12.329 -28.103  -6.567  1.00  0.00     0.100 C 
BRANCH   9  10
ATOM     10  C   UNL     1     -13.483 -27.818  -7.478  1.00  0.00     0.220 C 
ATOM     11  O   UNL     1     -14.650 -28.137  -7.118  1.00  0.00    -0.275 OA
ATOM     12  N   UNL     1     -13.269 -27.124  -8.715  1.00  0.00    -0.352 N 
ATOM     13  H   UNL     1     -12.290 -26.904  -9.008  1.00  0.00     0.163 HD
BRANCH  12  14
ATOM     14  C   UNL     1     -14.365 -26.541  -9.482  1.00  0.00     0.151 C 
BRANCH  14  15
ATOM     15  C   UNL     1     -14.201 -26.878 -10.938  1.00  0.00    -0.025 A 
ATOM     16  C   UNL     1     -13.833 -28.180 -11.320  1.00  0.00     0.056 A 
ATOM     17  C   UNL     1     -14.341 -25.885 -11.919  1.00  0.00     0.009 A 
ATOM     18  C   UNL     1     -13.627 -28.498 -12.678  1.00  0.00     0.160 A 
ATOM     19  C   UNL     1     -14.138 -26.194 -13.265  1.00  0.00     0.050 A 
ATOM     20  C   UNL     1     -13.784 -27.492 -13.651  1.00  0.00     0.157 A 
BRANCH  18  21
ATOM     21  O   UNL     1     -13.264 -29.791 -13.093  1.00  0.00    -0.493 OA
ATOM     22  C   UNL     1     -14.187 -30.847 -13.344  1.00  0.00     0.278 C 
ENDBRANCH  18  21
BRANCH  20  23
ATOM     23  O   UNL     1     -13.588 -27.762 -15.006  1.00  0.00    -0.504 OA
ATOM     24  H   UNL     1     -12.950 -27.221 -15.578  1.00  0.00     0.293 HD
ENDBRANCH  20  23
ENDBRANCH  14  15
ENDBRANCH  12  14
ENDBRANCH   9  10
ENDBRANCH   1   9
TORSDOF 10
ENDMDL
MODEL 7
REMARK VINA RESULT:    -6.526      2.261      3.994
REMARK INTER + INTRA:         -11.574
REMARK INTER:                  -9.305
REMARK INTRA:                  -2.270
REMARK UNBOUND:                -1.424
REMARK SMILES COc1cc(CNC(=O)CCCCC=CC(C)C)ccc1O
REMARK SMILES IDX 11 1 12 2 13 3 14 4 15 5 16 6 17 7 18 8 10 9 8 10 9 11 7 12
REMARK SMILES IDX 6 14 5 15 4 16 19 17 3 18 20 19 21 20 2 21 1 22 22 23
REMARK H PARENT 7 13 22 24
REMARK Flexibility Score: inf
ROOT
ATOM      1  C   UNL     1     -14.992 -27.280  -7.628  1.00  0.00     0.010 C 
ENDROOT
BRANCH   1   2
ATOM      2  C   UNL     1     -14.081 -28.484  -7.351  1.00  0.00     0.005 C 
BRANCH   2   3
ATOM      3  C   UNL     1     -12.847 -28.109  -6.516  1.00  0.00     0.027 C 
BRANCH   3   4
ATOM      4  C   UNL     1     -11.595 -28.682  -7.121  1.00  0.00    -0.031 C 
ATOM      5  C   UNL     1     -11.641 -29.644  -8.055  1.00  0.00    -0.028 C 
BRANCH   5   6
ATOM      6  C   UNL     1     -10.380 -30.211  -8.662  1.00  0.00     0.005 C 
ATOM      7  C   UNL     1     -10.120 -29.586 -10.040  1.00  0.00     0.012 C 
ATOM      8  C   UNL     1     -10.481 -31.738  -8.777  1.00  0.00     0.012 C 
ENDBRANCH   5   6
ENDBRANCH   3   4
ENDBRANCH   2   3
ENDBRANCH   1   2
BRANCH   1   9
ATOM      9  C   UNL     1     -14.278 -26.162  -8.400  1.00  0.00     0.100 C 
BRANCH   9  10
ATOM     10  C   UNL     1     -13.820 -26.671  -9.732  1.00  0.00     0.220 C 
ATOM     11  O   UNL     1     -12.589 -26.662 -10.009  1.00  0.00    -0.275 OA
ATOM     12  N   UNL     1     -14.768 -27.229 -10.653  1.00  0.00    -0.352 N 
ATOM     13  H   UNL     1     -15.785 -27.191 -10.417  1.00  0.00     0.163 HD
BRANCH  12  14
ATOM     14  C   UNL     1     -14.359 -28.021 -11.809  1.00  0.00     0.151 C 
BRANCH  14  15
ATOM     15  C   UNL     1     -14.065 -29.432 -11.380  1.00  0.00    -0.025 A 
ATOM     16  C   UNL     1     -13.053 -30.165 -12.024  1.00  0.00     0.056 A 
ATOM     17  C   UNL     1     -14.843 -30.051 -10.391  1.00  0.00     0.009 A 
ATOM     18  C   UNL     1     -12.801 -31.505 -11.667  1.00  0.00     0.160 A 
ATOM     19  C   UNL     1     -14.599 -31.379 -10.034  1.00  0.00     0.050 A 
ATOM     20  C   UNL     1     -13.584 -32.107 -10.663  1.00  0.00     0.157 A 
BRANCH  18  21
ATOM     21  O   UNL     1     -11.792 -32.263 -12.286  1.00  0.00    -0.493 OA
ATOM     22  C   UNL     1     -11.879 -32.799 -13.603  1.00  0.00     0.278 C 
ENDBRANCH  18  21
BRANCH  20  23
ATOM     23  O   UNL     1     -13.369 -33.432 -10.279  1.00  0.00    -0.504 OA
ATOM     24  H   UNL     1     -13.958 -34.191 -10.605  1.00  0.00     0.293 HD
ENDBRANCH  20  23
ENDBRANCH  14  15
ENDBRANCH  12  14
ENDBRANCH   9  10
ENDBRANCH   1   9
TORSDOF 10
ENDMDL
MODEL 8
REMARK VINA RESULT:    -6.477      2.155      3.270
REMARK INTER + INTRA:         -11.499
REMARK INTER:                  -9.388
REMARK INTRA:                  -2.111
REMARK UNBOUND:                -1.424
REMARK SMILES COc1cc(CNC(=O)CCCCC=CC(C)C)ccc1O
REMARK SMILES IDX 11 1 12 2 13 3 14 4 15 5 16 6 17 7 18 8 10 9 8 10 9 11 7 12
REMARK SMILES IDX 6 14 5 15 4 16 19 17 3 18 20 19 21 20 2 21 1 22 22 23
REMARK H PARENT 7 13 22 24
REMARK Flexibility Score: inf
ROOT
ATOM      1  C   UNL     1     -11.168 -26.756  -8.062  1.00  0.00     0.010 C 
ENDROOT
BRANCH   1   2
ATOM      2  C   UNL     1     -11.378 -26.633  -9.578  1.00  0.00     0.005 C 
BRANCH   2   3
ATOM      3  C   UNL     1     -11.331 -27.994 -10.291  1.00  0.00     0.027 C 
BRANCH   3   4
ATOM      4  C   UNL     1     -12.577 -28.218 -11.102  1.00  0.00    -0.031 C 
ATOM      5  C   UNL     1     -13.590 -27.337 -11.096  1.00  0.00    -0.028 C 
BRANCH   5   6
ATOM      6  C   UNL     1     -14.835 -27.567 -11.917  1.00  0.00     0.005 C 
ATOM      7  C   UNL     1     -14.911 -29.028 -12.381  1.00  0.00     0.012 C 
ATOM      8  C   UNL     1     -14.862 -26.620 -13.124  1.00  0.00     0.012 C 
ENDBRANCH   5   6
ENDBRANCH   3   4
ENDBRANCH   2   3
ENDBRANCH   1   2
BRANCH   1   9
ATOM      9  C   UNL     1     -12.314 -26.133  -7.253  1.00  0.00     0.100 C 
BRANCH   9  10
ATOM     10  C   UNL     1     -13.596 -26.849  -7.546  1.00  0.00     0.220 C 
ATOM     11  O   UNL     1     -14.579 -26.200  -7.998  1.00  0.00    -0.275 OA
ATOM     12  N   UNL     1     -13.679 -28.272  -7.381  1.00  0.00    -0.352 N 
ATOM     13  H   UNL     1     -12.865 -28.781  -6.970  1.00  0.00     0.163 HD
BRANCH  12  14
ATOM     14  C   UNL     1     -14.772 -29.059  -7.942  1.00  0.00     0.151 C 
BRANCH  14  15
ATOM     15  C   UNL     1     -14.225 -30.313  -8.568  1.00  0.00    -0.025 A 
ATOM     16  C   UNL     1     -12.861 -30.625  -8.437  1.00  0.00     0.056 A 
ATOM     17  C   UNL     1     -15.051 -31.137  -9.346  1.00  0.00     0.009 A 
ATOM     18  C   UNL     1     -12.325 -31.771  -9.060  1.00  0.00     0.160 A 
ATOM     19  C   UNL     1     -14.525 -32.272  -9.967  1.00  0.00     0.050 A 
ATOM     20  C   UNL     1     -13.170 -32.594  -9.827  1.00  0.00     0.157 A 
BRANCH  18  21
ATOM     21  O   UNL     1     -10.967 -32.114  -8.943  1.00  0.00    -0.493 OA
ATOM     22  C   UNL     1     -10.098 -31.634  -7.921  1.00  0.00     0.278 C 
ENDBRANCH  18  21
BRANCH  20  23
ATOM     23  O   UNL     1     -12.681 -33.737 -10.463  1.00  0.00    -0.504 OA
ATOM     24  H   UNL     1     -12.615 -33.807 -11.472  1.00  0.00     0.293 HD
ENDBRANCH  20  23
ENDBRANCH  14  15
ENDBRANCH  12  14
ENDBRANCH   9  10
ENDBRANCH   1   9
TORSDOF 10
ENDMDL
MODEL 9
REMARK VINA RESULT:    -6.383      1.603      2.027
REMARK INTER + INTRA:         -11.351
REMARK INTER:                  -9.092
REMARK INTRA:                  -2.260
REMARK UNBOUND:                -1.424
REMARK SMILES COc1cc(CNC(=O)CCCCC=CC(C)C)ccc1O
REMARK SMILES IDX 11 1 12 2 13 3 14 4 15 5 16 6 17 7 18 8 10 9 8 10 9 11 7 12
REMARK SMILES IDX 6 14 5 15 4 16 19 17 3 18 20 19 21 20 2 21 1 22 22 23
REMARK H PARENT 7 13 22 24
REMARK Flexibility Score: inf
ROOT
ATOM      1  C   UNL     1     -11.565 -28.911  -8.084  1.00  0.00     0.010 C 
ENDROOT
BRANCH   1   2
ATOM      2  C   UNL     1     -11.493 -28.234  -9.461  1.00  0.00     0.005 C 
BRANCH   2   3
ATOM      3  C   UNL     1     -11.847 -29.194 -10.607  1.00  0.00     0.027 C 
BRANCH   3   4
ATOM      4  C   UNL     1     -12.542 -28.463 -11.724  1.00  0.00    -0.031 C 
ATOM      5  C   UNL     1     -13.582 -27.647 -11.491  1.00  0.00    -0.028 C 
BRANCH   5   6
ATOM      6  C   UNL     1     -14.271 -26.912 -12.615  1.00  0.00     0.005 C 
ATOM      7  C   UNL     1     -15.712 -27.415 -12.780  1.00  0.00     0.012 C 
ATOM      8  C   UNL     1     -13.490 -27.085 -13.925  1.00  0.00     0.012 C 
ENDBRANCH   5   6
ENDBRANCH   3   4
ENDBRANCH   2   3
ENDBRANCH   1   2
BRANCH   1   9
ATOM      9  C   UNL     1     -12.689 -28.345  -7.204  1.00  0.00     0.100 C 
BRANCH   9  10
ATOM     10  C   UNL     1     -14.022 -28.728  -7.767  1.00  0.00     0.220 C 
ATOM     11  O   UNL     1     -14.828 -27.824  -8.123  1.00  0.00    -0.275 OA
ATOM     12  N   UNL     1     -14.349 -30.111  -7.965  1.00  0.00    -0.352 N 
ATOM     13  H   UNL     1     -13.682 -30.841  -7.629  1.00  0.00     0.163 HD
BRANCH  12  14
ATOM     14  C   UNL     1     -15.476 -30.535  -8.790  1.00  0.00     0.151 C 
BRANCH  14  15
ATOM     15  C   UNL     1     -14.969 -31.194 -10.043  1.00  0.00    -0.025 A 
ATOM     16  C   UNL     1     -13.899 -32.103  -9.975  1.00  0.00     0.056 A 
ATOM     17  C   UNL     1     -15.506 -30.854 -11.293  1.00  0.00     0.009 A 
ATOM     18  C   UNL     1     -13.380 -32.690 -11.146  1.00  0.00     0.160 A 
ATOM     19  C   UNL     1     -14.995 -31.430 -12.458  1.00  0.00     0.050 A 
ATOM     20  C   UNL     1     -13.939 -32.346 -12.392  1.00  0.00     0.157 A 
BRANCH  18  21
ATOM     21  O   UNL     1     -12.315 -33.607 -11.111  1.00  0.00    -0.493 OA
ATOM     22  C   UNL     1     -10.937 -33.245 -11.124  1.00  0.00     0.278 C 
ENDBRANCH  18  21
BRANCH  20  23
ATOM     23  O   UNL     1     -13.455 -32.902 -13.578  1.00  0.00    -0.504 OA
ATOM     24  H   UNL     1     -13.967 -32.841 -14.451  1.00  0.00     0.293 HD
ENDBRANCH  20  23
ENDBRANCH  14  15
ENDBRANCH  12  14
ENDBRANCH   9  10
ENDBRANCH   1   9
TORSDOF 10
ENDMDL
