MODEL 1
REMARK VINA RESULT:    -4.141      0.000      0.000
REMARK INTER + INTRA:          -9.539
REMARK INTER:                  -8.014
REMARK INTRA:                  -1.525
REMARK UNBOUND:                -1.525
REMARK SMILES CCCCCCCCCCCCCCCCCC(=O)[O-]
REMARK SMILES IDX 10 1 11 2 12 3 13 4 14 5 15 6 16 7 17 8 18 9 19 10 20 11
REMARK SMILES IDX 9 12 8 13 7 14 6 15 5 16 4 17 3 18 2 19 1 20
REMARK H PARENT
REMARK Flexibility Score: inf
ROOT
ATOM      1  C   UNL     1      13.419  -9.508  18.848  1.00  0.00     0.000 C 
ENDROOT
BRANCH   1   2
ATOM      2  C   UNL     1      12.260  -9.992  17.956  1.00  0.00     0.000 C 
BRANCH   2   3
ATOM      3  C   UNL     1      12.664 -10.888  16.768  1.00  0.00     0.000 C 
BRANCH   3   4
ATOM      4  C   UNL     1      11.520 -11.774  16.224  1.00  0.00     0.000 C 
BRANCH   4   5
ATOM      5  C   UNL     1      10.733 -11.184  15.036  1.00  0.00     0.000 C 
BRANCH   5   6
ATOM      6  C   UNL     1      11.548 -10.324  14.050  1.00  0.00     0.000 C 
BRANCH   6   7
ATOM      7  C   UNL     1      11.019 -10.379  12.607  1.00  0.00     0.006 C 
BRANCH   7   8
ATOM      8  C   UNL     1      10.436  -9.032  12.158  1.00  0.00     0.053 C 
BRANCH   8   9
ATOM      9  C   UNL     1       9.377  -9.208  11.113  1.00  0.00     0.041 C 
ATOM     10  O   UNL     1       9.523  -8.700   9.969  1.00  0.00    -0.550 OA
ATOM     11  O   UNL     1       8.246  -9.965  11.390  1.00  0.00    -0.550 OA
ENDBRANCH   8   9
ENDBRANCH   7   8
ENDBRANCH   6   7
ENDBRANCH   5   6
ENDBRANCH   4   5
ENDBRANCH   3   4
ENDBRANCH   2   3
ENDBRANCH   1   2
BRANCH   1  12
ATOM     12  C   UNL     1      13.522 -10.193  20.224  1.00  0.00     0.000 C 
BRANCH  12  13
ATOM     13  C   UNL     1      14.194 -11.575  20.166  1.00  0.00    -0.000 C 
BRANCH  13  14
ATOM     14  C   UNL     1      14.180 -12.292  21.526  1.00  0.00    -0.000 C 
BRANCH  14  15
ATOM     15  C   UNL     1      14.527 -13.787  21.406  1.00  0.00    -0.000 C 
BRANCH  15  16
ATOM     16  C   UNL     1      13.282 -14.670  21.222  1.00  0.00    -0.000 C 
BRANCH  16  17
ATOM     17  C   UNL     1      12.230 -14.448  22.323  1.00  0.00    -0.000 C 
BRANCH  17  18
ATOM     18  C   UNL     1      10.823 -14.206  21.754  1.00  0.00    -0.000 C 
BRANCH  18  19
ATOM     19  C   UNL     1      10.819 -14.086  20.222  1.00  0.00    -0.003 C 
ATOM     20  C   UNL     1      10.544 -12.650  19.785  1.00  0.00     0.004 C 
ENDBRANCH  18  19
ENDBRANCH  17  18
ENDBRANCH  16  17
ENDBRANCH  15  16
ENDBRANCH  14  15
ENDBRANCH  13  14
ENDBRANCH  12  13
ENDBRANCH   1  12
TORSDOF 16
ENDMDL
MODEL 2
REMARK VINA RESULT:    -4.083      3.712      4.442
REMARK INTER + INTRA:          -9.428
REMARK INTER:                  -6.368
REMARK INTRA:                  -3.060
REMARK UNBOUND:                -1.525
REMARK SMILES CCCCCCCCCCCCCCCCCC(=O)[O-]
REMARK SMILES IDX 10 1 11 2 12 3 13 4 14 5 15 6 16 7 17 8 18 9 19 10 20 11
REMARK SMILES IDX 9 12 8 13 7 14 6 15 5 16 4 17 3 18 2 19 1 20
REMARK H PARENT
REMARK Flexibility Score: inf
ROOT
ATOM      1  C   UNL     1      14.231 -10.772  19.722  1.00  0.00     0.000 C 
ENDROOT
BRANCH   1   2
ATOM      2  C   UNL     1      13.946  -9.893  18.489  1.00  0.00     0.000 C 
BRANCH   2   3
ATOM      3  C   UNL     1      12.477  -9.463  18.302  1.00  0.00     0.000 C 
BRANCH   3   4
ATOM      4  C   UNL     1      11.852  -9.907  16.960  1.00  0.00     0.000 C 
BRANCH   4   5
ATOM      5  C   UNL     1      12.512 -11.132  16.294  1.00  0.00     0.000 C 
BRANCH   5   6
ATOM      6  C   UNL     1      11.858 -12.494  16.598  1.00  0.00     0.000 C 
BRANCH   6   7
ATOM      7  C   UNL     1      12.701 -13.384  17.526  1.00  0.00     0.006 C 
BRANCH   7   8
ATOM      8  C   UNL     1      14.172 -13.437  17.092  1.00  0.00     0.053 C 
BRANCH   8   9
ATOM      9  C   UNL     1      14.394 -14.449  16.008  1.00  0.00     0.041 C 
ATOM     10  O   UNL     1      15.346 -14.309  15.195  1.00  0.00    -0.550 OA
ATOM     11  O   UNL     1      13.572 -15.565  15.921  1.00  0.00    -0.550 OA
ENDBRANCH   8   9
ENDBRANCH   7   8
ENDBRANCH   6   7
ENDBRANCH   5   6
ENDBRANCH   4   5
ENDBRANCH   3   4
ENDBRANCH   2   3
ENDBRANCH   1   2
BRANCH   1  12
ATOM     12  C   UNL     1      13.230 -10.621  20.883  1.00  0.00     0.000 C 
BRANCH  12  13
ATOM     13  C   UNL     1      13.239 -11.815  21.852  1.00  0.00    -0.000 C 
BRANCH  13  14
ATOM     14  C   UNL     1      13.673 -13.122  21.168  1.00  0.00    -0.000 C 
BRANCH  14  15
ATOM     15  C   UNL     1      12.994 -14.360  21.781  1.00  0.00    -0.000 C 
BRANCH  15  16
ATOM     16  C   UNL     1      12.313 -15.244  20.725  1.00  0.00    -0.000 C 
BRANCH  16  17
ATOM     17  C   UNL     1      10.874 -14.797  20.415  1.00  0.00    -0.000 C 
BRANCH  17  18
ATOM     18  C   UNL     1      10.197 -14.114  21.614  1.00  0.00    -0.000 C 
BRANCH  18  19
ATOM     19  C   UNL     1       9.632 -12.730  21.263  1.00  0.00    -0.003 C 
ATOM     20  C   UNL     1      10.053 -12.305  19.860  1.00  0.00     0.004 C 
ENDBRANCH  18  19
ENDBRANCH  17  18
ENDBRANCH  16  17
ENDBRANCH  15  16
ENDBRANCH  14  15
ENDBRANCH  13  14
ENDBRANCH  12  13
ENDBRANCH   1  12
TORSDOF 16
ENDMDL
MODEL 3
REMARK VINA RESULT:    -4.047      4.022      4.787
REMARK INTER + INTRA:          -9.357
REMARK INTER:                  -6.125
REMARK INTRA:                  -3.232
REMARK UNBOUND:                -1.525
REMARK SMILES CCCCCCCCCCCCCCCCCC(=O)[O-]
REMARK SMILES IDX 10 1 11 2 12 3 13 4 14 5 15 6 16 7 17 8 18 9 19 10 20 11
REMARK SMILES IDX 9 12 8 13 7 14 6 15 5 16 4 17 3 18 2 19 1 20
REMARK H PARENT
REMARK Flexibility Score: inf
ROOT
ATOM      1  C   UNL     1      13.781 -10.423  20.378  1.00  0.00     0.000 C 
ENDROOT
BRANCH   1   2
ATOM      2  C   UNL     1      13.877  -9.699  19.021  1.00  0.00     0.000 C 
BRANCH   2   3
ATOM      3  C   UNL     1      14.179 -10.599  17.806  1.00  0.00     0.000 C 
BRANCH   3   4
ATOM      4  C   UNL     1      13.089 -10.573  16.710  1.00  0.00     0.000 C 
BRANCH   4   5
ATOM      5  C   UNL     1      11.638 -10.467  17.221  1.00  0.00     0.000 C 
BRANCH   5   6
ATOM      6  C   UNL     1      10.921 -11.805  17.487  1.00  0.00     0.000 C 
BRANCH   6   7
ATOM      7  C   UNL     1       9.916 -11.740  18.650  1.00  0.00     0.006 C 
BRANCH   7   8
ATOM      8  C   UNL     1      10.050 -10.441  19.454  1.00  0.00     0.053 C 
BRANCH   8   9
ATOM      9  C   UNL     1       8.802 -10.134  20.224  1.00  0.00     0.041 C 
ATOM     10  O   UNL     1       8.639  -8.998  20.742  1.00  0.00    -0.550 OA
ATOM     11  O   UNL     1       7.802 -11.091  20.336  1.00  0.00    -0.550 OA
ENDBRANCH   8   9
ENDBRANCH   7   8
ENDBRANCH   6   7
ENDBRANCH   5   6
ENDBRANCH   4   5
ENDBRANCH   3   4
ENDBRANCH   2   3
ENDBRANCH   1   2
BRANCH   1  12
ATOM     12  C   UNL     1      13.358 -11.903  20.306  1.00  0.00     0.000 C 
BRANCH  12  13
ATOM     13  C   UNL     1      14.480 -12.875  20.704  1.00  0.00    -0.000 C 
BRANCH  13  14
ATOM     14  C   UNL     1      14.553 -14.099  19.776  1.00  0.00    -0.000 C 
BRANCH  14  15
ATOM     15  C   UNL     1      13.420 -14.114  18.733  1.00  0.00    -0.000 C 
BRANCH  15  16
ATOM     16  C   UNL     1      12.685 -15.463  18.679  1.00  0.00    -0.000 C 
BRANCH  16  17
ATOM     17  C   UNL     1      12.016 -15.828  20.016  1.00  0.00    -0.000 C 
BRANCH  17  18
ATOM     18  C   UNL     1      10.896 -14.849  20.402  1.00  0.00    -0.000 C 
BRANCH  18  19
ATOM     19  C   UNL     1      11.019 -14.354  21.851  1.00  0.00    -0.003 C 
ATOM     20  C   UNL     1      10.124 -13.143  22.095  1.00  0.00     0.004 C 
ENDBRANCH  18  19
ENDBRANCH  17  18
ENDBRANCH  16  17
ENDBRANCH  15  16
ENDBRANCH  14  15
ENDBRANCH  13  14
ENDBRANCH  12  13
ENDBRANCH   1  12
TORSDOF 16
ENDMDL
MODEL 4
REMARK VINA RESULT:    -4.033      4.327      6.479
REMARK INTER + INTRA:          -9.329
REMARK INTER:                  -6.290
REMARK INTRA:                  -3.039
REMARK UNBOUND:                -1.525
REMARK SMILES CCCCCCCCCCCCCCCCCC(=O)[O-]
REMARK SMILES IDX 10 1 11 2 12 3 13 4 14 5 15 6 16 7 17 8 18 9 19 10 20 11
REMARK SMILES IDX 9 12 8 13 7 14 6 15 5 16 4 17 3 18 2 19 1 20
REMARK H PARENT
REMARK Flexibility Score: inf
ROOT
ATOM      1  C   UNL     1      14.176 -10.207  18.122  1.00  0.00     0.000 C 
ENDROOT
BRANCH   1   2
ATOM      2  C   UNL     1      13.407  -9.297  19.099  1.00  0.00     0.000 C 
BRANCH   2   3
ATOM      3  C   UNL     1      13.635  -9.584  20.597  1.00  0.00     0.000 C 
BRANCH   3   4
ATOM      4  C   UNL     1      13.326 -11.039  21.019  1.00  0.00     0.000 C 
BRANCH   4   5
ATOM      5  C   UNL     1      14.554 -11.959  21.171  1.00  0.00     0.000 C 
BRANCH   5   6
ATOM      6  C   UNL     1      14.272 -13.473  21.098  1.00  0.00     0.000 C 
BRANCH   6   7
ATOM      7  C   UNL     1      14.666 -14.104  19.752  1.00  0.00     0.006 C 
BRANCH   7   8
ATOM      8  C   UNL     1      13.775 -15.301  19.395  1.00  0.00     0.053 C 
BRANCH   8   9
ATOM      9  C   UNL     1      14.042 -15.796  18.006  1.00  0.00     0.041 C 
ATOM     10  O   UNL     1      13.280 -16.650  17.479  1.00  0.00    -0.550 OA
ATOM     11  O   UNL     1      15.110 -15.286  17.280  1.00  0.00    -0.550 OA
ENDBRANCH   8   9
ENDBRANCH   7   8
ENDBRANCH   6   7
ENDBRANCH   5   6
ENDBRANCH   4   5
ENDBRANCH   3   4
ENDBRANCH   2   3
ENDBRANCH   1   2
BRANCH   1  12
ATOM     12  C   UNL     1      13.362 -10.715  16.917  1.00  0.00     0.000 C 
BRANCH  12  13
ATOM     13  C   UNL     1      13.330 -12.248  16.809  1.00  0.00    -0.000 C 
BRANCH  13  14
ATOM     14  C   UNL     1      11.987 -12.841  17.266  1.00  0.00    -0.000 C 
BRANCH  14  15
ATOM     15  C   UNL     1      10.906 -11.762  17.465  1.00  0.00    -0.000 C 
BRANCH  15  16
ATOM     16  C   UNL     1      10.250 -11.834  18.853  1.00  0.00    -0.000 C 
BRANCH  16  17
ATOM     17  C   UNL     1      10.652 -13.097  19.635  1.00  0.00    -0.000 C 
BRANCH  17  18
ATOM     18  C   UNL     1      10.145 -13.078  21.086  1.00  0.00    -0.000 C 
BRANCH  18  19
ATOM     19  C   UNL     1      10.895 -14.073  21.985  1.00  0.00    -0.003 C 
ATOM     20  C   UNL     1      11.118 -13.493  23.378  1.00  0.00     0.004 C 
ENDBRANCH  18  19
ENDBRANCH  17  18
ENDBRANCH  16  17
ENDBRANCH  15  16
ENDBRANCH  14  15
ENDBRANCH  13  14
ENDBRANCH  12  13
ENDBRANCH   1  12
TORSDOF 16
ENDMDL
MODEL 5
REMARK VINA RESULT:    -3.990      4.466      6.656
REMARK INTER + INTRA:          -9.247
REMARK INTER:                  -5.946
REMARK INTRA:                  -3.301
REMARK UNBOUND:                -1.525
REMARK SMILES CCCCCCCCCCCCCCCCCC(=O)[O-]
REMARK SMILES IDX 10 1 11 2 12 3 13 4 14 5 15 6 16 7 17 8 18 9 19 10 20 11
REMARK SMILES IDX 9 12 8 13 7 14 6 15 5 16 4 17 3 18 2 19 1 20
REMARK H PARENT
REMARK Flexibility Score: inf
ROOT
ATOM      1  C   UNL     1      12.480  -9.144  18.611  1.00  0.00     0.000 C 
ENDROOT
BRANCH   1   2
ATOM      2  C   UNL     1      13.777  -9.960  18.768  1.00  0.00     0.000 C 
BRANCH   2   3
ATOM      3  C   UNL     1      13.756 -11.038  19.870  1.00  0.00     0.000 C 
BRANCH   3   4
ATOM      4  C   UNL     1      12.430 -11.113  20.661  1.00  0.00     0.000 C 
BRANCH   4   5
ATOM      5  C   UNL     1      11.748 -12.496  20.682  1.00  0.00     0.000 C 
BRANCH   5   6
ATOM      6  C   UNL     1      10.480 -12.634  19.816  1.00  0.00     0.000 C 
BRANCH   6   7
ATOM      7  C   UNL     1       9.549 -11.413  19.896  1.00  0.00     0.006 C 
BRANCH   7   8
ATOM      8  C   UNL     1       8.312 -11.690  20.760  1.00  0.00     0.053 C 
BRANCH   8   9
ATOM      9  C   UNL     1       8.528 -11.281  22.186  1.00  0.00     0.041 C 
ATOM     10  O   UNL     1       8.968 -12.113  23.024  1.00  0.00    -0.550 OA
ATOM     11  O   UNL     1       8.282  -9.973  22.579  1.00  0.00    -0.550 OA
ENDBRANCH   8   9
ENDBRANCH   7   8
ENDBRANCH   6   7
ENDBRANCH   5   6
ENDBRANCH   4   5
ENDBRANCH   3   4
ENDBRANCH   2   3
ENDBRANCH   1   2
BRANCH   1  12
ATOM     12  C   UNL     1      11.628  -9.494  17.376  1.00  0.00     0.000 C 
BRANCH  12  13
ATOM     13  C   UNL     1      12.284 -10.543  16.463  1.00  0.00    -0.000 C 
BRANCH  13  14
ATOM     14  C   UNL     1      11.380 -11.766  16.231  1.00  0.00    -0.000 C 
BRANCH  14  15
ATOM     15  C   UNL     1      12.064 -13.086  16.629  1.00  0.00    -0.000 C 
BRANCH  15  16
ATOM     16  C   UNL     1      13.598 -12.985  16.616  1.00  0.00    -0.000 C 
BRANCH  16  17
ATOM     17  C   UNL     1      14.262 -13.891  17.668  1.00  0.00    -0.000 C 
BRANCH  17  18
ATOM     18  C   UNL     1      13.264 -14.851  18.334  1.00  0.00    -0.000 C 
BRANCH  18  19
ATOM     19  C   UNL     1      13.864 -15.579  19.546  1.00  0.00    -0.003 C 
ATOM     20  C   UNL     1      14.795 -14.661  20.332  1.00  0.00     0.004 C 
ENDBRANCH  18  19
ENDBRANCH  17  18
ENDBRANCH  16  17
ENDBRANCH  15  16
ENDBRANCH  14  15
ENDBRANCH  13  14
ENDBRANCH  12  13
ENDBRANCH   1  12
TORSDOF 16
ENDMDL
MODEL 6
REMARK VINA RESULT:    -3.949      3.707      6.654
REMARK INTER + INTRA:          -9.168
REMARK INTER:                  -6.400
REMARK INTRA:                  -2.768
REMARK UNBOUND:                -1.525
REMARK SMILES CCCCCCCCCCCCCCCCCC(=O)[O-]
REMARK SMILES IDX 10 1 11 2 12 3 13 4 14 5 15 6 16 7 17 8 18 9 19 10 20 11
REMARK SMILES IDX 9 12 8 13 7 14 6 15 5 16 4 17 3 18 2 19 1 20
REMARK H PARENT
REMARK Flexibility Score: inf
ROOT
ATOM      1  C   UNL     1      10.420 -13.001  20.297  1.00  0.00     0.000 C 
ENDROOT
BRANCH   1   2
ATOM      2  C   UNL     1      10.810 -14.251  21.110  1.00  0.00     0.000 C 
BRANCH   2   3
ATOM      3  C   UNL     1      11.003 -15.543  20.292  1.00  0.00     0.000 C 
BRANCH   3   4
ATOM      4  C   UNL     1      12.421 -16.151  20.390  1.00  0.00     0.000 C 
BRANCH   4   5
ATOM      5  C   UNL     1      13.563 -15.136  20.605  1.00  0.00     0.000 C 
BRANCH   5   6
ATOM      6  C   UNL     1      14.728 -15.213  19.599  1.00  0.00     0.000 C 
BRANCH   6   7
ATOM      7  C   UNL     1      14.593 -14.223  18.429  1.00  0.00     0.006 C 
BRANCH   7   8
ATOM      8  C   UNL     1      13.828 -14.832  17.247  1.00  0.00     0.053 C 
BRANCH   8   9
ATOM      9  C   UNL     1      14.643 -14.809  15.989  1.00  0.00     0.041 C 
ATOM     10  O   UNL     1      15.026 -13.712  15.501  1.00  0.00    -0.550 OA
ATOM     11  O   UNL     1      15.012 -16.000  15.377  1.00  0.00    -0.550 OA
ENDBRANCH   8   9
ENDBRANCH   7   8
ENDBRANCH   6   7
ENDBRANCH   5   6
ENDBRANCH   4   5
ENDBRANCH   3   4
ENDBRANCH   2   3
ENDBRANCH   1   2
BRANCH   1  12
ATOM     12  C   UNL     1      11.140 -12.845  18.944  1.00  0.00     0.000 C 
BRANCH  12  13
ATOM     13  C   UNL     1      10.613 -11.667  18.109  1.00  0.00    -0.000 C 
BRANCH  13  14
ATOM     14  C   UNL     1      11.304 -11.563  16.739  1.00  0.00    -0.000 C 
BRANCH  14  15
ATOM     15  C   UNL     1      12.376 -10.458  16.703  1.00  0.00    -0.000 C 
BRANCH  15  16
ATOM     16  C   UNL     1      13.709 -10.909  17.320  1.00  0.00    -0.000 C 
BRANCH  16  17
ATOM     17  C   UNL     1      14.349  -9.825  18.206  1.00  0.00    -0.000 C 
BRANCH  17  18
ATOM     18  C   UNL     1      13.838  -9.869  19.654  1.00  0.00    -0.000 C 
BRANCH  18  19
ATOM     19  C   UNL     1      14.228 -11.166  20.379  1.00  0.00    -0.003 C 
ATOM     20  C   UNL     1      13.380 -11.372  21.630  1.00  0.00     0.004 C 
ENDBRANCH  18  19
ENDBRANCH  17  18
ENDBRANCH  16  17
ENDBRANCH  15  16
ENDBRANCH  14  15
ENDBRANCH  13  14
ENDBRANCH  12  13
ENDBRANCH   1  12
TORSDOF 16
ENDMDL
MODEL 7
REMARK VINA RESULT:    -3.945      4.075      6.668
REMARK INTER + INTRA:          -9.160
REMARK INTER:                  -6.110
REMARK INTRA:                  -3.050
REMARK UNBOUND:                -1.525
REMARK SMILES CCCCCCCCCCCCCCCCCC(=O)[O-]
REMARK SMILES IDX 10 1 11 2 12 3 13 4 14 5 15 6 16 7 17 8 18 9 19 10 20 11
REMARK SMILES IDX 9 12 8 13 7 14 6 15 5 16 4 17 3 18 2 19 1 20
REMARK H PARENT
REMARK Flexibility Score: inf
ROOT
ATOM      1  C   UNL     1      13.299 -11.421  20.491  1.00  0.00     0.000 C 
ENDROOT
BRANCH   1   2
ATOM      2  C   UNL     1      12.531 -10.886  21.714  1.00  0.00     0.000 C 
BRANCH   2   3
ATOM      3  C   UNL     1      11.517 -11.862  22.344  1.00  0.00     0.000 C 
BRANCH   3   4
ATOM      4  C   UNL     1      11.828 -13.354  22.087  1.00  0.00     0.000 C 
BRANCH   4   5
ATOM      5  C   UNL     1      10.633 -14.209  21.621  1.00  0.00     0.000 C 
BRANCH   5   6
ATOM      6  C   UNL     1      10.910 -15.167  20.445  1.00  0.00     0.000 C 
BRANCH   6   7
ATOM      7  C   UNL     1      12.404 -15.298  20.102  1.00  0.00     0.006 C 
BRANCH   7   8
ATOM      8  C   UNL     1      12.730 -14.708  18.724  1.00  0.00     0.053 C 
BRANCH   8   9
ATOM      9  C   UNL     1      14.165 -14.284  18.629  1.00  0.00     0.041 C 
ATOM     10  O   UNL     1      14.571 -13.639  17.626  1.00  0.00    -0.550 OA
ATOM     11  O   UNL     1      15.044 -14.568  19.666  1.00  0.00    -0.550 OA
ENDBRANCH   8   9
ENDBRANCH   7   8
ENDBRANCH   6   7
ENDBRANCH   5   6
ENDBRANCH   4   5
ENDBRANCH   3   4
ENDBRANCH   2   3
ENDBRANCH   1   2
BRANCH   1  12
ATOM     12  C   UNL     1      14.184 -10.390  19.765  1.00  0.00     0.000 C 
BRANCH  12  13
ATOM     13  C   UNL     1      13.412  -9.544  18.739  1.00  0.00    -0.000 C 
BRANCH  13  14
ATOM     14  C   UNL     1      13.095 -10.327  17.454  1.00  0.00    -0.000 C 
BRANCH  14  15
ATOM     15  C   UNL     1      11.583 -10.408  17.173  1.00  0.00    -0.000 C 
BRANCH  15  16
ATOM     16  C   UNL     1      11.009 -11.810  17.429  1.00  0.00    -0.000 C 
BRANCH  16  17
ATOM     17  C   UNL     1      10.101 -11.862  18.671  1.00  0.00    -0.000 C 
BRANCH  17  18
ATOM     18  C   UNL     1       9.815 -10.468  19.251  1.00  0.00    -0.000 C 
BRANCH  18  19
ATOM     19  C   UNL     1       8.433 -10.377  19.914  1.00  0.00    -0.003 C 
ATOM     20  C   UNL     1       8.174 -11.584  20.810  1.00  0.00     0.004 C 
ENDBRANCH  18  19
ENDBRANCH  17  18
ENDBRANCH  16  17
ENDBRANCH  15  16
ENDBRANCH  14  15
ENDBRANCH  13  14
ENDBRANCH  12  13
ENDBRANCH   1  12
TORSDOF 16
ENDMDL
MODEL 8
REMARK VINA RESULT:    -3.932      4.303      7.101
REMARK INTER + INTRA:          -9.136
REMARK INTER:                  -6.010
REMARK INTRA:                  -3.125
REMARK UNBOUND:                -1.525
REMARK SMILES CCCCCCCCCCCCCCCCCC(=O)[O-]
REMARK SMILES IDX 10 1 11 2 12 3 13 4 14 5 15 6 16 7 17 8 18 9 19 10 20 11
REMARK SMILES IDX 9 12 8 13 7 14 6 15 5 16 4 17 3 18 2 19 1 20
REMARK H PARENT
REMARK Flexibility Score: inf
ROOT
ATOM      1  C   UNL     1      14.621 -12.969  20.882  1.00  0.00     0.000 C 
ENDROOT
BRANCH   1   2
ATOM      2  C   UNL     1      13.660 -13.763  19.977  1.00  0.00     0.000 C 
BRANCH   2   3
ATOM      3  C   UNL     1      12.805 -14.832  20.688  1.00  0.00     0.000 C 
BRANCH   3   4
ATOM      4  C   UNL     1      11.320 -14.845  20.260  1.00  0.00     0.000 C 
BRANCH   4   5
ATOM      5  C   UNL     1      10.312 -14.434  21.353  1.00  0.00     0.000 C 
BRANCH   5   6
ATOM      6  C   UNL     1      10.901 -13.679  22.561  1.00  0.00     0.000 C 
BRANCH   6   7
ATOM      7  C   UNL     1       9.889 -12.754  23.258  1.00  0.00     0.006 C 
BRANCH   7   8
ATOM      8  C   UNL     1       9.693 -11.439  22.493  1.00  0.00     0.053 C 
BRANCH   8   9
ATOM      9  C   UNL     1       8.287 -11.293  21.994  1.00  0.00     0.041 C 
ATOM     10  O   UNL     1       7.484 -12.262  22.067  1.00  0.00    -0.550 OA
ATOM     11  O   UNL     1       7.853 -10.077  21.483  1.00  0.00    -0.550 OA
ENDBRANCH   8   9
ENDBRANCH   7   8
ENDBRANCH   6   7
ENDBRANCH   5   6
ENDBRANCH   4   5
ENDBRANCH   3   4
ENDBRANCH   2   3
ENDBRANCH   1   2
BRANCH   1  12
ATOM     12  C   UNL     1      13.954 -11.915  21.786  1.00  0.00     0.000 C 
BRANCH  12  13
ATOM     13  C   UNL     1      13.049 -10.939  21.015  1.00  0.00    -0.000 C 
BRANCH  13  14
ATOM     14  C   UNL     1      13.830  -9.745  20.440  1.00  0.00    -0.000 C 
BRANCH  14  15
ATOM     15  C   UNL     1      13.429  -9.425  18.989  1.00  0.00    -0.000 C 
BRANCH  15  16
ATOM     16  C   UNL     1      14.295 -10.168  17.959  1.00  0.00    -0.000 C 
BRANCH  16  17
ATOM     17  C   UNL     1      13.530 -11.294  17.242  1.00  0.00    -0.000 C 
BRANCH  17  18
ATOM     18  C   UNL     1      12.022 -11.014  17.146  1.00  0.00    -0.000 C 
BRANCH  18  19
ATOM     19  C   UNL     1      11.172 -12.156  17.723  1.00  0.00    -0.003 C 
ATOM     20  C   UNL     1      10.180 -11.634  18.758  1.00  0.00     0.004 C 
ENDBRANCH  18  19
ENDBRANCH  17  18
ENDBRANCH  16  17
ENDBRANCH  15  16
ENDBRANCH  14  15
ENDBRANCH  13  14
ENDBRANCH  12  13
ENDBRANCH   1  12
TORSDOF 16
ENDMDL
MODEL 9
REMARK VINA RESULT:    -3.907      4.223      7.036
REMARK INTER + INTRA:          -9.086
REMARK INTER:                  -5.909
REMARK INTRA:                  -3.177
REMARK UNBOUND:                -1.525
REMARK SMILES CCCCCCCCCCCCCCCCCC(=O)[O-]
REMARK SMILES IDX 10 1 11 2 12 3 13 4 14 5 15 6 16 7 17 8 18 9 19 10 20 11
REMARK SMILES IDX 9 12 8 13 7 14 6 15 5 16 4 17 3 18 2 19 1 20
REMARK H PARENT
REMARK Flexibility Score: inf
ROOT
ATOM      1  C   UNL     1      12.461 -12.256  23.320  1.00  0.00     0.000 C 
ENDROOT
BRANCH   1   2
ATOM      2  C   UNL     1      11.498 -13.459  23.320  1.00  0.00     0.000 C 
BRANCH   2   3
ATOM      3  C   UNL     1      11.555 -14.358  22.069  1.00  0.00     0.000 C 
BRANCH   3   4
ATOM      4  C   UNL     1      10.356 -14.185  21.108  1.00  0.00     0.000 C 
BRANCH   4   5
ATOM      5  C   UNL     1      10.500 -13.057  20.066  1.00  0.00     0.000 C 
BRANCH   5   6
ATOM      6  C   UNL     1       9.440 -11.940  20.135  1.00  0.00     0.000 C 
BRANCH   6   7
ATOM      7  C   UNL     1       9.835 -10.778  21.062  1.00  0.00     0.006 C 
BRANCH   7   8
ATOM      8  C   UNL     1       9.065 -10.814  22.389  1.00  0.00     0.053 C 
BRANCH   8   9
ATOM      9  C   UNL     1       7.601 -11.057  22.173  1.00  0.00     0.041 C 
ATOM     10  O   UNL     1       7.066 -12.118  22.591  1.00  0.00    -0.550 OA
ATOM     11  O   UNL     1       6.822 -10.094  21.545  1.00  0.00    -0.550 OA
ENDBRANCH   8   9
ENDBRANCH   7   8
ENDBRANCH   6   7
ENDBRANCH   5   6
ENDBRANCH   4   5
ENDBRANCH   3   4
ENDBRANCH   2   3
ENDBRANCH   1   2
BRANCH   1  12
ATOM     12  C   UNL     1      13.587 -12.314  22.270  1.00  0.00     0.000 C 
BRANCH  12  13
ATOM     13  C   UNL     1      13.538 -11.155  21.262  1.00  0.00    -0.000 C 
BRANCH  13  14
ATOM     14  C   UNL     1      13.829 -11.615  19.824  1.00  0.00    -0.000 C 
BRANCH  14  15
ATOM     15  C   UNL     1      13.885 -10.440  18.830  1.00  0.00    -0.000 C 
BRANCH  15  16
ATOM     16  C   UNL     1      12.826  -9.366  19.124  1.00  0.00    -0.000 C 
BRANCH  16  17
ATOM     17  C   UNL     1      11.647  -9.410  18.137  1.00  0.00    -0.000 C 
BRANCH  17  18
ATOM     18  C   UNL     1      11.976 -10.198  16.859  1.00  0.00    -0.000 C 
BRANCH  18  19
ATOM     19  C   UNL     1      11.044 -11.401  16.651  1.00  0.00    -0.003 C 
ATOM     20  C   UNL     1      11.827 -12.710  16.658  1.00  0.00     0.004 C 
ENDBRANCH  18  19
ENDBRANCH  17  18
ENDBRANCH  16  17
ENDBRANCH  15  16
ENDBRANCH  14  15
ENDBRANCH  13  14
ENDBRANCH  12  13
ENDBRANCH   1  12
TORSDOF 16
ENDMDL
