MODEL 1
REMARK VINA RESULT:    -4.219      0.000      0.000
REMARK INTER + INTRA:          -4.859
REMARK INTER:                  -4.836
REMARK INTRA:                  -0.023
REMARK UNBOUND:                -0.023
REMARK SMILES CC(C)[C@@H]([NH3+])C(=O)[O-]
REMARK SMILES IDX 4 1 5 2 6 6 7 7 8 8 2 9 1 10 3 11
REMARK H PARENT 5 3 5 4 5 5
REMARK Flexibility Score: inf
ROOT
ATOM      1  C   UNL     1     -32.118  53.197 -50.970  1.00  0.00     0.230 C 
ENDROOT
BRANCH   1   2
ATOM      2  N   UNL     1     -31.770  53.734 -49.645  1.00  0.00    -0.350 N 
ATOM      3  H   UNL     1     -32.617  54.075 -49.136  1.00  0.00     0.345 HD
ATOM      4  H   UNL     1     -31.320  52.982 -49.073  1.00  0.00     0.345 HD
ATOM      5  H   UNL     1     -31.082  54.514 -49.737  1.00  0.00     0.345 HD
ENDBRANCH   1   2
BRANCH   1   6
ATOM      6  C   UNL     1     -31.029  53.487 -51.974  1.00  0.00     0.099 C 
ATOM      7  O   UNL     1     -30.974  52.863 -53.068  1.00  0.00    -0.544 OA
ATOM      8  O   UNL     1     -30.101  54.488 -51.713  1.00  0.00    -0.544 OA
ENDBRANCH   1   6
BRANCH   1   9
ATOM      9  C   UNL     1     -32.457  51.675 -50.942  1.00  0.00     0.047 C 
ATOM     10  C   UNL     1     -33.753  51.364 -51.704  1.00  0.00     0.014 C 
ATOM     11  C   UNL     1     -32.521  51.085 -49.524  1.00  0.00     0.014 C 
ENDBRANCH   1   9
TORSDOF 3
ENDMDL
MODEL 2
REMARK VINA RESULT:    -3.915      1.820      2.227
REMARK INTER + INTRA:          -4.510
REMARK INTER:                  -4.469
REMARK INTRA:                  -0.041
REMARK UNBOUND:                -0.023
REMARK SMILES CC(C)[C@@H]([NH3+])C(=O)[O-]
REMARK SMILES IDX 4 1 5 2 6 6 7 7 8 8 2 9 1 10 3 11
REMARK H PARENT 5 3 5 4 5 5
REMARK Flexibility Score: inf
ROOT
ATOM      1  C   UNL     1     -31.629  52.077 -52.110  1.00  0.00     0.230 C 
ENDROOT
BRANCH   1   2
ATOM      2  N   UNL     1     -31.828  51.680 -53.513  1.00  0.00    -0.350 N 
ATOM      3  H   UNL     1     -32.822  51.808 -53.810  1.00  0.00     0.345 HD
ATOM      4  H   UNL     1     -31.220  52.269 -54.129  1.00  0.00     0.345 HD
ATOM      5  H   UNL     1     -31.548  50.685 -53.655  1.00  0.00     0.345 HD
ENDBRANCH   1   2
BRANCH   1   6
ATOM      6  C   UNL     1     -31.122  53.494 -52.016  1.00  0.00     0.099 C 
ATOM      7  O   UNL     1     -30.288  53.941 -52.849  1.00  0.00    -0.544 OA
ATOM      8  O   UNL     1     -31.615  54.338 -51.027  1.00  0.00    -0.544 OA
ENDBRANCH   1   6
BRANCH   1   9
ATOM      9  C   UNL     1     -32.904  51.882 -51.234  1.00  0.00     0.047 C 
ATOM     10  C   UNL     1     -32.584  51.183 -49.906  1.00  0.00     0.014 C 
ATOM     11  C   UNL     1     -34.043  51.147 -51.960  1.00  0.00     0.014 C 
ENDBRANCH   1   9
TORSDOF 3
ENDMDL
MODEL 3
REMARK VINA RESULT:    -3.820      2.176      2.695
REMARK INTER + INTRA:          -4.401
REMARK INTER:                  -4.421
REMARK INTRA:                   0.020
REMARK UNBOUND:                -0.023
REMARK SMILES CC(C)[C@@H]([NH3+])C(=O)[O-]
REMARK SMILES IDX 4 1 5 2 6 6 7 7 8 8 2 9 1 10 3 11
REMARK H PARENT 5 3 5 4 5 5
REMARK Flexibility Score: inf
ROOT
ATOM      1  C   UNL     1     -32.698  51.420 -50.653  1.00  0.00     0.230 C 
ENDROOT
BRANCH   1   2
ATOM      2  N   UNL     1     -31.682  50.357 -50.595  1.00  0.00    -0.350 N 
ATOM      3  H   UNL     1     -32.088  49.425 -50.837  1.00  0.00     0.345 HD
ATOM      4  H   UNL     1     -30.917  50.572 -51.276  1.00  0.00     0.345 HD
ATOM      5  H   UNL     1     -31.253  50.313 -49.645  1.00  0.00     0.345 HD
ENDBRANCH   1   2
BRANCH   1   6
ATOM      6  C   UNL     1     -32.134  52.734 -50.171  1.00  0.00     0.099 C 
ATOM      7  O   UNL     1     -31.915  53.678 -50.976  1.00  0.00    -0.544 OA
ATOM      8  O   UNL     1     -31.899  52.926 -48.815  1.00  0.00    -0.544 OA
ENDBRANCH   1   6
BRANCH   1   9
ATOM      9  C   UNL     1     -33.339  51.575 -52.066  1.00  0.00     0.047 C 
ATOM     10  C   UNL     1     -34.618  50.737 -52.209  1.00  0.00     0.014 C 
ATOM     11  C   UNL     1     -32.371  51.265 -53.219  1.00  0.00     0.014 C 
ENDBRANCH   1   9
TORSDOF 3
ENDMDL
MODEL 4
REMARK VINA RESULT:    -3.810      3.702      4.558
REMARK INTER + INTRA:          -4.390
REMARK INTER:                  -4.333
REMARK INTRA:                  -0.057
REMARK UNBOUND:                -0.023
REMARK SMILES CC(C)[C@@H]([NH3+])C(=O)[O-]
REMARK SMILES IDX 4 1 5 2 6 6 7 7 8 8 2 9 1 10 3 11
REMARK H PARENT 5 3 5 4 5 5
REMARK Flexibility Score: inf
ROOT
ATOM      1  C   UNL     1     -33.380  50.278 -52.674  1.00  0.00     0.230 C 
ENDROOT
BRANCH   1   2
ATOM      2  N   UNL     1     -32.496  49.118 -52.480  1.00  0.00    -0.350 N 
ATOM      3  H   UNL     1     -32.761  48.573 -51.628  1.00  0.00     0.345 HD
ATOM      4  H   UNL     1     -32.564  48.487 -53.312  1.00  0.00     0.345 HD
ATOM      5  H   UNL     1     -31.502  49.426 -52.400  1.00  0.00     0.345 HD
ENDBRANCH   1   2
BRANCH   1   6
ATOM      6  C   UNL     1     -34.822  49.906 -52.431  1.00  0.00     0.099 C 
ATOM      7  O   UNL     1     -35.690  50.791 -52.204  1.00  0.00    -0.544 OA
ATOM      8  O   UNL     1     -35.211  48.574 -52.505  1.00  0.00    -0.544 OA
ENDBRANCH   1   6
BRANCH   1   9
ATOM      9  C   UNL     1     -32.970  51.509 -51.810  1.00  0.00     0.047 C 
ATOM     10  C   UNL     1     -31.785  52.269 -52.422  1.00  0.00     0.014 C 
ATOM     11  C   UNL     1     -32.675  51.161 -50.342  1.00  0.00     0.014 C 
ENDBRANCH   1   9
TORSDOF 3
ENDMDL
MODEL 5
REMARK VINA RESULT:    -3.763      2.530      3.331
REMARK INTER + INTRA:          -4.336
REMARK INTER:                  -4.290
REMARK INTRA:                  -0.046
REMARK UNBOUND:                -0.023
REMARK SMILES CC(C)[C@@H]([NH3+])C(=O)[O-]
REMARK SMILES IDX 4 1 5 2 6 6 7 7 8 8 2 9 1 10 3 11
REMARK H PARENT 5 3 5 4 5 5
REMARK Flexibility Score: inf
ROOT
ATOM      1  C   UNL     1     -32.031  51.483 -51.810  1.00  0.00     0.230 C 
ENDROOT
BRANCH   1   2
ATOM      2  N   UNL     1     -31.877  50.564 -50.671  1.00  0.00    -0.350 N 
ATOM      3  H   UNL     1     -31.905  51.076 -49.760  1.00  0.00     0.345 HD
ATOM      4  H   UNL     1     -32.656  49.865 -50.682  1.00  0.00     0.345 HD
ATOM      5  H   UNL     1     -30.980  50.036 -50.747  1.00  0.00     0.345 HD
ENDBRANCH   1   2
BRANCH   1   6
ATOM      6  C   UNL     1     -33.278  51.164 -52.598  1.00  0.00     0.099 C 
ATOM      7  O   UNL     1     -33.346  51.414 -53.831  1.00  0.00    -0.544 OA
ATOM      8  O   UNL     1     -34.349  50.541 -51.969  1.00  0.00    -0.544 OA
ENDBRANCH   1   6
BRANCH   1   9
ATOM      9  C   UNL     1     -32.008  52.984 -51.391  1.00  0.00     0.047 C 
ATOM     10  C   UNL     1     -30.885  53.758 -52.097  1.00  0.00     0.014 C 
ATOM     11  C   UNL     1     -31.923  53.198 -49.870  1.00  0.00     0.014 C 
ENDBRANCH   1   9
TORSDOF 3
ENDMDL
MODEL 6
REMARK VINA RESULT:    -3.722      4.486      5.559
REMARK INTER + INTRA:          -4.290
REMARK INTER:                  -4.241
REMARK INTRA:                  -0.048
REMARK UNBOUND:                -0.023
REMARK SMILES CC(C)[C@@H]([NH3+])C(=O)[O-]
REMARK SMILES IDX 4 1 5 2 6 6 7 7 8 8 2 9 1 10 3 11
REMARK H PARENT 5 3 5 4 5 5
REMARK Flexibility Score: inf
ROOT
ATOM      1  C   UNL     1     -35.185  49.261 -53.331  1.00  0.00     0.230 C 
ENDROOT
BRANCH   1   2
ATOM      2  N   UNL     1     -35.506  49.941 -54.596  1.00  0.00    -0.350 N 
ATOM      3  H   UNL     1     -36.301  50.610 -54.480  1.00  0.00     0.345 HD
ATOM      4  H   UNL     1     -34.668  50.476 -54.925  1.00  0.00     0.345 HD
ATOM      5  H   UNL     1     -35.743  49.244 -55.336  1.00  0.00     0.345 HD
ENDBRANCH   1   2
BRANCH   1   6
ATOM      6  C   UNL     1     -34.189  50.059 -52.526  1.00  0.00     0.099 C 
ATOM      7  O   UNL     1     -34.482  51.202 -52.083  1.00  0.00    -0.544 OA
ATOM      8  O   UNL     1     -32.948  49.510 -52.226  1.00  0.00    -0.544 OA
ENDBRANCH   1   6
BRANCH   1   9
ATOM      9  C   UNL     1     -36.447  48.927 -52.480  1.00  0.00     0.047 C 
ATOM     10  C   UNL     1     -36.474  47.454 -52.051  1.00  0.00     0.014 C 
ATOM     11  C   UNL     1     -37.770  49.303 -53.167  1.00  0.00     0.014 C 
ENDBRANCH   1   9
TORSDOF 3
ENDMDL
MODEL 7
REMARK VINA RESULT:    -3.715      3.021      3.901
REMARK INTER + INTRA:          -4.281
REMARK INTER:                  -4.233
REMARK INTRA:                  -0.048
REMARK UNBOUND:                -0.023
REMARK SMILES CC(C)[C@@H]([NH3+])C(=O)[O-]
REMARK SMILES IDX 4 1 5 2 6 6 7 7 8 8 2 9 1 10 3 11
REMARK H PARENT 5 3 5 4 5 5
REMARK Flexibility Score: inf
ROOT
ATOM      1  C   UNL     1     -32.932  49.816 -52.278  1.00  0.00     0.230 C 
ENDROOT
BRANCH   1   2
ATOM      2  N   UNL     1     -32.023  49.180 -53.244  1.00  0.00    -0.350 N 
ATOM      3  H   UNL     1     -32.446  49.140 -54.199  1.00  0.00     0.345 HD
ATOM      4  H   UNL     1     -31.134  49.730 -53.299  1.00  0.00     0.345 HD
ATOM      5  H   UNL     1     -31.776  48.215 -52.932  1.00  0.00     0.345 HD
ENDBRANCH   1   2
BRANCH   1   6
ATOM      6  C   UNL     1     -32.223  50.898 -51.500  1.00  0.00     0.099 C 
ATOM      7  O   UNL     1     -31.591  51.813 -52.093  1.00  0.00    -0.544 OA
ATOM      8  O   UNL     1     -32.307  50.916 -50.113  1.00  0.00    -0.544 OA
ENDBRANCH   1   6
BRANCH   1   9
ATOM      9  C   UNL     1     -34.234  50.367 -52.935  1.00  0.00     0.047 C 
ATOM     10  C   UNL     1     -35.482  49.623 -52.441  1.00  0.00     0.014 C 
ATOM     11  C   UNL     1     -34.193  50.371 -54.472  1.00  0.00     0.014 C 
ENDBRANCH   1   9
TORSDOF 3
ENDMDL
MODEL 8
REMARK VINA RESULT:    -3.573     15.305     16.408
REMARK INTER + INTRA:          -4.118
REMARK INTER:                  -4.121
REMARK INTRA:                   0.003
REMARK UNBOUND:                -0.023
REMARK SMILES CC(C)[C@@H]([NH3+])C(=O)[O-]
REMARK SMILES IDX 4 1 5 2 6 6 7 7 8 8 2 9 1 10 3 11
REMARK H PARENT 5 3 5 4 5 5
REMARK Flexibility Score: inf
ROOT
ATOM      1  C   UNL     1     -41.764  39.767 -49.876  1.00  0.00     0.230 C 
ENDROOT
BRANCH   1   2
ATOM      2  N   UNL     1     -40.512  39.534 -49.138  1.00  0.00    -0.350 N 
ATOM      3  H   UNL     1     -40.665  38.914 -48.310  1.00  0.00     0.345 HD
ATOM      4  H   UNL     1     -39.817  39.074 -49.771  1.00  0.00     0.345 HD
ATOM      5  H   UNL     1     -40.100  40.439 -48.823  1.00  0.00     0.345 HD
ENDBRANCH   1   2
BRANCH   1   6
ATOM      6  C   UNL     1     -41.750  41.116 -50.550  1.00  0.00     0.099 C 
ATOM      7  O   UNL     1     -41.021  42.049 -50.118  1.00  0.00    -0.544 OA
ATOM      8  O   UNL     1     -42.515  41.323 -51.693  1.00  0.00    -0.544 OA
ENDBRANCH   1   6
BRANCH   1   9
ATOM      9  C   UNL     1     -42.089  38.637 -50.899  1.00  0.00     0.047 C 
ATOM     10  C   UNL     1     -42.490  37.330 -50.201  1.00  0.00     0.014 C 
ATOM     11  C   UNL     1     -40.956  38.373 -51.906  1.00  0.00     0.014 C 
ENDBRANCH   1   9
TORSDOF 3
ENDMDL
MODEL 9
REMARK VINA RESULT:    -3.568      2.863      3.564
REMARK INTER + INTRA:          -4.113
REMARK INTER:                  -4.035
REMARK INTRA:                  -0.078
REMARK UNBOUND:                -0.023
REMARK SMILES CC(C)[C@@H]([NH3+])C(=O)[O-]
REMARK SMILES IDX 4 1 5 2 6 6 7 7 8 8 2 9 1 10 3 11
REMARK H PARENT 5 3 5 4 5 5
REMARK Flexibility Score: inf
ROOT
ATOM      1  C   UNL     1     -33.317  50.536 -52.247  1.00  0.00     0.230 C 
ENDROOT
BRANCH   1   2
ATOM      2  N   UNL     1     -34.652  51.144 -52.128  1.00  0.00    -0.350 N 
ATOM      3  H   UNL     1     -34.828  51.493 -51.159  1.00  0.00     0.345 HD
ATOM      4  H   UNL     1     -34.725  51.951 -52.790  1.00  0.00     0.345 HD
ATOM      5  H   UNL     1     -35.391  50.455 -52.389  1.00  0.00     0.345 HD
ENDBRANCH   1   2
BRANCH   1   6
ATOM      6  C   UNL     1     -32.875  50.479 -53.689  1.00  0.00     0.099 C 
ATOM      7  O   UNL     1     -33.539  51.054 -54.592  1.00  0.00    -0.544 OA
ATOM      8  O   UNL     1     -31.694  49.827 -54.022  1.00  0.00    -0.544 OA
ENDBRANCH   1   6
BRANCH   1   9
ATOM      9  C   UNL     1     -32.244  51.242 -51.364  1.00  0.00     0.047 C 
ATOM     10  C   UNL     1     -32.589  51.162 -49.870  1.00  0.00     0.014 C 
ATOM     11  C   UNL     1     -31.977  52.702 -51.769  1.00  0.00     0.014 C 
ENDBRANCH   1   9
TORSDOF 3
ENDMDL
