MODEL 1
REMARK VINA RESULT:    -3.225      0.000      0.000
REMARK INTER + INTRA:          -3.905
REMARK INTER:                  -3.790
REMARK INTRA:                  -0.115
REMARK UNBOUND:                -0.115
REMARK SMILES O=C([O-])CCC(=O)[O-]
REMARK SMILES IDX 4 1 2 2 1 3 3 4 5 5 6 6 7 7 8 8
REMARK H PARENT
REMARK Flexibility Score: inf
ROOT
ATOM      1  C   UNL     1     -16.754  43.027  -4.720  1.00  0.00     0.059 C 
ENDROOT
BRANCH   1   2
ATOM      2  C   UNL     1     -16.775  43.532  -6.128  1.00  0.00     0.042 C 
ATOM      3  O   UNL     1     -15.695  43.785  -6.726  1.00  0.00    -0.550 OA
ATOM      4  O   UNL     1     -17.983  43.679  -6.797  1.00  0.00    -0.550 OA
ENDBRANCH   1   2
BRANCH   1   5
ATOM      5  C   UNL     1     -17.994  42.176  -4.440  1.00  0.00     0.059 C 
BRANCH   5   6
ATOM      6  C   UNL     1     -18.895  42.869  -3.468  1.00  0.00     0.042 C 
ATOM      7  O   UNL     1     -19.484  42.211  -2.570  1.00  0.00    -0.550 OA
ATOM      8  O   UNL     1     -19.122  44.235  -3.582  1.00  0.00    -0.550 OA
ENDBRANCH   5   6
ENDBRANCH   1   5
TORSDOF 3
ENDMDL
MODEL 2
REMARK VINA RESULT:    -3.208      0.088      3.868
REMARK INTER + INTRA:          -3.886
REMARK INTER:                  -3.779
REMARK INTRA:                  -0.107
REMARK UNBOUND:                -0.115
REMARK SMILES O=C([O-])CCC(=O)[O-]
REMARK SMILES IDX 4 1 2 2 1 3 3 4 5 5 6 6 7 7 8 8
REMARK H PARENT
REMARK Flexibility Score: inf
ROOT
ATOM      1  C   UNL     1     -17.980  42.203  -4.492  1.00  0.00     0.059 C 
ENDROOT
BRANCH   1   2
ATOM      2  C   UNL     1     -18.890  42.915  -3.542  1.00  0.00     0.042 C 
ATOM      3  O   UNL     1     -19.134  44.140  -3.697  1.00  0.00    -0.550 OA
ATOM      4  O   UNL     1     -19.506  42.214  -2.512  1.00  0.00    -0.550 OA
ENDBRANCH   1   2
BRANCH   1   5
ATOM      5  C   UNL     1     -16.746  43.057  -4.792  1.00  0.00     0.059 C 
BRANCH   5   6
ATOM      6  C   UNL     1     -16.775  43.538  -6.208  1.00  0.00     0.042 C 
ATOM      7  O   UNL     1     -15.700  43.808  -6.806  1.00  0.00    -0.550 OA
ATOM      8  O   UNL     1     -17.990  43.732  -6.852  1.00  0.00    -0.550 OA
ENDBRANCH   5   6
ENDBRANCH   1   5
TORSDOF 3
ENDMDL
MODEL 3
REMARK VINA RESULT:    -2.897      1.616      1.996
REMARK INTER + INTRA:          -3.521
REMARK INTER:                  -3.485
REMARK INTRA:                  -0.036
REMARK UNBOUND:                -0.115
REMARK SMILES O=C([O-])CCC(=O)[O-]
REMARK SMILES IDX 4 1 2 2 1 3 3 4 5 5 6 6 7 7 8 8
REMARK H PARENT
REMARK Flexibility Score: inf
ROOT
ATOM      1  C   UNL     1     -17.743  43.377  -6.112  1.00  0.00     0.059 C 
ENDROOT
BRANCH   1   2
ATOM      2  C   UNL     1     -18.160  44.091  -7.359  1.00  0.00     0.042 C 
ATOM      3  O   UNL     1     -17.570  43.860  -8.448  1.00  0.00    -0.550 OA
ATOM      4  O   UNL     1     -19.230  44.976  -7.329  1.00  0.00    -0.550 OA
ENDBRANCH   1   2
BRANCH   1   5
ATOM      5  C   UNL     1     -18.671  43.743  -4.951  1.00  0.00     0.059 C 
BRANCH   5   6
ATOM      6  C   UNL     1     -18.217  43.078  -3.691  1.00  0.00     0.042 C 
ATOM      7  O   UNL     1     -16.996  43.072  -3.382  1.00  0.00    -0.550 OA
ATOM      8  O   UNL     1     -19.136  42.424  -2.880  1.00  0.00    -0.550 OA
ENDBRANCH   5   6
ENDBRANCH   1   5
TORSDOF 3
ENDMDL
MODEL 4
REMARK VINA RESULT:    -2.882      1.600      3.905
REMARK INTER + INTRA:          -3.503
REMARK INTER:                  -3.467
REMARK INTRA:                  -0.035
REMARK UNBOUND:                -0.115
REMARK SMILES O=C([O-])CCC(=O)[O-]
REMARK SMILES IDX 4 1 2 2 1 3 3 4 5 5 6 6 7 7 8 8
REMARK H PARENT
REMARK Flexibility Score: inf
ROOT
ATOM      1  C   UNL     1     -18.670  43.752  -4.957  1.00  0.00     0.059 C 
ENDROOT
BRANCH   1   2
ATOM      2  C   UNL     1     -18.264  43.062  -3.693  1.00  0.00     0.042 C 
ATOM      3  O   UNL     1     -17.054  43.040  -3.344  1.00  0.00    -0.550 OA
ATOM      4  O   UNL     1     -19.226  42.484  -2.875  1.00  0.00    -0.550 OA
ENDBRANCH   1   2
BRANCH   1   5
ATOM      5  C   UNL     1     -17.732  43.364  -6.102  1.00  0.00     0.059 C 
BRANCH   5   6
ATOM      6  C   UNL     1     -18.142  44.047  -7.368  1.00  0.00     0.042 C 
ATOM      7  O   UNL     1     -17.498  43.850  -8.432  1.00  0.00    -0.550 OA
ATOM      8  O   UNL     1     -19.208  44.939  -7.362  1.00  0.00    -0.550 OA
ENDBRANCH   5   6
ENDBRANCH   1   5
TORSDOF 3
ENDMDL
MODEL 5
REMARK VINA RESULT:    -2.766      1.975      4.146
REMARK INTER + INTRA:          -3.366
REMARK INTER:                  -3.331
REMARK INTRA:                  -0.035
REMARK UNBOUND:                -0.115
REMARK SMILES O=C([O-])CCC(=O)[O-]
REMARK SMILES IDX 4 1 2 2 1 3 3 4 5 5 6 6 7 7 8 8
REMARK H PARENT
REMARK Flexibility Score: inf
ROOT
ATOM      1  C   UNL     1     -16.695  43.397  -5.912  1.00  0.00     0.059 C 
ENDROOT
BRANCH   1   2
ATOM      2  C   UNL     1     -17.184  42.681  -4.693  1.00  0.00     0.042 C 
ATOM      3  O   UNL     1     -16.920  43.131  -3.546  1.00  0.00    -0.550 OA
ATOM      4  O   UNL     1     -17.969  41.543  -4.823  1.00  0.00    -0.550 OA
ENDBRANCH   1   2
BRANCH   1   5
ATOM      5  C   UNL     1     -17.872  43.800  -6.803  1.00  0.00     0.059 C 
BRANCH   5   6
ATOM      6  C   UNL     1     -17.379  44.409  -8.077  1.00  0.00     0.042 C 
ATOM      7  O   UNL     1     -16.248  44.093  -8.533  1.00  0.00    -0.550 OA
ATOM      8  O   UNL     1     -18.147  45.360  -8.736  1.00  0.00    -0.550 OA
ENDBRANCH   5   6
ENDBRANCH   1   5
TORSDOF 3
ENDMDL
MODEL 6
REMARK VINA RESULT:    -2.653      3.811      5.039
REMARK INTER + INTRA:          -3.234
REMARK INTER:                  -3.131
REMARK INTRA:                  -0.104
REMARK UNBOUND:                -0.115
REMARK SMILES O=C([O-])CCC(=O)[O-]
REMARK SMILES IDX 4 1 2 2 1 3 3 4 5 5 6 6 7 7 8 8
REMARK H PARENT
REMARK Flexibility Score: inf
ROOT
ATOM      1  C   UNL     1     -19.501  43.473  -9.545  1.00  0.00     0.059 C 
ENDROOT
BRANCH   1   2
ATOM      2  C   UNL     1     -19.881  44.528 -10.534  1.00  0.00     0.042 C 
ATOM      3  O   UNL     1     -20.992  44.471 -11.125  1.00  0.00    -0.550 OA
ATOM      4  O   UNL     1     -19.030  45.601 -10.768  1.00  0.00    -0.550 OA
ENDBRANCH   1   2
BRANCH   1   5
ATOM      5  C   UNL     1     -18.168  43.821  -8.877  1.00  0.00     0.059 C 
BRANCH   5   6
ATOM      6  C   UNL     1     -18.373  44.121  -7.426  1.00  0.00     0.042 C 
ATOM      7  O   UNL     1     -17.643  43.576  -6.557  1.00  0.00    -0.550 OA
ATOM      8  O   UNL     1     -19.401  44.967  -7.030  1.00  0.00    -0.550 OA
ENDBRANCH   5   6
ENDBRANCH   1   5
TORSDOF 3
ENDMDL
MODEL 7
REMARK VINA RESULT:    -2.615      1.846      2.564
REMARK INTER + INTRA:          -3.189
REMARK INTER:                  -3.155
REMARK INTRA:                  -0.034
REMARK UNBOUND:                -0.115
REMARK SMILES O=C([O-])CCC(=O)[O-]
REMARK SMILES IDX 4 1 2 2 1 3 3 4 5 5 6 6 7 7 8 8
REMARK H PARENT
REMARK Flexibility Score: inf
ROOT
ATOM      1  C   UNL     1     -18.392  43.990  -6.967  1.00  0.00     0.059 C 
ENDROOT
BRANCH   1   2
ATOM      2  C   UNL     1     -17.808  43.789  -8.330  1.00  0.00     0.042 C 
ATOM      3  O   UNL     1     -18.542  43.423  -9.286  1.00  0.00    -0.550 OA
ATOM      4  O   UNL     1     -16.463  44.052  -8.555  1.00  0.00    -0.550 OA
ENDBRANCH   1   2
BRANCH   1   5
ATOM      5  C   UNL     1     -17.483  43.375  -5.900  1.00  0.00     0.059 C 
BRANCH   5   6
ATOM      6  C   UNL     1     -18.160  43.389  -4.567  1.00  0.00     0.042 C 
ATOM      7  O   UNL     1     -19.165  44.124  -4.374  1.00  0.00    -0.550 OA
ATOM      8  O   UNL     1     -17.653  42.627  -3.522  1.00  0.00    -0.550 OA
ENDBRANCH   5   6
ENDBRANCH   1   5
TORSDOF 3
ENDMDL
MODEL 8
REMARK VINA RESULT:    -2.599      2.474      4.473
REMARK INTER + INTRA:          -3.170
REMARK INTER:                  -3.119
REMARK INTRA:                  -0.051
REMARK UNBOUND:                -0.115
REMARK SMILES O=C([O-])CCC(=O)[O-]
REMARK SMILES IDX 4 1 2 2 1 3 3 4 5 5 6 6 7 7 8 8
REMARK H PARENT
REMARK Flexibility Score: inf
ROOT
ATOM      1  C   UNL     1     -17.672  43.656  -6.748  1.00  0.00     0.059 C 
ENDROOT
BRANCH   1   2
ATOM      2  C   UNL     1     -18.042  43.432  -5.316  1.00  0.00     0.042 C 
ATOM      3  O   UNL     1     -17.377  42.630  -4.608  1.00  0.00    -0.550 OA
ATOM      4  O   UNL     1     -19.091  44.144  -4.749  1.00  0.00    -0.550 OA
ENDBRANCH   1   2
BRANCH   1   5
ATOM      5  C   UNL     1     -18.737  44.502  -7.449  1.00  0.00     0.059 C 
BRANCH   5   6
ATOM      6  C   UNL     1     -18.928  44.038  -8.859  1.00  0.00     0.042 C 
ATOM      7  O   UNL     1     -19.091  44.877  -9.784  1.00  0.00    -0.550 OA
ATOM      8  O   UNL     1     -18.974  42.680  -9.144  1.00  0.00    -0.550 OA
ENDBRANCH   5   6
ENDBRANCH   1   5
TORSDOF 3
ENDMDL
MODEL 9
REMARK VINA RESULT:    -2.555      3.544      5.413
REMARK INTER + INTRA:          -3.119
REMARK INTER:                  -2.997
REMARK INTRA:                  -0.121
REMARK UNBOUND:                -0.115
REMARK SMILES O=C([O-])CCC(=O)[O-]
REMARK SMILES IDX 4 1 2 2 1 3 3 4 5 5 6 6 7 7 8 8
REMARK H PARENT
REMARK Flexibility Score: inf
ROOT
ATOM      1  C   UNL     1     -18.895  44.580  -7.883  1.00  0.00     0.059 C 
ENDROOT
BRANCH   1   2
ATOM      2  C   UNL     1     -17.624  43.988  -7.362  1.00  0.00     0.042 C 
ATOM      3  O   UNL     1     -16.570  44.047  -8.049  1.00  0.00    -0.550 OA
ATOM      4  O   UNL     1     -17.592  43.411  -6.099  1.00  0.00    -0.550 OA
ENDBRANCH   1   2
BRANCH   1   5
ATOM      5  C   UNL     1     -19.366  43.825  -9.128  1.00  0.00     0.059 C 
BRANCH   5   6
ATOM      6  C   UNL     1     -19.443  44.749 -10.301  1.00  0.00     0.042 C 
ATOM      7  O   UNL     1     -18.490  45.535 -10.552  1.00  0.00    -0.550 OA
ATOM      8  O   UNL     1     -20.584  44.777 -11.092  1.00  0.00    -0.550 OA
ENDBRANCH   5   6
ENDBRANCH   1   5
TORSDOF 3
ENDMDL
