MODEL 1
REMARK VINA RESULT:    -3.751      0.000      0.000
REMARK INTER + INTRA:          -4.578
REMARK INTER:                  -4.300
REMARK INTRA:                  -0.279
REMARK UNBOUND:                -0.279
REMARK SMILES COC(=O)c1ccccc1O
REMARK SMILES IDX 5 1 6 2 7 3 8 4 9 5 10 6 3 7 4 8 2 9 1 10 11 11
REMARK H PARENT 11 12
REMARK Flexibility Score: inf
ROOT
ATOM      1  C   UNL     1      -1.500  -4.150  -5.247  1.00  0.00     0.101 A 
ATOM      2  C   UNL     1      -2.133  -5.376  -5.530  1.00  0.00     0.019 A 
ATOM      3  C   UNL     1      -1.419  -6.576  -5.484  1.00  0.00     0.001 A 
ATOM      4  C   UNL     1      -0.063  -6.571  -5.155  1.00  0.00     0.004 A 
ATOM      5  C   UNL     1       0.581  -5.367  -4.870  1.00  0.00     0.047 A 
ATOM      6  C   UNL     1      -0.124  -4.155  -4.913  1.00  0.00     0.130 A 
ENDROOT
BRANCH   1   7
ATOM      7  C   UNL     1      -2.292  -2.894  -5.305  1.00  0.00     0.341 C 
ATOM      8  O   UNL     1      -1.746  -1.804  -5.625  1.00  0.00    -0.246 OA
BRANCH   7   9
ATOM      9  O   UNL     1      -3.659  -2.922  -5.000  1.00  0.00    -0.465 OA
ATOM     10  C   UNL     1      -4.663  -2.575  -5.946  1.00  0.00     0.282 C 
ENDBRANCH   7   9
ENDBRANCH   1   7
BRANCH   6  11
ATOM     11  O   UNL     1       0.544  -2.965  -4.624  1.00  0.00    -0.507 OA
ATOM     12  H   UNL     1       0.313  -2.408  -3.809  1.00  0.00     0.293 HD
ENDBRANCH   6  11
TORSDOF 3
ENDMDL
MODEL 2
REMARK VINA RESULT:    -3.544      9.035     10.665
REMARK INTER + INTRA:          -4.341
REMARK INTER:                  -4.048
REMARK INTRA:                  -0.293
REMARK UNBOUND:                -0.279
REMARK SMILES COC(=O)c1ccccc1O
REMARK SMILES IDX 5 1 6 2 7 3 8 4 9 5 10 6 3 7 4 8 2 9 1 10 11 11
REMARK H PARENT 11 12
REMARK Flexibility Score: inf
ROOT
ATOM      1  C   UNL     1       5.902   0.657  -0.271  1.00  0.00     0.101 A 
ATOM      2  C   UNL     1       5.531   2.005  -0.445  1.00  0.00     0.019 A 
ATOM      3  C   UNL     1       6.149   3.016   0.294  1.00  0.00     0.001 A 
ATOM      4  C   UNL     1       7.145   2.700   1.217  1.00  0.00     0.004 A 
ATOM      5  C   UNL     1       7.527   1.371   1.404  1.00  0.00     0.047 A 
ATOM      6  C   UNL     1       6.915   0.345   0.668  1.00  0.00     0.130 A 
ENDROOT
BRANCH   1   7
ATOM      7  C   UNL     1       5.223  -0.392  -1.075  1.00  0.00     0.341 C 
ATOM      8  O   UNL     1       5.065  -0.248  -2.317  1.00  0.00    -0.246 OA
BRANCH   7   9
ATOM      9  O   UNL     1       4.756  -1.553  -0.446  1.00  0.00    -0.465 OA
ATOM     10  C   UNL     1       4.144  -2.620  -1.160  1.00  0.00     0.282 C 
ENDBRANCH   7   9
ENDBRANCH   1   7
BRANCH   6  11
ATOM     11  O   UNL     1       7.315  -0.976   0.874  1.00  0.00    -0.507 OA
ATOM     12  H   UNL     1       6.808  -1.595   1.495  1.00  0.00     0.293 HD
ENDBRANCH   6  11
TORSDOF 3
ENDMDL
MODEL 3
REMARK VINA RESULT:    -3.510      9.985     11.495
REMARK INTER + INTRA:          -4.302
REMARK INTER:                  -3.951
REMARK INTRA:                  -0.351
REMARK UNBOUND:                -0.279
REMARK SMILES COC(=O)c1ccccc1O
REMARK SMILES IDX 5 1 6 2 7 3 8 4 9 5 10 6 3 7 4 8 2 9 1 10 11 11
REMARK H PARENT 11 12
REMARK Flexibility Score: inf
ROOT
ATOM      1  C   UNL     1       5.946   1.987  -1.000  1.00  0.00     0.101 A 
ATOM      2  C   UNL     1       5.832   1.361  -2.257  1.00  0.00     0.019 A 
ATOM      3  C   UNL     1       5.627   2.114  -3.414  1.00  0.00     0.001 A 
ATOM      4  C   UNL     1       5.531   3.504  -3.338  1.00  0.00     0.004 A 
ATOM      5  C   UNL     1       5.642   4.143  -2.102  1.00  0.00     0.047 A 
ATOM      6  C   UNL     1       5.849   3.398  -0.931  1.00  0.00     0.130 A 
ENDROOT
BRANCH   1   7
ATOM      7  C   UNL     1       6.165   1.153   0.210  1.00  0.00     0.341 C 
ATOM      8  O   UNL     1       5.522   0.082   0.377  1.00  0.00    -0.246 OA
BRANCH   7   9
ATOM      9  O   UNL     1       7.095   1.562   1.174  1.00  0.00    -0.465 OA
ATOM     10  C   UNL     1       8.498   1.548   0.941  1.00  0.00     0.282 C 
ENDBRANCH   7   9
ENDBRANCH   1   7
BRANCH   6  11
ATOM     11  O   UNL     1       5.955   4.062   0.291  1.00  0.00    -0.507 OA
ATOM     12  H   UNL     1       5.221   4.016   0.988  1.00  0.00     0.293 HD
ENDBRANCH   6  11
TORSDOF 3
ENDMDL
MODEL 4
REMARK VINA RESULT:    -3.475      1.531      2.965
REMARK INTER + INTRA:          -4.262
REMARK INTER:                  -3.936
REMARK INTRA:                  -0.326
REMARK UNBOUND:                -0.279
REMARK SMILES COC(=O)c1ccccc1O
REMARK SMILES IDX 5 1 6 2 7 3 8 4 9 5 10 6 3 7 4 8 2 9 1 10 11 11
REMARK H PARENT 11 12
REMARK Flexibility Score: inf
ROOT
ATOM      1  C   UNL     1      -1.098  -4.676  -5.407  1.00  0.00     0.101 A 
ATOM      2  C   UNL     1      -0.172  -5.635  -4.952  1.00  0.00     0.019 A 
ATOM      3  C   UNL     1      -0.294  -6.976  -5.321  1.00  0.00     0.001 A 
ATOM      4  C   UNL     1      -1.340  -7.382  -6.150  1.00  0.00     0.004 A 
ATOM      5  C   UNL     1      -2.267  -6.447  -6.611  1.00  0.00     0.047 A 
ATOM      6  C   UNL     1      -2.157  -5.096  -6.248  1.00  0.00     0.130 A 
ENDROOT
BRANCH   1   7
ATOM      7  C   UNL     1      -0.936  -3.257  -4.995  1.00  0.00     0.341 C 
ATOM      8  O   UNL     1      -1.870  -2.649  -4.405  1.00  0.00    -0.246 OA
BRANCH   7   9
ATOM      9  O   UNL     1       0.265  -2.590  -5.264  1.00  0.00    -0.465 OA
ATOM     10  C   UNL     1       0.690  -2.278  -6.585  1.00  0.00     0.282 C 
ENDBRANCH   7   9
ENDBRANCH   1   7
BRANCH   6  11
ATOM     11  O   UNL     1      -3.098  -4.182  -6.723  1.00  0.00    -0.507 OA
ATOM     12  H   UNL     1      -3.823  -4.455  -7.377  1.00  0.00     0.293 HD
ENDBRANCH   6  11
TORSDOF 3
ENDMDL
MODEL 5
REMARK VINA RESULT:    -3.466     11.303     11.825
REMARK INTER + INTRA:          -4.251
REMARK INTER:                  -3.958
REMARK INTRA:                  -0.293
REMARK UNBOUND:                -0.279
REMARK SMILES COC(=O)c1ccccc1O
REMARK SMILES IDX 5 1 6 2 7 3 8 4 9 5 10 6 3 7 4 8 2 9 1 10 11 11
REMARK H PARENT 11 12
REMARK Flexibility Score: inf
ROOT
ATOM      1  C   UNL     1      -3.058  -4.513   5.937  1.00  0.00     0.101 A 
ATOM      2  C   UNL     1      -2.750  -5.797   5.447  1.00  0.00     0.019 A 
ATOM      3  C   UNL     1      -3.219  -6.218   4.202  1.00  0.00     0.001 A 
ATOM      4  C   UNL     1      -4.004  -5.367   3.424  1.00  0.00     0.004 A 
ATOM      5  C   UNL     1      -4.321  -4.090   3.891  1.00  0.00     0.047 A 
ATOM      6  C   UNL     1      -3.855  -3.654   5.141  1.00  0.00     0.130 A 
ENDROOT
BRANCH   1   7
ATOM      7  C   UNL     1      -2.541  -4.098   7.266  1.00  0.00     0.341 C 
ATOM      8  O   UNL     1      -3.324  -3.667   8.155  1.00  0.00    -0.246 OA
BRANCH   7   9
ATOM      9  O   UNL     1      -1.169  -4.186   7.534  1.00  0.00    -0.465 OA
ATOM     10  C   UNL     1      -0.658  -4.680   8.766  1.00  0.00     0.282 C 
ENDBRANCH   7   9
ENDBRANCH   1   7
BRANCH   6  11
ATOM     11  O   UNL     1      -4.187  -2.373   5.584  1.00  0.00    -0.507 OA
ATOM     12  H   UNL     1      -4.281  -1.595   4.941  1.00  0.00     0.293 HD
ENDBRANCH   6  11
TORSDOF 3
ENDMDL
MODEL 6
REMARK VINA RESULT:    -3.386      1.516      2.291
REMARK INTER + INTRA:          -4.159
REMARK INTER:                  -3.850
REMARK INTRA:                  -0.309
REMARK UNBOUND:                -0.279
REMARK SMILES COC(=O)c1ccccc1O
REMARK SMILES IDX 5 1 6 2 7 3 8 4 9 5 10 6 3 7 4 8 2 9 1 10 11 11
REMARK H PARENT 11 12
REMARK Flexibility Score: inf
ROOT
ATOM      1  C   UNL     1      -0.886  -4.468  -5.102  1.00  0.00     0.101 A 
ATOM      2  C   UNL     1       0.378  -4.005  -4.689  1.00  0.00     0.019 A 
ATOM      3  C   UNL     1       1.417  -4.902  -4.430  1.00  0.00     0.001 A 
ATOM      4  C   UNL     1       1.212  -6.274  -4.577  1.00  0.00     0.004 A 
ATOM      5  C   UNL     1      -0.034  -6.752  -4.986  1.00  0.00     0.047 A 
ATOM      6  C   UNL     1      -1.087  -5.862  -5.250  1.00  0.00     0.130 A 
ENDROOT
BRANCH   1   7
ATOM      7  C   UNL     1      -1.968  -3.485  -5.369  1.00  0.00     0.341 C 
ATOM      8  O   UNL     1      -2.208  -2.556  -4.552  1.00  0.00    -0.246 OA
BRANCH   7   9
ATOM      9  O   UNL     1      -2.727  -3.593  -6.541  1.00  0.00    -0.465 OA
ATOM     10  C   UNL     1      -4.013  -3.001  -6.679  1.00  0.00     0.282 C 
ENDBRANCH   7   9
ENDBRANCH   1   7
BRANCH   6  11
ATOM     11  O   UNL     1      -2.322  -6.367  -5.657  1.00  0.00    -0.507 OA
ATOM     12  H   UNL     1      -2.631  -7.296  -5.393  1.00  0.00     0.293 HD
ENDBRANCH   6  11
TORSDOF 3
ENDMDL
MODEL 7
REMARK VINA RESULT:    -3.355     11.201     12.559
REMARK INTER + INTRA:          -4.124
REMARK INTER:                  -3.811
REMARK INTRA:                  -0.313
REMARK UNBOUND:                -0.279
REMARK SMILES COC(=O)c1ccccc1O
REMARK SMILES IDX 5 1 6 2 7 3 8 4 9 5 10 6 3 7 4 8 2 9 1 10 11 11
REMARK H PARENT 11 12
REMARK Flexibility Score: inf
ROOT
ATOM      1  C   UNL     1       6.891   2.591  -0.528  1.00  0.00     0.101 A 
ATOM      2  C   UNL     1       5.687   2.955  -1.163  1.00  0.00     0.019 A 
ATOM      3  C   UNL     1       5.700   3.708  -2.339  1.00  0.00     0.001 A 
ATOM      4  C   UNL     1       6.912   4.109  -2.901  1.00  0.00     0.004 A 
ATOM      5  C   UNL     1       8.115   3.759  -2.287  1.00  0.00     0.047 A 
ATOM      6  C   UNL     1       8.117   3.002  -1.104  1.00  0.00     0.130 A 
ENDROOT
BRANCH   1   7
ATOM      7  C   UNL     1       6.839   1.789   0.722  1.00  0.00     0.341 C 
ATOM      8  O   UNL     1       6.250   0.675   0.746  1.00  0.00    -0.246 OA
BRANCH   7   9
ATOM      9  O   UNL     1       7.450   2.277   1.884  1.00  0.00    -0.465 OA
ATOM     10  C   UNL     1       8.158   1.438   2.788  1.00  0.00     0.282 C 
ENDBRANCH   7   9
ENDBRANCH   1   7
BRANCH   6  11
ATOM     11  O   UNL     1       9.334   2.665  -0.511  1.00  0.00    -0.507 OA
ATOM     12  H   UNL     1       9.377   2.116   0.340  1.00  0.00     0.293 HD
ENDBRANCH   6  11
TORSDOF 3
ENDMDL
MODEL 8
REMARK VINA RESULT:    -3.342     11.000     12.834
REMARK INTER + INTRA:          -4.109
REMARK INTER:                  -3.815
REMARK INTRA:                  -0.294
REMARK UNBOUND:                -0.279
REMARK SMILES COC(=O)c1ccccc1O
REMARK SMILES IDX 5 1 6 2 7 3 8 4 9 5 10 6 3 7 4 8 2 9 1 10 11 11
REMARK H PARENT 11 12
REMARK Flexibility Score: inf
ROOT
ATOM      1  C   UNL     1       7.110   1.786   1.174  1.00  0.00     0.101 A 
ATOM      2  C   UNL     1       6.698   3.067   0.757  1.00  0.00     0.019 A 
ATOM      3  C   UNL     1       5.908   3.227  -0.383  1.00  0.00     0.001 A 
ATOM      4  C   UNL     1       5.516   2.113  -1.126  1.00  0.00     0.004 A 
ATOM      5  C   UNL     1       5.913   0.835  -0.729  1.00  0.00     0.047 A 
ATOM      6  C   UNL     1       6.707   0.660   0.415  1.00  0.00     0.130 A 
ENDROOT
BRANCH   1   7
ATOM      7  C   UNL     1       7.949   1.653   2.393  1.00  0.00     0.341 C 
ATOM      8  O   UNL     1       7.656   2.280   3.446  1.00  0.00    -0.246 OA
BRANCH   7   9
ATOM      9  O   UNL     1       9.078   0.824   2.370  1.00  0.00    -0.465 OA
ATOM     10  C   UNL     1       9.887   0.599   3.517  1.00  0.00     0.282 C 
ENDBRANCH   7   9
ENDBRANCH   1   7
BRANCH   6  11
ATOM     11  O   UNL     1       7.090  -0.628   0.789  1.00  0.00    -0.507 OA
ATOM     12  H   UNL     1       7.221  -0.883   1.761  1.00  0.00     0.293 HD
ENDBRANCH   6  11
TORSDOF 3
ENDMDL
MODEL 9
REMARK VINA RESULT:    -3.290     10.032     11.049
REMARK INTER + INTRA:          -4.049
REMARK INTER:                  -3.783
REMARK INTRA:                  -0.267
REMARK UNBOUND:                -0.279
REMARK SMILES COC(=O)c1ccccc1O
REMARK SMILES IDX 5 1 6 2 7 3 8 4 9 5 10 6 3 7 4 8 2 9 1 10 11 11
REMARK H PARENT 11 12
REMARK Flexibility Score: inf
ROOT
ATOM      1  C   UNL     1       6.021   2.850  -1.885  1.00  0.00     0.101 A 
ATOM      2  C   UNL     1       5.929   1.606  -2.540  1.00  0.00     0.019 A 
ATOM      3  C   UNL     1       5.702   0.434  -1.816  1.00  0.00     0.001 A 
ATOM      4  C   UNL     1       5.563   0.482  -0.429  1.00  0.00     0.004 A 
ATOM      5  C   UNL     1       5.651   1.705   0.238  1.00  0.00     0.047 A 
ATOM      6  C   UNL     1       5.878   2.891  -0.477  1.00  0.00     0.130 A 
ENDROOT
BRANCH   1   7
ATOM      7  C   UNL     1       6.263   4.077  -2.688  1.00  0.00     0.341 C 
ATOM      8  O   UNL     1       7.280   4.171  -3.427  1.00  0.00    -0.246 OA
BRANCH   7   9
ATOM      9  O   UNL     1       5.351   5.138  -2.622  1.00  0.00    -0.465 OA
ATOM     10  C   UNL     1       5.107   6.009  -3.720  1.00  0.00     0.282 C 
ENDBRANCH   7   9
ENDBRANCH   1   7
BRANCH   6  11
ATOM     11  O   UNL     1       5.962   4.100   0.214  1.00  0.00    -0.507 OA
ATOM     12  H   UNL     1       6.850   4.563   0.372  1.00  0.00     0.293 HD
ENDBRANCH   6  11
TORSDOF 3
ENDMDL
