MODEL 1
REMARK VINA RESULT:     7.991      0.000      0.000
REMARK INTER + INTRA:          14.539
REMARK INTER:                  14.998
REMARK INTRA:                  -0.459
REMARK UNBOUND:                -0.459
REMARK SMILES O=C([O-])CCCCCCCCCCCCCCC(=O)[O-]
REMARK SMILES IDX 10 1 9 2 8 3 7 4 6 5 5 6 4 7 2 8 1 9 3 10 11 11 12 12 13 13
REMARK SMILES IDX 14 14 15 15 16 16 17 17 18 18 19 19 20 20
REMARK H PARENT
REMARK Flexibility Score: inf
ROOT
ATOM      1  C   UNL     1     -32.427  12.944  18.081  1.00  0.00     0.000 C 
ENDROOT
BRANCH   1   2
ATOM      2  C   UNL     1     -32.832  12.581  19.517  1.00  0.00     0.000 C 
BRANCH   2   3
ATOM      3  C   UNL     1     -33.725  11.335  19.539  1.00  0.00     0.000 C 
BRANCH   3   4
ATOM      4  C   UNL     1     -33.938  10.835  20.976  1.00  0.00     0.000 C 
BRANCH   4   5
ATOM      5  C   UNL     1     -33.536   9.362  21.165  1.00  0.00     0.000 C 
BRANCH   5   6
ATOM      6  C   UNL     1     -33.705   8.819  22.597  1.00  0.00     0.006 C 
BRANCH   6   7
ATOM      7  C   UNL     1     -34.372   7.438  22.638  1.00  0.00     0.053 C 
BRANCH   7   8
ATOM      8  C   UNL     1     -34.818   7.116  24.029  1.00  0.00     0.041 C 
ATOM      9  O   UNL     1     -33.967   6.861  24.923  1.00  0.00    -0.550 OA
ATOM     10  O   UNL     1     -36.173   7.051  24.328  1.00  0.00    -0.550 OA
ENDBRANCH   7   8
ENDBRANCH   6   7
ENDBRANCH   5   6
ENDBRANCH   4   5
ENDBRANCH   3   4
ENDBRANCH   2   3
ENDBRANCH   1   2
BRANCH   1  11
ATOM     11  C   UNL     1     -33.565  12.721  17.073  1.00  0.00     0.000 C 
BRANCH  11  12
ATOM     12  C   UNL     1     -34.000  14.021  16.374  1.00  0.00     0.000 C 
BRANCH  12  13
ATOM     13  C   UNL     1     -34.347  15.139  17.370  1.00  0.00     0.000 C 
BRANCH  13  14
ATOM     14  C   UNL     1     -34.727  16.454  16.672  1.00  0.00     0.000 C 
BRANCH  14  15
ATOM     15  C   UNL     1     -35.210  17.496  17.693  1.00  0.00     0.000 C 
BRANCH  15  16
ATOM     16  C   UNL     1     -36.742  17.609  17.744  1.00  0.00     0.006 C 
BRANCH  16  17
ATOM     17  C   UNL     1     -37.442  16.263  17.516  1.00  0.00     0.053 C 
BRANCH  17  18
ATOM     18  C   UNL     1     -38.763  16.236  18.218  1.00  0.00     0.041 C 
ATOM     19  O   UNL     1     -38.909  15.554  19.267  1.00  0.00    -0.550 OA
ATOM     20  O   UNL     1     -39.847  16.925  17.688  1.00  0.00    -0.550 OA
ENDBRANCH  17  18
ENDBRANCH  16  17
ENDBRANCH  15  16
ENDBRANCH  14  15
ENDBRANCH  13  14
ENDBRANCH  12  13
ENDBRANCH  11  12
ENDBRANCH   1  11
TORSDOF 15
ENDMDL
MODEL 2
REMARK VINA RESULT:     8.240      0.167      9.005
REMARK INTER + INTRA:          15.008
REMARK INTER:                  15.474
REMARK INTRA:                  -0.466
REMARK UNBOUND:                -0.459
REMARK SMILES O=C([O-])CCCCCCCCCCCCCCC(=O)[O-]
REMARK SMILES IDX 10 1 9 2 8 3 7 4 6 5 5 6 4 7 2 8 1 9 3 10 11 11 12 12 13 13
REMARK SMILES IDX 14 14 15 15 16 16 17 17 18 18 19 19 20 20
REMARK H PARENT
REMARK Flexibility Score: inf
ROOT
ATOM      1  C   UNL     1     -33.628  12.754  17.145  1.00  0.00     0.000 C 
ENDROOT
BRANCH   1   2
ATOM      2  C   UNL     1     -34.139  13.988  16.387  1.00  0.00     0.000 C 
BRANCH   2   3
ATOM      3  C   UNL     1     -34.415  15.150  17.349  1.00  0.00     0.000 C 
BRANCH   3   4
ATOM      4  C   UNL     1     -34.796  16.423  16.579  1.00  0.00     0.000 C 
BRANCH   4   5
ATOM      5  C   UNL     1     -35.235  17.574  17.502  1.00  0.00     0.000 C 
BRANCH   5   6
ATOM      6  C   UNL     1     -36.734  17.586  17.859  1.00  0.00     0.006 C 
BRANCH   6   7
ATOM      7  C   UNL     1     -37.453  16.290  17.463  1.00  0.00     0.053 C 
BRANCH   7   8
ATOM      8  C   UNL     1     -38.793  16.214  18.124  1.00  0.00     0.041 C 
ATOM      9  O   UNL     1     -39.738  16.945  17.725  1.00  0.00    -0.550 OA
ATOM     10  O   UNL     1     -38.986  15.370  19.210  1.00  0.00    -0.550 OA
ENDBRANCH   7   8
ENDBRANCH   6   7
ENDBRANCH   5   6
ENDBRANCH   4   5
ENDBRANCH   3   4
ENDBRANCH   2   3
ENDBRANCH   1   2
BRANCH   1  11
ATOM     11  C   UNL     1     -32.434  13.074  18.057  1.00  0.00     0.000 C 
BRANCH  11  12
ATOM     12  C   UNL     1     -32.493  12.320  19.398  1.00  0.00     0.000 C 
BRANCH  12  13
ATOM     13  C   UNL     1     -33.615  11.270  19.435  1.00  0.00     0.000 C 
BRANCH  13  14
ATOM     14  C   UNL     1     -33.964  10.830  20.865  1.00  0.00     0.000 C 
BRANCH  14  15
ATOM     15  C   UNL     1     -33.381   9.441  21.168  1.00  0.00     0.000 C 
BRANCH  15  16
ATOM     16  C   UNL     1     -33.751   8.938  22.573  1.00  0.00     0.006 C 
BRANCH  16  17
ATOM     17  C   UNL     1     -34.297   7.503  22.562  1.00  0.00     0.053 C 
BRANCH  17  18
ATOM     18  C   UNL     1     -34.754   7.110  23.931  1.00  0.00     0.041 C 
ATOM     19  O   UNL     1     -33.917   6.741  24.798  1.00  0.00    -0.550 OA
ATOM     20  O   UNL     1     -36.110   7.101  24.236  1.00  0.00    -0.550 OA
ENDBRANCH  17  18
ENDBRANCH  16  17
ENDBRANCH  15  16
ENDBRANCH  14  15
ENDBRANCH  13  14
ENDBRANCH  12  13
ENDBRANCH  11  12
ENDBRANCH   1  11
TORSDOF 15
ENDMDL
MODEL 3
REMARK VINA RESULT:     8.942      1.977      2.384
REMARK INTER + INTRA:          16.324
REMARK INTER:                  17.023
REMARK INTRA:                  -0.699
REMARK UNBOUND:                -0.459
REMARK SMILES O=C([O-])CCCCCCCCCCCCCCC(=O)[O-]
REMARK SMILES IDX 10 1 9 2 8 3 7 4 6 5 5 6 4 7 2 8 1 9 3 10 11 11 12 12 13 13
REMARK SMILES IDX 14 14 15 15 16 16 17 17 18 18 19 19 20 20
REMARK H PARENT
REMARK Flexibility Score: inf
ROOT
ATOM      1  C   UNL     1     -32.847  12.702  19.101  1.00  0.00     0.000 C 
ENDROOT
BRANCH   1   2
ATOM      2  C   UNL     1     -33.272  11.279  19.491  1.00  0.00     0.000 C 
BRANCH   2   3
ATOM      3  C   UNL     1     -33.899  11.256  20.890  1.00  0.00     0.000 C 
BRANCH   3   4
ATOM      4  C   UNL     1     -34.001  12.675  21.471  1.00  0.00     0.000 C 
BRANCH   4   5
ATOM      5  C   UNL     1     -34.437  12.690  22.947  1.00  0.00     0.000 C 
BRANCH   5   6
ATOM      6  C   UNL     1     -33.905  11.520  23.795  1.00  0.00     0.006 C 
BRANCH   6   7
ATOM      7  C   UNL     1     -34.098  11.738  25.302  1.00  0.00     0.053 C 
BRANCH   7   8
ATOM      8  C   UNL     1     -33.874  10.460  26.047  1.00  0.00     0.041 C 
ATOM      9  O   UNL     1     -34.716   9.526  25.969  1.00  0.00    -0.550 OA
ATOM     10  O   UNL     1     -32.759  10.317  26.863  1.00  0.00    -0.550 OA
ENDBRANCH   7   8
ENDBRANCH   6   7
ENDBRANCH   5   6
ENDBRANCH   4   5
ENDBRANCH   3   4
ENDBRANCH   2   3
ENDBRANCH   1   2
BRANCH   1  11
ATOM     11  C   UNL     1     -32.830  12.917  17.580  1.00  0.00     0.000 C 
BRANCH  11  12
ATOM     12  C   UNL     1     -34.049  13.714  17.082  1.00  0.00     0.000 C 
BRANCH  12  13
ATOM     13  C   UNL     1     -34.182  15.082  17.768  1.00  0.00     0.000 C 
BRANCH  13  14
ATOM     14  C   UNL     1     -34.692  16.173  16.816  1.00  0.00     0.000 C 
BRANCH  14  15
ATOM     15  C   UNL     1     -35.144  17.416  17.598  1.00  0.00     0.000 C 
BRANCH  15  16
ATOM     16  C   UNL     1     -36.673  17.505  17.736  1.00  0.00     0.006 C 
BRANCH  16  17
ATOM     17  C   UNL     1     -37.355  16.134  17.645  1.00  0.00     0.053 C 
BRANCH  17  18
ATOM     18  C   UNL     1     -38.727  16.193  18.240  1.00  0.00     0.041 C 
ATOM     19  O   UNL     1     -39.019  15.474  19.232  1.00  0.00    -0.550 OA
ATOM     20  O   UNL     1     -39.698  17.006  17.669  1.00  0.00    -0.550 OA
ENDBRANCH  17  18
ENDBRANCH  16  17
ENDBRANCH  15  16
ENDBRANCH  14  15
ENDBRANCH  13  14
ENDBRANCH  12  13
ENDBRANCH  11  12
ENDBRANCH   1  11
TORSDOF 15
ENDMDL
MODEL 4
REMARK VINA RESULT:     9.384      2.108      8.808
REMARK INTER + INTRA:          17.154
REMARK INTER:                  17.807
REMARK INTRA:                  -0.653
REMARK UNBOUND:                -0.459
REMARK SMILES O=C([O-])CCCCCCCCCCCCCCC(=O)[O-]
REMARK SMILES IDX 10 1 9 2 8 3 7 4 6 5 5 6 4 7 2 8 1 9 3 10 11 11 12 12 13 13
REMARK SMILES IDX 14 14 15 15 16 16 17 17 18 18 19 19 20 20
REMARK H PARENT
REMARK Flexibility Score: inf
ROOT
ATOM      1  C   UNL     1     -32.767  12.765  17.752  1.00  0.00     0.000 C 
ENDROOT
BRANCH   1   2
ATOM      2  C   UNL     1     -33.779  13.573  16.926  1.00  0.00     0.000 C 
BRANCH   2   3
ATOM      3  C   UNL     1     -34.166  14.870  17.646  1.00  0.00     0.000 C 
BRANCH   3   4
ATOM      4  C   UNL     1     -34.702  15.912  16.653  1.00  0.00     0.000 C 
BRANCH   4   5
ATOM      5  C   UNL     1     -35.066  17.249  17.323  1.00  0.00     0.000 C 
BRANCH   5   6
ATOM      6  C   UNL     1     -36.536  17.380  17.760  1.00  0.00     0.006 C 
BRANCH   6   7
ATOM      7  C   UNL     1     -37.344  16.095  17.533  1.00  0.00     0.053 C 
BRANCH   7   8
ATOM      8  C   UNL     1     -38.707  16.221  18.136  1.00  0.00     0.041 C 
ATOM      9  O   UNL     1     -39.548  17.014  17.635  1.00  0.00    -0.550 OA
ATOM     10  O   UNL     1     -39.034  15.499  19.276  1.00  0.00    -0.550 OA
ENDBRANCH   7   8
ENDBRANCH   6   7
ENDBRANCH   5   6
ENDBRANCH   4   5
ENDBRANCH   3   4
ENDBRANCH   2   3
ENDBRANCH   1   2
BRANCH   1  11
ATOM     11  C   UNL     1     -33.137  12.703  19.242  1.00  0.00     0.000 C 
BRANCH  11  12
ATOM     12  C   UNL     1     -33.625  11.308  19.672  1.00  0.00     0.000 C 
BRANCH  12  13
ATOM     13  C   UNL     1     -33.933  11.227  21.176  1.00  0.00     0.000 C 
BRANCH  13  14
ATOM     14  C   UNL     1     -33.981  12.610  21.843  1.00  0.00     0.000 C 
BRANCH  14  15
ATOM     15  C   UNL     1     -34.543  12.510  23.270  1.00  0.00     0.000 C 
BRANCH  15  16
ATOM     16  C   UNL     1     -33.671  11.643  24.191  1.00  0.00     0.006 C 
BRANCH  16  17
ATOM     17  C   UNL     1     -34.431  11.145  25.428  1.00  0.00     0.053 C 
BRANCH  17  18
ATOM     18  C   UNL     1     -33.490  10.487  26.388  1.00  0.00     0.041 C 
ATOM     19  O   UNL     1     -32.472  11.103  26.801  1.00  0.00    -0.550 OA
ATOM     20  O   UNL     1     -33.712   9.176  26.789  1.00  0.00    -0.550 OA
ENDBRANCH  17  18
ENDBRANCH  16  17
ENDBRANCH  15  16
ENDBRANCH  14  15
ENDBRANCH  13  14
ENDBRANCH  12  13
ENDBRANCH  11  12
ENDBRANCH   1  11
TORSDOF 15
ENDMDL
