MODEL 1
REMARK VINA RESULT:    -5.403      0.000      0.000
REMARK INTER + INTRA:          -6.672
REMARK INTER:                  -6.509
REMARK INTRA:                  -0.163
REMARK UNBOUND:                -0.163
REMARK SMILES C=CCc1ccc(O)c(OC)c1
REMARK SMILES IDX 9 1 7 2 6 3 5 4 4 5 12 6 10 7 11 8 8 9 3 11 2 12 1 13
REMARK H PARENT 8 10
REMARK Flexibility Score: inf
ROOT
ATOM      1  C   UNL     1      54.614  58.775   8.241  1.00  0.00     0.160 A 
ATOM      2  C   UNL     1      55.000  59.996   8.813  1.00  0.00     0.157 A 
ATOM      3  C   UNL     1      54.030  60.893   9.280  1.00  0.00     0.050 A 
ATOM      4  C   UNL     1      52.673  60.576   9.181  1.00  0.00     0.008 A 
ATOM      5  C   UNL     1      52.272  59.355   8.623  1.00  0.00    -0.040 A 
ATOM      6  C   UNL     1      53.243  58.460   8.146  1.00  0.00     0.054 A 
ENDROOT
BRANCH   1   7
ATOM      7  O   UNL     1      55.615  57.905   7.780  1.00  0.00    -0.493 OA
ATOM      8  C   UNL     1      55.377  56.758   6.971  1.00  0.00     0.278 C 
ENDBRANCH   1   7
BRANCH   2   9
ATOM      9  O   UNL     1      56.354  60.312   8.911  1.00  0.00    -0.504 OA
ATOM     10  H   UNL     1      56.751  61.102   8.414  1.00  0.00     0.293 HD
ENDBRANCH   2   9
BRANCH   5  11
ATOM     11  C   UNL     1      50.806  59.030   8.492  1.00  0.00     0.062 C 
BRANCH  11  12
ATOM     12  C   UNL     1      50.606  57.562   8.241  1.00  0.00    -0.030 C 
ATOM     13  C   UNL     1      50.297  56.716   9.228  1.00  0.00     0.004 C 
ENDBRANCH  11  12
ENDBRANCH   5  11
TORSDOF 4
ENDMDL
MODEL 2
REMARK VINA RESULT:    -5.381      2.201      3.979
REMARK INTER + INTRA:          -6.645
REMARK INTER:                  -6.552
REMARK INTRA:                  -0.093
REMARK UNBOUND:                -0.163
REMARK SMILES C=CCc1ccc(O)c(OC)c1
REMARK SMILES IDX 9 1 7 2 6 3 5 4 4 5 12 6 10 7 11 8 8 9 3 11 2 12 1 13
REMARK H PARENT 8 10
REMARK Flexibility Score: inf
ROOT
ATOM      1  C   UNL     1      52.129  59.418   8.905  1.00  0.00     0.160 A 
ATOM      2  C   UNL     1      52.541  60.735   9.155  1.00  0.00     0.157 A 
ATOM      3  C   UNL     1      53.896  61.079   9.055  1.00  0.00     0.050 A 
ATOM      4  C   UNL     1      54.843  60.114   8.706  1.00  0.00     0.008 A 
ATOM      5  C   UNL     1      54.446  58.796   8.442  1.00  0.00    -0.040 A 
ATOM      6  C   UNL     1      53.089  58.449   8.551  1.00  0.00     0.054 A 
ENDROOT
BRANCH   1   7
ATOM      7  O   UNL     1      50.764  59.110   9.020  1.00  0.00    -0.493 OA
ATOM      8  C   UNL     1      50.102  58.090   8.280  1.00  0.00     0.278 C 
ENDBRANCH   1   7
BRANCH   2   9
ATOM      9  O   UNL     1      51.596  61.697   9.504  1.00  0.00    -0.504 OA
ATOM     10  H   UNL     1      51.411  62.499   8.910  1.00  0.00     0.293 HD
ENDBRANCH   2   9
BRANCH   5  11
ATOM     11  C   UNL     1      55.475  57.753   8.094  1.00  0.00     0.062 C 
BRANCH  11  12
ATOM     12  C   UNL     1      55.262  57.239   6.698  1.00  0.00    -0.030 C 
ATOM     13  C   UNL     1      54.884  58.045   5.702  1.00  0.00     0.004 C 
ENDBRANCH  11  12
ENDBRANCH   5  11
TORSDOF 4
ENDMDL
MODEL 3
REMARK VINA RESULT:    -5.335      7.943      9.123
REMARK INTER + INTRA:          -6.590
REMARK INTER:                  -6.500
REMARK INTRA:                  -0.090
REMARK UNBOUND:                -0.163
REMARK SMILES C=CCc1ccc(O)c(OC)c1
REMARK SMILES IDX 9 1 7 2 6 3 5 4 4 5 12 6 10 7 11 8 8 9 3 11 2 12 1 13
REMARK H PARENT 8 10
REMARK Flexibility Score: inf
ROOT
ATOM      1  C   UNL     1      53.949  58.457   1.057  1.00  0.00     0.160 A 
ATOM      2  C   UNL     1      55.184  58.090   0.503  1.00  0.00     0.157 A 
ATOM      3  C   UNL     1      55.268  57.717  -0.845  1.00  0.00     0.050 A 
ATOM      4  C   UNL     1      54.123  57.709  -1.645  1.00  0.00     0.008 A 
ATOM      5  C   UNL     1      52.884  58.084  -1.110  1.00  0.00    -0.040 A 
ATOM      6  C   UNL     1      52.798  58.449   0.244  1.00  0.00     0.054 A 
ENDROOT
BRANCH   1   7
ATOM      7  O   UNL     1      53.905  58.820   2.412  1.00  0.00    -0.493 OA
ATOM      8  C   UNL     1      52.839  59.542   3.019  1.00  0.00     0.278 C 
ENDBRANCH   1   7
BRANCH   2   9
ATOM      9  O   UNL     1      56.326  58.098   1.302  1.00  0.00    -0.504 OA
ATOM     10  H   UNL     1      56.276  57.920   2.299  1.00  0.00     0.293 HD
ENDBRANCH   2   9
BRANCH   5  11
ATOM     11  C   UNL     1      51.647  58.045  -1.969  1.00  0.00     0.062 C 
BRANCH  11  12
ATOM     12  C   UNL     1      51.115  59.432  -2.199  1.00  0.00    -0.030 C 
ATOM     13  C   UNL     1      50.168  59.960  -1.418  1.00  0.00     0.004 C 
ENDBRANCH  11  12
ENDBRANCH   5  11
TORSDOF 4
ENDMDL
MODEL 4
REMARK VINA RESULT:    -5.291      2.230      3.626
REMARK INTER + INTRA:          -6.537
REMARK INTER:                  -6.398
REMARK INTRA:                  -0.139
REMARK UNBOUND:                -0.163
REMARK SMILES C=CCc1ccc(O)c(OC)c1
REMARK SMILES IDX 9 1 7 2 6 3 5 4 4 5 12 6 10 7 11 8 8 9 3 11 2 12 1 13
REMARK H PARENT 8 10
REMARK Flexibility Score: inf
ROOT
ATOM      1  C   UNL     1      53.815  58.837   5.788  1.00  0.00     0.160 A 
ATOM      2  C   UNL     1      54.779  57.982   6.341  1.00  0.00     0.157 A 
ATOM      3  C   UNL     1      54.812  57.761   7.725  1.00  0.00     0.050 A 
ATOM      4  C   UNL     1      53.885  58.388   8.560  1.00  0.00     0.008 A 
ATOM      5  C   UNL     1      52.908  59.237   8.021  1.00  0.00    -0.040 A 
ATOM      6  C   UNL     1      52.881  59.466   6.636  1.00  0.00     0.054 A 
ENDROOT
BRANCH   1   7
ATOM      7  O   UNL     1      53.817  59.038   4.398  1.00  0.00    -0.493 OA
ATOM      8  C   UNL     1      52.725  59.575   3.659  1.00  0.00     0.278 C 
ENDBRANCH   1   7
BRANCH   2   9
ATOM      9  O   UNL     1      55.703  57.356   5.508  1.00  0.00    -0.504 OA
ATOM     10  H   UNL     1      56.246  56.558   5.822  1.00  0.00     0.293 HD
ENDBRANCH   2   9
BRANCH   5  11
ATOM     11  C   UNL     1      51.930  59.935   8.929  1.00  0.00     0.062 C 
BRANCH  11  12
ATOM     12  C   UNL     1      52.428  61.305   9.297  1.00  0.00    -0.030 C 
ATOM     13  C   UNL     1      53.557  61.479   9.990  1.00  0.00     0.004 C 
ENDBRANCH  11  12
ENDBRANCH   5  11
TORSDOF 4
ENDMDL
MODEL 5
REMARK VINA RESULT:    -5.235     10.993     11.966
REMARK INTER + INTRA:          -6.469
REMARK INTER:                  -6.225
REMARK INTRA:                  -0.244
REMARK UNBOUND:                -0.163
REMARK SMILES C=CCc1ccc(O)c(OC)c1
REMARK SMILES IDX 9 1 7 2 6 3 5 4 4 5 12 6 10 7 11 8 8 9 3 11 2 12 1 13
REMARK H PARENT 8 10
REMARK Flexibility Score: inf
ROOT
ATOM      1  C   UNL     1      47.390  66.243   3.210  1.00  0.00     0.160 A 
ATOM      2  C   UNL     1      47.920  67.529   3.392  1.00  0.00     0.157 A 
ATOM      3  C   UNL     1      47.142  68.533   3.984  1.00  0.00     0.050 A 
ATOM      4  C   UNL     1      45.836  68.260   4.396  1.00  0.00     0.008 A 
ATOM      5  C   UNL     1      45.296  66.977   4.231  1.00  0.00    -0.040 A 
ATOM      6  C   UNL     1      46.072  65.973   3.630  1.00  0.00     0.054 A 
ENDROOT
BRANCH   1   7
ATOM      7  O   UNL     1      48.198  65.265   2.609  1.00  0.00    -0.493 OA
ATOM      8  C   UNL     1      47.738  64.312   1.656  1.00  0.00     0.278 C 
ENDBRANCH   1   7
BRANCH   2   9
ATOM      9  O   UNL     1      49.223  67.800   2.981  1.00  0.00    -0.504 OA
ATOM     10  H   UNL     1      50.025  67.501   3.525  1.00  0.00     0.293 HD
ENDBRANCH   2   9
BRANCH   5  11
ATOM     11  C   UNL     1      43.877  66.696   4.650  1.00  0.00     0.062 C 
BRANCH  11  12
ATOM     12  C   UNL     1      42.905  67.434   3.772  1.00  0.00    -0.030 C 
ATOM     13  C   UNL     1      42.876  67.251   2.449  1.00  0.00     0.004 C 
ENDBRANCH  11  12
ENDBRANCH   5  11
TORSDOF 4
ENDMDL
MODEL 6
REMARK VINA RESULT:    -5.209     10.659     11.791
REMARK INTER + INTRA:          -6.439
REMARK INTER:                  -6.216
REMARK INTRA:                  -0.223
REMARK UNBOUND:                -0.163
REMARK SMILES C=CCc1ccc(O)c(OC)c1
REMARK SMILES IDX 9 1 7 2 6 3 5 4 4 5 12 6 10 7 11 8 8 9 3 11 2 12 1 13
REMARK H PARENT 8 10
REMARK Flexibility Score: inf
ROOT
ATOM      1  C   UNL     1      46.526  64.952   3.748  1.00  0.00     0.160 A 
ATOM      2  C   UNL     1      47.668  65.720   3.477  1.00  0.00     0.157 A 
ATOM      3  C   UNL     1      47.583  67.118   3.437  1.00  0.00     0.050 A 
ATOM      4  C   UNL     1      46.362  67.756   3.668  1.00  0.00     0.008 A 
ATOM      5  C   UNL     1      45.214  67.003   3.952  1.00  0.00    -0.040 A 
ATOM      6  C   UNL     1      45.297  65.602   3.983  1.00  0.00     0.054 A 
ENDROOT
BRANCH   1   7
ATOM      7  O   UNL     1      46.650  63.554   3.775  1.00  0.00    -0.493 OA
ATOM      8  C   UNL     1      45.683  62.649   3.255  1.00  0.00     0.278 C 
ENDBRANCH   1   7
BRANCH   2   9
ATOM      9  O   UNL     1      48.886  65.083   3.246  1.00  0.00    -0.504 OA
ATOM     10  H   UNL     1      49.696  65.260   3.831  1.00  0.00     0.293 HD
ENDBRANCH   2   9
BRANCH   5  11
ATOM     11  C   UNL     1      43.894  67.694   4.171  1.00  0.00     0.062 C 
BRANCH  11  12
ATOM     12  C   UNL     1      44.100  69.060   4.765  1.00  0.00    -0.030 C 
ATOM     13  C   UNL     1      43.396  69.481   5.820  1.00  0.00     0.004 C 
ENDBRANCH  11  12
ENDBRANCH   5  11
TORSDOF 4
ENDMDL
MODEL 7
REMARK VINA RESULT:    -5.141      9.534     10.704
REMARK INTER + INTRA:          -6.356
REMARK INTER:                  -6.190
REMARK INTRA:                  -0.166
REMARK UNBOUND:                -0.163
REMARK SMILES C=CCc1ccc(O)c(OC)c1
REMARK SMILES IDX 9 1 7 2 6 3 5 4 4 5 12 6 10 7 11 8 8 9 3 11 2 12 1 13
REMARK H PARENT 8 10
REMARK Flexibility Score: inf
ROOT
ATOM      1  C   UNL     1      53.986  58.307  -1.277  1.00  0.00     0.160 A 
ATOM      2  C   UNL     1      52.924  57.595  -1.852  1.00  0.00     0.157 A 
ATOM      3  C   UNL     1      51.753  58.264  -2.233  1.00  0.00     0.050 A 
ATOM      4  C   UNL     1      51.637  59.642  -2.044  1.00  0.00     0.008 A 
ATOM      5  C   UNL     1      52.694  60.370  -1.482  1.00  0.00    -0.040 A 
ATOM      6  C   UNL     1      53.864  59.699  -1.091  1.00  0.00     0.054 A 
ENDROOT
BRANCH   1   7
ATOM      7  O   UNL     1      55.141  57.602  -0.904  1.00  0.00    -0.493 OA
ATOM      8  C   UNL     1      56.147  58.105  -0.032  1.00  0.00     0.278 C 
ENDBRANCH   1   7
BRANCH   2   9
ATOM      9  O   UNL     1      53.040  56.219  -2.039  1.00  0.00    -0.504 OA
ATOM     10  H   UNL     1      52.609  55.754  -2.831  1.00  0.00     0.293 HD
ENDBRANCH   2   9
BRANCH   5  11
ATOM     11  C   UNL     1      52.553  61.853  -1.254  1.00  0.00     0.062 C 
BRANCH  11  12
ATOM     12  C   UNL     1      53.900  62.519  -1.231  1.00  0.00    -0.030 C 
ATOM     13  C   UNL     1      54.467  62.997  -2.342  1.00  0.00     0.004 C 
ENDBRANCH  11  12
ENDBRANCH   5  11
TORSDOF 4
ENDMDL
MODEL 8
REMARK VINA RESULT:    -5.134      2.938      4.808
REMARK INTER + INTRA:          -6.348
REMARK INTER:                  -6.078
REMARK INTRA:                  -0.270
REMARK UNBOUND:                -0.163
REMARK SMILES C=CCc1ccc(O)c(OC)c1
REMARK SMILES IDX 9 1 7 2 6 3 5 4 4 5 12 6 10 7 11 8 8 9 3 11 2 12 1 13
REMARK H PARENT 8 10
REMARK Flexibility Score: inf
ROOT
ATOM      1  C   UNL     1      50.894  59.644   7.774  1.00  0.00     0.160 A 
ATOM      2  C   UNL     1      50.399  58.682   8.667  1.00  0.00     0.157 A 
ATOM      3  C   UNL     1      51.284  57.930   9.451  1.00  0.00     0.050 A 
ATOM      4  C   UNL     1      52.661  58.133   9.350  1.00  0.00     0.008 A 
ATOM      5  C   UNL     1      53.171  59.099   8.471  1.00  0.00    -0.040 A 
ATOM      6  C   UNL     1      52.286  59.847   7.678  1.00  0.00     0.054 A 
ENDROOT
BRANCH   1   7
ATOM      7  O   UNL     1      49.977  60.374   7.001  1.00  0.00    -0.493 OA
ATOM      8  C   UNL     1      50.307  61.526   6.233  1.00  0.00     0.278 C 
ENDBRANCH   1   7
BRANCH   2   9
ATOM      9  O   UNL     1      49.025  58.479   8.767  1.00  0.00    -0.504 OA
ATOM     10  H   UNL     1      48.578  58.305   9.661  1.00  0.00     0.293 HD
ENDBRANCH   2   9
BRANCH   5  11
ATOM     11  C   UNL     1      54.659  59.294   8.345  1.00  0.00     0.062 C 
BRANCH  11  12
ATOM     12  C   UNL     1      55.347  57.986   8.067  1.00  0.00    -0.030 C 
ATOM     13  C   UNL     1      55.307  57.415   6.860  1.00  0.00     0.004 C 
ENDBRANCH  11  12
ENDBRANCH   5  11
TORSDOF 4
ENDMDL
MODEL 9
REMARK VINA RESULT:    -5.107      2.771      4.290
REMARK INTER + INTRA:          -6.316
REMARK INTER:                  -6.146
REMARK INTRA:                  -0.170
REMARK UNBOUND:                -0.163
REMARK SMILES C=CCc1ccc(O)c(OC)c1
REMARK SMILES IDX 9 1 7 2 6 3 5 4 4 5 12 6 10 7 11 8 8 9 3 11 2 12 1 13
REMARK H PARENT 8 10
REMARK Flexibility Score: inf
ROOT
ATOM      1  C   UNL     1      51.319  59.546   8.025  1.00  0.00     0.160 A 
ATOM      2  C   UNL     1      51.218  60.891   7.641  1.00  0.00     0.157 A 
ATOM      3  C   UNL     1      52.373  61.675   7.513  1.00  0.00     0.050 A 
ATOM      4  C   UNL     1      53.630  61.122   7.766  1.00  0.00     0.008 A 
ATOM      5  C   UNL     1      53.748  59.777   8.140  1.00  0.00    -0.040 A 
ATOM      6  C   UNL     1      52.591  58.993   8.277  1.00  0.00     0.054 A 
ENDROOT
BRANCH   1   7
ATOM      7  O   UNL     1      50.140  58.794   8.147  1.00  0.00    -0.493 OA
ATOM      8  C   UNL     1      50.022  57.595   8.906  1.00  0.00     0.278 C 
ENDBRANCH   1   7
BRANCH   2   9
ATOM      9  O   UNL     1      49.963  61.442   7.389  1.00  0.00    -0.504 OA
ATOM     10  H   UNL     1      49.533  62.097   8.033  1.00  0.00     0.293 HD
ENDBRANCH   2   9
BRANCH   5  11
ATOM     11  C   UNL     1      55.104  59.193   8.441  1.00  0.00     0.062 C 
BRANCH  11  12
ATOM     12  C   UNL     1      55.156  57.740   8.059  1.00  0.00    -0.030 C 
ATOM     13  C   UNL     1      55.388  57.352   6.802  1.00  0.00     0.004 C 
ENDBRANCH  11  12
ENDBRANCH   5  11
TORSDOF 4
ENDMDL
