MODEL 1
REMARK VINA RESULT:    -3.710      0.000      0.000
REMARK INTER + INTRA:          -4.673
REMARK INTER:                  -4.577
REMARK INTRA:                  -0.095
REMARK UNBOUND:                -0.095
REMARK SMILES CCCCCC(=O)[O-]
REMARK SMILES IDX 4 1 5 2 6 3 7 4 8 5 3 6 2 7 1 8
REMARK H PARENT
REMARK Flexibility Score: inf
ROOT
ATOM      1  C   UNL     1      -9.138   4.524  -9.325  1.00  0.00     0.006 C 
ENDROOT
BRANCH   1   2
ATOM      2  C   UNL     1      -9.143   5.516  -8.154  1.00  0.00     0.053 C 
BRANCH   2   3
ATOM      3  C   UNL     1      -7.827   5.541  -7.439  1.00  0.00     0.041 C 
ATOM      4  O   UNL     1      -6.800   5.984  -8.017  1.00  0.00    -0.550 OA
ATOM      5  O   UNL     1      -7.741   5.107  -6.122  1.00  0.00    -0.550 OA
ENDBRANCH   2   3
ENDBRANCH   1   2
BRANCH   1   6
ATOM      6  C   UNL     1      -9.505   5.196 -10.656  1.00  0.00     0.000 C 
BRANCH   6   7
ATOM      7  C   UNL     1      -8.746   4.552 -11.823  1.00  0.00    -0.003 C 
ATOM      8  C   UNL     1      -7.583   5.430 -12.275  1.00  0.00     0.004 C 
ENDBRANCH   6   7
ENDBRANCH   1   6
TORSDOF 4
ENDMDL
MODEL 2
REMARK VINA RESULT:    -3.629      1.557      2.156
REMARK INTER + INTRA:          -4.574
REMARK INTER:                  -4.486
REMARK INTRA:                  -0.088
REMARK UNBOUND:                -0.095
REMARK SMILES CCCCCC(=O)[O-]
REMARK SMILES IDX 4 1 5 2 6 3 7 4 8 5 3 6 2 7 1 8
REMARK H PARENT
REMARK Flexibility Score: inf
ROOT
ATOM      1  C   UNL     1      -8.764   5.872  -7.952  1.00  0.00     0.006 C 
ENDROOT
BRANCH   1   2
ATOM      2  C   UNL     1      -7.619   5.541  -6.986  1.00  0.00     0.053 C 
BRANCH   2   3
ATOM      3  C   UNL     1      -8.127   5.147  -5.633  1.00  0.00     0.041 C 
ATOM      4  O   UNL     1      -9.305   5.432  -5.291  1.00  0.00    -0.550 OA
ATOM      5  O   UNL     1      -7.312   4.434  -4.763  1.00  0.00    -0.550 OA
ENDBRANCH   2   3
ENDBRANCH   1   2
BRANCH   1   6
ATOM      6  C   UNL     1      -9.044   4.725  -8.935  1.00  0.00     0.000 C 
BRANCH   6   7
ATOM      7  C   UNL     1      -9.659   5.256 -10.236  1.00  0.00    -0.003 C 
ATOM      8  C   UNL     1      -8.783   4.917 -11.438  1.00  0.00     0.004 C 
ENDBRANCH   6   7
ENDBRANCH   1   6
TORSDOF 4
ENDMDL
MODEL 3
REMARK VINA RESULT:    -3.454      3.557      5.249
REMARK INTER + INTRA:          -4.358
REMARK INTER:                  -4.263
REMARK INTRA:                  -0.095
REMARK UNBOUND:                -0.095
REMARK SMILES CCCCCC(=O)[O-]
REMARK SMILES IDX 4 1 5 2 6 3 7 4 8 5 3 6 2 7 1 8
REMARK H PARENT
REMARK Flexibility Score: inf
ROOT
ATOM      1  C   UNL     1      -8.774   4.573 -12.953  1.00  0.00     0.006 C 
ENDROOT
BRANCH   1   2
ATOM      2  C   UNL     1      -7.937   5.266 -14.037  1.00  0.00     0.053 C 
BRANCH   2   3
ATOM      3  C   UNL     1      -6.516   4.790 -14.033  1.00  0.00     0.041 C 
ATOM      4  O   UNL     1      -6.228   3.652 -14.489  1.00  0.00    -0.550 OA
ATOM      5  O   UNL     1      -5.506   5.617 -13.558  1.00  0.00    -0.550 OA
ENDBRANCH   2   3
ENDBRANCH   1   2
BRANCH   1   6
ATOM      6  C   UNL     1      -8.350   4.991 -11.537  1.00  0.00     0.000 C 
BRANCH   6   7
ATOM      7  C   UNL     1      -9.562   5.059 -10.599  1.00  0.00    -0.003 C 
ATOM      8  C   UNL     1      -9.132   4.993  -9.137  1.00  0.00     0.004 C 
ENDBRANCH   6   7
ENDBRANCH   1   6
TORSDOF 4
ENDMDL
MODEL 4
REMARK VINA RESULT:    -3.416      1.963      3.005
REMARK INTER + INTRA:          -4.311
REMARK INTER:                  -4.178
REMARK INTRA:                  -0.133
REMARK UNBOUND:                -0.095
REMARK SMILES CCCCCC(=O)[O-]
REMARK SMILES IDX 4 1 5 2 6 3 7 4 8 5 3 6 2 7 1 8
REMARK H PARENT
REMARK Flexibility Score: inf
ROOT
ATOM      1  C   UNL     1      -7.917   5.544  -6.716  1.00  0.00     0.006 C 
ENDROOT
BRANCH   1   2
ATOM      2  C   UNL     1      -7.294   6.907  -6.389  1.00  0.00     0.053 C 
BRANCH   2   3
ATOM      3  C   UNL     1      -5.935   7.060  -7.001  1.00  0.00     0.041 C 
ATOM      4  O   UNL     1      -4.990   7.553  -6.331  1.00  0.00    -0.550 OA
ATOM      5  O   UNL     1      -5.703   6.625  -8.300  1.00  0.00    -0.550 OA
ENDBRANCH   2   3
ENDBRANCH   1   2
BRANCH   1   6
ATOM      6  C   UNL     1      -9.140   5.670  -7.637  1.00  0.00     0.000 C 
BRANCH   6   7
ATOM      7  C   UNL     1      -8.900   4.945  -8.967  1.00  0.00    -0.003 C 
ATOM      8  C   UNL     1      -9.948   5.338 -10.005  1.00  0.00     0.004 C 
ENDBRANCH   6   7
ENDBRANCH   1   6
TORSDOF 4
ENDMDL
MODEL 5
REMARK VINA RESULT:    -3.386      2.255      3.339
REMARK INTER + INTRA:          -4.273
REMARK INTER:                  -4.122
REMARK INTRA:                  -0.151
REMARK UNBOUND:                -0.095
REMARK SMILES CCCCCC(=O)[O-]
REMARK SMILES IDX 4 1 5 2 6 3 7 4 8 5 3 6 2 7 1 8
REMARK H PARENT
REMARK Flexibility Score: inf
ROOT
ATOM      1  C   UNL     1      -7.367   6.100  -6.697  1.00  0.00     0.006 C 
ENDROOT
BRANCH   1   2
ATOM      2  C   UNL     1      -7.904   5.220  -5.560  1.00  0.00     0.053 C 
BRANCH   2   3
ATOM      3  C   UNL     1      -8.828   5.978  -4.658  1.00  0.00     0.041 C 
ATOM      4  O   UNL     1      -9.629   6.823  -5.136  1.00  0.00    -0.550 OA
ATOM      5  O   UNL     1      -8.830   5.725  -3.292  1.00  0.00    -0.550 OA
ENDBRANCH   2   3
ENDBRANCH   1   2
BRANCH   1   6
ATOM      6  C   UNL     1      -7.625   5.484  -8.080  1.00  0.00     0.000 C 
BRANCH   6   7
ATOM      7  C   UNL     1      -9.129   5.352  -8.349  1.00  0.00    -0.003 C 
ATOM      8  C   UNL     1      -9.397   4.940  -9.794  1.00  0.00     0.004 C 
ENDBRANCH   6   7
ENDBRANCH   1   6
TORSDOF 4
ENDMDL
MODEL 6
REMARK VINA RESULT:    -3.274      3.283      4.771
REMARK INTER + INTRA:          -4.135
REMARK INTER:                  -4.049
REMARK INTRA:                  -0.086
REMARK UNBOUND:                -0.095
REMARK SMILES CCCCCC(=O)[O-]
REMARK SMILES IDX 4 1 5 2 6 3 7 4 8 5 3 6 2 7 1 8
REMARK H PARENT
REMARK Flexibility Score: inf
ROOT
ATOM      1  C   UNL     1      -8.483   5.259 -10.945  1.00  0.00     0.006 C 
ENDROOT
BRANCH   1   2
ATOM      2  C   UNL     1      -8.719   4.544 -12.282  1.00  0.00     0.053 C 
BRANCH   2   3
ATOM      3  C   UNL     1      -7.722   4.960 -13.320  1.00  0.00     0.041 C 
ATOM      4  O   UNL     1      -6.531   4.559 -13.251  1.00  0.00    -0.550 OA
ATOM      5  O   UNL     1      -8.117   5.763 -14.383  1.00  0.00    -0.550 OA
ENDBRANCH   2   3
ENDBRANCH   1   2
BRANCH   1   6
ATOM      6  C   UNL     1      -9.728   5.232 -10.045  1.00  0.00     0.000 C 
BRANCH   6   7
ATOM      7  C   UNL     1      -9.333   5.148  -8.565  1.00  0.00    -0.003 C 
ATOM      8  C   UNL     1      -7.863   5.504  -8.366  1.00  0.00     0.004 C 
ENDBRANCH   6   7
ENDBRANCH   1   6
TORSDOF 4
ENDMDL
MODEL 7
REMARK VINA RESULT:    -3.225      2.599      4.333
REMARK INTER + INTRA:          -4.074
REMARK INTER:                  -3.950
REMARK INTRA:                  -0.125
REMARK UNBOUND:                -0.095
REMARK SMILES CCCCCC(=O)[O-]
REMARK SMILES IDX 4 1 5 2 6 3 7 4 8 5 3 6 2 7 1 8
REMARK H PARENT
REMARK Flexibility Score: inf
ROOT
ATOM      1  C   UNL     1      -9.146   5.471  -7.695  1.00  0.00     0.006 C 
ENDROOT
BRANCH   1   2
ATOM      2  C   UNL     1      -8.372   5.140  -8.977  1.00  0.00     0.053 C 
BRANCH   2   3
ATOM      3  C   UNL     1      -9.261   5.144 -10.183  1.00  0.00     0.041 C 
ATOM      4  O   UNL     1     -10.422   5.626 -10.111  1.00  0.00    -0.550 OA
ATOM      5  O   UNL     1      -8.795   4.649 -11.394  1.00  0.00    -0.550 OA
ENDBRANCH   2   3
ENDBRANCH   1   2
BRANCH   1   6
ATOM      6  C   UNL     1      -8.301   6.279  -6.698  1.00  0.00     0.000 C 
BRANCH   6   7
ATOM      7  C   UNL     1      -6.916   6.589  -7.280  1.00  0.00    -0.003 C 
ATOM      8  C   UNL     1      -5.974   7.124  -6.205  1.00  0.00     0.004 C 
ENDBRANCH   6   7
ENDBRANCH   1   6
TORSDOF 4
ENDMDL
MODEL 8
REMARK VINA RESULT:    -3.213      3.614      5.162
REMARK INTER + INTRA:          -4.059
REMARK INTER:                  -3.838
REMARK INTRA:                  -0.221
REMARK UNBOUND:                -0.095
REMARK SMILES CCCCCC(=O)[O-]
REMARK SMILES IDX 4 1 5 2 6 3 7 4 8 5 3 6 2 7 1 8
REMARK H PARENT
REMARK Flexibility Score: inf
ROOT
ATOM      1  C   UNL     1      -6.257   4.587 -13.770  1.00  0.00     0.006 C 
ENDROOT
BRANCH   1   2
ATOM      2  C   UNL     1      -6.948   5.271 -12.584  1.00  0.00     0.053 C 
BRANCH   2   3
ATOM      3  C   UNL     1      -8.366   4.814 -12.425  1.00  0.00     0.041 C 
ATOM      4  O   UNL     1      -8.969   4.273 -13.388  1.00  0.00    -0.550 OA
ATOM      5  O   UNL     1      -9.009   4.953 -11.201  1.00  0.00    -0.550 OA
ENDBRANCH   2   3
ENDBRANCH   1   2
BRANCH   1   6
ATOM      6  C   UNL     1      -5.720   5.600 -14.792  1.00  0.00     0.000 C 
BRANCH   6   7
ATOM      7  C   UNL     1      -6.503   5.517 -16.109  1.00  0.00    -0.003 C 
ATOM      8  C   UNL     1      -7.781   6.347 -16.043  1.00  0.00     0.004 C 
ENDBRANCH   6   7
ENDBRANCH   1   6
TORSDOF 4
ENDMDL
MODEL 9
REMARK VINA RESULT:    -3.118      2.320      3.341
REMARK INTER + INTRA:          -3.942
REMARK INTER:                  -3.854
REMARK INTRA:                  -0.088
REMARK UNBOUND:                -0.095
REMARK SMILES CCCCCC(=O)[O-]
REMARK SMILES IDX 4 1 5 2 6 3 7 4 8 5 3 6 2 7 1 8
REMARK H PARENT
REMARK Flexibility Score: inf
ROOT
ATOM      1  C   UNL     1      -8.746   4.545 -12.454  1.00  0.00     0.006 C 
ENDROOT
BRANCH   1   2
ATOM      2  C   UNL     1      -8.173   5.133 -11.158  1.00  0.00     0.053 C 
BRANCH   2   3
ATOM      3  C   UNL     1      -9.142   5.025 -10.020  1.00  0.00     0.041 C 
ATOM      4  O   UNL     1      -8.728   4.782  -8.857  1.00  0.00    -0.550 OA
ATOM      5  O   UNL     1     -10.498   5.227 -10.240  1.00  0.00    -0.550 OA
ENDBRANCH   2   3
ENDBRANCH   1   2
BRANCH   1   6
ATOM      6  C   UNL     1      -8.023   5.075 -13.701  1.00  0.00     0.000 C 
BRANCH   6   7
ATOM      7  C   UNL     1      -6.505   4.898 -13.571  1.00  0.00    -0.003 C 
ATOM      8  C   UNL     1      -5.961   3.985 -14.667  1.00  0.00     0.004 C 
ENDBRANCH   6   7
ENDBRANCH   1   6
TORSDOF 4
ENDMDL
