MODEL 1
REMARK VINA RESULT:    -6.908      0.000      0.000
REMARK INTER + INTRA:         -10.533
REMARK INTER:                  -9.533
REMARK INTRA:                  -1.000
REMARK UNBOUND:                -1.000
REMARK SMILES O=C([O-])[C@@H]1O[C@H](Oc2cc3oc(-c4ccccc4)cc(=O)c3c(O)c2O)[C@@H](O)[C@@H](O)[C@@H]1O
REMARK SMILES IDX 7 1 6 2 4 3 31 4 5 5 29 6 27 7 2 8 1 9 3 10 32 11 30 13
REMARK SMILES IDX 28 15 8 17 25 18 9 19 23 20 10 21 22 22 11 23 20 24 12 25
REMARK SMILES IDX 19 26 21 27 26 28 24 30 13 32 14 33 18 34 15 35 17 36 16 37
REMARK H PARENT 32 12 30 14 28 16 26 29 24 31
REMARK Flexibility Score: inf
ROOT
ATOM      1  O   UNL     1      10.153 -17.935 -23.696  1.00  0.00    -0.458 OA
ENDROOT
BRANCH   1   2
ATOM      2  C   UNL     1      11.233 -18.512 -24.436  1.00  0.00     0.339 C 
ATOM      3  C   UNL     1      10.225 -20.659 -24.649  1.00  0.00     0.199 C 
ATOM      4  C   UNL     1       9.975 -20.459 -26.166  1.00  0.00     0.180 C 
ATOM      5  O   UNL     1      11.336 -19.906 -24.174  1.00  0.00    -0.328 OA
ATOM      6  C   UNL     1       9.893 -18.961 -26.521  1.00  0.00     0.181 C 
ATOM      7  C   UNL     1      11.108 -18.216 -25.945  1.00  0.00     0.214 C 
BRANCH   3   8
ATOM      8  C   UNL     1       9.016 -20.489 -23.756  1.00  0.00     0.073 C 
ATOM      9  O   UNL     1       7.907 -20.106 -24.216  1.00  0.00    -0.547 OA
ATOM     10  O   UNL     1       9.139 -20.731 -22.394  1.00  0.00    -0.547 OA
ENDBRANCH   3   8
BRANCH   4  11
ATOM     11  O   UNL     1       8.800 -21.124 -26.557  1.00  0.00    -0.387 OA
ATOM     12  H   UNL     1       8.038 -20.604 -26.193  1.00  0.00     0.211 HD
ENDBRANCH   4  11
BRANCH   6  13
ATOM     13  O   UNL     1       9.791 -18.761 -27.910  1.00  0.00    -0.387 OA
ATOM     14  H   UNL     1       9.781 -19.652 -28.350  1.00  0.00     0.211 HD
ENDBRANCH   6  13
BRANCH   7  15
ATOM     15  O   UNL     1      12.280 -18.622 -26.606  1.00  0.00    -0.384 OA
ATOM     16  H   UNL     1      12.230 -19.609 -26.699  1.00  0.00     0.211 HD
ENDBRANCH   7  15
ENDBRANCH   1   2
BRANCH   1  17
ATOM     17  C   UNL     1      10.143 -16.595 -23.304  1.00  0.00     0.172 A 
ATOM     18  C   UNL     1      10.514 -16.216 -21.999  1.00  0.00     0.201 A 
ATOM     19  C   UNL     1       9.746 -15.624 -24.225  1.00  0.00     0.098 A 
ATOM     20  C   UNL     1      10.538 -14.854 -21.642  1.00  0.00     0.176 A 
ATOM     21  C   UNL     1       9.759 -14.272 -23.882  1.00  0.00     0.146 A 
ATOM     22  C   UNL     1      10.162 -13.870 -22.588  1.00  0.00     0.111 A 
ATOM     23  O   UNL     1       9.392 -13.372 -24.787  1.00  0.00    -0.456 OA
ATOM     24  C   UNL     1      10.166 -12.489 -22.306  1.00  0.00     0.197 A 
ATOM     25  C   UNL     1       9.374 -12.061 -24.550  1.00  0.00     0.138 A 
ATOM     26  C   UNL     1       9.772 -11.582 -23.292  1.00  0.00     0.100 A 
ATOM     27  O   UNL     1      10.522 -12.047 -21.180  1.00  0.00    -0.289 OA
BRANCH  18  28
ATOM     28  O   UNL     1      10.837 -17.180 -21.043  1.00  0.00    -0.502 OA
ATOM     29  H   UNL     1      11.288 -16.947 -20.166  1.00  0.00     0.293 HD
ENDBRANCH  18  28
BRANCH  20  30
ATOM     30  O   UNL     1      10.927 -14.481 -20.353  1.00  0.00    -0.504 OA
ATOM     31  H   UNL     1      11.597 -15.014 -19.810  1.00  0.00     0.293 HD
ENDBRANCH  20  30
BRANCH  25  32
ATOM     32  C   UNL     1       8.948 -11.146 -25.638  1.00  0.00     0.017 A 
ATOM     33  C   UNL     1       9.207  -9.767 -25.524  1.00  0.00     0.012 A 
ATOM     34  C   UNL     1       8.315 -11.623 -26.805  1.00  0.00     0.012 A 
ATOM     35  C   UNL     1       8.823  -8.885 -26.539  1.00  0.00     0.001 A 
ATOM     36  C   UNL     1       7.934 -10.736 -27.816  1.00  0.00     0.001 A 
ATOM     37  C   UNL     1       8.183  -9.369 -27.682  1.00  0.00     0.000 A 
ENDBRANCH  25  32
ENDBRANCH   1  17
TORSDOF 9
ENDMDL
MODEL 2
REMARK VINA RESULT:    -6.849      1.258      2.189
REMARK INTER + INTRA:         -10.452
REMARK INTER:                  -9.127
REMARK INTRA:                  -1.325
REMARK UNBOUND:                -1.000
REMARK SMILES O=C([O-])[C@@H]1O[C@H](Oc2cc3oc(-c4ccccc4)cc(=O)c3c(O)c2O)[C@@H](O)[C@@H](O)[C@@H]1O
REMARK SMILES IDX 7 1 6 2 4 3 31 4 5 5 29 6 27 7 2 8 1 9 3 10 32 11 30 13
REMARK SMILES IDX 28 15 8 17 25 18 9 19 23 20 10 21 22 22 11 23 20 24 12 25
REMARK SMILES IDX 19 26 21 27 26 28 24 30 13 32 14 33 18 34 15 35 17 36 16 37
REMARK H PARENT 32 12 30 14 28 16 26 29 24 31
REMARK Flexibility Score: inf
ROOT
ATOM      1  O   UNL     1       9.056 -17.054 -24.554  1.00  0.00    -0.458 OA
ENDROOT
BRANCH   1   2
ATOM      2  C   UNL     1       9.036 -17.464 -25.924  1.00  0.00     0.339 C 
ATOM      3  C   UNL     1      11.016 -18.781 -25.783  1.00  0.00     0.199 C 
ATOM      4  C   UNL     1      10.218 -20.104 -25.912  1.00  0.00     0.180 C 
ATOM      5  O   UNL     1      10.357 -17.682 -26.405  1.00  0.00    -0.328 OA
ATOM      6  C   UNL     1       8.762 -19.921 -25.442  1.00  0.00     0.181 C 
ATOM      7  C   UNL     1       8.135 -18.700 -26.132  1.00  0.00     0.214 C 
BRANCH   3   8
ATOM      8  C   UNL     1      11.484 -18.430 -24.389  1.00  0.00     0.073 C 
ATOM      9  O   UNL     1      12.352 -17.538 -24.190  1.00  0.00    -0.547 OA
ATOM     10  O   UNL     1      10.968 -19.127 -23.304  1.00  0.00    -0.547 OA
ENDBRANCH   3   8
BRANCH   4  11
ATOM     11  O   UNL     1      10.849 -21.125 -25.181  1.00  0.00    -0.387 OA
ATOM     12  H   UNL     1      10.329 -21.956 -25.334  1.00  0.00     0.211 HD
ENDBRANCH   4  11
BRANCH   6  13
ATOM     13  O   UNL     1       7.994 -21.078 -25.669  1.00  0.00    -0.387 OA
ATOM     14  H   UNL     1       7.087 -20.795 -25.958  1.00  0.00     0.211 HD
ENDBRANCH   6  13
BRANCH   7  15
ATOM     15  O   UNL     1       7.982 -18.948 -27.507  1.00  0.00    -0.384 OA
ATOM     16  H   UNL     1       7.635 -18.112 -27.914  1.00  0.00     0.211 HD
ENDBRANCH   7  15
ENDBRANCH   1   2
BRANCH   1  17
ATOM     17  C   UNL     1       9.356 -15.746 -24.166  1.00  0.00     0.172 A 
ATOM     18  C   UNL     1      10.000 -15.480 -22.942  1.00  0.00     0.201 A 
ATOM     19  C   UNL     1       8.998 -14.692 -25.009  1.00  0.00     0.098 A 
ATOM     20  C   UNL     1      10.331 -14.156 -22.595  1.00  0.00     0.176 A 
ATOM     21  C   UNL     1       9.314 -13.376 -24.673  1.00  0.00     0.146 A 
ATOM     22  C   UNL     1       9.991 -13.092 -23.465  1.00  0.00     0.111 A 
ATOM     23  O   UNL     1       8.973 -12.397 -25.505  1.00  0.00    -0.456 OA
ATOM     24  C   UNL     1      10.294 -11.743 -23.188  1.00  0.00     0.197 A 
ATOM     25  C   UNL     1       9.234 -11.112 -25.269  1.00  0.00     0.138 A 
ATOM     26  C   UNL     1       9.915 -10.751 -24.095  1.00  0.00     0.100 A 
ATOM     27  O   UNL     1      10.905 -11.407 -22.138  1.00  0.00    -0.289 OA
BRANCH  18  28
ATOM     28  O   UNL     1      10.295 -16.514 -22.053  1.00  0.00    -0.502 OA
ATOM     29  H   UNL     1      10.210 -16.410 -21.049  1.00  0.00     0.293 HD
ENDBRANCH  18  28
BRANCH  20  30
ATOM     30  O   UNL     1      10.988 -13.898 -21.389  1.00  0.00    -0.504 OA
ATOM     31  H   UNL     1      10.492 -13.771 -20.515  1.00  0.00     0.293 HD
ENDBRANCH  20  30
BRANCH  25  32
ATOM     32  C   UNL     1       8.810 -10.103 -26.271  1.00  0.00     0.017 A 
ATOM     33  C   UNL     1       8.988  -8.734 -25.993  1.00  0.00     0.012 A 
ATOM     34  C   UNL     1       8.258 -10.477 -27.513  1.00  0.00     0.012 A 
ATOM     35  C   UNL     1       8.603  -7.764 -26.923  1.00  0.00     0.001 A 
ATOM     36  C   UNL     1       7.876  -9.501 -28.440  1.00  0.00     0.001 A 
ATOM     37  C   UNL     1       8.044  -8.147 -28.145  1.00  0.00     0.000 A 
ENDBRANCH  25  32
ENDBRANCH   1  17
TORSDOF 9
ENDMDL
MODEL 3
REMARK VINA RESULT:    -6.769      3.388      7.918
REMARK INTER + INTRA:         -10.341
REMARK INTER:                  -9.492
REMARK INTRA:                  -0.849
REMARK UNBOUND:                -1.000
REMARK SMILES O=C([O-])[C@@H]1O[C@H](Oc2cc3oc(-c4ccccc4)cc(=O)c3c(O)c2O)[C@@H](O)[C@@H](O)[C@@H]1O
REMARK SMILES IDX 7 1 6 2 4 3 31 4 5 5 29 6 27 7 2 8 1 9 3 10 32 11 30 13
REMARK SMILES IDX 28 15 8 17 25 18 9 19 23 20 10 21 22 22 11 23 20 24 12 25
REMARK SMILES IDX 19 26 21 27 26 28 24 30 13 32 14 33 18 34 15 35 17 36 16 37
REMARK H PARENT 32 12 30 14 28 16 26 29 24 31
REMARK Flexibility Score: inf
ROOT
ATOM      1  O   UNL     1       9.847 -16.347 -24.340  1.00  0.00    -0.458 OA
ENDROOT
BRANCH   1   2
ATOM      2  C   UNL     1       9.110 -15.149 -24.082  1.00  0.00     0.339 C 
ATOM      3  C   UNL     1       9.249 -15.316 -21.711  1.00  0.00     0.199 C 
ATOM      4  C   UNL     1      10.229 -14.118 -21.622  1.00  0.00     0.180 C 
ATOM      5  O   UNL     1       8.401 -15.246 -22.853  1.00  0.00    -0.328 OA
ATOM      6  C   UNL     1      11.001 -13.935 -22.944  1.00  0.00     0.181 C 
ATOM      7  C   UNL     1      10.021 -13.903 -24.127  1.00  0.00     0.214 C 
BRANCH   3   8
ATOM      8  C   UNL     1       9.872 -16.686 -21.565  1.00  0.00     0.073 C 
ATOM      9  O   UNL     1      11.119 -16.836 -21.473  1.00  0.00    -0.547 OA
ATOM     10  O   UNL     1       9.052 -17.808 -21.562  1.00  0.00    -0.547 OA
ENDBRANCH   3   8
BRANCH   4  11
ATOM     11  O   UNL     1      11.120 -14.297 -20.550  1.00  0.00    -0.387 OA
ATOM     12  H   UNL     1      10.642 -14.830 -19.862  1.00  0.00     0.211 HD
ENDBRANCH   4  11
BRANCH   6  13
ATOM     13  O   UNL     1      11.802 -12.779 -22.921  1.00  0.00    -0.387 OA
ATOM     14  H   UNL     1      12.016 -12.569 -21.974  1.00  0.00     0.211 HD
ENDBRANCH   6  13
BRANCH   7  15
ATOM     15  O   UNL     1       9.235 -12.740 -24.070  1.00  0.00    -0.384 OA
ATOM     16  H   UNL     1       8.507 -12.852 -24.736  1.00  0.00     0.211 HD
ENDBRANCH   7  15
ENDBRANCH   1   2
BRANCH   1  17
ATOM     17  C   UNL     1      10.239 -16.727 -25.625  1.00  0.00     0.172 A 
ATOM     18  C   UNL     1       9.297 -16.862 -26.663  1.00  0.00     0.201 A 
ATOM     19  C   UNL     1      11.589 -16.984 -25.872  1.00  0.00     0.098 A 
ATOM     20  C   UNL     1       9.724 -17.202 -27.961  1.00  0.00     0.176 A 
ATOM     21  C   UNL     1      12.024 -17.328 -27.152  1.00  0.00     0.146 A 
ATOM     22  C   UNL     1      11.097 -17.435 -28.214  1.00  0.00     0.111 A 
ATOM     23  O   UNL     1      13.318 -17.551 -27.357  1.00  0.00    -0.456 OA
ATOM     24  C   UNL     1      11.600 -17.774 -29.487  1.00  0.00     0.197 A 
ATOM     25  C   UNL     1      13.824 -17.883 -28.543  1.00  0.00     0.138 A 
ATOM     26  C   UNL     1      12.969 -17.997 -29.651  1.00  0.00     0.100 A 
ATOM     27  O   UNL     1      10.842 -17.878 -30.488  1.00  0.00    -0.289 OA
BRANCH  18  28
ATOM     28  O   UNL     1       7.935 -16.685 -26.416  1.00  0.00    -0.502 OA
ATOM     29  H   UNL     1       7.224 -17.272 -26.836  1.00  0.00     0.293 HD
ENDBRANCH  18  28
BRANCH  20  30
ATOM     30  O   UNL     1       8.788 -17.315 -28.993  1.00  0.00    -0.504 OA
ATOM     31  H   UNL     1       7.823 -17.574 -28.826  1.00  0.00     0.293 HD
ENDBRANCH  20  30
BRANCH  25  32
ATOM     32  C   UNL     1      15.288 -18.105 -28.657  1.00  0.00     0.017 A 
ATOM     33  C   UNL     1      15.770 -19.128 -29.495  1.00  0.00     0.012 A 
ATOM     34  C   UNL     1      16.217 -17.296 -27.970  1.00  0.00     0.012 A 
ATOM     35  C   UNL     1      17.143 -19.352 -29.624  1.00  0.00     0.001 A 
ATOM     36  C   UNL     1      17.589 -17.525 -28.105  1.00  0.00     0.001 A 
ATOM     37  C   UNL     1      18.053 -18.553 -28.927  1.00  0.00     0.000 A 
ENDBRANCH  25  32
ENDBRANCH   1  17
TORSDOF 9
ENDMDL
MODEL 4
REMARK VINA RESULT:    -6.757      1.102      1.366
REMARK INTER + INTRA:         -10.325
REMARK INTER:                  -9.287
REMARK INTRA:                  -1.038
REMARK UNBOUND:                -1.000
REMARK SMILES O=C([O-])[C@@H]1O[C@H](Oc2cc3oc(-c4ccccc4)cc(=O)c3c(O)c2O)[C@@H](O)[C@@H](O)[C@@H]1O
REMARK SMILES IDX 7 1 6 2 4 3 31 4 5 5 29 6 27 7 2 8 1 9 3 10 32 11 30 13
REMARK SMILES IDX 28 15 8 17 25 18 9 19 23 20 10 21 22 22 11 23 20 24 12 25
REMARK SMILES IDX 19 26 21 27 26 28 24 30 13 32 14 33 18 34 15 35 17 36 16 37
REMARK H PARENT 32 12 30 14 28 16 26 29 24 31
REMARK Flexibility Score: inf
ROOT
ATOM      1  O   UNL     1      10.360 -17.548 -24.886  1.00  0.00    -0.458 OA
ENDROOT
BRANCH   1   2
ATOM      2  C   UNL     1      11.563 -18.030 -25.491  1.00  0.00     0.339 C 
ATOM      3  C   UNL     1      10.563 -19.970 -26.445  1.00  0.00     0.199 C 
ATOM      4  C   UNL     1      10.680 -19.399 -27.882  1.00  0.00     0.180 C 
ATOM      5  O   UNL     1      11.557 -19.450 -25.567  1.00  0.00    -0.328 OA
ATOM      6  C   UNL     1      10.733 -17.858 -27.863  1.00  0.00     0.181 C 
ATOM      7  C   UNL     1      11.803 -17.380 -26.870  1.00  0.00     0.214 C 
BRANCH   3   8
ATOM      8  C   UNL     1       9.185 -19.906 -25.823  1.00  0.00     0.073 C 
ATOM      9  O   UNL     1       8.226 -19.336 -26.408  1.00  0.00    -0.547 OA
ATOM     10  O   UNL     1       8.981 -20.461 -24.567  1.00  0.00    -0.547 OA
ENDBRANCH   3   8
BRANCH   4  11
ATOM     11  O   UNL     1       9.608 -19.848 -28.672  1.00  0.00    -0.387 OA
ATOM     12  H   UNL     1       9.342 -19.091 -29.256  1.00  0.00     0.211 HD
ENDBRANCH   4  11
BRANCH   6  13
ATOM     13  O   UNL     1      10.964 -17.332 -29.147  1.00  0.00    -0.387 OA
ATOM     14  H   UNL     1      10.402 -17.835 -29.793  1.00  0.00     0.211 HD
ENDBRANCH   6  13
BRANCH   7  15
ATOM     15  O   UNL     1      13.083 -17.722 -27.339  1.00  0.00    -0.384 OA
ATOM     16  H   UNL     1      12.963 -18.113 -28.244  1.00  0.00     0.211 HD
ENDBRANCH   7  15
ENDBRANCH   1   2
BRANCH   1  17
ATOM     17  C   UNL     1      10.287 -16.313 -24.239  1.00  0.00     0.172 A 
ATOM     18  C   UNL     1      10.522 -16.201 -22.855  1.00  0.00     0.201 A 
ATOM     19  C   UNL     1       9.965 -15.178 -24.985  1.00  0.00     0.098 A 
ATOM     20  C   UNL     1      10.487 -14.937 -22.236  1.00  0.00     0.176 A 
ATOM     21  C   UNL     1       9.919 -13.921 -24.382  1.00  0.00     0.146 A 
ATOM     22  C   UNL     1      10.187 -13.784 -23.000  1.00  0.00     0.111 A 
ATOM     23  O   UNL     1       9.625 -12.858 -25.123  1.00  0.00    -0.456 OA
ATOM     24  C   UNL     1      10.138 -12.487 -22.452  1.00  0.00     0.197 A 
ATOM     25  C   UNL     1       9.560 -11.621 -24.635  1.00  0.00     0.138 A 
ATOM     26  C   UNL     1       9.825 -11.402 -23.273  1.00  0.00     0.100 A 
ATOM     27  O   UNL     1      10.374 -12.278 -21.232  1.00  0.00    -0.289 OA
BRANCH  18  28
ATOM     28  O   UNL     1      10.769 -17.336 -22.081  1.00  0.00    -0.502 OA
ATOM     29  H   UNL     1      10.336 -18.231 -22.274  1.00  0.00     0.293 HD
ENDBRANCH  18  28
BRANCH  20  30
ATOM     30  O   UNL     1      10.741 -14.828 -20.866  1.00  0.00    -0.504 OA
ATOM     31  H   UNL     1      11.530 -15.282 -20.420  1.00  0.00     0.293 HD
ENDBRANCH  20  30
BRANCH  25  32
ATOM     32  C   UNL     1       9.226 -10.507 -25.557  1.00  0.00     0.017 A 
ATOM     33  C   UNL     1       9.384  -9.177 -25.123  1.00  0.00     0.012 A 
ATOM     34  C   UNL     1       8.780 -10.742 -26.874  1.00  0.00     0.012 A 
ATOM     35  C   UNL     1       9.082  -8.111 -25.975  1.00  0.00     0.001 A 
ATOM     36  C   UNL     1       8.482  -9.671 -27.722  1.00  0.00     0.001 A 
ATOM     37  C   UNL     1       8.628  -8.357 -27.273  1.00  0.00     0.000 A 
ENDBRANCH  25  32
ENDBRANCH   1  17
TORSDOF 9
ENDMDL
MODEL 5
REMARK VINA RESULT:    -6.575      3.013      7.804
REMARK INTER + INTRA:         -10.074
REMARK INTER:                  -8.707
REMARK INTRA:                  -1.367
REMARK UNBOUND:                -1.000
REMARK SMILES O=C([O-])[C@@H]1O[C@H](Oc2cc3oc(-c4ccccc4)cc(=O)c3c(O)c2O)[C@@H](O)[C@@H](O)[C@@H]1O
REMARK SMILES IDX 7 1 6 2 4 3 31 4 5 5 29 6 27 7 2 8 1 9 3 10 32 11 30 13
REMARK SMILES IDX 28 15 8 17 25 18 9 19 23 20 10 21 22 22 11 23 20 24 12 25
REMARK SMILES IDX 19 26 21 27 26 28 24 30 13 32 14 33 18 34 15 35 17 36 16 37
REMARK H PARENT 32 12 30 14 28 16 26 29 24 31
REMARK Flexibility Score: inf
ROOT
ATOM      1  O   UNL     1      10.626 -15.580 -23.699  1.00  0.00    -0.458 OA
ENDROOT
BRANCH   1   2
ATOM      2  C   UNL     1       9.576 -14.622 -23.853  1.00  0.00     0.339 C 
ATOM      3  C   UNL     1       9.195 -14.344 -21.518  1.00  0.00     0.199 C 
ATOM      4  C   UNL     1       9.799 -12.916 -21.527  1.00  0.00     0.180 C 
ATOM      5  O   UNL     1       8.647 -14.715 -22.779  1.00  0.00    -0.328 OA
ATOM      6  C   UNL     1      10.788 -12.740 -22.697  1.00  0.00     0.181 C 
ATOM      7  C   UNL     1      10.134 -13.191 -24.012  1.00  0.00     0.214 C 
BRANCH   3   8
ATOM      8  C   UNL     1      10.087 -15.431 -20.960  1.00  0.00     0.073 C 
ATOM      9  O   UNL     1      11.223 -15.169 -20.481  1.00  0.00    -0.547 OA
ATOM     10  O   UNL     1       9.657 -16.751 -21.004  1.00  0.00    -0.547 OA
ENDBRANCH   3   8
BRANCH   4  11
ATOM     11  O   UNL     1      10.432 -12.648 -20.301  1.00  0.00    -0.387 OA
ATOM     12  H   UNL     1      10.528 -11.663 -20.234  1.00  0.00     0.211 HD
ENDBRANCH   4  11
BRANCH   6  13
ATOM     13  O   UNL     1      11.249 -11.415 -22.792  1.00  0.00    -0.387 OA
ATOM     14  H   UNL     1      11.165 -10.993 -21.896  1.00  0.00     0.211 HD
ENDBRANCH   6  13
BRANCH   7  15
ATOM     15  O   UNL     1       9.092 -12.313 -24.359  1.00  0.00    -0.384 OA
ATOM     16  H   UNL     1       8.341 -12.874 -24.686  1.00  0.00     0.211 HD
ENDBRANCH   7  15
ENDBRANCH   1   2
BRANCH   1  17
ATOM     17  C   UNL     1      10.778 -16.673 -24.556  1.00  0.00     0.172 A 
ATOM     18  C   UNL     1       9.946 -17.804 -24.447  1.00  0.00     0.201 A 
ATOM     19  C   UNL     1      11.780 -16.636 -25.527  1.00  0.00     0.098 A 
ATOM     20  C   UNL     1      10.090 -18.873 -25.352  1.00  0.00     0.176 A 
ATOM     21  C   UNL     1      11.937 -17.691 -26.426  1.00  0.00     0.146 A 
ATOM     22  C   UNL     1      11.089 -18.820 -26.354  1.00  0.00     0.111 A 
ATOM     23  O   UNL     1      12.891 -17.618 -27.349  1.00  0.00    -0.456 OA
ATOM     24  C   UNL     1      11.290 -19.848 -27.297  1.00  0.00     0.197 A 
ATOM     25  C   UNL     1      13.114 -18.575 -28.248  1.00  0.00     0.138 A 
ATOM     26  C   UNL     1      12.305 -19.723 -28.248  1.00  0.00     0.100 A 
ATOM     27  O   UNL     1      10.570 -20.882 -27.308  1.00  0.00    -0.289 OA
BRANCH  18  28
ATOM     28  O   UNL     1       8.991 -17.891 -23.433  1.00  0.00    -0.502 OA
ATOM     29  H   UNL     1       9.184 -18.326 -22.539  1.00  0.00     0.293 HD
ENDBRANCH  18  28
BRANCH  20  30
ATOM     30  O   UNL     1       9.249 -19.985 -25.253  1.00  0.00    -0.504 OA
ATOM     31  H   UNL     1       8.873 -20.306 -24.369  1.00  0.00     0.293 HD
ENDBRANCH  20  30
BRANCH  25  32
ATOM     32  C   UNL     1      14.205 -18.385 -29.235  1.00  0.00     0.017 A 
ATOM     33  C   UNL     1      13.905 -18.403 -30.611  1.00  0.00     0.012 A 
ATOM     34  C   UNL     1      15.538 -18.155 -28.834  1.00  0.00     0.012 A 
ATOM     35  C   UNL     1      14.915 -18.219 -31.560  1.00  0.00     0.001 A 
ATOM     36  C   UNL     1      16.542 -17.971 -29.790  1.00  0.00     0.001 A 
ATOM     37  C   UNL     1      16.233 -18.007 -31.150  1.00  0.00     0.000 A 
ENDBRANCH  25  32
ENDBRANCH   1  17
TORSDOF 9
ENDMDL
MODEL 6
REMARK VINA RESULT:    -6.521      3.249      6.396
REMARK INTER + INTRA:          -9.999
REMARK INTER:                  -8.899
REMARK INTRA:                  -1.100
REMARK UNBOUND:                -1.000
REMARK SMILES O=C([O-])[C@@H]1O[C@H](Oc2cc3oc(-c4ccccc4)cc(=O)c3c(O)c2O)[C@@H](O)[C@@H](O)[C@@H]1O
REMARK SMILES IDX 7 1 6 2 4 3 31 4 5 5 29 6 27 7 2 8 1 9 3 10 32 11 30 13
REMARK SMILES IDX 28 15 8 17 25 18 9 19 23 20 10 21 22 22 11 23 20 24 12 25
REMARK SMILES IDX 19 26 21 27 26 28 24 30 13 32 14 33 18 34 15 35 17 36 16 37
REMARK H PARENT 32 12 30 14 28 16 26 29 24 31
REMARK Flexibility Score: inf
ROOT
ATOM      1  O   UNL     1      12.637 -18.351 -27.731  1.00  0.00    -0.458 OA
ENDROOT
BRANCH   1   2
ATOM      2  C   UNL     1      12.339 -17.369 -28.726  1.00  0.00     0.339 C 
ATOM      3  C   UNL     1      14.426 -17.565 -29.855  1.00  0.00     0.199 C 
ATOM      4  C   UNL     1      13.769 -18.255 -31.079  1.00  0.00     0.180 C 
ATOM      5  O   UNL     1      13.524 -16.712 -29.158  1.00  0.00    -0.328 OA
ATOM      6  C   UNL     1      12.454 -18.953 -30.680  1.00  0.00     0.181 C 
ATOM      7  C   UNL     1      11.553 -17.978 -29.907  1.00  0.00     0.214 C 
BRANCH   3   8
ATOM      8  C   UNL     1      15.170 -18.479 -28.907  1.00  0.00     0.073 C 
ATOM      9  O   UNL     1      15.158 -19.731 -29.054  1.00  0.00    -0.547 OA
ATOM     10  O   UNL     1      15.856 -17.929 -27.832  1.00  0.00    -0.547 OA
ENDBRANCH   3   8
BRANCH   4  11
ATOM     11  O   UNL     1      14.662 -19.174 -31.655  1.00  0.00    -0.387 OA
ATOM     12  H   UNL     1      15.441 -18.655 -31.986  1.00  0.00     0.211 HD
ENDBRANCH   4  11
BRANCH   6  13
ATOM     13  O   UNL     1      11.785 -19.477 -31.801  1.00  0.00    -0.387 OA
ATOM     14  H   UNL     1      11.025 -18.874 -32.018  1.00  0.00     0.211 HD
ENDBRANCH   6  13
BRANCH   7  15
ATOM     15  O   UNL     1      11.108 -16.953 -30.759  1.00  0.00    -0.384 OA
ATOM     16  H   UNL     1      10.443 -17.359 -31.374  1.00  0.00     0.211 HD
ENDBRANCH   7  15
ENDBRANCH   1   2
BRANCH   1  17
ATOM     17  C   UNL     1      11.880 -18.494 -26.565  1.00  0.00     0.172 A 
ATOM     18  C   UNL     1      11.225 -19.704 -26.266  1.00  0.00     0.201 A 
ATOM     19  C   UNL     1      11.771 -17.409 -25.694  1.00  0.00     0.098 A 
ATOM     20  C   UNL     1      10.506 -19.836 -25.063  1.00  0.00     0.176 A 
ATOM     21  C   UNL     1      11.056 -17.524 -24.502  1.00  0.00     0.146 A 
ATOM     22  C   UNL     1      10.420 -18.742 -24.168  1.00  0.00     0.111 A 
ATOM     23  O   UNL     1      10.985 -16.477 -23.686  1.00  0.00    -0.456 OA
ATOM     24  C   UNL     1       9.724 -18.800 -22.944  1.00  0.00     0.197 A 
ATOM     25  C   UNL     1      10.327 -16.495 -22.528  1.00  0.00     0.138 A 
ATOM     26  C   UNL     1       9.679 -17.673 -22.121  1.00  0.00     0.100 A 
ATOM     27  O   UNL     1       9.139 -19.851 -22.568  1.00  0.00    -0.289 OA
BRANCH  18  28
ATOM     28  O   UNL     1      11.259 -20.772 -27.164  1.00  0.00    -0.502 OA
ATOM     29  H   UNL     1      12.079 -20.995 -27.715  1.00  0.00     0.293 HD
ENDBRANCH  18  28
BRANCH  20  30
ATOM     30  O   UNL     1       9.873 -21.045 -24.761  1.00  0.00    -0.504 OA
ATOM     31  H   UNL     1      10.380 -21.854 -24.420  1.00  0.00     0.293 HD
ENDBRANCH  20  30
BRANCH  25  32
ATOM     32  C   UNL     1      10.317 -15.267 -21.695  1.00  0.00     0.017 A 
ATOM     33  C   UNL     1      10.067 -14.021 -22.300  1.00  0.00     0.012 A 
ATOM     34  C   UNL     1      10.522 -15.316 -20.300  1.00  0.00     0.012 A 
ATOM     35  C   UNL     1      10.046 -12.851 -21.535  1.00  0.00     0.001 A 
ATOM     36  C   UNL     1      10.498 -14.142 -19.541  1.00  0.00     0.001 A 
ATOM     37  C   UNL     1      10.265 -12.911 -20.157  1.00  0.00     0.000 A 
ENDBRANCH  25  32
ENDBRANCH   1  17
TORSDOF 9
ENDMDL
MODEL 7
REMARK VINA RESULT:    -6.306      3.583      6.980
REMARK INTER + INTRA:          -9.703
REMARK INTER:                  -8.685
REMARK INTRA:                  -1.018
REMARK UNBOUND:                -1.000
REMARK SMILES O=C([O-])[C@@H]1O[C@H](Oc2cc3oc(-c4ccccc4)cc(=O)c3c(O)c2O)[C@@H](O)[C@@H](O)[C@@H]1O
REMARK SMILES IDX 7 1 6 2 4 3 31 4 5 5 29 6 27 7 2 8 1 9 3 10 32 11 30 13
REMARK SMILES IDX 28 15 8 17 25 18 9 19 23 20 10 21 22 22 11 23 20 24 12 25
REMARK SMILES IDX 19 26 21 27 26 28 24 30 13 32 14 33 18 34 15 35 17 36 16 37
REMARK H PARENT 32 12 30 14 28 16 26 29 24 31
REMARK Flexibility Score: inf
ROOT
ATOM      1  O   UNL     1      13.595 -17.797 -28.041  1.00  0.00    -0.458 OA
ENDROOT
BRANCH   1   2
ATOM      2  C   UNL     1      13.676 -16.938 -29.182  1.00  0.00     0.339 C 
ATOM      3  C   UNL     1      15.989 -16.440 -28.912  1.00  0.00     0.199 C 
ATOM      4  C   UNL     1      16.378 -17.276 -30.159  1.00  0.00     0.180 C 
ATOM      5  O   UNL     1      14.661 -15.931 -28.986  1.00  0.00    -0.328 OA
ATOM      6  C   UNL     1      15.323 -18.363 -30.448  1.00  0.00     0.181 C 
ATOM      7  C   UNL     1      13.919 -17.740 -30.478  1.00  0.00     0.214 C 
BRANCH   3   8
ATOM      8  C   UNL     1      16.260 -17.092 -27.575  1.00  0.00     0.073 C 
ATOM      9  O   UNL     1      15.942 -16.531 -26.492  1.00  0.00    -0.547 OA
ATOM     10  O   UNL     1      16.901 -18.324 -27.538  1.00  0.00    -0.547 OA
ENDBRANCH   3   8
BRANCH   4  11
ATOM     11  O   UNL     1      17.647 -17.852 -29.981  1.00  0.00    -0.387 OA
ATOM     12  H   UNL     1      18.285 -17.108 -29.825  1.00  0.00     0.211 HD
ENDBRANCH   4  11
BRANCH   6  13
ATOM     13  O   UNL     1      15.598 -19.047 -31.645  1.00  0.00    -0.387 OA
ATOM     14  H   UNL     1      16.081 -19.885 -31.419  1.00  0.00     0.211 HD
ENDBRANCH   6  13
BRANCH   7  15
ATOM     15  O   UNL     1      13.793 -16.890 -31.591  1.00  0.00    -0.384 OA
ATOM     16  H   UNL     1      14.710 -16.732 -31.937  1.00  0.00     0.211 HD
ENDBRANCH   7  15
ENDBRANCH   1   2
BRANCH   1  17
ATOM     17  C   UNL     1      12.453 -17.880 -27.242  1.00  0.00     0.172 A 
ATOM     18  C   UNL     1      11.411 -18.775 -27.552  1.00  0.00     0.201 A 
ATOM     19  C   UNL     1      12.348 -17.049 -26.126  1.00  0.00     0.098 A 
ATOM     20  C   UNL     1      10.290 -18.870 -26.706  1.00  0.00     0.176 A 
ATOM     21  C   UNL     1      11.240 -17.128 -25.282  1.00  0.00     0.146 A 
ATOM     22  C   UNL     1      10.199 -18.046 -25.558  1.00  0.00     0.111 A 
ATOM     23  O   UNL     1      11.178 -16.335 -24.218  1.00  0.00    -0.456 OA
ATOM     24  C   UNL     1       9.112 -18.088 -24.662  1.00  0.00     0.197 A 
ATOM     25  C   UNL     1      10.161 -16.342 -23.358  1.00  0.00     0.138 A 
ATOM     26  C   UNL     1       9.095 -17.234 -23.558  1.00  0.00     0.100 A 
ATOM     27  O   UNL     1       8.150 -18.885 -24.831  1.00  0.00    -0.289 OA
BRANCH  18  28
ATOM     28  O   UNL     1      11.464 -19.556 -28.708  1.00  0.00    -0.502 OA
ATOM     29  H   UNL     1      10.671 -19.664 -29.329  1.00  0.00     0.293 HD
ENDBRANCH  18  28
BRANCH  20  30
ATOM     30  O   UNL     1       9.267 -19.775 -27.006  1.00  0.00    -0.504 OA
ATOM     31  H   UNL     1       8.425 -19.849 -26.448  1.00  0.00     0.293 HD
ENDBRANCH  20  30
BRANCH  25  32
ATOM     32  C   UNL     1      10.199 -15.413 -22.201  1.00  0.00     0.017 A 
ATOM     33  C   UNL     1      10.531 -15.909 -20.926  1.00  0.00     0.012 A 
ATOM     34  C   UNL     1       9.941 -14.034 -22.347  1.00  0.00     0.012 A 
ATOM     35  C   UNL     1      10.581 -15.053 -19.822  1.00  0.00     0.001 A 
ATOM     36  C   UNL     1       9.994 -13.183 -21.239  1.00  0.00     0.001 A 
ATOM     37  C   UNL     1      10.309 -13.691 -19.977  1.00  0.00     0.000 A 
ENDBRANCH  25  32
ENDBRANCH   1  17
TORSDOF 9
ENDMDL
MODEL 8
REMARK VINA RESULT:    -6.255      3.191      7.876
REMARK INTER + INTRA:          -9.632
REMARK INTER:                  -8.558
REMARK INTRA:                  -1.075
REMARK UNBOUND:                -1.000
REMARK SMILES O=C([O-])[C@@H]1O[C@H](Oc2cc3oc(-c4ccccc4)cc(=O)c3c(O)c2O)[C@@H](O)[C@@H](O)[C@@H]1O
REMARK SMILES IDX 7 1 6 2 4 3 31 4 5 5 29 6 27 7 2 8 1 9 3 10 32 11 30 13
REMARK SMILES IDX 28 15 8 17 25 18 9 19 23 20 10 21 22 22 11 23 20 24 12 25
REMARK SMILES IDX 19 26 21 27 26 28 24 30 13 32 14 33 18 34 15 35 17 36 16 37
REMARK H PARENT 32 12 30 14 28 16 26 29 24 31
REMARK Flexibility Score: inf
ROOT
ATOM      1  O   UNL     1      10.026 -16.050 -23.646  1.00  0.00    -0.458 OA
ENDROOT
BRANCH   1   2
ATOM      2  C   UNL     1      11.047 -16.043 -22.645  1.00  0.00     0.339 C 
ATOM      3  C   UNL     1      10.931 -13.699 -22.236  1.00  0.00     0.199 C 
ATOM      4  C   UNL     1      10.286 -13.912 -20.842  1.00  0.00     0.180 C 
ATOM      5  O   UNL     1      11.740 -14.801 -22.639  1.00  0.00    -0.328 OA
ATOM      6  C   UNL     1       9.551 -15.266 -20.773  1.00  0.00     0.181 C 
ATOM      7  C   UNL     1      10.477 -16.394 -21.253  1.00  0.00     0.214 C 
BRANCH   3   8
ATOM      8  C   UNL     1       9.988 -13.272 -23.338  1.00  0.00     0.073 C 
ATOM      9  O   UNL     1      10.416 -12.883 -24.457  1.00  0.00    -0.547 OA
ATOM     10  O   UNL     1       8.619 -13.278 -23.100  1.00  0.00    -0.547 OA
ENDBRANCH   3   8
BRANCH   4  11
ATOM     11  O   UNL     1       9.406 -12.857 -20.548  1.00  0.00    -0.387 OA
ATOM     12  H   UNL     1       9.931 -12.016 -20.611  1.00  0.00     0.211 HD
ENDBRANCH   4  11
BRANCH   6  13
ATOM     13  O   UNL     1       9.067 -15.528 -19.478  1.00  0.00    -0.387 OA
ATOM     14  H   UNL     1       8.199 -15.056 -19.371  1.00  0.00     0.211 HD
ENDBRANCH   6  13
BRANCH   7  15
ATOM     15  O   UNL     1      11.532 -16.573 -20.342  1.00  0.00    -0.384 OA
ATOM     16  H   UNL     1      11.233 -17.255 -19.686  1.00  0.00     0.211 HD
ENDBRANCH   7  15
ENDBRANCH   1   2
BRANCH   1  17
ATOM     17  C   UNL     1      10.261 -16.475 -24.956  1.00  0.00     0.172 A 
ATOM     18  C   UNL     1       9.199 -16.670 -25.859  1.00  0.00     0.201 A 
ATOM     19  C   UNL     1      11.575 -16.716 -25.362  1.00  0.00     0.098 A 
ATOM     20  C   UNL     1       9.466 -17.055 -27.187  1.00  0.00     0.176 A 
ATOM     21  C   UNL     1      11.853 -17.105 -26.673  1.00  0.00     0.146 A 
ATOM     22  C   UNL     1      10.802 -17.273 -27.604  1.00  0.00     0.111 A 
ATOM     23  O   UNL     1      13.115 -17.311 -27.032  1.00  0.00    -0.456 OA
ATOM     24  C   UNL     1      11.148 -17.654 -28.916  1.00  0.00     0.197 A 
ATOM     25  C   UNL     1      13.475 -17.682 -28.259  1.00  0.00     0.138 A 
ATOM     26  C   UNL     1      12.489 -17.858 -29.244  1.00  0.00     0.100 A 
ATOM     27  O   UNL     1      10.272 -17.814 -29.808  1.00  0.00    -0.289 OA
BRANCH  18  28
ATOM     28  O   UNL     1       7.875 -16.509 -25.448  1.00  0.00    -0.502 OA
ATOM     29  H   UNL     1       7.229 -17.285 -25.375  1.00  0.00     0.293 HD
ENDBRANCH  18  28
BRANCH  20  30
ATOM     30  O   UNL     1       8.410 -17.228 -28.086  1.00  0.00    -0.504 OA
ATOM     31  H   UNL     1       7.849 -16.454 -28.423  1.00  0.00     0.293 HD
ENDBRANCH  20  30
BRANCH  25  32
ATOM     32  C   UNL     1      14.917 -17.881 -28.550  1.00  0.00     0.017 A 
ATOM     33  C   UNL     1      15.878 -17.174 -27.803  1.00  0.00     0.012 A 
ATOM     34  C   UNL     1      15.357 -18.786 -29.539  1.00  0.00     0.012 A 
ATOM     35  C   UNL     1      17.242 -17.349 -28.053  1.00  0.00     0.001 A 
ATOM     36  C   UNL     1      16.723 -18.957 -29.783  1.00  0.00     0.001 A 
ATOM     37  C   UNL     1      17.665 -18.238 -29.045  1.00  0.00     0.000 A 
ENDBRANCH  25  32
ENDBRANCH   1  17
TORSDOF 9
ENDMDL
MODEL 9
REMARK VINA RESULT:    -6.129      3.081      6.249
REMARK INTER + INTRA:          -9.458
REMARK INTER:                  -8.413
REMARK INTRA:                  -1.045
REMARK UNBOUND:                -1.000
REMARK SMILES O=C([O-])[C@@H]1O[C@H](Oc2cc3oc(-c4ccccc4)cc(=O)c3c(O)c2O)[C@@H](O)[C@@H](O)[C@@H]1O
REMARK SMILES IDX 7 1 6 2 4 3 31 4 5 5 29 6 27 7 2 8 1 9 3 10 32 11 30 13
REMARK SMILES IDX 28 15 8 17 25 18 9 19 23 20 10 21 22 22 11 23 20 24 12 25
REMARK SMILES IDX 19 26 21 27 26 28 24 30 13 32 14 33 18 34 15 35 17 36 16 37
REMARK H PARENT 32 12 30 14 28 16 26 29 24 31
REMARK Flexibility Score: inf
ROOT
ATOM      1  O   UNL     1      11.806 -18.551 -28.081  1.00  0.00    -0.458 OA
ENDROOT
BRANCH   1   2
ATOM      2  C   UNL     1      13.180 -18.858 -28.335  1.00  0.00     0.339 C 
ATOM      3  C   UNL     1      13.047 -18.502 -30.686  1.00  0.00     0.199 C 
ATOM      4  C   UNL     1      13.889 -17.203 -30.599  1.00  0.00     0.180 C 
ATOM      5  O   UNL     1      13.340 -19.416 -29.634  1.00  0.00    -0.328 OA
ATOM      6  C   UNL     1      13.787 -16.570 -29.197  1.00  0.00     0.181 C 
ATOM      7  C   UNL     1      14.084 -17.625 -28.120  1.00  0.00     0.214 C 
BRANCH   3   8
ATOM      8  C   UNL     1      11.557 -18.309 -30.854  1.00  0.00     0.073 C 
ATOM      9  O   UNL     1      10.791 -19.277 -31.108  1.00  0.00    -0.547 OA
ATOM     10  O   UNL     1      11.023 -17.030 -30.757  1.00  0.00    -0.547 OA
ENDBRANCH   3   8
BRANCH   4  11
ATOM     11  O   UNL     1      13.476 -16.290 -31.585  1.00  0.00    -0.387 OA
ATOM     12  H   UNL     1      12.493 -16.192 -31.496  1.00  0.00     0.211 HD
ENDBRANCH   4  11
BRANCH   6  13
ATOM     13  O   UNL     1      14.642 -15.461 -29.065  1.00  0.00    -0.387 OA
ATOM     14  H   UNL     1      15.529 -15.788 -28.759  1.00  0.00     0.211 HD
ENDBRANCH   6  13
BRANCH   7  15
ATOM     15  O   UNL     1      15.434 -18.012 -28.183  1.00  0.00    -0.384 OA
ATOM     16  H   UNL     1      15.721 -17.902 -29.127  1.00  0.00     0.211 HD
ENDBRANCH   7  15
ENDBRANCH   1   2
BRANCH   1  17
ATOM     17  C   UNL     1      11.242 -18.634 -26.806  1.00  0.00     0.172 A 
ATOM     18  C   UNL     1      10.715 -19.847 -26.320  1.00  0.00     0.201 A 
ATOM     19  C   UNL     1      11.195 -17.487 -26.012  1.00  0.00     0.098 A 
ATOM     20  C   UNL     1      10.193 -19.914 -25.015  1.00  0.00     0.176 A 
ATOM     21  C   UNL     1      10.673 -17.539 -24.719  1.00  0.00     0.146 A 
ATOM     22  C   UNL     1      10.172 -18.756 -24.201  1.00  0.00     0.111 A 
ATOM     23  O   UNL     1      10.658 -16.432 -23.983  1.00  0.00    -0.456 OA
ATOM     24  C   UNL     1       9.670 -18.746 -22.885  1.00  0.00     0.197 A 
ATOM     25  C   UNL     1      10.182 -16.387 -22.740  1.00  0.00     0.138 A 
ATOM     26  C   UNL     1       9.677 -17.558 -22.152  1.00  0.00     0.100 A 
ATOM     27  O   UNL     1       9.215 -19.791 -22.346  1.00  0.00    -0.289 OA
BRANCH  18  28
ATOM     28  O   UNL     1      10.683 -20.983 -27.130  1.00  0.00    -0.502 OA
ATOM     29  H   UNL     1      11.213 -21.055 -27.990  1.00  0.00     0.293 HD
ENDBRANCH  18  28
BRANCH  20  30
ATOM     30  O   UNL     1       9.690 -21.125 -24.529  1.00  0.00    -0.504 OA
ATOM     31  H   UNL     1      10.057 -21.573 -23.698  1.00  0.00     0.293 HD
ENDBRANCH  20  30
BRANCH  25  32
ATOM     32  C   UNL     1      10.218 -15.096 -22.009  1.00  0.00     0.017 A 
ATOM     33  C   UNL     1      10.301 -15.098 -20.604  1.00  0.00     0.012 A 
ATOM     34  C   UNL     1      10.203 -13.859 -22.687  1.00  0.00     0.012 A 
ATOM     35  C   UNL     1      10.344 -13.895 -19.893  1.00  0.00     0.001 A 
ATOM     36  C   UNL     1      10.247 -12.659 -21.969  1.00  0.00     0.001 A 
ATOM     37  C   UNL     1      10.313 -12.676 -20.575  1.00  0.00     0.000 A 
ENDBRANCH  25  32
ENDBRANCH   1  17
TORSDOF 9
ENDMDL
