MODEL 1
REMARK VINA RESULT:    -6.354      0.000      0.000
REMARK INTER + INTRA:          -7.950
REMARK INTER:                  -7.654
REMARK INTRA:                  -0.296
REMARK UNBOUND:                -0.296
REMARK SMILES Oc1cc(O)c2cc(O)c(-c3ccc(O)c(O)c3)[o+]c2c1
REMARK SMILES IDX 10 1 19 2 20 3 21 4 2 5 3 6 4 7 6 8 7 9 8 10 11 11 12 12
REMARK SMILES IDX 13 13 14 14 18 15 16 16 15 17 17 19 9 21 1 23 5 25
REMARK H PARENT 15 18 17 20 9 22 1 24 5 26
REMARK Flexibility Score: inf
ROOT
ATOM      1  C   UNL     1     132.553 131.769 143.399  1.00  0.00     0.402 A 
ATOM      2  O   UNL     1     132.825 131.002 142.347  1.00  0.00    -0.202 OA
ATOM      3  C   UNL     1     132.416 129.742 142.236  1.00  0.00     0.368 A 
ATOM      4  C   UNL     1     132.750 129.017 141.090  1.00  0.00     0.162 A 
ATOM      5  C   UNL     1     132.330 127.691 140.947  1.00  0.00     0.128 A 
ATOM      6  C   UNL     1     131.573 127.089 141.954  1.00  0.00     0.093 A 
ATOM      7  C   UNL     1     131.224 127.795 143.112  1.00  0.00     0.136 A 
ATOM      8  C   UNL     1     131.651 129.140 143.264  1.00  0.00     0.125 A 
ATOM      9  C   UNL     1     131.360 129.920 144.395  1.00  0.00     0.078 A 
ATOM     10  C   UNL     1     131.818 131.237 144.475  1.00  0.00     0.223 A 
ENDROOT
BRANCH   1  11
ATOM     11  C   UNL     1     133.057 133.161 143.400  1.00  0.00     0.087 A 
ATOM     12  C   UNL     1     132.451 134.160 142.617  1.00  0.00     0.022 A 
ATOM     13  C   UNL     1     132.960 135.462 142.615  1.00  0.00     0.051 A 
ATOM     14  C   UNL     1     134.086 135.782 143.385  1.00  0.00     0.157 A 
ATOM     15  C   UNL     1     134.198 133.483 144.153  1.00  0.00     0.068 A 
ATOM     16  C   UNL     1     134.710 134.786 144.154  1.00  0.00     0.158 A 
BRANCH  14  17
ATOM     17  O   UNL     1     134.589 137.082 143.382  1.00  0.00    -0.504 OA
ATOM     18  H   UNL     1     134.494 137.690 144.187  1.00  0.00     0.293 HD
ENDBRANCH  14  17
BRANCH  16  19
ATOM     19  O   UNL     1     135.837 135.071 144.924  1.00  0.00    -0.504 OA
ATOM     20  H   UNL     1     135.921 135.927 145.460  1.00  0.00     0.293 HD
ENDBRANCH  16  19
ENDBRANCH   1  11
BRANCH  10  21
ATOM     21  O   UNL     1     131.574 131.995 145.621  1.00  0.00    -0.500 OA
ATOM     22  H   UNL     1     130.632 132.223 145.918  1.00  0.00     0.294 HD
ENDBRANCH  10  21
BRANCH   5  23
ATOM     23  O   UNL     1     132.660 126.962 139.806  1.00  0.00    -0.507 OA
ATOM     24  H   UNL     1     132.752 127.407 138.901  1.00  0.00     0.293 HD
ENDBRANCH   5  23
BRANCH   7  25
ATOM     25  O   UNL     1     130.462 127.122 144.071  1.00  0.00    -0.507 OA
ATOM     26  H   UNL     1     130.548 126.138 144.280  1.00  0.00     0.293 HD
ENDBRANCH   7  25
TORSDOF 6
ENDMDL
MODEL 2
REMARK VINA RESULT:    -6.086      1.329      7.085
REMARK INTER + INTRA:          -7.627
REMARK INTER:                  -7.305
REMARK INTRA:                  -0.322
REMARK UNBOUND:                -0.296
REMARK SMILES Oc1cc(O)c2cc(O)c(-c3ccc(O)c(O)c3)[o+]c2c1
REMARK SMILES IDX 10 1 19 2 20 3 21 4 2 5 3 6 4 7 6 8 7 9 8 10 11 11 12 12
REMARK SMILES IDX 13 13 14 14 18 15 16 16 15 17 17 19 9 21 1 23 5 25
REMARK H PARENT 15 18 17 20 9 22 1 24 5 26
REMARK Flexibility Score: inf
ROOT
ATOM      1  C   UNL     1     132.027 131.529 142.452  1.00  0.00     0.402 A 
ATOM      2  O   UNL     1     133.019 132.014 143.194  1.00  0.00    -0.202 OA
ATOM      3  C   UNL     1     133.237 133.314 143.362  1.00  0.00     0.368 A 
ATOM      4  C   UNL     1     134.303 133.727 144.164  1.00  0.00     0.162 A 
ATOM      5  C   UNL     1     134.553 135.090 144.359  1.00  0.00     0.128 A 
ATOM      6  C   UNL     1     133.732 136.041 143.751  1.00  0.00     0.093 A 
ATOM      7  C   UNL     1     132.656 135.653 142.943  1.00  0.00     0.136 A 
ATOM      8  C   UNL     1     132.400 134.272 142.739  1.00  0.00     0.125 A 
ATOM      9  C   UNL     1     131.353 133.791 141.936  1.00  0.00     0.078 A 
ATOM     10  C   UNL     1     131.166 132.415 141.779  1.00  0.00     0.223 A 
ENDROOT
BRANCH   1  11
ATOM     11  C   UNL     1     131.883 130.059 142.351  1.00  0.00     0.087 A 
ATOM     12  C   UNL     1     132.367 129.350 141.237  1.00  0.00     0.022 A 
ATOM     13  C   UNL     1     132.199 127.965 141.153  1.00  0.00     0.051 A 
ATOM     14  C   UNL     1     131.536 127.270 142.173  1.00  0.00     0.157 A 
ATOM     15  C   UNL     1     131.200 129.360 143.360  1.00  0.00     0.068 A 
ATOM     16  C   UNL     1     131.031 127.973 143.279  1.00  0.00     0.158 A 
BRANCH  14  17
ATOM     17  O   UNL     1     131.371 125.889 142.087  1.00  0.00    -0.504 OA
ATOM     18  H   UNL     1     131.180 125.431 141.203  1.00  0.00     0.293 HD
ENDBRANCH  14  17
BRANCH  16  19
ATOM     19  O   UNL     1     130.359 127.312 144.307  1.00  0.00    -0.504 OA
ATOM     20  H   UNL     1     130.842 126.720 144.973  1.00  0.00     0.293 HD
ENDBRANCH  16  19
ENDBRANCH   1  11
BRANCH  10  21
ATOM     21  O   UNL     1     130.158 131.937 140.940  1.00  0.00    -0.500 OA
ATOM     22  H   UNL     1     130.357 131.293 140.182  1.00  0.00     0.294 HD
ENDBRANCH  10  21
BRANCH   5  23
ATOM     23  O   UNL     1     135.616 135.508 145.157  1.00  0.00    -0.507 OA
ATOM     24  H   UNL     1     135.496 135.693 146.146  1.00  0.00     0.293 HD
ENDBRANCH   5  23
BRANCH   7  25
ATOM     25  O   UNL     1     131.880 136.666 142.374  1.00  0.00    -0.507 OA
ATOM     26  H   UNL     1     131.157 136.513 141.687  1.00  0.00     0.293 HD
ENDBRANCH   7  25
TORSDOF 6
ENDMDL
MODEL 3
REMARK VINA RESULT:    -6.032      4.228      5.307
REMARK INTER + INTRA:          -7.562
REMARK INTER:                  -7.209
REMARK INTRA:                  -0.353
REMARK UNBOUND:                -0.296
REMARK SMILES Oc1cc(O)c2cc(O)c(-c3ccc(O)c(O)c3)[o+]c2c1
REMARK SMILES IDX 10 1 19 2 20 3 21 4 2 5 3 6 4 7 6 8 7 9 8 10 11 11 12 12
REMARK SMILES IDX 13 13 14 14 18 15 16 16 15 17 17 19 9 21 1 23 5 25
REMARK H PARENT 15 18 17 20 9 22 1 24 5 26
REMARK Flexibility Score: inf
ROOT
ATOM      1  C   UNL     1     135.495 132.810 141.472  1.00  0.00     0.402 A 
ATOM      2  O   UNL     1     136.254 133.217 140.458  1.00  0.00    -0.202 OA
ATOM      3  C   UNL     1     136.787 132.389 139.567  1.00  0.00     0.368 A 
ATOM      4  C   UNL     1     137.568 132.912 138.533  1.00  0.00     0.162 A 
ATOM      5  C   UNL     1     138.139 132.063 137.580  1.00  0.00     0.128 A 
ATOM      6  C   UNL     1     137.927 130.685 137.661  1.00  0.00     0.093 A 
ATOM      7  C   UNL     1     137.148 130.135 138.687  1.00  0.00     0.136 A 
ATOM      8  C   UNL     1     136.569 130.993 139.658  1.00  0.00     0.125 A 
ATOM      9  C   UNL     1     135.784 130.530 140.727  1.00  0.00     0.078 A 
ATOM     10  C   UNL     1     135.251 131.435 141.648  1.00  0.00     0.223 A 
ENDROOT
BRANCH   1  11
ATOM     11  C   UNL     1     134.950 133.833 142.393  1.00  0.00     0.087 A 
ATOM     12  C   UNL     1     133.678 134.396 142.191  1.00  0.00     0.022 A 
ATOM     13  C   UNL     1     133.193 135.378 143.061  1.00  0.00     0.051 A 
ATOM     14  C   UNL     1     133.977 135.819 144.136  1.00  0.00     0.157 A 
ATOM     15  C   UNL     1     135.740 134.294 143.459  1.00  0.00     0.068 A 
ATOM     16  C   UNL     1     135.258 135.277 144.332  1.00  0.00     0.158 A 
BRANCH  14  17
ATOM     17  O   UNL     1     133.490 136.797 145.001  1.00  0.00    -0.504 OA
ATOM     18  H   UNL     1     132.577 136.716 145.434  1.00  0.00     0.293 HD
ENDBRANCH  14  17
BRANCH  16  19
ATOM     19  O   UNL     1     136.065 135.700 145.388  1.00  0.00    -0.504 OA
ATOM     20  H   UNL     1     136.437 136.642 145.437  1.00  0.00     0.293 HD
ENDBRANCH  16  19
ENDBRANCH   1  11
BRANCH  10  21
ATOM     21  O   UNL     1     134.515 130.972 142.740  1.00  0.00    -0.500 OA
ATOM     22  H   UNL     1     134.578 130.011 143.056  1.00  0.00     0.294 HD
ENDBRANCH  10  21
BRANCH   5  23
ATOM     23  O   UNL     1     138.920 132.579 136.548  1.00  0.00    -0.507 OA
ATOM     24  H   UNL     1     138.624 132.522 135.580  1.00  0.00     0.293 HD
ENDBRANCH   5  23
BRANCH   7  25
ATOM     25  O   UNL     1     136.981 128.748 138.695  1.00  0.00    -0.507 OA
ATOM     26  H   UNL     1     137.464 128.112 138.078  1.00  0.00     0.293 HD
ENDBRANCH   7  25
TORSDOF 6
ENDMDL
MODEL 4
REMARK VINA RESULT:    -6.008      1.870      7.082
REMARK INTER + INTRA:          -7.534
REMARK INTER:                  -7.255
REMARK INTRA:                  -0.279
REMARK UNBOUND:                -0.296
REMARK SMILES Oc1cc(O)c2cc(O)c(-c3ccc(O)c(O)c3)[o+]c2c1
REMARK SMILES IDX 10 1 19 2 20 3 21 4 2 5 3 6 4 7 6 8 7 9 8 10 11 11 12 12
REMARK SMILES IDX 13 13 14 14 18 15 16 16 15 17 17 19 9 21 1 23 5 25
REMARK H PARENT 15 18 17 20 9 22 1 24 5 26
REMARK Flexibility Score: inf
ROOT
ATOM      1  C   UNL     1     133.115 130.678 142.736  1.00  0.00     0.402 A 
ATOM      2  O   UNL     1     133.552 131.552 143.639  1.00  0.00    -0.202 OA
ATOM      3  C   UNL     1     133.983 132.770 143.326  1.00  0.00     0.368 A 
ATOM      4  C   UNL     1     134.419 133.619 144.346  1.00  0.00     0.162 A 
ATOM      5  C   UNL     1     134.875 134.907 144.045  1.00  0.00     0.128 A 
ATOM      6  C   UNL     1     134.892 135.346 142.720  1.00  0.00     0.093 A 
ATOM      7  C   UNL     1     134.458 134.515 141.680  1.00  0.00     0.136 A 
ATOM      8  C   UNL     1     133.998 133.206 141.980  1.00  0.00     0.125 A 
ATOM      9  C   UNL     1     133.557 132.300 141.001  1.00  0.00     0.078 A 
ATOM     10  C   UNL     1     133.122 131.025 141.373  1.00  0.00     0.223 A 
ENDROOT
BRANCH   1  11
ATOM     11  C   UNL     1     132.651 129.355 143.212  1.00  0.00     0.087 A 
ATOM     12  C   UNL     1     131.291 128.999 143.177  1.00  0.00     0.022 A 
ATOM     13  C   UNL     1     130.874 127.753 143.654  1.00  0.00     0.051 A 
ATOM     14  C   UNL     1     131.806 126.850 144.181  1.00  0.00     0.157 A 
ATOM     15  C   UNL     1     133.578 128.454 143.761  1.00  0.00     0.068 A 
ATOM     16  C   UNL     1     133.164 127.204 144.238  1.00  0.00     0.158 A 
BRANCH  14  17
ATOM     17  O   UNL     1     131.387 125.607 144.653  1.00  0.00    -0.504 OA
ATOM     18  H   UNL     1     132.039 124.946 145.061  1.00  0.00     0.293 HD
ENDBRANCH  14  17
BRANCH  16  19
ATOM     19  O   UNL     1     134.116 126.331 144.764  1.00  0.00    -0.504 OA
ATOM     20  H   UNL     1     135.061 126.629 144.977  1.00  0.00     0.293 HD
ENDBRANCH  16  19
ENDBRANCH   1  11
BRANCH  10  21
ATOM     21  O   UNL     1     132.733 130.106 140.397  1.00  0.00    -0.500 OA
ATOM     22  H   UNL     1     133.388 129.443 139.998  1.00  0.00     0.294 HD
ENDBRANCH  10  21
BRANCH   5  23
ATOM     23  O   UNL     1     135.313 135.758 145.057  1.00  0.00    -0.507 OA
ATOM     24  H   UNL     1     136.206 136.233 145.002  1.00  0.00     0.293 HD
ENDBRANCH   5  23
BRANCH   7  25
ATOM     25  O   UNL     1     134.504 135.031 140.382  1.00  0.00    -0.507 OA
ATOM     26  H   UNL     1     134.016 134.633 139.593  1.00  0.00     0.293 HD
ENDBRANCH   7  25
TORSDOF 6
ENDMDL
MODEL 5
REMARK VINA RESULT:    -6.001      4.731      6.308
REMARK INTER + INTRA:          -7.524
REMARK INTER:                  -7.190
REMARK INTRA:                  -0.335
REMARK UNBOUND:                -0.296
REMARK SMILES Oc1cc(O)c2cc(O)c(-c3ccc(O)c(O)c3)[o+]c2c1
REMARK SMILES IDX 10 1 19 2 20 3 21 4 2 5 3 6 4 7 6 8 7 9 8 10 11 11 12 12
REMARK SMILES IDX 13 13 14 14 18 15 16 16 15 17 17 19 9 21 1 23 5 25
REMARK H PARENT 15 18 17 20 9 22 1 24 5 26
REMARK Flexibility Score: inf
ROOT
ATOM      1  C   UNL     1     134.967 132.039 140.462  1.00  0.00     0.402 A 
ATOM      2  O   UNL     1     136.035 131.247 140.433  1.00  0.00    -0.202 OA
ATOM      3  C   UNL     1     136.871 131.187 139.402  1.00  0.00     0.368 A 
ATOM      4  C   UNL     1     137.970 130.326 139.466  1.00  0.00     0.162 A 
ATOM      5  C   UNL     1     138.866 130.245 138.396  1.00  0.00     0.128 A 
ATOM      6  C   UNL     1     138.664 131.029 137.258  1.00  0.00     0.093 A 
ATOM      7  C   UNL     1     137.571 131.901 137.170  1.00  0.00     0.136 A 
ATOM      8  C   UNL     1     136.657 131.984 138.252  1.00  0.00     0.125 A 
ATOM      9  C   UNL     1     135.528 132.820 138.246  1.00  0.00     0.078 A 
ATOM     10  C   UNL     1     134.668 132.845 139.348  1.00  0.00     0.223 A 
ENDROOT
BRANCH   1  11
ATOM     11  C   UNL     1     134.117 132.023 141.674  1.00  0.00     0.087 A 
ATOM     12  C   UNL     1     132.957 131.232 141.745  1.00  0.00     0.022 A 
ATOM     13  C   UNL     1     132.157 131.251 142.891  1.00  0.00     0.051 A 
ATOM     14  C   UNL     1     132.498 132.068 143.978  1.00  0.00     0.157 A 
ATOM     15  C   UNL     1     134.442 132.856 142.757  1.00  0.00     0.068 A 
ATOM     16  C   UNL     1     133.644 132.877 143.907  1.00  0.00     0.158 A 
BRANCH  14  17
ATOM     17  O   UNL     1     131.699 132.083 145.120  1.00  0.00    -0.504 OA
ATOM     18  H   UNL     1     132.047 132.431 146.006  1.00  0.00     0.293 HD
ENDBRANCH  14  17
BRANCH  16  19
ATOM     19  O   UNL     1     134.006 133.707 144.968  1.00  0.00    -0.504 OA
ATOM     20  H   UNL     1     134.881 133.594 145.466  1.00  0.00     0.293 HD
ENDBRANCH  16  19
ENDBRANCH   1  11
BRANCH  10  21
ATOM     21  O   UNL     1     133.519 133.635 139.322  1.00  0.00    -0.500 OA
ATOM     22  H   UNL     1     132.859 133.591 138.553  1.00  0.00     0.294 HD
ENDBRANCH  10  21
BRANCH   5  23
ATOM     23  O   UNL     1     139.963 129.388 138.453  1.00  0.00    -0.507 OA
ATOM     24  H   UNL     1     140.260 128.965 139.325  1.00  0.00     0.293 HD
ENDBRANCH   5  23
BRANCH   7  25
ATOM     25  O   UNL     1     137.442 132.654 135.999  1.00  0.00    -0.507 OA
ATOM     26  H   UNL     1     137.785 133.596 135.887  1.00  0.00     0.293 HD
ENDBRANCH   7  25
TORSDOF 6
ENDMDL
MODEL 6
REMARK VINA RESULT:    -5.976      1.186      2.650
REMARK INTER + INTRA:          -7.495
REMARK INTER:                  -7.155
REMARK INTRA:                  -0.340
REMARK UNBOUND:                -0.296
REMARK SMILES Oc1cc(O)c2cc(O)c(-c3ccc(O)c(O)c3)[o+]c2c1
REMARK SMILES IDX 10 1 19 2 20 3 21 4 2 5 3 6 4 7 6 8 7 9 8 10 11 11 12 12
REMARK SMILES IDX 13 13 14 14 18 15 16 16 15 17 17 19 9 21 1 23 5 25
REMARK H PARENT 15 18 17 20 9 22 1 24 5 26
REMARK Flexibility Score: inf
ROOT
ATOM      1  C   UNL     1     132.769 132.249 142.340  1.00  0.00     0.402 A 
ATOM      2  O   UNL     1     132.103 131.383 143.099  1.00  0.00    -0.202 OA
ATOM      3  C   UNL     1     131.937 130.105 142.774  1.00  0.00     0.368 A 
ATOM      4  C   UNL     1     131.224 129.271 143.639  1.00  0.00     0.162 A 
ATOM      5  C   UNL     1     131.037 127.921 143.323  1.00  0.00     0.128 A 
ATOM      6  C   UNL     1     131.566 127.405 142.139  1.00  0.00     0.093 A 
ATOM      7  C   UNL     1     132.286 128.220 141.256  1.00  0.00     0.136 A 
ATOM      8  C   UNL     1     132.475 129.590 141.570  1.00  0.00     0.125 A 
ATOM      9  C   UNL     1     133.171 130.484 140.740  1.00  0.00     0.078 A 
ATOM     10  C   UNL     1     133.314 131.823 141.114  1.00  0.00     0.223 A 
ENDROOT
BRANCH   1  11
ATOM     11  C   UNL     1     132.894 133.645 142.816  1.00  0.00     0.087 A 
ATOM     12  C   UNL     1     131.993 134.643 142.402  1.00  0.00     0.022 A 
ATOM     13  C   UNL     1     132.145 135.960 142.846  1.00  0.00     0.051 A 
ATOM     14  C   UNL     1     133.203 136.301 143.700  1.00  0.00     0.157 A 
ATOM     15  C   UNL     1     133.964 133.997 143.654  1.00  0.00     0.068 A 
ATOM     16  C   UNL     1     134.118 135.314 144.102  1.00  0.00     0.158 A 
BRANCH  14  17
ATOM     17  O   UNL     1     133.349 137.614 144.142  1.00  0.00    -0.504 OA
ATOM     18  H   UNL     1     132.551 138.172 144.425  1.00  0.00     0.293 HD
ENDBRANCH  14  17
BRANCH  16  19
ATOM     19  O   UNL     1     135.186 135.623 144.944  1.00  0.00    -0.504 OA
ATOM     20  H   UNL     1     135.918 136.269 144.671  1.00  0.00     0.293 HD
ENDBRANCH  16  19
ENDBRANCH   1  11
BRANCH  10  21
ATOM     21  O   UNL     1     133.960 132.722 140.266  1.00  0.00    -0.500 OA
ATOM     22  H   UNL     1     133.503 133.564 139.934  1.00  0.00     0.294 HD
ENDBRANCH  10  21
BRANCH   5  23
ATOM     23  O   UNL     1     130.325 127.085 144.181  1.00  0.00    -0.507 OA
ATOM     24  H   UNL     1     129.333 127.210 144.341  1.00  0.00     0.293 HD
ENDBRANCH   5  23
BRANCH   7  25
ATOM     25  O   UNL     1     132.786 127.625 140.094  1.00  0.00    -0.507 OA
ATOM     26  H   UNL     1     132.244 127.462 139.259  1.00  0.00     0.293 HD
ENDBRANCH   7  25
TORSDOF 6
ENDMDL
MODEL 7
REMARK VINA RESULT:    -5.905      4.841      6.360
REMARK INTER + INTRA:          -7.410
REMARK INTER:                  -7.160
REMARK INTRA:                  -0.250
REMARK UNBOUND:                -0.296
REMARK SMILES Oc1cc(O)c2cc(O)c(-c3ccc(O)c(O)c3)[o+]c2c1
REMARK SMILES IDX 10 1 19 2 20 3 21 4 2 5 3 6 4 7 6 8 7 9 8 10 11 11 12 12
REMARK SMILES IDX 13 13 14 14 18 15 16 16 15 17 17 19 9 21 1 23 5 25
REMARK H PARENT 15 18 17 20 9 22 1 24 5 26
REMARK Flexibility Score: inf
ROOT
ATOM      1  C   UNL     1     136.263 131.182 140.301  1.00  0.00     0.402 A 
ATOM      2  O   UNL     1     136.976 130.082 140.532  1.00  0.00    -0.202 OA
ATOM      3  C   UNL     1     137.603 129.405 139.576  1.00  0.00     0.368 A 
ATOM      4  C   UNL     1     138.332 128.263 139.918  1.00  0.00     0.162 A 
ATOM      5  C   UNL     1     139.003 127.533 138.931  1.00  0.00     0.128 A 
ATOM      6  C   UNL     1     138.947 127.949 137.600  1.00  0.00     0.093 A 
ATOM      7  C   UNL     1     138.225 129.091 137.231  1.00  0.00     0.136 A 
ATOM      8  C   UNL     1     137.539 129.833 138.228  1.00  0.00     0.125 A 
ATOM      9  C   UNL     1     136.781 130.982 137.950  1.00  0.00     0.078 A 
ATOM     10  C   UNL     1     136.128 131.659 138.984  1.00  0.00     0.223 A 
ENDROOT
BRANCH   1  11
ATOM     11  C   UNL     1     135.619 131.852 141.453  1.00  0.00     0.087 A 
ATOM     12  C   UNL     1     136.022 133.132 141.875  1.00  0.00     0.022 A 
ATOM     13  C   UNL     1     135.416 133.736 142.980  1.00  0.00     0.051 A 
ATOM     14  C   UNL     1     134.407 133.066 143.686  1.00  0.00     0.157 A 
ATOM     15  C   UNL     1     134.622 131.178 142.177  1.00  0.00     0.068 A 
ATOM     16  C   UNL     1     134.012 131.780 143.284  1.00  0.00     0.158 A 
BRANCH  14  17
ATOM     17  O   UNL     1     133.803 133.672 144.786  1.00  0.00    -0.504 OA
ATOM     18  H   UNL     1     134.335 134.232 145.443  1.00  0.00     0.293 HD
ENDBRANCH  14  17
BRANCH  16  19
ATOM     19  O   UNL     1     133.017 131.084 143.970  1.00  0.00    -0.504 OA
ATOM     20  H   UNL     1     133.020 130.996 144.980  1.00  0.00     0.293 HD
ENDBRANCH  16  19
ENDBRANCH   1  11
BRANCH  10  21
ATOM     21  O   UNL     1     135.333 132.770 138.702  1.00  0.00    -0.500 OA
ATOM     22  H   UNL     1     135.537 133.387 137.924  1.00  0.00     0.294 HD
ENDBRANCH  10  21
BRANCH   5  23
ATOM     23  O   UNL     1     139.730 126.392 139.266  1.00  0.00    -0.507 OA
ATOM     24  H   UNL     1     140.084 126.245 140.203  1.00  0.00     0.293 HD
ENDBRANCH   5  23
BRANCH   7  25
ATOM     25  O   UNL     1     138.222 129.442 135.879  1.00  0.00    -0.507 OA
ATOM     26  H   UNL     1     137.392 129.512 135.310  1.00  0.00     0.293 HD
ENDBRANCH   7  25
TORSDOF 6
ENDMDL
MODEL 8
REMARK VINA RESULT:    -5.861      2.891      7.818
REMARK INTER + INTRA:          -7.356
REMARK INTER:                  -7.067
REMARK INTRA:                  -0.289
REMARK UNBOUND:                -0.296
REMARK SMILES Oc1cc(O)c2cc(O)c(-c3ccc(O)c(O)c3)[o+]c2c1
REMARK SMILES IDX 10 1 19 2 20 3 21 4 2 5 3 6 4 7 6 8 7 9 8 10 11 11 12 12
REMARK SMILES IDX 13 13 14 14 18 15 16 16 15 17 17 19 9 21 1 23 5 25
REMARK H PARENT 15 18 17 20 9 22 1 24 5 26
REMARK Flexibility Score: inf
ROOT
ATOM      1  C   UNL     1     133.224 127.853 143.830  1.00  0.00     0.402 A 
ATOM      2  O   UNL     1     132.427 128.906 143.991  1.00  0.00    -0.202 OA
ATOM      3  C   UNL     1     132.755 130.135 143.607  1.00  0.00     0.368 A 
ATOM      4  C   UNL     1     131.849 131.178 143.815  1.00  0.00     0.162 A 
ATOM      5  C   UNL     1     132.169 132.480 143.419  1.00  0.00     0.128 A 
ATOM      6  C   UNL     1     133.399 132.739 142.810  1.00  0.00     0.093 A 
ATOM      7  C   UNL     1     134.324 131.711 142.588  1.00  0.00     0.136 A 
ATOM      8  C   UNL     1     134.005 130.389 142.992  1.00  0.00     0.125 A 
ATOM      9  C   UNL     1     134.875 129.299 142.822  1.00  0.00     0.078 A 
ATOM     10  C   UNL     1     134.494 128.024 143.250  1.00  0.00     0.223 A 
ENDROOT
BRANCH   1  11
ATOM     11  C   UNL     1     132.738 126.532 144.291  1.00  0.00     0.087 A 
ATOM     12  C   UNL     1     133.227 125.944 145.471  1.00  0.00     0.022 A 
ATOM     13  C   UNL     1     132.771 124.685 145.875  1.00  0.00     0.051 A 
ATOM     14  C   UNL     1     131.832 123.992 145.100  1.00  0.00     0.157 A 
ATOM     15  C   UNL     1     131.813 125.823 143.508  1.00  0.00     0.068 A 
ATOM     16  C   UNL     1     131.354 124.563 143.909  1.00  0.00     0.158 A 
BRANCH  14  17
ATOM     17  O   UNL     1     131.379 122.738 145.506  1.00  0.00    -0.504 OA
ATOM     18  H   UNL     1     131.977 122.095 146.011  1.00  0.00     0.293 HD
ENDBRANCH  14  17
BRANCH  16  19
ATOM     19  O   UNL     1     130.425 123.895 143.112  1.00  0.00    -0.504 OA
ATOM     20  H   UNL     1     129.456 123.787 143.389  1.00  0.00     0.293 HD
ENDBRANCH  16  19
ENDBRANCH   1  11
BRANCH  10  21
ATOM     21  O   UNL     1     135.377 126.952 143.129  1.00  0.00    -0.500 OA
ATOM     22  H   UNL     1     136.062 126.907 142.382  1.00  0.00     0.294 HD
ENDBRANCH  10  21
BRANCH   5  23
ATOM     23  O   UNL     1     131.270 133.525 143.625  1.00  0.00    -0.507 OA
ATOM     24  H   UNL     1     130.279 133.415 143.444  1.00  0.00     0.293 HD
ENDBRANCH   5  23
BRANCH   7  25
ATOM     25  O   UNL     1     135.529 132.053 141.970  1.00  0.00    -0.507 OA
ATOM     26  H   UNL     1     135.606 132.656 141.164  1.00  0.00     0.293 HD
ENDBRANCH   7  25
TORSDOF 6
ENDMDL
MODEL 9
REMARK VINA RESULT:    -5.788      4.442      5.636
REMARK INTER + INTRA:          -7.269
REMARK INTER:                  -6.917
REMARK INTRA:                  -0.351
REMARK UNBOUND:                -0.296
REMARK SMILES Oc1cc(O)c2cc(O)c(-c3ccc(O)c(O)c3)[o+]c2c1
REMARK SMILES IDX 10 1 19 2 20 3 21 4 2 5 3 6 4 7 6 8 7 9 8 10 11 11 12 12
REMARK SMILES IDX 13 13 14 14 18 15 16 16 15 17 17 19 9 21 1 23 5 25
REMARK H PARENT 15 18 17 20 9 22 1 24 5 26
REMARK Flexibility Score: inf
ROOT
ATOM      1  C   UNL     1     135.531 132.467 140.578  1.00  0.00     0.402 A 
ATOM      2  O   UNL     1     136.820 132.140 140.595  1.00  0.00    -0.202 OA
ATOM      3  C   UNL     1     137.364 131.269 139.751  1.00  0.00     0.368 A 
ATOM      4  C   UNL     1     138.730 130.994 139.845  1.00  0.00     0.162 A 
ATOM      5  C   UNL     1     139.328 130.083 138.967  1.00  0.00     0.128 A 
ATOM      6  C   UNL     1     138.556 129.448 137.992  1.00  0.00     0.093 A 
ATOM      7  C   UNL     1     137.185 129.709 137.877  1.00  0.00     0.136 A 
ATOM      8  C   UNL     1     136.573 130.629 138.767  1.00  0.00     0.125 A 
ATOM      9  C   UNL     1     135.204 130.942 138.733  1.00  0.00     0.078 A 
ATOM     10  C   UNL     1     134.671 131.856 139.647  1.00  0.00     0.223 A 
ENDROOT
BRANCH   1  11
ATOM     11  C   UNL     1     135.047 133.459 141.565  1.00  0.00     0.087 A 
ATOM     12  C   UNL     1     134.921 134.820 141.235  1.00  0.00     0.022 A 
ATOM     13  C   UNL     1     134.485 135.742 142.190  1.00  0.00     0.051 A 
ATOM     14  C   UNL     1     134.181 135.320 143.492  1.00  0.00     0.157 A 
ATOM     15  C   UNL     1     134.761 133.046 142.877  1.00  0.00     0.068 A 
ATOM     16  C   UNL     1     134.323 133.966 143.836  1.00  0.00     0.158 A 
BRANCH  14  17
ATOM     17  O   UNL     1     133.744 136.242 144.442  1.00  0.00    -0.504 OA
ATOM     18  H   UNL     1     132.913 136.079 144.998  1.00  0.00     0.293 HD
ENDBRANCH  14  17
BRANCH  16  19
ATOM     19  O   UNL     1     134.036 133.517 145.125  1.00  0.00    -0.504 OA
ATOM     20  H   UNL     1     134.304 134.040 145.950  1.00  0.00     0.293 HD
ENDBRANCH  16  19
ENDBRANCH   1  11
BRANCH  10  21
ATOM     21  O   UNL     1     133.303 132.128 139.648  1.00  0.00    -0.500 OA
ATOM     22  H   UNL     1     132.612 131.386 139.683  1.00  0.00     0.294 HD
ENDBRANCH  10  21
BRANCH   5  23
ATOM     23  O   UNL     1     140.690 129.803 139.057  1.00  0.00    -0.507 OA
ATOM     24  H   UNL     1     141.026 128.894 139.352  1.00  0.00     0.293 HD
ENDBRANCH   5  23
BRANCH   7  25
ATOM     25  O   UNL     1     136.484 129.035 136.872  1.00  0.00    -0.507 OA
ATOM     26  H   UNL     1     135.863 128.257 137.034  1.00  0.00     0.293 HD
ENDBRANCH   7  25
TORSDOF 6
ENDMDL
