MODEL 1
REMARK VINA RESULT:    -1.947      0.000      0.000
REMARK INTER + INTRA:          -1.925
REMARK INTER:                  -2.288
REMARK INTRA:                   0.363
REMARK UNBOUND:                 0.363
REMARK SMILES O=c1c(O)c(-c2ccc(O)c(O)c2)oc2cc(O)ccc12
REMARK SMILES IDX 5 1 3 2 2 3 1 4 21 5 15 6 14 7 16 8 17 9 19 10 20 11 6 12
REMARK SMILES IDX 7 13 8 14 9 15 13 16 11 17 10 18 12 20 4 22 18 24
REMARK H PARENT 10 19 12 21 4 23 18 25
REMARK Flexibility Score: inf
ROOT
ATOM      1  C   UNL     1      13.987  39.132 -11.411  1.00  0.00     0.180 A 
ATOM      2  C   UNL     1      14.057  37.913 -12.115  1.00  0.00     0.208 A 
ATOM      3  C   UNL     1      15.124  37.703 -13.003  1.00  0.00     0.235 A 
ATOM      4  O   UNL     1      15.202  36.626 -13.653  1.00  0.00    -0.285 OA
ATOM      5  C   UNL     1      16.103  38.699 -13.150  1.00  0.00     0.069 A 
ATOM      6  C   UNL     1      15.976  39.882 -12.391  1.00  0.00     0.142 A 
ATOM      7  O   UNL     1      14.945  40.044 -11.570  1.00  0.00    -0.452 OA
ATOM      8  C   UNL     1      16.936  40.893 -12.504  1.00  0.00     0.094 A 
ATOM      9  C   UNL     1      18.026  40.736 -13.370  1.00  0.00     0.119 A 
ATOM     10  C   UNL     1      18.154  39.567 -14.125  1.00  0.00     0.047 A 
ATOM     11  C   UNL     1      17.200  38.550 -14.019  1.00  0.00     0.020 A 
ENDROOT
BRANCH   1  12
ATOM     12  C   UNL     1      12.884  39.436 -10.471  1.00  0.00     0.025 A 
ATOM     13  C   UNL     1      13.072  40.299  -9.377  1.00  0.00     0.016 A 
ATOM     14  C   UNL     1      12.023  40.552  -8.490  1.00  0.00     0.051 A 
ATOM     15  C   UNL     1      10.779  39.939  -8.670  1.00  0.00     0.157 A 
ATOM     16  C   UNL     1      11.640  38.806 -10.638  1.00  0.00     0.062 A 
ATOM     17  C   UNL     1      10.586  39.059  -9.748  1.00  0.00     0.158 A 
BRANCH  15  18
ATOM     18  O   UNL     1       9.751  40.213  -7.769  1.00  0.00    -0.504 OA
ATOM     19  H   UNL     1       9.832  40.004  -6.781  1.00  0.00     0.293 HD
ENDBRANCH  15  18
BRANCH  17  20
ATOM     20  O   UNL     1       9.351  38.438  -9.931  1.00  0.00    -0.504 OA
ATOM     21  H   UNL     1       9.128  37.556  -9.486  1.00  0.00     0.293 HD
ENDBRANCH  17  20
ENDBRANCH   1  12
BRANCH   2  22
ATOM     22  O   UNL     1      13.094  36.921 -11.910  1.00  0.00    -0.502 OA
ATOM     23  H   UNL     1      13.297  36.065 -11.407  1.00  0.00     0.293 HD
ENDBRANCH   2  22
BRANCH   9  24
ATOM     24  O   UNL     1      18.987  41.739 -13.489  1.00  0.00    -0.508 OA
ATOM     25  H   UNL     1      19.010  42.528 -12.855  1.00  0.00     0.293 HD
ENDBRANCH   9  24
TORSDOF 5
ENDMDL
MODEL 2
REMARK VINA RESULT:    -1.819      0.592      1.461
REMARK INTER + INTRA:          -1.775
REMARK INTER:                  -2.014
REMARK INTRA:                   0.239
REMARK UNBOUND:                 0.363
REMARK SMILES O=c1c(O)c(-c2ccc(O)c(O)c2)oc2cc(O)ccc12
REMARK SMILES IDX 5 1 3 2 2 3 1 4 21 5 15 6 14 7 16 8 17 9 19 10 20 11 6 12
REMARK SMILES IDX 7 13 8 14 9 15 13 16 11 17 10 18 12 20 4 22 18 24
REMARK H PARENT 10 19 12 21 4 23 18 25
REMARK Flexibility Score: inf
ROOT
ATOM      1  C   UNL     1      13.904  38.981 -11.559  1.00  0.00     0.180 A 
ATOM      2  C   UNL     1      14.058  37.774 -12.271  1.00  0.00     0.208 A 
ATOM      3  C   UNL     1      15.164  37.627 -13.123  1.00  0.00     0.235 A 
ATOM      4  O   UNL     1      15.317  36.561 -13.780  1.00  0.00    -0.285 OA
ATOM      5  C   UNL     1      16.097  38.671 -13.229  1.00  0.00     0.069 A 
ATOM      6  C   UNL     1      15.885  39.838 -12.464  1.00  0.00     0.142 A 
ATOM      7  O   UNL     1      14.821  39.941 -11.677  1.00  0.00    -0.452 OA
ATOM      8  C   UNL     1      16.798  40.896 -12.535  1.00  0.00     0.094 A 
ATOM      9  C   UNL     1      17.923  40.803 -13.365  1.00  0.00     0.119 A 
ATOM     10  C   UNL     1      18.134  39.648 -14.125  1.00  0.00     0.047 A 
ATOM     11  C   UNL     1      17.228  38.585 -14.061  1.00  0.00     0.020 A 
ENDROOT
BRANCH   1  12
ATOM     12  C   UNL     1      12.756  39.220 -10.654  1.00  0.00     0.025 A 
ATOM     13  C   UNL     1      11.502  38.634 -10.895  1.00  0.00     0.016 A 
ATOM     14  C   UNL     1      10.426  38.893 -10.041  1.00  0.00     0.051 A 
ATOM     15  C   UNL     1      10.581  39.750  -8.947  1.00  0.00     0.157 A 
ATOM     16  C   UNL     1      12.904  40.097  -9.568  1.00  0.00     0.062 A 
ATOM     17  C   UNL     1      11.825  40.358  -8.710  1.00  0.00     0.158 A 
BRANCH  15  18
ATOM     18  O   UNL     1       9.490  39.988  -8.112  1.00  0.00    -0.504 OA
ATOM     19  H   UNL     1       8.831  39.258  -7.868  1.00  0.00     0.293 HD
ENDBRANCH  15  18
BRANCH  17  20
ATOM     20  O   UNL     1      11.985  41.220  -7.625  1.00  0.00    -0.504 OA
ATOM     21  H   UNL     1      11.241  41.376  -6.956  1.00  0.00     0.293 HD
ENDBRANCH  17  20
ENDBRANCH   1  12
BRANCH   2  22
ATOM     22  O   UNL     1      13.139  36.734 -12.108  1.00  0.00    -0.502 OA
ATOM     23  H   UNL     1      12.696  36.537 -11.218  1.00  0.00     0.293 HD
ENDBRANCH   2  22
BRANCH   9  24
ATOM     24  O   UNL     1      18.836  41.852 -13.442  1.00  0.00    -0.508 OA
ATOM     25  H   UNL     1      19.823  41.711 -13.258  1.00  0.00     0.293 HD
ENDBRANCH   9  24
TORSDOF 5
ENDMDL
MODEL 3
REMARK VINA RESULT:    -0.269      1.366      6.663
REMARK INTER + INTRA:           0.046
REMARK INTER:                  -0.054
REMARK INTRA:                   0.100
REMARK UNBOUND:                 0.363
REMARK SMILES O=c1c(O)c(-c2ccc(O)c(O)c2)oc2cc(O)ccc12
REMARK SMILES IDX 5 1 3 2 2 3 1 4 21 5 15 6 14 7 16 8 17 9 19 10 20 11 6 12
REMARK SMILES IDX 7 13 8 14 9 15 13 16 11 17 10 18 12 20 4 22 18 24
REMARK H PARENT 10 19 12 21 4 23 18 25
REMARK Flexibility Score: inf
ROOT
ATOM      1  C   UNL     1      14.919  39.806 -12.064  1.00  0.00     0.180 A 
ATOM      2  C   UNL     1      14.144  38.858 -12.764  1.00  0.00     0.208 A 
ATOM      3  C   UNL     1      12.929  38.431 -12.205  1.00  0.00     0.235 A 
ATOM      4  O   UNL     1      12.225  37.576 -12.807  1.00  0.00    -0.285 OA
ATOM      5  C   UNL     1      12.507  38.969 -10.980  1.00  0.00     0.069 A 
ATOM      6  C   UNL     1      13.327  39.931 -10.352  1.00  0.00     0.142 A 
ATOM      7  O   UNL     1      14.474  40.301 -10.910  1.00  0.00    -0.452 OA
ATOM      8  C   UNL     1      12.936  40.498  -9.135  1.00  0.00     0.094 A 
ATOM      9  C   UNL     1      11.730  40.112  -8.533  1.00  0.00     0.119 A 
ATOM     10  C   UNL     1      10.917  39.158  -9.151  1.00  0.00     0.047 A 
ATOM     11  C   UNL     1      11.299  38.586 -10.369  1.00  0.00     0.020 A 
ENDROOT
BRANCH   1  12
ATOM     12  C   UNL     1      16.219  40.293 -12.577  1.00  0.00     0.025 A 
ATOM     13  C   UNL     1      16.526  41.665 -12.605  1.00  0.00     0.016 A 
ATOM     14  C   UNL     1      17.750  42.104 -13.116  1.00  0.00     0.051 A 
ATOM     15  C   UNL     1      18.677  41.186 -13.620  1.00  0.00     0.157 A 
ATOM     16  C   UNL     1      17.142  39.376 -13.103  1.00  0.00     0.062 A 
ATOM     17  C   UNL     1      18.372  39.815 -13.618  1.00  0.00     0.158 A 
BRANCH  15  18
ATOM     18  O   UNL     1      19.891  41.655 -14.123  1.00  0.00    -0.504 OA
ATOM     19  H   UNL     1      20.244  41.370 -15.029  1.00  0.00     0.293 HD
ENDBRANCH  15  18
BRANCH  17  20
ATOM     20  O   UNL     1      19.287  38.894 -14.125  1.00  0.00    -0.504 OA
ATOM     21  H   UNL     1      20.200  39.181 -14.460  1.00  0.00     0.293 HD
ENDBRANCH  17  20
ENDBRANCH   1  12
BRANCH   2  22
ATOM     22  O   UNL     1      14.567  38.377 -14.006  1.00  0.00    -0.502 OA
ATOM     23  H   UNL     1      15.367  37.763 -14.105  1.00  0.00     0.293 HD
ENDBRANCH   2  22
BRANCH   9  24
ATOM     24  O   UNL     1      11.333  40.671  -7.319  1.00  0.00    -0.508 OA
ATOM     25  H   UNL     1      10.368  40.922  -7.142  1.00  0.00     0.293 HD
ENDBRANCH   9  24
TORSDOF 5
ENDMDL
