MODEL 1
REMARK VINA RESULT:    -5.090      0.000      0.000
REMARK INTER + INTRA:          -6.000
REMARK INTER:                  -5.834
REMARK INTRA:                  -0.166
REMARK UNBOUND:                -0.166
REMARK SMILES CC=Cc1ccc(O)c(OC)c1
REMARK SMILES IDX 4 1 12 2 9 3 7 4 6 5 5 6 3 7 1 8 2 9 10 10 11 11 8 12
REMARK H PARENT 8 13
REMARK Flexibility Score: inf
ROOT
ATOM      1  C   UNL     1      -6.774 -26.625  -2.540  1.00  0.00    -0.022 A 
ATOM      2  C   UNL     1      -7.829 -27.550  -2.586  1.00  0.00     0.058 A 
ATOM      3  C   UNL     1      -7.665 -28.806  -3.205  1.00  0.00     0.161 A 
ATOM      4  C   UNL     1      -6.421 -29.133  -3.772  1.00  0.00     0.157 A 
ATOM      5  C   UNL     1      -5.364 -28.220  -3.715  1.00  0.00     0.051 A 
ATOM      6  C   UNL     1      -5.532 -26.978  -3.102  1.00  0.00     0.012 A 
ENDROOT
BRANCH   1   7
ATOM      7  C   UNL     1      -7.001 -25.321  -1.866  1.00  0.00     0.003 C 
ATOM      8  C   UNL     1      -7.611 -22.936  -1.749  1.00  0.00     0.035 C 
ATOM      9  C   UNL     1      -7.388 -24.210  -2.502  1.00  0.00    -0.030 C 
ENDBRANCH   1   7
BRANCH   3  10
ATOM     10  O   UNL     1      -8.707 -29.745  -3.272  1.00  0.00    -0.493 OA
ATOM     11  C   UNL     1      -9.123 -30.570  -2.188  1.00  0.00     0.278 C 
ENDBRANCH   3  10
BRANCH   4  12
ATOM     12  O   UNL     1      -6.215 -30.364  -4.396  1.00  0.00    -0.504 OA
ATOM     13  H   UNL     1      -6.581 -31.229  -4.018  1.00  0.00     0.293 HD
ENDBRANCH   4  12
TORSDOF 3
ENDMDL
MODEL 2
REMARK VINA RESULT:    -4.999     11.277     12.586
REMARK INTER + INTRA:          -5.895
REMARK INTER:                  -5.735
REMARK INTRA:                  -0.160
REMARK UNBOUND:                -0.166
REMARK SMILES CC=Cc1ccc(O)c(OC)c1
REMARK SMILES IDX 4 1 12 2 9 3 7 4 6 5 5 6 3 7 1 8 2 9 10 10 11 11 8 12
REMARK H PARENT 8 13
REMARK Flexibility Score: inf
ROOT
ATOM      1  C   UNL     1       2.826 -20.096  -7.051  1.00  0.00    -0.022 A 
ATOM      2  C   UNL     1       2.107 -20.176  -5.847  1.00  0.00     0.058 A 
ATOM      3  C   UNL     1       0.965 -20.996  -5.738  1.00  0.00     0.161 A 
ATOM      4  C   UNL     1       0.553 -21.747  -6.852  1.00  0.00     0.157 A 
ATOM      5  C   UNL     1       1.273 -21.680  -8.047  1.00  0.00     0.051 A 
ATOM      6  C   UNL     1       2.403 -20.867  -8.150  1.00  0.00     0.012 A 
ENDROOT
BRANCH   1   7
ATOM      7  C   UNL     1       4.026 -19.224  -7.105  1.00  0.00     0.003 C 
ATOM      8  C   UNL     1       6.270 -18.545  -7.864  1.00  0.00     0.035 C 
ATOM      9  C   UNL     1       5.105 -19.483  -7.852  1.00  0.00    -0.030 C 
ENDBRANCH   1   7
BRANCH   3  10
ATOM     10  O   UNL     1       0.225 -21.087  -4.548  1.00  0.00    -0.493 OA
ATOM     11  C   UNL     1       0.452 -20.288  -3.392  1.00  0.00     0.278 C 
ENDBRANCH   3  10
BRANCH   4  12
ATOM     12  O   UNL     1      -0.572 -22.570  -6.790  1.00  0.00    -0.504 OA
ATOM     13  H   UNL     1      -1.271 -22.477  -6.062  1.00  0.00     0.293 HD
ENDBRANCH   4  12
TORSDOF 3
ENDMDL
MODEL 3
REMARK VINA RESULT:    -4.986     11.101     12.673
REMARK INTER + INTRA:          -5.881
REMARK INTER:                  -5.728
REMARK INTRA:                  -0.153
REMARK UNBOUND:                -0.166
REMARK SMILES CC=Cc1ccc(O)c(OC)c1
REMARK SMILES IDX 4 1 12 2 9 3 7 4 6 5 5 6 3 7 1 8 2 9 10 10 11 11 8 12
REMARK H PARENT 8 13
REMARK Flexibility Score: inf
ROOT
ATOM      1  C   UNL     1       1.682 -20.248  -5.244  1.00  0.00    -0.022 A 
ATOM      2  C   UNL     1       2.949 -20.179  -4.645  1.00  0.00     0.058 A 
ATOM      3  C   UNL     1       3.096 -20.277  -3.246  1.00  0.00     0.161 A 
ATOM      4  C   UNL     1       1.953 -20.457  -2.448  1.00  0.00     0.157 A 
ATOM      5  C   UNL     1       0.691 -20.541  -3.043  1.00  0.00     0.051 A 
ATOM      6  C   UNL     1       0.551 -20.442  -4.428  1.00  0.00     0.012 A 
ENDROOT
BRANCH   1   7
ATOM      7  C   UNL     1       1.589 -20.148  -6.723  1.00  0.00     0.003 C 
ATOM      8  C   UNL     1       1.218 -20.997  -9.007  1.00  0.00     0.035 C 
ATOM      9  C   UNL     1       1.310 -21.182  -7.525  1.00  0.00    -0.030 C 
ENDBRANCH   1   7
BRANCH   3  10
ATOM     10  O   UNL     1       4.352 -20.201  -2.622  1.00  0.00    -0.493 OA
ATOM     11  C   UNL     1       5.559 -20.720  -3.169  1.00  0.00     0.278 C 
ENDBRANCH   3  10
BRANCH   4  12
ATOM     12  O   UNL     1       2.051 -20.558  -1.060  1.00  0.00    -0.504 OA
ATOM     13  H   UNL     1       2.916 -20.379  -0.565  1.00  0.00     0.293 HD
ENDBRANCH   4  12
TORSDOF 3
ENDMDL
MODEL 4
REMARK VINA RESULT:    -4.738     10.677     12.148
REMARK INTER + INTRA:          -5.596
REMARK INTER:                  -5.448
REMARK INTRA:                  -0.148
REMARK UNBOUND:                -0.166
REMARK SMILES CC=Cc1ccc(O)c(OC)c1
REMARK SMILES IDX 4 1 12 2 9 3 7 4 6 5 5 6 3 7 1 8 2 9 10 10 11 11 8 12
REMARK H PARENT 8 13
REMARK Flexibility Score: inf
ROOT
ATOM      1  C   UNL     1       1.459 -19.823  -4.341  1.00  0.00    -0.022 A 
ATOM      2  C   UNL     1       2.460 -20.037  -5.302  1.00  0.00     0.058 A 
ATOM      3  C   UNL     1       2.324 -21.044  -6.279  1.00  0.00     0.161 A 
ATOM      4  C   UNL     1       1.161 -21.834  -6.292  1.00  0.00     0.157 A 
ATOM      5  C   UNL     1       0.156 -21.615  -5.346  1.00  0.00     0.051 A 
ATOM      6  C   UNL     1       0.297 -20.617  -4.380  1.00  0.00     0.012 A 
ENDROOT
BRANCH   1   7
ATOM      7  C   UNL     1       1.652 -18.742  -3.342  1.00  0.00     0.003 C 
ATOM      8  C   UNL     1       2.847 -17.519  -1.568  1.00  0.00     0.035 C 
ATOM      9  C   UNL     1       2.719 -18.649  -2.540  1.00  0.00    -0.030 C 
ENDBRANCH   1   7
BRANCH   3  10
ATOM     10  O   UNL     1       3.315 -21.283  -7.245  1.00  0.00    -0.493 OA
ATOM     11  C   UNL     1       4.713 -21.126  -7.025  1.00  0.00     0.278 C 
ENDBRANCH   3  10
BRANCH   4  12
ATOM     12  O   UNL     1       0.985 -22.842  -7.240  1.00  0.00    -0.504 OA
ATOM     13  H   UNL     1       1.696 -23.071  -7.924  1.00  0.00     0.293 HD
ENDBRANCH   4  12
TORSDOF 3
ENDMDL
MODEL 5
REMARK VINA RESULT:    -4.610     12.190     13.495
REMARK INTER + INTRA:          -5.450
REMARK INTER:                  -5.288
REMARK INTRA:                  -0.162
REMARK UNBOUND:                -0.166
REMARK SMILES CC=Cc1ccc(O)c(OC)c1
REMARK SMILES IDX 4 1 12 2 9 3 7 4 6 5 5 6 3 7 1 8 2 9 10 10 11 11 8 12
REMARK H PARENT 8 13
REMARK Flexibility Score: inf
ROOT
ATOM      1  C   UNL     1       3.909 -21.006  -6.194  1.00  0.00    -0.022 A 
ATOM      2  C   UNL     1       3.273 -20.463  -5.066  1.00  0.00     0.058 A 
ATOM      3  C   UNL     1       3.905 -20.465  -3.807  1.00  0.00     0.161 A 
ATOM      4  C   UNL     1       5.195 -21.010  -3.688  1.00  0.00     0.157 A 
ATOM      5  C   UNL     1       5.837 -21.539  -4.811  1.00  0.00     0.051 A 
ATOM      6  C   UNL     1       5.206 -21.536  -6.055  1.00  0.00     0.012 A 
ENDROOT
BRANCH   1   7
ATOM      7  C   UNL     1       3.199 -20.969  -7.497  1.00  0.00     0.003 C 
ATOM      8  C   UNL     1       1.226 -20.938  -8.974  1.00  0.00     0.035 C 
ATOM      9  C   UNL     1       1.867 -20.995  -7.623  1.00  0.00    -0.030 C 
ENDBRANCH   1   7
BRANCH   3  10
ATOM     10  O   UNL     1       3.286 -19.935  -2.662  1.00  0.00    -0.493 OA
ATOM     11  C   UNL     1       2.004 -20.326  -2.183  1.00  0.00     0.278 C 
ENDBRANCH   3  10
BRANCH   4  12
ATOM     12  O   UNL     1       5.858 -21.034  -2.460  1.00  0.00    -0.504 OA
ATOM     13  H   UNL     1       6.469 -21.795  -2.191  1.00  0.00     0.293 HD
ENDBRANCH   4  12
TORSDOF 3
ENDMDL
MODEL 6
REMARK VINA RESULT:    -4.608     13.866     15.062
REMARK INTER + INTRA:          -5.447
REMARK INTER:                  -5.270
REMARK INTRA:                  -0.177
REMARK UNBOUND:                -0.166
REMARK SMILES CC=Cc1ccc(O)c(OC)c1
REMARK SMILES IDX 4 1 12 2 9 3 7 4 6 5 5 6 3 7 1 8 2 9 10 10 11 11 8 12
REMARK H PARENT 8 13
REMARK Flexibility Score: inf
ROOT
ATOM      1  C   UNL     1       4.972 -24.571   5.549  1.00  0.00    -0.022 A 
ATOM      2  C   UNL     1       5.371 -25.186   4.352  1.00  0.00     0.058 A 
ATOM      3  C   UNL     1       5.006 -24.646   3.102  1.00  0.00     0.161 A 
ATOM      4  C   UNL     1       4.241 -23.467   3.062  1.00  0.00     0.157 A 
ATOM      5  C   UNL     1       3.854 -22.844   4.252  1.00  0.00     0.051 A 
ATOM      6  C   UNL     1       4.217 -23.384   5.486  1.00  0.00     0.012 A 
ENDROOT
BRANCH   1   7
ATOM      7  C   UNL     1       5.394 -25.180   6.835  1.00  0.00     0.003 C 
ATOM      8  C   UNL     1       5.315 -25.552   9.270  1.00  0.00     0.035 C 
ATOM      9  C   UNL     1       4.844 -24.883   8.018  1.00  0.00    -0.030 C 
ENDBRANCH   1   7
BRANCH   3  10
ATOM     10  O   UNL     1       5.385 -25.247   1.891  1.00  0.00    -0.493 OA
ATOM     11  C   UNL     1       6.626 -25.022   1.230  1.00  0.00     0.278 C 
ENDBRANCH   3  10
BRANCH   4  12
ATOM     12  O   UNL     1       3.856 -22.898   1.848  1.00  0.00    -0.504 OA
ATOM     13  H   UNL     1       3.778 -23.441   0.997  1.00  0.00     0.293 HD
ENDBRANCH   4  12
TORSDOF 3
ENDMDL
MODEL 7
REMARK VINA RESULT:    -4.453     14.452     15.588
REMARK INTER + INTRA:          -5.270
REMARK INTER:                  -5.103
REMARK INTRA:                  -0.167
REMARK UNBOUND:                -0.166
REMARK SMILES CC=Cc1ccc(O)c(OC)c1
REMARK SMILES IDX 4 1 12 2 9 3 7 4 6 5 5 6 3 7 1 8 2 9 10 10 11 11 8 12
REMARK H PARENT 8 13
REMARK Flexibility Score: inf
ROOT
ATOM      1  C   UNL     1       4.344 -24.729   6.938  1.00  0.00    -0.022 A 
ATOM      2  C   UNL     1       3.928 -24.340   5.654  1.00  0.00     0.058 A 
ATOM      3  C   UNL     1       4.373 -23.130   5.084  1.00  0.00     0.161 A 
ATOM      4  C   UNL     1       5.253 -22.312   5.813  1.00  0.00     0.157 A 
ATOM      5  C   UNL     1       5.680 -22.703   7.085  1.00  0.00     0.051 A 
ATOM      6  C   UNL     1       5.236 -23.901   7.645  1.00  0.00     0.012 A 
ENDROOT
BRANCH   1   7
ATOM      7  C   UNL     1       3.851 -26.019   7.483  1.00  0.00     0.003 C 
ATOM      8  C   UNL     1       2.298 -27.922   7.677  1.00  0.00     0.035 C 
ATOM      9  C   UNL     1       2.719 -26.613   7.089  1.00  0.00    -0.030 C 
ENDBRANCH   1   7
BRANCH   3  10
ATOM     10  O   UNL     1       3.964 -22.714   3.806  1.00  0.00    -0.493 OA
ATOM     11  C   UNL     1       4.235 -23.422   2.601  1.00  0.00     0.278 C 
ENDBRANCH   3  10
BRANCH   4  12
ATOM     12  O   UNL     1       5.717 -21.105   5.289  1.00  0.00    -0.504 OA
ATOM     13  H   UNL     1       6.688 -20.963   5.037  1.00  0.00     0.293 HD
ENDBRANCH   4  12
TORSDOF 3
ENDMDL
MODEL 8
REMARK VINA RESULT:    -4.393     11.431     13.197
REMARK INTER + INTRA:          -5.201
REMARK INTER:                  -5.035
REMARK INTRA:                  -0.167
REMARK UNBOUND:                -0.166
REMARK SMILES CC=Cc1ccc(O)c(OC)c1
REMARK SMILES IDX 4 1 12 2 9 3 7 4 6 5 5 6 3 7 1 8 2 9 10 10 11 11 8 12
REMARK H PARENT 8 13
REMARK Flexibility Score: inf
ROOT
ATOM      1  C   UNL     1       1.189 -19.938  -5.156  1.00  0.00    -0.022 A 
ATOM      2  C   UNL     1       1.251 -19.394  -3.864  1.00  0.00     0.058 A 
ATOM      3  C   UNL     1       1.748 -18.093  -3.649  1.00  0.00     0.161 A 
ATOM      4  C   UNL     1       2.176 -17.331  -4.750  1.00  0.00     0.157 A 
ATOM      5  C   UNL     1       2.102 -17.864  -6.040  1.00  0.00     0.051 A 
ATOM      6  C   UNL     1       1.610 -19.154  -6.247  1.00  0.00     0.012 A 
ENDROOT
BRANCH   1   7
ATOM      7  C   UNL     1       0.648 -21.311  -5.324  1.00  0.00     0.003 C 
ATOM      8  C   UNL     1       0.187 -23.404  -6.540  1.00  0.00     0.035 C 
ATOM      9  C   UNL     1       0.746 -22.019  -6.455  1.00  0.00    -0.030 C 
ENDBRANCH   1   7
BRANCH   3  10
ATOM     10  O   UNL     1       1.829 -17.529  -2.364  1.00  0.00    -0.493 OA
ATOM     11  C   UNL     1       2.959 -17.634  -1.505  1.00  0.00     0.278 C 
ENDBRANCH   3  10
BRANCH   4  12
ATOM     12  O   UNL     1       2.675 -16.039  -4.583  1.00  0.00    -0.504 OA
ATOM     13  H   UNL     1       2.995 -15.479  -5.363  1.00  0.00     0.293 HD
ENDBRANCH   4  12
TORSDOF 3
ENDMDL
MODEL 9
REMARK VINA RESULT:    -4.392     12.660     13.742
REMARK INTER + INTRA:          -5.201
REMARK INTER:                  -5.046
REMARK INTRA:                  -0.154
REMARK UNBOUND:                -0.166
REMARK SMILES CC=Cc1ccc(O)c(OC)c1
REMARK SMILES IDX 4 1 12 2 9 3 7 4 6 5 5 6 3 7 1 8 2 9 10 10 11 11 8 12
REMARK H PARENT 8 13
REMARK Flexibility Score: inf
ROOT
ATOM      1  C   UNL     1       2.749 -20.564  -5.251  1.00  0.00    -0.022 A 
ATOM      2  C   UNL     1       4.078 -20.997  -5.382  1.00  0.00     0.058 A 
ATOM      3  C   UNL     1       4.952 -20.998  -4.275  1.00  0.00     0.161 A 
ATOM      4  C   UNL     1       4.475 -20.567  -3.025  1.00  0.00     0.157 A 
ATOM      5  C   UNL     1       3.149 -20.149  -2.888  1.00  0.00     0.051 A 
ATOM      6  C   UNL     1       2.288 -20.149  -3.987  1.00  0.00     0.012 A 
ENDROOT
BRANCH   1   7
ATOM      7  C   UNL     1       1.871 -20.593  -6.448  1.00  0.00     0.003 C 
ATOM      8  C   UNL     1       1.340 -20.944  -8.829  1.00  0.00     0.035 C 
ATOM      9  C   UNL     1       2.292 -20.923  -7.675  1.00  0.00    -0.030 C 
ENDBRANCH   1   7
BRANCH   3  10
ATOM     10  O   UNL     1       6.288 -21.418  -4.382  1.00  0.00    -0.493 OA
ATOM     11  C   UNL     1       7.082 -21.297  -5.558  1.00  0.00     0.278 C 
ENDBRANCH   3  10
BRANCH   4  12
ATOM     12  O   UNL     1       5.305 -20.551  -1.904  1.00  0.00    -0.504 OA
ATOM     13  H   UNL     1       6.223 -20.980  -1.904  1.00  0.00     0.293 HD
ENDBRANCH   4  12
TORSDOF 3
ENDMDL
