MODEL 1
REMARK VINA RESULT:    -2.802      0.000      0.000
REMARK INTER + INTRA:          -5.267
REMARK INTER:                  -4.276
REMARK INTRA:                  -0.991
REMARK UNBOUND:                -0.991
REMARK SMILES CCCCCCCCCCC(=O)[O-]
REMARK SMILES IDX 7 1 8 2 9 3 10 4 11 5 12 6 13 7 6 8 5 9 4 10 3 11 2 12 1 13
REMARK H PARENT
REMARK Flexibility Score: inf
ROOT
ATOM      1  C   UNL     1     -17.847  35.978 -20.606  1.00  0.00     0.000 C 
ENDROOT
BRANCH   1   2
ATOM      2  C   UNL     1     -17.495  35.974 -19.107  1.00  0.00     0.000 C 
BRANCH   2   3
ATOM      3  C   UNL     1     -17.009  34.604 -18.612  1.00  0.00     0.006 C 
BRANCH   3   4
ATOM      4  C   UNL     1     -15.681  34.223 -19.274  1.00  0.00     0.053 C 
BRANCH   4   5
ATOM      5  C   UNL     1     -14.529  34.755 -18.481  1.00  0.00     0.041 C 
ATOM      6  O   UNL     1     -13.349  34.589 -18.889  1.00  0.00    -0.550 OA
ATOM      7  O   UNL     1     -14.755  35.389 -17.266  1.00  0.00    -0.550 OA
ENDBRANCH   4   5
ENDBRANCH   3   4
ENDBRANCH   2   3
ENDBRANCH   1   2
BRANCH   1   8
ATOM      8  C   UNL     1     -18.756  34.821 -21.065  1.00  0.00     0.000 C 
BRANCH   8   9
ATOM      9  C   UNL     1     -20.267  35.073 -20.904  1.00  0.00    -0.000 C 
BRANCH   9  10
ATOM     10  C   UNL     1     -21.017  34.018 -20.067  1.00  0.00    -0.000 C 
BRANCH  10  11
ATOM     11  C   UNL     1     -21.112  34.326 -18.559  1.00  0.00    -0.000 C 
BRANCH  11  12
ATOM     12  C   UNL     1     -21.123  35.824 -18.205  1.00  0.00    -0.003 C 
ATOM     13  C   UNL     1     -20.455  36.124 -16.864  1.00  0.00     0.004 C 
ENDBRANCH  11  12
ENDBRANCH  10  11
ENDBRANCH   9  10
ENDBRANCH   8   9
ENDBRANCH   1   8
TORSDOF 9
ENDMDL
MODEL 2
REMARK VINA RESULT:    -2.281      2.141      4.790
REMARK INTER + INTRA:          -4.472
REMARK INTER:                  -4.045
REMARK INTRA:                  -0.427
REMARK UNBOUND:                -0.991
REMARK SMILES CCCCCCCCCCC(=O)[O-]
REMARK SMILES IDX 7 1 8 2 9 3 10 4 11 5 12 6 13 7 6 8 5 9 4 10 3 11 2 12 1 13
REMARK H PARENT
REMARK Flexibility Score: inf
ROOT
ATOM      1  C   UNL     1     -19.758  34.179 -19.384  1.00  0.00     0.000 C 
ENDROOT
BRANCH   1   2
ATOM      2  C   UNL     1     -21.123  34.642 -18.840  1.00  0.00     0.000 C 
BRANCH   2   3
ATOM      3  C   UNL     1     -21.099  36.087 -18.322  1.00  0.00     0.006 C 
BRANCH   3   4
ATOM      4  C   UNL     1     -21.124  36.119 -16.790  1.00  0.00     0.053 C 
BRANCH   4   5
ATOM      5  C   UNL     1     -19.760  35.854 -16.238  1.00  0.00     0.041 C 
ATOM      6  O   UNL     1     -19.624  35.454 -15.051  1.00  0.00    -0.550 OA
ATOM      7  O   UNL     1     -18.635  36.096 -17.016  1.00  0.00    -0.550 OA
ENDBRANCH   4   5
ENDBRANCH   3   4
ENDBRANCH   2   3
ENDBRANCH   1   2
BRANCH   1   8
ATOM      8  C   UNL     1     -19.502  34.510 -20.867  1.00  0.00     0.000 C 
BRANCH   8   9
ATOM      9  C   UNL     1     -18.378  35.530 -21.125  1.00  0.00    -0.000 C 
BRANCH   9  10
ATOM     10  C   UNL     1     -17.247  35.530 -20.076  1.00  0.00    -0.000 C 
BRANCH  10  11
ATOM     11  C   UNL     1     -16.321  34.298 -20.113  1.00  0.00    -0.000 C 
BRANCH  11  12
ATOM     12  C   UNL     1     -15.363  34.173 -18.915  1.00  0.00    -0.003 C 
ATOM     13  C   UNL     1     -15.209  35.478 -18.137  1.00  0.00     0.004 C 
ENDBRANCH  11  12
ENDBRANCH  10  11
ENDBRANCH   9  10
ENDBRANCH   8   9
ENDBRANCH   1   8
TORSDOF 9
ENDMDL
MODEL 3
REMARK VINA RESULT:    -1.903      3.175      5.419
REMARK INTER + INTRA:          -3.895
REMARK INTER:                  -4.514
REMARK INTRA:                   0.619
REMARK UNBOUND:                -0.991
REMARK SMILES CCCCCCCCCCC(=O)[O-]
REMARK SMILES IDX 7 1 8 2 9 3 10 4 11 5 12 6 13 7 6 8 5 9 4 10 3 11 2 12 1 13
REMARK H PARENT
REMARK Flexibility Score: inf
ROOT
ATOM      1  C   UNL     1     -17.696  34.331 -18.559  1.00  0.00     0.000 C 
ENDROOT
BRANCH   1   2
ATOM      2  C   UNL     1     -18.904  34.794 -17.722  1.00  0.00     0.000 C 
BRANCH   2   3
ATOM      3  C   UNL     1     -19.499  36.119 -18.216  1.00  0.00     0.006 C 
BRANCH   3   4
ATOM      4  C   UNL     1     -20.963  35.941 -18.631  1.00  0.00     0.053 C 
BRANCH   4   5
ATOM      5  C   UNL     1     -21.052  35.272 -19.965  1.00  0.00     0.041 C 
ATOM      6  O   UNL     1     -21.109  35.962 -21.017  1.00  0.00    -0.550 OA
ATOM      7  O   UNL     1     -21.125  33.886 -20.046  1.00  0.00    -0.550 OA
ENDBRANCH   4   5
ENDBRANCH   3   4
ENDBRANCH   2   3
ENDBRANCH   1   2
BRANCH   1   8
ATOM      8  C   UNL     1     -17.949  34.250 -20.077  1.00  0.00     0.000 C 
BRANCH   8   9
ATOM      9  C   UNL     1     -16.755  34.656 -20.962  1.00  0.00    -0.000 C 
BRANCH   9  10
ATOM     10  C   UNL     1     -15.458  33.861 -20.707  1.00  0.00    -0.000 C 
BRANCH  10  11
ATOM     11  C   UNL     1     -15.110  33.638 -19.221  1.00  0.00    -0.000 C 
BRANCH  11  12
ATOM     12  C   UNL     1     -14.094  34.635 -18.638  1.00  0.00    -0.003 C 
ATOM     13  C   UNL     1     -14.741  35.692 -17.744  1.00  0.00     0.004 C 
ENDBRANCH  11  12
ENDBRANCH  10  11
ENDBRANCH   9  10
ENDBRANCH   8   9
ENDBRANCH   1   8
TORSDOF 9
ENDMDL
MODEL 4
REMARK VINA RESULT:    -1.500      1.613      2.384
REMARK INTER + INTRA:          -3.281
REMARK INTER:                  -3.865
REMARK INTRA:                   0.584
REMARK UNBOUND:                -0.991
REMARK SMILES CCCCCCCCCCC(=O)[O-]
REMARK SMILES IDX 7 1 8 2 9 3 10 4 11 5 12 6 13 7 6 8 5 9 4 10 3 11 2 12 1 13
REMARK H PARENT
REMARK Flexibility Score: inf
ROOT
ATOM      1  C   UNL     1     -17.482  35.787 -17.953  1.00  0.00     0.000 C 
ENDROOT
BRANCH   1   2
ATOM      2  C   UNL     1     -16.065  36.125 -18.453  1.00  0.00     0.000 C 
BRANCH   2   3
ATOM      3  C   UNL     1     -14.983  35.238 -17.823  1.00  0.00     0.006 C 
BRANCH   3   4
ATOM      4  C   UNL     1     -14.472  34.201 -18.829  1.00  0.00     0.053 C 
BRANCH   4   5
ATOM      5  C   UNL     1     -15.580  33.751 -19.727  1.00  0.00     0.041 C 
ATOM      6  O   UNL     1     -16.507  33.027 -19.276  1.00  0.00    -0.550 OA
ATOM      7  O   UNL     1     -15.564  34.087 -21.075  1.00  0.00    -0.550 OA
ENDBRANCH   4   5
ENDBRANCH   3   4
ENDBRANCH   2   3
ENDBRANCH   1   2
BRANCH   1   8
ATOM      8  C   UNL     1     -18.618  36.125 -18.938  1.00  0.00     0.000 C 
BRANCH   8   9
ATOM      9  C   UNL     1     -18.382  35.667 -20.390  1.00  0.00    -0.000 C 
BRANCH   9  10
ATOM     10  C   UNL     1     -19.532  34.845 -21.007  1.00  0.00    -0.000 C 
BRANCH  10  11
ATOM     11  C   UNL     1     -20.884  34.962 -20.277  1.00  0.00    -0.000 C 
BRANCH  11  12
ATOM     12  C   UNL     1     -21.034  34.054 -19.043  1.00  0.00    -0.003 C 
ATOM     13  C   UNL     1     -21.122  34.837 -17.734  1.00  0.00     0.004 C 
ENDBRANCH  11  12
ENDBRANCH  10  11
ENDBRANCH   9  10
ENDBRANCH   8   9
ENDBRANCH   1   8
TORSDOF 9
ENDMDL
MODEL 5
REMARK VINA RESULT:    -1.434      2.975      5.647
REMARK INTER + INTRA:          -3.179
REMARK INTER:                  -3.532
REMARK INTRA:                   0.353
REMARK UNBOUND:                -0.991
REMARK SMILES CCCCCCCCCCC(=O)[O-]
REMARK SMILES IDX 7 1 8 2 9 3 10 4 11 5 12 6 13 7 6 8 5 9 4 10 3 11 2 12 1 13
REMARK H PARENT
REMARK Flexibility Score: inf
ROOT
ATOM      1  C   UNL     1     -17.926  34.337 -19.601  1.00  0.00     0.000 C 
ENDROOT
BRANCH   1   2
ATOM      2  C   UNL     1     -18.523  35.012 -20.851  1.00  0.00     0.000 C 
BRANCH   2   3
ATOM      3  C   UNL     1     -20.057  35.034 -20.841  1.00  0.00     0.006 C 
BRANCH   3   4
ATOM      4  C   UNL     1     -20.583  36.065 -19.836  1.00  0.00     0.053 C 
BRANCH   4   5
ATOM      5  C   UNL     1     -20.975  35.398 -18.557  1.00  0.00     0.041 C 
ATOM      6  O   UNL     1     -21.125  36.078 -17.508  1.00  0.00    -0.550 OA
ATOM      7  O   UNL     1     -21.124  34.017 -18.509  1.00  0.00    -0.550 OA
ENDBRANCH   4   5
ENDBRANCH   3   4
ENDBRANCH   2   3
ENDBRANCH   1   2
BRANCH   1   8
ATOM      8  C   UNL     1     -17.652  35.285 -18.417  1.00  0.00     0.000 C 
BRANCH   8   9
ATOM      9  C   UNL     1     -16.298  36.018 -18.466  1.00  0.00    -0.000 C 
BRANCH   9  10
ATOM     10  C   UNL     1     -15.120  35.249 -17.834  1.00  0.00    -0.000 C 
BRANCH  10  11
ATOM     11  C   UNL     1     -14.125  34.636 -18.839  1.00  0.00    -0.000 C 
BRANCH  11  12
ATOM     12  C   UNL     1     -14.759  33.709 -19.892  1.00  0.00    -0.003 C 
ATOM     13  C   UNL     1     -15.460  32.500 -19.277  1.00  0.00     0.004 C 
ENDBRANCH  11  12
ENDBRANCH  10  11
ENDBRANCH   9  10
ENDBRANCH   8   9
ENDBRANCH   1   8
TORSDOF 9
ENDMDL
MODEL 6
REMARK VINA RESULT:    -1.428      2.396      5.321
REMARK INTER + INTRA:          -3.170
REMARK INTER:                  -2.498
REMARK INTRA:                  -0.672
REMARK UNBOUND:                -0.991
REMARK SMILES CCCCCCCCCCC(=O)[O-]
REMARK SMILES IDX 7 1 8 2 9 3 10 4 11 5 12 6 13 7 6 8 5 9 4 10 3 11 2 12 1 13
REMARK H PARENT
REMARK Flexibility Score: inf
ROOT
ATOM      1  C   UNL     1     -18.338  34.512 -19.948  1.00  0.00     0.000 C 
ENDROOT
BRANCH   1   2
ATOM      2  C   UNL     1     -19.793  34.597 -20.447  1.00  0.00     0.000 C 
BRANCH   2   3
ATOM      3  C   UNL     1     -20.812  34.680 -19.302  1.00  0.00     0.006 C 
BRANCH   3   4
ATOM      4  C   UNL     1     -20.807  36.073 -18.664  1.00  0.00     0.053 C 
BRANCH   4   5
ATOM      5  C   UNL     1     -20.265  36.009 -17.272  1.00  0.00     0.041 C 
ATOM      6  O   UNL     1     -19.038  35.807 -17.078  1.00  0.00    -0.550 OA
ATOM      7  O   UNL     1     -21.124  36.123 -16.185  1.00  0.00    -0.550 OA
ENDBRANCH   4   5
ENDBRANCH   3   4
ENDBRANCH   2   3
ENDBRANCH   1   2
BRANCH   1   8
ATOM      8  C   UNL     1     -17.446  35.709 -20.335  1.00  0.00     0.000 C 
BRANCH   8   9
ATOM      9  C   UNL     1     -16.413  36.125 -19.271  1.00  0.00    -0.000 C 
BRANCH   9  10
ATOM     10  C   UNL     1     -15.948  34.989 -18.337  1.00  0.00    -0.000 C 
BRANCH  10  11
ATOM     11  C   UNL     1     -14.524  34.464 -18.606  1.00  0.00    -0.000 C 
BRANCH  11  12
ATOM     12  C   UNL     1     -14.399  32.931 -18.662  1.00  0.00    -0.003 C 
ATOM     13  C   UNL     1     -15.432  32.283 -19.582  1.00  0.00     0.004 C 
ENDBRANCH  11  12
ENDBRANCH  10  11
ENDBRANCH   9  10
ENDBRANCH   8   9
ENDBRANCH   1   8
TORSDOF 9
ENDMDL
