MODEL 1
REMARK VINA RESULT:    -3.771      0.000      0.000
REMARK INTER + INTRA:          -9.329
REMARK INTER:                  -7.078
REMARK INTRA:                  -2.251
REMARK UNBOUND:                -2.251
REMARK SMILES CCCCCCCCC=CCCCCCCCC(=O)[O-]
REMARK SMILES IDX 10 1 9 2 11 3 12 4 13 5 14 6 15 7 16 8 17 9 18 10 19 11
REMARK SMILES IDX 20 12 8 13 7 14 6 15 5 16 4 17 3 18 2 19 1 20
REMARK H PARENT
REMARK Flexibility Score: inf
ROOT
ATOM      1  C   UNL     1      -9.362  -2.207  22.961  1.00  0.00    -0.031 C 
ATOM      2  C   UNL     1     -10.539  -2.723  23.338  1.00  0.00    -0.031 C 
ENDROOT
BRANCH   1   3
ATOM      3  C   UNL     1      -8.557  -1.355  23.904  1.00  0.00     0.027 C 
BRANCH   3   4
ATOM      4  C   UNL     1      -8.869   0.135  23.705  1.00  0.00     0.004 C 
BRANCH   4   5
ATOM      5  C   UNL     1      -8.252   1.020  24.800  1.00  0.00     0.000 C 
BRANCH   5   6
ATOM      6  C   UNL     1      -9.084   1.025  26.093  1.00  0.00     0.000 C 
BRANCH   6   7
ATOM      7  C   UNL     1      -8.358   0.359  27.275  1.00  0.00     0.000 C 
BRANCH   7   8
ATOM      8  C   UNL     1      -9.197  -0.674  28.049  1.00  0.00     0.006 C 
BRANCH   8   9
ATOM      9  C   UNL     1      -9.254  -2.040  27.354  1.00  0.00     0.053 C 
BRANCH   9  10
ATOM     10  C   UNL     1     -10.661  -2.377  26.972  1.00  0.00     0.041 C 
ATOM     11  O   UNL     1     -11.497  -1.458  26.763  1.00  0.00    -0.550 OA
ATOM     12  O   UNL     1     -11.059  -3.706  26.886  1.00  0.00    -0.550 OA
ENDBRANCH   9  10
ENDBRANCH   8   9
ENDBRANCH   7   8
ENDBRANCH   6   7
ENDBRANCH   5   6
ENDBRANCH   4   5
ENDBRANCH   3   4
ENDBRANCH   1   3
BRANCH   2  13
ATOM     13  C   UNL     1     -11.362  -3.571  22.407  1.00  0.00     0.027 C 
BRANCH  13  14
ATOM     14  C   UNL     1     -11.789  -4.880  23.084  1.00  0.00     0.004 C 
BRANCH  14  15
ATOM     15  C   UNL     1     -11.562  -6.078  22.155  1.00  0.00     0.000 C 
BRANCH  15  16
ATOM     16  C   UNL     1     -10.593  -5.717  21.019  1.00  0.00     0.000 C 
BRANCH  16  17
ATOM     17  C   UNL     1      -9.270  -6.498  21.093  1.00  0.00    -0.000 C 
BRANCH  17  18
ATOM     18  C   UNL     1      -8.022  -5.636  21.367  1.00  0.00    -0.000 C 
BRANCH  18  19
ATOM     19  C   UNL     1      -7.782  -5.346  22.863  1.00  0.00    -0.003 C 
ATOM     20  C   UNL     1      -8.171  -6.525  23.757  1.00  0.00     0.004 C 
ENDBRANCH  18  19
ENDBRANCH  17  18
ENDBRANCH  16  17
ENDBRANCH  15  16
ENDBRANCH  14  15
ENDBRANCH  13  14
ENDBRANCH   2  13
TORSDOF 15
ENDMDL
MODEL 2
REMARK VINA RESULT:    -3.741      2.101      3.298
REMARK INTER + INTRA:          -9.273
REMARK INTER:                  -7.171
REMARK INTRA:                  -2.102
REMARK UNBOUND:                -2.251
REMARK SMILES CCCCCCCCC=CCCCCCCCC(=O)[O-]
REMARK SMILES IDX 10 1 9 2 11 3 12 4 13 5 14 6 15 7 16 8 17 9 18 10 19 11
REMARK SMILES IDX 20 12 8 13 7 14 6 15 5 16 4 17 3 18 2 19 1 20
REMARK H PARENT
REMARK Flexibility Score: inf
ROOT
ATOM      1  C   UNL     1      -9.678  -3.429  24.549  1.00  0.00    -0.031 C 
ATOM      2  C   UNL     1     -10.420  -2.801  23.627  1.00  0.00    -0.031 C 
ENDROOT
BRANCH   1   3
ATOM      3  C   UNL     1      -9.862  -3.137  26.013  1.00  0.00     0.027 C 
BRANCH   3   4
ATOM      4  C   UNL     1     -11.116  -2.285  26.254  1.00  0.00     0.004 C 
BRANCH   4   5
ATOM      5  C   UNL     1     -10.784  -0.862  26.730  1.00  0.00     0.000 C 
BRANCH   5   6
ATOM      6  C   UNL     1      -9.433  -0.786  27.463  1.00  0.00     0.000 C 
BRANCH   6   7
ATOM      7  C   UNL     1      -8.441   0.179  26.789  1.00  0.00     0.000 C 
BRANCH   7   8
ATOM      8  C   UNL     1      -8.430   0.123  25.250  1.00  0.00     0.006 C 
BRANCH   8   9
ATOM      9  C   UNL     1      -8.406   1.512  24.601  1.00  0.00     0.053 C 
BRANCH   9  10
ATOM     10  C   UNL     1      -8.773   1.422  23.153  1.00  0.00     0.041 C 
ATOM     11  O   UNL     1      -8.719   0.315  22.555  1.00  0.00    -0.550 OA
ATOM     12  O   UNL     1      -9.135   2.567  22.454  1.00  0.00    -0.550 OA
ENDBRANCH   9  10
ENDBRANCH   8   9
ENDBRANCH   7   8
ENDBRANCH   6   7
ENDBRANCH   5   6
ENDBRANCH   4   5
ENDBRANCH   3   4
ENDBRANCH   1   3
BRANCH   2  13
ATOM     13  C   UNL     1     -10.246  -3.074  22.157  1.00  0.00     0.027 C 
BRANCH  13  14
ATOM     14  C   UNL     1     -11.583  -3.444  21.502  1.00  0.00     0.004 C 
BRANCH  14  15
ATOM     15  C   UNL     1     -12.015  -4.861  21.898  1.00  0.00     0.000 C 
BRANCH  15  16
ATOM     16  C   UNL     1     -11.333  -5.912  21.010  1.00  0.00     0.000 C 
BRANCH  16  17
ATOM     17  C   UNL     1     -10.172  -6.630  21.719  1.00  0.00    -0.000 C 
BRANCH  17  18
ATOM     18  C   UNL     1      -8.822  -6.566  20.980  1.00  0.00    -0.000 C 
BRANCH  18  19
ATOM     19  C   UNL     1      -7.734  -5.779  21.738  1.00  0.00    -0.003 C 
ATOM     20  C   UNL     1      -7.638  -6.183  23.210  1.00  0.00     0.004 C 
ENDBRANCH  18  19
ENDBRANCH  17  18
ENDBRANCH  16  17
ENDBRANCH  15  16
ENDBRANCH  14  15
ENDBRANCH  13  14
ENDBRANCH   2  13
TORSDOF 15
ENDMDL
MODEL 3
REMARK VINA RESULT:    -3.737     21.355     23.635
REMARK INTER + INTRA:          -9.265
REMARK INTER:                  -6.987
REMARK INTRA:                  -2.278
REMARK UNBOUND:                -2.251
REMARK SMILES CCCCCCCCC=CCCCCCCCC(=O)[O-]
REMARK SMILES IDX 10 1 9 2 11 3 12 4 13 5 14 6 15 7 16 8 17 9 18 10 19 11
REMARK SMILES IDX 20 12 8 13 7 14 6 15 5 16 4 17 3 18 2 19 1 20
REMARK H PARENT
REMARK Flexibility Score: inf
ROOT
ATOM      1  C   UNL     1       6.223   8.490  10.593  1.00  0.00    -0.031 C 
ATOM      2  C   UNL     1       7.342   8.328  11.312  1.00  0.00    -0.031 C 
ENDROOT
BRANCH   1   3
ATOM      3  C   UNL     1       6.285   8.639   9.097  1.00  0.00     0.027 C 
BRANCH   3   4
ATOM      4  C   UNL     1       7.245   9.767   8.694  1.00  0.00     0.004 C 
BRANCH   4   5
ATOM      5  C   UNL     1       6.661  11.165   8.954  1.00  0.00     0.000 C 
BRANCH   5   6
ATOM      6  C   UNL     1       7.558  12.019   9.865  1.00  0.00     0.000 C 
BRANCH   6   7
ATOM      7  C   UNL     1       7.063  12.064  11.321  1.00  0.00     0.000 C 
BRANCH   7   8
ATOM      8  C   UNL     1       5.567  12.389  11.485  1.00  0.00     0.006 C 
BRANCH   8   9
ATOM      9  C   UNL     1       4.854  11.448  12.464  1.00  0.00     0.053 C 
BRANCH   9  10
ATOM     10  C   UNL     1       3.645  10.841  11.824  1.00  0.00     0.041 C 
ATOM     11  O   UNL     1       3.482  10.920  10.577  1.00  0.00    -0.550 OA
ATOM     12  O   UNL     1       2.678  10.224  12.608  1.00  0.00    -0.550 OA
ENDBRANCH   9  10
ENDBRANCH   8   9
ENDBRANCH   7   8
ENDBRANCH   6   7
ENDBRANCH   5   6
ENDBRANCH   4   5
ENDBRANCH   3   4
ENDBRANCH   1   3
BRANCH   2  13
ATOM     13  C   UNL     1       7.301   8.184  12.809  1.00  0.00     0.027 C 
BRANCH  13  14
ATOM     14  C   UNL     1       5.871   7.928  13.301  1.00  0.00     0.004 C 
BRANCH  14  15
ATOM     15  C   UNL     1       5.656   8.520  14.698  1.00  0.00     0.000 C 
BRANCH  15  16
ATOM     16  C   UNL     1       6.996   8.913  15.340  1.00  0.00     0.000 C 
BRANCH  16  17
ATOM     17  C   UNL     1       7.208   8.268  16.720  1.00  0.00    -0.000 C 
BRANCH  17  18
ATOM     18  C   UNL     1       6.647   6.840  16.862  1.00  0.00    -0.000 C 
BRANCH  18  19
ATOM     19  C   UNL     1       7.550   5.894  17.680  1.00  0.00    -0.003 C 
ATOM     20  C   UNL     1       7.568   6.244  19.168  1.00  0.00     0.004 C 
ENDBRANCH  18  19
ENDBRANCH  17  18
ENDBRANCH  16  17
ENDBRANCH  15  16
ENDBRANCH  14  15
ENDBRANCH  13  14
ENDBRANCH   2  13
TORSDOF 15
ENDMDL
MODEL 4
REMARK VINA RESULT:    -3.733     21.111     23.394
REMARK INTER + INTRA:          -9.258
REMARK INTER:                  -7.171
REMARK INTRA:                  -2.087
REMARK UNBOUND:                -2.251
REMARK SMILES CCCCCCCCC=CCCCCCCCC(=O)[O-]
REMARK SMILES IDX 10 1 9 2 11 3 12 4 13 5 14 6 15 7 16 8 17 9 18 10 19 11
REMARK SMILES IDX 20 12 8 13 7 14 6 15 5 16 4 17 3 18 2 19 1 20
REMARK H PARENT
REMARK Flexibility Score: inf
ROOT
ATOM      1  C   UNL     1       6.228   8.608   9.982  1.00  0.00    -0.031 C 
ATOM      2  C   UNL     1       7.174   9.461   9.568  1.00  0.00    -0.031 C 
ENDROOT
BRANCH   1   3
ATOM      3  C   UNL     1       6.398   7.832  11.260  1.00  0.00     0.027 C 
BRANCH   3   4
ATOM      4  C   UNL     1       7.719   8.193  11.954  1.00  0.00     0.004 C 
BRANCH   4   5
ATOM      5  C   UNL     1       7.614   8.148  13.487  1.00  0.00     0.000 C 
BRANCH   5   6
ATOM      6  C   UNL     1       6.183   7.861  13.972  1.00  0.00     0.000 C 
BRANCH   6   7
ATOM      7  C   UNL     1       6.142   6.947  15.210  1.00  0.00     0.000 C 
BRANCH   7   8
ATOM      8  C   UNL     1       6.647   7.599  16.511  1.00  0.00     0.006 C 
BRANCH   8   9
ATOM      9  C   UNL     1       7.825   6.843  17.140  1.00  0.00     0.053 C 
BRANCH   9  10
ATOM     10  C   UNL     1       7.356   6.002  18.286  1.00  0.00     0.041 C 
ATOM     11  O   UNL     1       6.637   4.990  18.075  1.00  0.00    -0.550 OA
ATOM     12  O   UNL     1       7.681   6.359  19.589  1.00  0.00    -0.550 OA
ENDBRANCH   9  10
ENDBRANCH   8   9
ENDBRANCH   7   8
ENDBRANCH   6   7
ENDBRANCH   5   6
ENDBRANCH   4   5
ENDBRANCH   3   4
ENDBRANCH   1   3
BRANCH   2  13
ATOM     13  C   UNL     1       7.025  10.240   8.289  1.00  0.00     0.027 C 
BRANCH  13  14
ATOM     14  C   UNL     1       6.354  11.596   8.544  1.00  0.00     0.004 C 
BRANCH  14  15
ATOM     15  C   UNL     1       6.675  12.112   9.952  1.00  0.00     0.000 C 
BRANCH  15  16
ATOM     16  C   UNL     1       5.393  12.513  10.695  1.00  0.00     0.000 C 
BRANCH  16  17
ATOM     17  C   UNL     1       4.161  11.718  10.231  1.00  0.00    -0.000 C 
BRANCH  17  18
ATOM     18  C   UNL     1       3.520  10.825  11.312  1.00  0.00    -0.000 C 
BRANCH  18  19
ATOM     19  C   UNL     1       4.374  10.685  12.589  1.00  0.00    -0.003 C 
ATOM     20  C   UNL     1       3.530  10.363  13.824  1.00  0.00     0.004 C 
ENDBRANCH  18  19
ENDBRANCH  17  18
ENDBRANCH  16  17
ENDBRANCH  15  16
ENDBRANCH  14  15
ENDBRANCH  13  14
ENDBRANCH   2  13
TORSDOF 15
ENDMDL
MODEL 5
REMARK VINA RESULT:    -3.728      2.166      6.420
REMARK INTER + INTRA:          -9.248
REMARK INTER:                  -7.276
REMARK INTRA:                  -1.971
REMARK UNBOUND:                -2.251
REMARK SMILES CCCCCCCCC=CCCCCCCCC(=O)[O-]
REMARK SMILES IDX 10 1 9 2 11 3 12 4 13 5 14 6 15 7 16 8 17 9 18 10 19 11
REMARK SMILES IDX 20 12 8 13 7 14 6 15 5 16 4 17 3 18 2 19 1 20
REMARK H PARENT
REMARK Flexibility Score: inf
ROOT
ATOM      1  C   UNL     1      -8.719  -0.357  23.292  1.00  0.00    -0.031 C 
ATOM      2  C   UNL     1      -8.744   0.014  24.579  1.00  0.00    -0.031 C 
ENDROOT
BRANCH   1   3
ATOM      3  C   UNL     1      -9.161  -1.735  22.880  1.00  0.00     0.027 C 
BRANCH   3   4
ATOM      4  C   UNL     1     -10.054  -2.373  23.953  1.00  0.00     0.004 C 
BRANCH   4   5
ATOM      5  C   UNL     1     -11.130  -3.294  23.357  1.00  0.00     0.000 C 
BRANCH   5   6
ATOM      6  C   UNL     1     -11.057  -3.371  21.822  1.00  0.00     0.000 C 
BRANCH   6   7
ATOM      7  C   UNL     1     -10.971  -4.815  21.298  1.00  0.00     0.000 C 
BRANCH   7   8
ATOM      8  C   UNL     1     -10.279  -5.807  22.251  1.00  0.00     0.006 C 
BRANCH   8   9
ATOM      9  C   UNL     1      -8.878  -6.214  21.777  1.00  0.00     0.053 C 
BRANCH   9  10
ATOM     10  C   UNL     1      -7.837  -5.722  22.733  1.00  0.00     0.041 C 
ATOM     11  O   UNL     1      -7.555  -6.391  23.762  1.00  0.00    -0.550 OA
ATOM     12  O   UNL     1      -7.207  -4.503  22.508  1.00  0.00    -0.550 OA
ENDBRANCH   9  10
ENDBRANCH   8   9
ENDBRANCH   7   8
ENDBRANCH   6   7
ENDBRANCH   5   6
ENDBRANCH   4   5
ENDBRANCH   3   4
ENDBRANCH   1   3
BRANCH   2  13
ATOM     13  C   UNL     1      -8.299   1.385  25.011  1.00  0.00     0.027 C 
BRANCH  13  14
ATOM     14  C   UNL     1      -7.989   1.418  26.513  1.00  0.00     0.004 C 
BRANCH  14  15
ATOM     15  C   UNL     1      -9.195   0.947  27.333  1.00  0.00     0.000 C 
BRANCH  15  16
ATOM     16  C   UNL     1      -8.868  -0.344  28.098  1.00  0.00     0.000 C 
BRANCH  16  17
ATOM     17  C   UNL     1      -9.848  -1.488  27.785  1.00  0.00    -0.000 C 
BRANCH  17  18
ATOM     18  C   UNL     1      -9.202  -2.882  27.668  1.00  0.00    -0.000 C 
BRANCH  18  19
ATOM     19  C   UNL     1     -10.211  -4.013  27.379  1.00  0.00    -0.003 C 
ATOM     20  C   UNL     1      -9.669  -5.041  26.385  1.00  0.00     0.004 C 
ENDBRANCH  18  19
ENDBRANCH  17  18
ENDBRANCH  16  17
ENDBRANCH  15  16
ENDBRANCH  14  15
ENDBRANCH  13  14
ENDBRANCH   2  13
TORSDOF 15
ENDMDL
MODEL 6
REMARK VINA RESULT:    -3.694      1.845      4.634
REMARK INTER + INTRA:          -9.185
REMARK INTER:                  -6.797
REMARK INTRA:                  -2.388
REMARK UNBOUND:                -2.251
REMARK SMILES CCCCCCCCC=CCCCCCCCC(=O)[O-]
REMARK SMILES IDX 10 1 9 2 11 3 12 4 13 5 14 6 15 7 16 8 17 9 18 10 19 11
REMARK SMILES IDX 20 12 8 13 7 14 6 15 5 16 4 17 3 18 2 19 1 20
REMARK H PARENT
REMARK Flexibility Score: inf
ROOT
ATOM      1  C   UNL     1      -9.226   1.151  26.753  1.00  0.00    -0.031 C 
ATOM      2  C   UNL     1      -8.330   0.842  25.805  1.00  0.00    -0.031 C 
ENDROOT
BRANCH   1   3
ATOM      3  C   UNL     1      -9.134   0.543  28.125  1.00  0.00     0.027 C 
BRANCH   3   4
ATOM      4  C   UNL     1      -9.484  -0.952  28.092  1.00  0.00     0.004 C 
BRANCH   4   5
ATOM      5  C   UNL     1     -10.907  -1.216  27.573  1.00  0.00     0.000 C 
BRANCH   5   6
ATOM      6  C   UNL     1     -11.073  -2.634  27.002  1.00  0.00     0.000 C 
BRANCH   6   7
ATOM      7  C   UNL     1      -9.741  -3.399  26.904  1.00  0.00     0.000 C 
BRANCH   7   8
ATOM      8  C   UNL     1      -9.729  -4.545  25.875  1.00  0.00     0.006 C 
BRANCH   8   9
ATOM      9  C   UNL     1     -11.111  -4.820  25.270  1.00  0.00     0.053 C 
BRANCH   9  10
ATOM     10  C   UNL     1     -11.428  -6.281  25.328  1.00  0.00     0.041 C 
ATOM     11  O   UNL     1     -11.605  -6.847  26.439  1.00  0.00    -0.550 OA
ATOM     12  O   UNL     1     -11.489  -7.027  24.156  1.00  0.00    -0.550 OA
ENDBRANCH   9  10
ENDBRANCH   8   9
ENDBRANCH   7   8
ENDBRANCH   6   7
ENDBRANCH   5   6
ENDBRANCH   4   5
ENDBRANCH   3   4
ENDBRANCH   1   3
BRANCH   2  13
ATOM     13  C   UNL     1      -8.409   1.436  24.424  1.00  0.00     0.027 C 
BRANCH  13  14
ATOM     14  C   UNL     1      -8.553   0.340  23.360  1.00  0.00     0.004 C 
BRANCH  14  15
ATOM     15  C   UNL     1      -8.660  -1.045  24.008  1.00  0.00     0.000 C 
BRANCH  15  16
ATOM     16  C   UNL     1      -9.922  -1.778  23.531  1.00  0.00     0.000 C 
BRANCH  16  17
ATOM     17  C   UNL     1      -9.627  -2.830  22.449  1.00  0.00    -0.000 C 
BRANCH  17  18
ATOM     18  C   UNL     1     -10.874  -3.423  21.763  1.00  0.00    -0.000 C 
BRANCH  18  19
ATOM     19  C   UNL     1     -10.745  -4.923  21.426  1.00  0.00    -0.003 C 
ATOM     20  C   UNL     1      -9.334  -5.459  21.673  1.00  0.00     0.004 C 
ENDBRANCH  18  19
ENDBRANCH  17  18
ENDBRANCH  16  17
ENDBRANCH  15  16
ENDBRANCH  14  15
ENDBRANCH  13  14
ENDBRANCH   2  13
TORSDOF 15
ENDMDL
MODEL 7
REMARK VINA RESULT:    -3.694      2.110      3.334
REMARK INTER + INTRA:          -9.184
REMARK INTER:                  -6.431
REMARK INTRA:                  -2.753
REMARK UNBOUND:                -2.251
REMARK SMILES CCCCCCCCC=CCCCCCCCC(=O)[O-]
REMARK SMILES IDX 10 1 9 2 11 3 12 4 13 5 14 6 15 7 16 8 17 9 18 10 19 11
REMARK SMILES IDX 20 12 8 13 7 14 6 15 5 16 4 17 3 18 2 19 1 20
REMARK H PARENT
REMARK Flexibility Score: inf
ROOT
ATOM      1  C   UNL     1      -8.322  -3.390  23.561  1.00  0.00    -0.031 C 
ATOM      2  C   UNL     1      -8.773  -3.801  22.368  1.00  0.00    -0.031 C 
ENDROOT
BRANCH   1   3
ATOM      3  C   UNL     1      -8.575  -1.987  24.037  1.00  0.00     0.027 C 
BRANCH   3   4
ATOM      4  C   UNL     1     -10.006  -1.539  23.705  1.00  0.00     0.004 C 
BRANCH   4   5
ATOM      5  C   UNL     1     -11.052  -2.140  24.657  1.00  0.00     0.000 C 
BRANCH   5   6
ATOM      6  C   UNL     1     -11.389  -1.203  25.830  1.00  0.00     0.000 C 
BRANCH   6   7
ATOM      7  C   UNL     1     -10.678  -1.600  27.136  1.00  0.00     0.000 C 
BRANCH   7   8
ATOM      8  C   UNL     1      -9.352  -0.864  27.399  1.00  0.00     0.006 C 
BRANCH   8   9
ATOM      9  C   UNL     1      -9.480   0.660  27.281  1.00  0.00     0.053 C 
BRANCH   9  10
ATOM     10  C   UNL     1      -8.268   1.239  26.620  1.00  0.00     0.041 C 
ATOM     11  O   UNL     1      -8.189   1.274  25.363  1.00  0.00    -0.550 OA
ATOM     12  O   UNL     1      -7.209   1.704  27.391  1.00  0.00    -0.550 OA
ENDBRANCH   9  10
ENDBRANCH   8   9
ENDBRANCH   7   8
ENDBRANCH   6   7
ENDBRANCH   5   6
ENDBRANCH   4   5
ENDBRANCH   3   4
ENDBRANCH   1   3
BRANCH   2  13
ATOM     13  C   UNL     1      -8.524  -5.199  21.871  1.00  0.00     0.027 C 
BRANCH  13  14
ATOM     14  C   UNL     1      -9.788  -5.795  21.239  1.00  0.00     0.004 C 
BRANCH  14  15
ATOM     15  C   UNL     1     -10.993  -4.870  21.446  1.00  0.00     0.000 C 
BRANCH  15  16
ATOM     16  C   UNL     1     -12.124  -5.598  22.188  1.00  0.00     0.000 C 
BRANCH  16  17
ATOM     17  C   UNL     1     -11.620  -6.406  23.396  1.00  0.00    -0.000 C 
BRANCH  17  18
ATOM     18  C   UNL     1     -11.259  -5.563  24.635  1.00  0.00    -0.000 C 
BRANCH  18  19
ATOM     19  C   UNL     1     -10.010  -6.066  25.388  1.00  0.00    -0.003 C 
ATOM     20  C   UNL     1      -9.603  -5.137  26.532  1.00  0.00     0.004 C 
ENDBRANCH  18  19
ENDBRANCH  17  18
ENDBRANCH  16  17
ENDBRANCH  15  16
ENDBRANCH  14  15
ENDBRANCH  13  14
ENDBRANCH   2  13
TORSDOF 15
ENDMDL
MODEL 8
REMARK VINA RESULT:    -3.685      1.930      3.075
REMARK INTER + INTRA:          -9.167
REMARK INTER:                  -7.054
REMARK INTRA:                  -2.113
REMARK UNBOUND:                -2.251
REMARK SMILES CCCCCCCCC=CCCCCCCCC(=O)[O-]
REMARK SMILES IDX 10 1 9 2 11 3 12 4 13 5 14 6 15 7 16 8 17 9 18 10 19 11
REMARK SMILES IDX 20 12 8 13 7 14 6 15 5 16 4 17 3 18 2 19 1 20
REMARK H PARENT
REMARK Flexibility Score: inf
ROOT
ATOM      1  C   UNL     1     -10.698  -2.857  23.433  1.00  0.00    -0.031 C 
ATOM      2  C   UNL     1     -11.785  -3.459  22.932  1.00  0.00    -0.031 C 
ENDROOT
BRANCH   1   3
ATOM      3  C   UNL     1     -10.550  -2.647  24.915  1.00  0.00     0.027 C 
BRANCH   3   4
ATOM      4  C   UNL     1     -11.557  -1.609  25.430  1.00  0.00     0.004 C 
BRANCH   4   5
ATOM      5  C   UNL     1     -11.670  -1.603  26.963  1.00  0.00     0.000 C 
BRANCH   5   6
ATOM      6  C   UNL     1     -10.371  -1.147  27.649  1.00  0.00     0.000 C 
BRANCH   6   7
ATOM      7  C   UNL     1      -9.912   0.249  27.193  1.00  0.00     0.000 C 
BRANCH   7   8
ATOM      8  C   UNL     1      -8.391   0.400  27.004  1.00  0.00     0.006 C 
BRANCH   8   9
ATOM      9  C   UNL     1      -8.018   1.518  26.024  1.00  0.00     0.053 C 
BRANCH   9  10
ATOM     10  C   UNL     1      -8.333   1.111  24.618  1.00  0.00     0.041 C 
ATOM     11  O   UNL     1      -8.738   1.966  23.787  1.00  0.00    -0.550 OA
ATOM     12  O   UNL     1      -8.219  -0.221  24.238  1.00  0.00    -0.550 OA
ENDBRANCH   9  10
ENDBRANCH   8   9
ENDBRANCH   7   8
ENDBRANCH   6   7
ENDBRANCH   5   6
ENDBRANCH   4   5
ENDBRANCH   3   4
ENDBRANCH   1   3
BRANCH   2  13
ATOM     13  C   UNL     1     -11.954  -3.671  21.452  1.00  0.00     0.027 C 
BRANCH  13  14
ATOM     14  C   UNL     1     -11.406  -5.038  21.023  1.00  0.00     0.004 C 
BRANCH  14  15
ATOM     15  C   UNL     1     -11.781  -6.124  22.038  1.00  0.00     0.000 C 
BRANCH  15  16
ATOM     16  C   UNL     1     -10.543  -6.923  22.471  1.00  0.00     0.000 C 
BRANCH  16  17
ATOM     17  C   UNL     1     -10.122  -6.632  23.921  1.00  0.00    -0.000 C 
BRANCH  17  18
ATOM     18  C   UNL     1      -8.642  -6.239  24.100  1.00  0.00    -0.000 C 
BRANCH  18  19
ATOM     19  C   UNL     1      -7.900  -5.990  22.771  1.00  0.00    -0.003 C 
ATOM     20  C   UNL     1      -7.612  -4.507  22.530  1.00  0.00     0.004 C 
ENDBRANCH  18  19
ENDBRANCH  17  18
ENDBRANCH  16  17
ENDBRANCH  15  16
ENDBRANCH  14  15
ENDBRANCH  13  14
ENDBRANCH   2  13
TORSDOF 15
ENDMDL
MODEL 9
REMARK VINA RESULT:    -3.636     21.083     23.431
REMARK INTER + INTRA:          -9.076
REMARK INTER:                  -6.673
REMARK INTRA:                  -2.404
REMARK UNBOUND:                -2.251
REMARK SMILES CCCCCCCCC=CCCCCCCCC(=O)[O-]
REMARK SMILES IDX 10 1 9 2 11 3 12 4 13 5 14 6 15 7 16 8 17 9 18 10 19 11
REMARK SMILES IDX 20 12 8 13 7 14 6 15 5 16 4 17 3 18 2 19 1 20
REMARK H PARENT
REMARK Flexibility Score: inf
ROOT
ATOM      1  C   UNL     1       4.476   9.382  14.055  1.00  0.00    -0.031 C 
ATOM      2  C   UNL     1       5.135   9.100  12.923  1.00  0.00    -0.031 C 
ENDROOT
BRANCH   1   3
ATOM      3  C   UNL     1       3.579  10.586  14.143  1.00  0.00     0.027 C 
BRANCH   3   4
ATOM      4  C   UNL     1       3.608  11.394  12.838  1.00  0.00     0.004 C 
BRANCH   4   5
ATOM      5  C   UNL     1       4.367  12.723  12.980  1.00  0.00     0.000 C 
BRANCH   5   6
ATOM      6  C   UNL     1       5.486  12.877  11.936  1.00  0.00     0.000 C 
BRANCH   6   7
ATOM      7  C   UNL     1       6.700  11.975  12.222  1.00  0.00     0.000 C 
BRANCH   7   8
ATOM      8  C   UNL     1       7.442  11.475  10.969  1.00  0.00     0.006 C 
BRANCH   8   9
ATOM      9  C   UNL     1       6.535  11.377   9.736  1.00  0.00     0.053 C 
BRANCH   9  10
ATOM     10  C   UNL     1       6.067   9.969   9.539  1.00  0.00     0.041 C 
ATOM     11  O   UNL     1       4.834   9.709   9.518  1.00  0.00    -0.550 OA
ATOM     12  O   UNL     1       6.991   8.938   9.419  1.00  0.00    -0.550 OA
ENDBRANCH   9  10
ENDBRANCH   8   9
ENDBRANCH   7   8
ENDBRANCH   6   7
ENDBRANCH   5   6
ENDBRANCH   4   5
ENDBRANCH   3   4
ENDBRANCH   1   3
BRANCH   2  13
ATOM     13  C   UNL     1       6.042   7.904  12.817  1.00  0.00     0.027 C 
BRANCH  13  14
ATOM     14  C   UNL     1       7.504   8.295  13.070  1.00  0.00     0.004 C 
BRANCH  14  15
ATOM     15  C   UNL     1       8.050   7.598  14.321  1.00  0.00     0.000 C 
BRANCH  15  16
ATOM     16  C   UNL     1       7.919   8.502  15.555  1.00  0.00     0.000 C 
BRANCH  16  17
ATOM     17  C   UNL     1       6.833   8.022  16.533  1.00  0.00    -0.000 C 
BRANCH  17  18
ATOM     18  C   UNL     1       6.311   6.595  16.274  1.00  0.00    -0.000 C 
BRANCH  18  19
ATOM     19  C   UNL     1       6.713   5.579  17.363  1.00  0.00    -0.003 C 
ATOM     20  C   UNL     1       7.471   6.230  18.520  1.00  0.00     0.004 C 
ENDBRANCH  18  19
ENDBRANCH  17  18
ENDBRANCH  16  17
ENDBRANCH  15  16
ENDBRANCH  14  15
ENDBRANCH  13  14
ENDBRANCH   2  13
TORSDOF 15
ENDMDL
