MODEL 1
REMARK VINA RESULT:    -5.479      0.000      0.000
REMARK INTER + INTRA:          -5.799
REMARK INTER:                  -5.799
REMARK INTRA:                   0.000
REMARK UNBOUND:                 0.000
REMARK SMILES O=c1ccc2cc(O)c(O)cc2o1
REMARK SMILES IDX 4 1 3 2 2 3 1 4 13 5 12 6 11 7 9 8 7 9 6 10 5 11 8 12 10 14
REMARK H PARENT 8 13 10 15
REMARK Flexibility Score: inf
ROOT
ATOM      1  C   UNL     1     -18.141   7.630 -18.718  1.00  0.00     0.019 A 
ATOM      2  C   UNL     1     -18.164   8.641 -19.678  1.00  0.00     0.094 A 
ATOM      3  C   UNL     1     -19.383   9.252 -19.989  1.00  0.00     0.336 A 
ATOM      4  O   UNL     1     -19.424  10.167 -20.853  1.00  0.00    -0.246 OA
ATOM      5  O   UNL     1     -20.503   8.874 -19.376  1.00  0.00    -0.423 OA
ATOM      6  C   UNL     1     -20.524   7.914 -18.455  1.00  0.00     0.142 A 
ATOM      7  C   UNL     1     -21.731   7.559 -17.845  1.00  0.00     0.098 A 
ATOM      8  C   UNL     1     -21.760   6.548 -16.873  1.00  0.00     0.161 A 
ATOM      9  C   UNL     1     -20.576   5.889 -16.510  1.00  0.00     0.158 A 
ATOM     10  C   UNL     1     -19.362   6.242 -17.119  1.00  0.00     0.062 A 
ATOM     11  C   UNL     1     -19.332   7.253 -18.090  1.00  0.00     0.022 A 
ENDROOT
BRANCH   9  12
ATOM     12  O   UNL     1     -20.613   4.887 -15.543  1.00  0.00    -0.504 OA
ATOM     13  H   UNL     1     -20.015   4.071 -15.602  1.00  0.00     0.293 HD
ENDBRANCH   9  12
BRANCH   8  14
ATOM     14  O   UNL     1     -22.962   6.192 -16.263  1.00  0.00    -0.504 OA
ATOM     15  H   UNL     1     -22.988   5.806 -15.327  1.00  0.00     0.293 HD
ENDBRANCH   8  14
TORSDOF 2
ENDMDL
MODEL 2
REMARK VINA RESULT:    -5.447      1.115      4.635
REMARK INTER + INTRA:          -5.766
REMARK INTER:                  -5.766
REMARK INTRA:                   0.000
REMARK UNBOUND:                 0.000
REMARK SMILES O=c1ccc2cc(O)c(O)cc2o1
REMARK SMILES IDX 4 1 3 2 2 3 1 4 13 5 12 6 11 7 9 8 7 9 6 10 5 11 8 12 10 14
REMARK H PARENT 8 13 10 15
REMARK Flexibility Score: inf
ROOT
ATOM      1  C   UNL     1     -19.102   6.673 -17.362  1.00  0.00     0.019 A 
ATOM      2  C   UNL     1     -20.311   6.295 -16.779  1.00  0.00     0.094 A 
ATOM      3  C   UNL     1     -21.502   6.821 -17.289  1.00  0.00     0.336 A 
ATOM      4  O   UNL     1     -22.604   6.492 -16.776  1.00  0.00    -0.246 OA
ATOM      5  O   UNL     1     -21.481   7.668 -18.316  1.00  0.00    -0.423 OA
ATOM      6  C   UNL     1     -20.350   8.054 -18.900  1.00  0.00     0.142 A 
ATOM      7  C   UNL     1     -20.389   8.947 -19.976  1.00  0.00     0.098 A 
ATOM      8  C   UNL     1     -19.199   9.357 -20.597  1.00  0.00     0.161 A 
ATOM      9  C   UNL     1     -17.965   8.872 -20.139  1.00  0.00     0.158 A 
ATOM     10  C   UNL     1     -17.921   7.975 -19.060  1.00  0.00     0.062 A 
ATOM     11  C   UNL     1     -19.109   7.564 -18.440  1.00  0.00     0.022 A 
ENDROOT
BRANCH   9  12
ATOM     12  O   UNL     1     -16.789   9.284 -20.761  1.00  0.00    -0.504 OA
ATOM     13  H   UNL     1     -16.028   9.696 -20.235  1.00  0.00     0.293 HD
ENDBRANCH   9  12
BRANCH   8  14
ATOM     14  O   UNL     1     -19.236  10.247 -21.669  1.00  0.00    -0.504 OA
ATOM     15  H   UNL     1     -19.108  11.243 -21.536  1.00  0.00     0.293 HD
ENDBRANCH   8  14
TORSDOF 2
ENDMDL
MODEL 3
REMARK VINA RESULT:    -5.397      1.064      2.234
REMARK INTER + INTRA:          -5.712
REMARK INTER:                  -5.712
REMARK INTRA:                   0.000
REMARK UNBOUND:                 0.000
REMARK SMILES O=c1ccc2cc(O)c(O)cc2o1
REMARK SMILES IDX 4 1 3 2 2 3 1 4 13 5 12 6 11 7 9 8 7 9 6 10 5 11 8 12 10 14
REMARK H PARENT 8 13 10 15
REMARK Flexibility Score: inf
ROOT
ATOM      1  C   UNL     1     -20.739   9.035 -19.488  1.00  0.00     0.019 A 
ATOM      2  C   UNL     1     -19.544   9.401 -20.106  1.00  0.00     0.094 A 
ATOM      3  C   UNL     1     -18.366   8.736 -19.750  1.00  0.00     0.336 A 
ATOM      4  O   UNL     1     -17.276   9.053 -20.296  1.00  0.00    -0.246 OA
ATOM      5  O   UNL     1     -18.388   7.768 -18.836  1.00  0.00    -0.423 OA
ATOM      6  C   UNL     1     -19.507   7.389 -18.223  1.00  0.00     0.142 A 
ATOM      7  C   UNL     1     -19.469   6.365 -17.271  1.00  0.00     0.098 A 
ATOM      8  C   UNL     1     -20.645   5.960 -16.624  1.00  0.00     0.161 A 
ATOM      9  C   UNL     1     -21.865   6.582 -16.929  1.00  0.00     0.158 A 
ATOM     10  C   UNL     1     -21.908   7.610 -17.884  1.00  0.00     0.062 A 
ATOM     11  C   UNL     1     -20.733   8.014 -18.533  1.00  0.00     0.022 A 
ENDROOT
BRANCH   9  12
ATOM     12  O   UNL     1     -23.028   6.174 -16.281  1.00  0.00    -0.504 OA
ATOM     13  H   UNL     1     -23.086   5.280 -15.808  1.00  0.00     0.293 HD
ENDBRANCH   9  12
BRANCH   8  14
ATOM     14  O   UNL     1     -20.610   4.941 -15.674  1.00  0.00    -0.504 OA
ATOM     15  H   UNL     1     -19.989   4.146 -15.770  1.00  0.00     0.293 HD
ENDBRANCH   8  14
TORSDOF 2
ENDMDL
MODEL 4
REMARK VINA RESULT:    -5.272      8.515      8.901
REMARK INTER + INTRA:          -5.581
REMARK INTER:                  -5.581
REMARK INTRA:                   0.000
REMARK UNBOUND:                 0.000
REMARK SMILES O=c1ccc2cc(O)c(O)cc2o1
REMARK SMILES IDX 4 1 3 2 2 3 1 4 13 5 12 6 11 7 9 8 7 9 6 10 5 11 8 12 10 14
REMARK H PARENT 8 13 10 15
REMARK Flexibility Score: inf
ROOT
ATOM      1  C   UNL     1     -19.504   2.106 -26.477  1.00  0.00     0.019 A 
ATOM      2  C   UNL     1     -18.955   3.337 -26.838  1.00  0.00     0.094 A 
ATOM      3  C   UNL     1     -18.137   4.008 -25.924  1.00  0.00     0.336 A 
ATOM      4  O   UNL     1     -17.633   5.121 -26.230  1.00  0.00    -0.246 OA
ATOM      5  O   UNL     1     -17.885   3.478 -24.728  1.00  0.00    -0.423 OA
ATOM      6  C   UNL     1     -18.388   2.307 -24.345  1.00  0.00     0.142 A 
ATOM      7  C   UNL     1     -18.089   1.800 -23.077  1.00  0.00     0.098 A 
ATOM      8  C   UNL     1     -18.615   0.566 -22.668  1.00  0.00     0.161 A 
ATOM      9  C   UNL     1     -19.446  -0.164 -23.531  1.00  0.00     0.158 A 
ATOM     10  C   UNL     1     -19.749   0.341 -24.806  1.00  0.00     0.062 A 
ATOM     11  C   UNL     1     -19.222   1.573 -25.215  1.00  0.00     0.022 A 
ENDROOT
BRANCH   9  12
ATOM     12  O   UNL     1     -19.964  -1.389 -23.117  1.00  0.00    -0.504 OA
ATOM     13  H   UNL     1     -19.894  -2.217 -23.696  1.00  0.00     0.293 HD
ENDBRANCH   9  12
BRANCH   8  14
ATOM     14  O   UNL     1     -18.319   0.058 -21.404  1.00  0.00    -0.504 OA
ATOM     15  H   UNL     1     -18.471   0.604 -20.564  1.00  0.00     0.293 HD
ENDBRANCH   8  14
TORSDOF 2
ENDMDL
MODEL 5
REMARK VINA RESULT:    -5.219      1.264      5.067
REMARK INTER + INTRA:          -5.524
REMARK INTER:                  -5.524
REMARK INTRA:                   0.000
REMARK UNBOUND:                 0.000
REMARK SMILES O=c1ccc2cc(O)c(O)cc2o1
REMARK SMILES IDX 4 1 3 2 2 3 1 4 13 5 12 6 11 7 9 8 7 9 6 10 5 11 8 12 10 14
REMARK H PARENT 8 13 10 15
REMARK Flexibility Score: inf
ROOT
ATOM      1  C   UNL     1     -21.555   7.265 -17.884  1.00  0.00     0.019 A 
ATOM      2  C   UNL     1     -21.399   6.480 -16.742  1.00  0.00     0.094 A 
ATOM      3  C   UNL     1     -20.108   6.168 -16.305  1.00  0.00     0.336 A 
ATOM      4  O   UNL     1     -19.946   5.461 -15.275  1.00  0.00    -0.246 OA
ATOM      5  O   UNL     1     -19.044   6.616 -16.969  1.00  0.00    -0.423 OA
ATOM      6  C   UNL     1     -19.149   7.367 -18.063  1.00  0.00     0.142 A 
ATOM      7  C   UNL     1     -17.997   7.809 -18.720  1.00  0.00     0.098 A 
ATOM      8  C   UNL     1     -18.101   8.601 -19.873  1.00  0.00     0.161 A 
ATOM      9  C   UNL     1     -19.364   8.953 -20.371  1.00  0.00     0.158 A 
ATOM     10  C   UNL     1     -20.524   8.513 -19.715  1.00  0.00     0.062 A 
ATOM     11  C   UNL     1     -20.421   7.721 -18.562  1.00  0.00     0.022 A 
ENDROOT
BRANCH   9  12
ATOM     12  O   UNL     1     -19.459   9.740 -21.516  1.00  0.00    -0.504 OA
ATOM     13  H   UNL     1     -19.666   9.336 -22.422  1.00  0.00     0.293 HD
ENDBRANCH   9  12
BRANCH   8  14
ATOM     14  O   UNL     1     -16.953   9.042 -20.530  1.00  0.00    -0.504 OA
ATOM     15  H   UNL     1     -16.153   8.436 -20.665  1.00  0.00     0.293 HD
ENDBRANCH   8  14
TORSDOF 2
ENDMDL
MODEL 6
REMARK VINA RESULT:    -5.108      1.950      5.556
REMARK INTER + INTRA:          -5.407
REMARK INTER:                  -5.407
REMARK INTRA:                   0.000
REMARK UNBOUND:                 0.000
REMARK SMILES O=c1ccc2cc(O)c(O)cc2o1
REMARK SMILES IDX 4 1 3 2 2 3 1 4 13 5 12 6 11 7 9 8 7 9 6 10 5 11 8 12 10 14
REMARK H PARENT 8 13 10 15
REMARK Flexibility Score: inf
ROOT
ATOM      1  C   UNL     1     -21.359  10.250 -18.987  1.00  0.00     0.019 A 
ATOM      2  C   UNL     1     -21.722   9.417 -17.929  1.00  0.00     0.094 A 
ATOM      3  C   UNL     1     -20.937   8.294 -17.649  1.00  0.00     0.336 A 
ATOM      4  O   UNL     1     -21.249   7.530 -16.698  1.00  0.00    -0.246 OA
ATOM      5  O   UNL     1     -19.858   8.026 -18.382  1.00  0.00    -0.423 OA
ATOM      6  C   UNL     1     -19.477   8.795 -19.400  1.00  0.00     0.142 A 
ATOM      7  C   UNL     1     -18.334   8.464 -20.135  1.00  0.00     0.098 A 
ATOM      8  C   UNL     1     -17.927   9.270 -21.208  1.00  0.00     0.161 A 
ATOM      9  C   UNL     1     -18.666  10.413 -21.547  1.00  0.00     0.158 A 
ATOM     10  C   UNL     1     -19.813  10.750 -20.813  1.00  0.00     0.062 A 
ATOM     11  C   UNL     1     -20.221   9.945 -19.740  1.00  0.00     0.022 A 
ENDROOT
BRANCH   9  12
ATOM     12  O   UNL     1     -18.254  11.209 -22.614  1.00  0.00    -0.504 OA
ATOM     13  H   UNL     1     -17.769  12.086 -22.466  1.00  0.00     0.293 HD
ENDBRANCH   9  12
BRANCH   8  14
ATOM     14  O   UNL     1     -16.788   8.942 -21.942  1.00  0.00    -0.504 OA
ATOM     15  H   UNL     1     -16.839   8.351 -22.764  1.00  0.00     0.293 HD
ENDBRANCH   8  14
TORSDOF 2
ENDMDL
MODEL 7
REMARK VINA RESULT:    -5.069      8.423      8.813
REMARK INTER + INTRA:          -5.365
REMARK INTER:                  -5.365
REMARK INTRA:                   0.000
REMARK UNBOUND:                 0.000
REMARK SMILES O=c1ccc2cc(O)c(O)cc2o1
REMARK SMILES IDX 4 1 3 2 2 3 1 4 13 5 12 6 11 7 9 8 7 9 6 10 5 11 8 12 10 14
REMARK H PARENT 8 13 10 15
REMARK Flexibility Score: inf
ROOT
ATOM      1  C   UNL     1     -15.261   1.507 -22.956  1.00  0.00     0.019 A 
ATOM      2  C   UNL     1     -15.231   2.897 -23.067  1.00  0.00     0.094 A 
ATOM      3  C   UNL     1     -16.432   3.587 -23.259  1.00  0.00     0.336 A 
ATOM      4  O   UNL     1     -16.427   4.842 -23.362  1.00  0.00    -0.246 OA
ATOM      5  O   UNL     1     -17.586   2.926 -23.333  1.00  0.00    -0.423 OA
ATOM      6  C   UNL     1     -17.658   1.600 -23.233  1.00  0.00     0.142 A 
ATOM      7  C   UNL     1     -18.897   0.960 -23.318  1.00  0.00     0.098 A 
ATOM      8  C   UNL     1     -18.980  -0.436 -23.212  1.00  0.00     0.161 A 
ATOM      9  C   UNL     1     -17.816  -1.195 -23.019  1.00  0.00     0.158 A 
ATOM     10  C   UNL     1     -16.569  -0.557 -22.932  1.00  0.00     0.062 A 
ATOM     11  C   UNL     1     -16.486   0.838 -23.038  1.00  0.00     0.022 A 
ENDROOT
BRANCH   9  12
ATOM     12  O   UNL     1     -17.906  -2.581 -22.914  1.00  0.00    -0.504 OA
ATOM     13  H   UNL     1     -18.769  -3.038 -22.645  1.00  0.00     0.293 HD
ENDBRANCH   9  12
BRANCH   8  14
ATOM     14  O   UNL     1     -20.214  -1.077 -23.297  1.00  0.00    -0.504 OA
ATOM     15  H   UNL     1     -20.319  -2.060 -23.074  1.00  0.00     0.293 HD
ENDBRANCH   8  14
TORSDOF 2
ENDMDL
MODEL 8
REMARK VINA RESULT:    -5.002      2.212      5.289
REMARK INTER + INTRA:          -5.295
REMARK INTER:                  -5.295
REMARK INTRA:                   0.000
REMARK UNBOUND:                 0.000
REMARK SMILES O=c1ccc2cc(O)c(O)cc2o1
REMARK SMILES IDX 4 1 3 2 2 3 1 4 13 5 12 6 11 7 9 8 7 9 6 10 5 11 8 12 10 14
REMARK H PARENT 8 13 10 15
REMARK Flexibility Score: inf
ROOT
ATOM      1  C   UNL     1     -20.050   6.993 -19.520  1.00  0.00     0.019 A 
ATOM      2  C   UNL     1     -20.956   7.256 -18.493  1.00  0.00     0.094 A 
ATOM      3  C   UNL     1     -21.338   8.579 -18.249  1.00  0.00     0.336 A 
ATOM      4  O   UNL     1     -22.155   8.838 -17.326  1.00  0.00    -0.246 OA
ATOM      5  O   UNL     1     -20.845   9.571 -18.989  1.00  0.00    -0.423 OA
ATOM      6  C   UNL     1     -19.979   9.363 -19.978  1.00  0.00     0.142 A 
ATOM      7  C   UNL     1     -19.494  10.444 -20.721  1.00  0.00     0.098 A 
ATOM      8  C   UNL     1     -18.583  10.230 -21.765  1.00  0.00     0.161 A 
ATOM      9  C   UNL     1     -18.153   8.929 -22.066  1.00  0.00     0.158 A 
ATOM     10  C   UNL     1     -18.636   7.841 -21.324  1.00  0.00     0.062 A 
ATOM     11  C   UNL     1     -19.549   8.054 -20.281  1.00  0.00     0.022 A 
ENDROOT
BRANCH   9  12
ATOM     12  O   UNL     1     -17.247   8.726 -23.105  1.00  0.00    -0.504 OA
ATOM     13  H   UNL     1     -16.948   9.486 -23.704  1.00  0.00     0.293 HD
ENDBRANCH   9  12
BRANCH   8  14
ATOM     14  O   UNL     1     -18.098  11.306 -22.506  1.00  0.00    -0.504 OA
ATOM     15  H   UNL     1     -18.408  11.480 -23.455  1.00  0.00     0.293 HD
ENDBRANCH   8  14
TORSDOF 2
ENDMDL
MODEL 9
REMARK VINA RESULT:    -4.947      8.285      8.567
REMARK INTER + INTRA:          -5.236
REMARK INTER:                  -5.236
REMARK INTRA:                   0.000
REMARK UNBOUND:                 0.000
REMARK SMILES O=c1ccc2cc(O)c(O)cc2o1
REMARK SMILES IDX 4 1 3 2 2 3 1 4 13 5 12 6 11 7 9 8 7 9 6 10 5 11 8 12 10 14
REMARK H PARENT 8 13 10 15
REMARK Flexibility Score: inf
ROOT
ATOM      1  C   UNL     1     -17.895   3.725 -24.247  1.00  0.00     0.019 A 
ATOM      2  C   UNL     1     -18.364   4.392 -25.378  1.00  0.00     0.094 A 
ATOM      3  C   UNL     1     -19.318   3.766 -26.187  1.00  0.00     0.336 A 
ATOM      4  O   UNL     1     -19.753   4.352 -27.213  1.00  0.00    -0.246 OA
ATOM      5  O   UNL     1     -19.771   2.553 -25.880  1.00  0.00    -0.423 OA
ATOM      6  C   UNL     1     -19.350   1.882 -24.810  1.00  0.00     0.142 A 
ATOM      7  C   UNL     1     -19.862   0.610 -24.537  1.00  0.00     0.098 A 
ATOM      8  C   UNL     1     -19.423  -0.101 -23.410  1.00  0.00     0.161 A 
ATOM      9  C   UNL     1     -18.467   0.463 -22.553  1.00  0.00     0.158 A 
ATOM     10  C   UNL     1     -17.950   1.740 -22.822  1.00  0.00     0.062 A 
ATOM     11  C   UNL     1     -18.389   2.451 -23.948  1.00  0.00     0.022 A 
ENDROOT
BRANCH   9  12
ATOM     12  O   UNL     1     -18.036  -0.250 -21.437  1.00  0.00    -0.504 OA
ATOM     13  H   UNL     1     -17.446  -1.069 -21.525  1.00  0.00     0.293 HD
ENDBRANCH   9  12
BRANCH   8  14
ATOM     14  O   UNL     1     -19.932  -1.370 -23.136  1.00  0.00    -0.504 OA
ATOM     15  H   UNL     1     -20.927  -1.532 -23.037  1.00  0.00     0.293 HD
ENDBRANCH   8  14
TORSDOF 2
ENDMDL
