MODEL 1
REMARK VINA RESULT:    -4.737      0.000      0.000
REMARK INTER + INTRA:          -6.071
REMARK INTER:                  -5.706
REMARK INTRA:                  -0.365
REMARK UNBOUND:                -0.365
REMARK SMILES NC(=O)C[C@@H]([NH3+])C(=O)[O-]
REMARK SMILES IDX 4 1 5 2 6 3 7 7 8 8 9 9 2 10 3 11 1 12
REMARK H PARENT 6 4 6 5 6 6 1 13 1 14
REMARK Flexibility Score: inf
ROOT
ATOM      1  C   UNL     1     181.958 179.558 175.707  1.00  0.00     0.171 C 
ENDROOT
BRANCH   1   2
ATOM      2  C   UNL     1     182.347 179.955 177.145  1.00  0.00     0.237 C 
BRANCH   2   3
ATOM      3  N   UNL     1     183.786 179.765 177.359  1.00  0.00    -0.350 N 
ATOM      4  H   UNL     1     184.324 180.277 176.622  1.00  0.00     0.345 HD
ATOM      5  H   UNL     1     184.071 180.123 178.299  1.00  0.00     0.345 HD
ATOM      6  H   UNL     1     184.024 178.748 177.290  1.00  0.00     0.345 HD
ENDBRANCH   2   3
BRANCH   2   7
ATOM      7  C   UNL     1     181.961 181.383 177.436  1.00  0.00     0.100 C 
ATOM      8  O   UNL     1     182.701 182.113 178.148  1.00  0.00    -0.544 OA
ATOM      9  O   UNL     1     180.789 181.907 176.905  1.00  0.00    -0.544 OA
ENDBRANCH   2   7
ENDBRANCH   1   2
BRANCH   1  10
ATOM     10  C   UNL     1     183.071 179.832 174.737  1.00  0.00     0.223 C 
ATOM     11  O   UNL     1     183.985 178.979 174.575  1.00  0.00    -0.275 OA
ATOM     12  N   UNL     1     183.121 181.067 174.023  1.00  0.00    -0.369 N 
ATOM     13  H   UNL     1     183.902 181.261 173.359  1.00  0.00     0.159 HD
ATOM     14  H   UNL     1     182.380 181.790 174.159  1.00  0.00     0.159 HD
ENDBRANCH   1  10
TORSDOF 4
ENDMDL
MODEL 2
REMARK VINA RESULT:    -4.735     12.761     14.234
REMARK INTER + INTRA:          -6.069
REMARK INTER:                  -5.702
REMARK INTRA:                  -0.367
REMARK UNBOUND:                -0.365
REMARK SMILES NC(=O)C[C@@H]([NH3+])C(=O)[O-]
REMARK SMILES IDX 4 1 5 2 6 3 7 7 8 8 9 9 2 10 3 11 1 12
REMARK H PARENT 6 4 6 5 6 6 1 13 1 14
REMARK Flexibility Score: inf
ROOT
ATOM      1  C   UNL     1     181.872 168.395 172.267  1.00  0.00     0.171 C 
ENDROOT
BRANCH   1   2
ATOM      2  C   UNL     1     182.276 167.989 170.835  1.00  0.00     0.237 C 
BRANCH   2   3
ATOM      3  N   UNL     1     183.712 168.205 170.625  1.00  0.00    -0.350 N 
ATOM      4  H   UNL     1     184.192 167.285 170.492  1.00  0.00     0.345 HD
ATOM      5  H   UNL     1     183.878 168.802 169.783  1.00  0.00     0.345 HD
ATOM      6  H   UNL     1     184.128 168.670 171.466  1.00  0.00     0.345 HD
ENDBRANCH   2   3
BRANCH   2   7
ATOM      7  C   UNL     1     181.918 166.551 170.558  1.00  0.00     0.100 C 
ATOM      8  O   UNL     1     182.663 165.835 169.837  1.00  0.00    -0.544 OA
ATOM      9  O   UNL     1     180.769 166.003 171.113  1.00  0.00    -0.544 OA
ENDBRANCH   2   7
ENDBRANCH   1   2
BRANCH   1  10
ATOM     10  C   UNL     1     182.993 168.174 173.241  1.00  0.00     0.223 C 
ATOM     11  O   UNL     1     183.866 169.068 173.407  1.00  0.00    -0.275 OA
ATOM     12  N   UNL     1     183.098 166.942 173.955  1.00  0.00    -0.369 N 
ATOM     13  H   UNL     1     183.885 166.785 174.622  1.00  0.00     0.159 HD
ATOM     14  H   UNL     1     182.392 166.185 173.816  1.00  0.00     0.159 HD
ENDBRANCH   1  10
TORSDOF 4
ENDMDL
MODEL 3
REMARK VINA RESULT:    -4.718     17.127     18.130
REMARK INTER + INTRA:          -6.049
REMARK INTER:                  -5.684
REMARK INTRA:                  -0.365
REMARK UNBOUND:                -0.365
REMARK SMILES NC(=O)C[C@@H]([NH3+])C(=O)[O-]
REMARK SMILES IDX 4 1 5 2 6 3 7 7 8 8 9 9 2 10 3 11 1 12
REMARK H PARENT 6 4 6 5 6 6 1 13 1 14
REMARK Flexibility Score: inf
ROOT
ATOM      1  C   UNL     1     166.076 179.571 172.284  1.00  0.00     0.171 C 
ENDROOT
BRANCH   1   2
ATOM      2  C   UNL     1     165.687 179.966 170.846  1.00  0.00     0.237 C 
BRANCH   2   3
ATOM      3  N   UNL     1     164.251 179.759 170.626  1.00  0.00    -0.350 N 
ATOM      4  H   UNL     1     163.876 180.512 170.005  1.00  0.00     0.345 HD
ATOM      5  H   UNL     1     164.075 178.829 170.181  1.00  0.00     0.345 HD
ATOM      6  H   UNL     1     163.742 179.806 171.540  1.00  0.00     0.345 HD
ENDBRANCH   2   3
BRANCH   2   7
ATOM      7  C   UNL     1     166.057 181.400 170.559  1.00  0.00     0.100 C 
ATOM      8  O   UNL     1     165.304 182.126 169.856  1.00  0.00    -0.544 OA
ATOM      9  O   UNL     1     167.227 181.933 171.084  1.00  0.00    -0.544 OA
ENDBRANCH   2   7
ENDBRANCH   1   2
BRANCH   1  10
ATOM     10  C   UNL     1     164.961 179.841 173.253  1.00  0.00     0.223 C 
ATOM     11  O   UNL     1     164.050 178.984 173.414  1.00  0.00    -0.275 OA
ATOM     12  N   UNL     1     164.905 181.076 173.966  1.00  0.00    -0.369 N 
ATOM     13  H   UNL     1     164.122 181.267 174.629  1.00  0.00     0.159 HD
ATOM     14  H   UNL     1     165.643 181.802 173.831  1.00  0.00     0.159 HD
ENDBRANCH   1  10
TORSDOF 4
ENDMDL
MODEL 4
REMARK VINA RESULT:    -4.711     21.243     21.816
REMARK INTER + INTRA:          -6.041
REMARK INTER:                  -5.677
REMARK INTRA:                  -0.363
REMARK UNBOUND:                -0.365
REMARK SMILES NC(=O)C[C@@H]([NH3+])C(=O)[O-]
REMARK SMILES IDX 4 1 5 2 6 3 7 7 8 8 9 9 2 10 3 11 1 12
REMARK H PARENT 6 4 6 5 6 6 1 13 1 14
REMARK Flexibility Score: inf
ROOT
ATOM      1  C   UNL     1     166.048 168.431 175.720  1.00  0.00     0.171 C 
ENDROOT
BRANCH   1   2
ATOM      2  C   UNL     1     165.649 168.040 177.157  1.00  0.00     0.237 C 
BRANCH   2   3
ATOM      3  N   UNL     1     164.211 168.248 177.365  1.00  0.00    -0.350 N 
ATOM      4  H   UNL     1     164.060 169.024 178.050  1.00  0.00     0.345 HD
ATOM      5  H   UNL     1     163.737 168.491 176.465  1.00  0.00     0.345 HD
ATOM      6  H   UNL     1     163.780 167.378 177.757  1.00  0.00     0.345 HD
ENDBRANCH   2   3
BRANCH   2   7
ATOM      7  C   UNL     1     166.016 166.608 177.451  1.00  0.00     0.100 C 
ATOM      8  O   UNL     1     165.272 165.892 178.174  1.00  0.00    -0.544 OA
ATOM      9  O   UNL     1     167.175 166.064 176.911  1.00  0.00    -0.544 OA
ENDBRANCH   2   7
ENDBRANCH   1   2
BRANCH   1  10
ATOM     10  C   UNL     1     164.931 168.181 174.748  1.00  0.00     0.223 C 
ATOM     11  O   UNL     1     164.025 169.044 174.599  1.00  0.00    -0.275 OA
ATOM     12  N   UNL     1     164.869 166.955 174.018  1.00  0.00    -0.369 N 
ATOM     13  H   UNL     1     164.084 166.778 173.353  1.00  0.00     0.159 HD
ATOM     14  H   UNL     1     165.603 166.224 174.143  1.00  0.00     0.159 HD
ENDBRANCH   1  10
TORSDOF 4
ENDMDL
MODEL 5
REMARK VINA RESULT:    -4.543      1.186      3.992
REMARK INTER + INTRA:          -5.838
REMARK INTER:                  -5.348
REMARK INTRA:                  -0.490
REMARK UNBOUND:                -0.365
REMARK SMILES NC(=O)C[C@@H]([NH3+])C(=O)[O-]
REMARK SMILES IDX 4 1 5 2 6 3 7 7 8 8 9 9 2 10 3 11 1 12
REMARK H PARENT 6 4 6 5 6 6 1 13 1 14
REMARK Flexibility Score: inf
ROOT
ATOM      1  C   UNL     1     181.772 179.557 176.161  1.00  0.00     0.171 C 
ENDROOT
BRANCH   1   2
ATOM      2  C   UNL     1     181.945 179.828 174.653  1.00  0.00     0.237 C 
BRANCH   2   3
ATOM      3  N   UNL     1     182.664 181.090 174.437  1.00  0.00    -0.350 N 
ATOM      4  H   UNL     1     182.106 181.886 174.824  1.00  0.00     0.345 HD
ATOM      5  H   UNL     1     183.599 181.068 174.906  1.00  0.00     0.345 HD
ATOM      6  H   UNL     1     182.796 181.251 173.411  1.00  0.00     0.345 HD
ENDBRANCH   2   3
BRANCH   2   7
ATOM      7  C   UNL     1     182.672 178.692 173.979  1.00  0.00     0.100 C 
ATOM      8  O   UNL     1     182.070 177.941 173.166  1.00  0.00    -0.544 OA
ATOM      9  O   UNL     1     184.020 178.479 174.239  1.00  0.00    -0.544 OA
ENDBRANCH   2   7
ENDBRANCH   1   2
BRANCH   1  10
ATOM     10  C   UNL     1     182.889 180.160 176.963  1.00  0.00     0.223 C 
ATOM     11  O   UNL     1     182.747 181.303 177.476  1.00  0.00    -0.275 OA
ATOM     12  N   UNL     1     184.125 179.463 177.120  1.00  0.00    -0.369 N 
ATOM     13  H   UNL     1     184.905 179.889 177.667  1.00  0.00     0.159 HD
ATOM     14  H   UNL     1     184.263 178.523 176.687  1.00  0.00     0.159 HD
ENDBRANCH   1  10
TORSDOF 4
ENDMDL
MODEL 6
REMARK VINA RESULT:    -4.542     20.783     21.449
REMARK INTER + INTRA:          -5.836
REMARK INTER:                  -5.352
REMARK INTRA:                  -0.484
REMARK UNBOUND:                -0.365
REMARK SMILES NC(=O)C[C@@H]([NH3+])C(=O)[O-]
REMARK SMILES IDX 4 1 5 2 6 3 7 7 8 8 9 9 2 10 3 11 1 12
REMARK H PARENT 6 4 6 5 6 6 1 13 1 14
REMARK Flexibility Score: inf
ROOT
ATOM      1  C   UNL     1     166.236 168.431 176.152  1.00  0.00     0.171 C 
ENDROOT
BRANCH   1   2
ATOM      2  C   UNL     1     166.067 168.135 174.649  1.00  0.00     0.237 C 
BRANCH   2   3
ATOM      3  N   UNL     1     165.315 166.890 174.451  1.00  0.00    -0.350 N 
ATOM      4  H   UNL     1     165.212 166.390 175.363  1.00  0.00     0.345 HD
ATOM      5  H   UNL     1     164.365 167.089 174.061  1.00  0.00     0.345 HD
ATOM      6  H   UNL     1     165.834 166.264 173.792  1.00  0.00     0.345 HD
ENDBRANCH   2   3
BRANCH   2   7
ATOM      7  C   UNL     1     165.379 169.277 173.945  1.00  0.00     0.100 C 
ATOM      8  O   UNL     1     165.990 169.955 173.076  1.00  0.00    -0.544 OA
ATOM      9  O   UNL     1     164.056 169.578 174.242  1.00  0.00    -0.544 OA
ENDBRANCH   2   7
ENDBRANCH   1   2
BRANCH   1  10
ATOM     10  C   UNL     1     165.115 167.843 176.960  1.00  0.00     0.223 C 
ATOM     11  O   UNL     1     165.258 166.714 177.502  1.00  0.00    -0.275 OA
ATOM     12  N   UNL     1     163.875 168.539 177.090  1.00  0.00    -0.369 N 
ATOM     13  H   UNL     1     163.092 168.123 177.641  1.00  0.00     0.159 HD
ATOM     14  H   UNL     1     163.736 169.468 176.634  1.00  0.00     0.159 HD
ENDBRANCH   1  10
TORSDOF 4
ENDMDL
MODEL 7
REMARK VINA RESULT:    -4.541     11.723     12.734
REMARK INTER + INTRA:          -5.835
REMARK INTER:                  -5.350
REMARK INTRA:                  -0.486
REMARK UNBOUND:                -0.365
REMARK SMILES NC(=O)C[C@@H]([NH3+])C(=O)[O-]
REMARK SMILES IDX 4 1 5 2 6 3 7 7 8 8 9 9 2 10 3 11 1 12
REMARK H PARENT 6 4 6 5 6 6 1 13 1 14
REMARK Flexibility Score: inf
ROOT
ATOM      1  C   UNL     1     181.741 168.396 171.840  1.00  0.00     0.171 C 
ENDROOT
BRANCH   1   2
ATOM      2  C   UNL     1     181.877 168.096 173.346  1.00  0.00     0.237 C 
BRANCH   2   3
ATOM      3  N   UNL     1     182.674 166.882 173.559  1.00  0.00    -0.350 N 
ATOM      4  H   UNL     1     182.478 166.492 174.510  1.00  0.00     0.345 HD
ATOM      5  H   UNL     1     182.445 166.158 172.840  1.00  0.00     0.345 HD
ATOM      6  H   UNL     1     183.693 167.113 173.504  1.00  0.00     0.345 HD
ENDBRANCH   2   3
BRANCH   2   7
ATOM      7  C   UNL     1     182.495 169.260 174.078  1.00  0.00     0.100 C 
ATOM      8  O   UNL     1     181.838 169.890 174.949  1.00  0.00    -0.544 OA
ATOM      9  O   UNL     1     183.804 169.635 173.803  1.00  0.00    -0.544 OA
ENDBRANCH   2   7
ENDBRANCH   1   2
BRANCH   1  10
ATOM     10  C   UNL     1     182.884 167.818 171.056  1.00  0.00     0.223 C 
ATOM     11  O   UNL     1     182.758 166.693 170.502  1.00  0.00    -0.275 OA
ATOM     12  N   UNL     1     184.125 168.518 170.964  1.00  0.00    -0.369 N 
ATOM     13  H   UNL     1     184.923 168.108 170.430  1.00  0.00     0.159 HD
ATOM     14  H   UNL     1     184.249 169.443 171.432  1.00  0.00     0.159 HD
ENDBRANCH   1  10
TORSDOF 4
ENDMDL
MODEL 8
REMARK VINA RESULT:    -4.532     17.070     17.873
REMARK INTER + INTRA:          -5.825
REMARK INTER:                  -5.338
REMARK INTRA:                  -0.487
REMARK UNBOUND:                -0.365
REMARK SMILES NC(=O)C[C@@H]([NH3+])C(=O)[O-]
REMARK SMILES IDX 4 1 5 2 6 3 7 7 8 8 9 9 2 10 3 11 1 12
REMARK H PARENT 6 4 6 5 6 6 1 13 1 14
REMARK Flexibility Score: inf
ROOT
ATOM      1  C   UNL     1     166.259 179.637 171.915  1.00  0.00     0.171 C 
ENDROOT
BRANCH   1   2
ATOM      2  C   UNL     1     166.095 179.922 173.421  1.00  0.00     0.237 C 
BRANCH   2   3
ATOM      3  N   UNL     1     165.262 181.112 173.631  1.00  0.00    -0.350 N 
ATOM      4  H   UNL     1     164.392 180.848 174.149  1.00  0.00     0.345 HD
ATOM      5  H   UNL     1     165.780 181.834 174.182  1.00  0.00     0.345 HD
ATOM      6  H   UNL     1     164.982 181.516 172.708  1.00  0.00     0.345 HD
ENDBRANCH   2   3
BRANCH   2   7
ATOM      7  C   UNL     1     165.499 178.735 174.135  1.00  0.00     0.100 C 
ATOM      8  O   UNL     1     166.165 178.111 175.004  1.00  0.00    -0.544 OA
ATOM      9  O   UNL     1     164.200 178.334 173.849  1.00  0.00    -0.544 OA
ENDBRANCH   2   7
ENDBRANCH   1   2
BRANCH   1  10
ATOM     10  C   UNL     1     165.105 180.176 171.121  1.00  0.00     0.223 C 
ATOM     11  O   UNL     1     165.192 181.312 170.580  1.00  0.00    -0.275 OA
ATOM     12  N   UNL     1     163.896 179.427 171.003  1.00  0.00    -0.369 N 
ATOM     13  H   UNL     1     163.089 179.810 170.461  1.00  0.00     0.159 HD
ATOM     14  H   UNL     1     163.803 178.493 171.459  1.00  0.00     0.159 HD
ENDBRANCH   1  10
TORSDOF 4
ENDMDL
MODEL 9
REMARK VINA RESULT:    -4.467      1.980      2.698
REMARK INTER + INTRA:          -5.746
REMARK INTER:                  -5.687
REMARK INTRA:                  -0.059
REMARK UNBOUND:                -0.365
REMARK SMILES NC(=O)C[C@@H]([NH3+])C(=O)[O-]
REMARK SMILES IDX 4 1 5 2 6 3 7 7 8 8 9 9 2 10 3 11 1 12
REMARK H PARENT 6 4 6 5 6 6 1 13 1 14
REMARK Flexibility Score: inf
ROOT
ATOM      1  C   UNL     1     182.369 178.715 174.200  1.00  0.00     0.171 C 
ENDROOT
BRANCH   1   2
ATOM      2  C   UNL     1     183.014 179.885 174.967  1.00  0.00     0.237 C 
BRANCH   2   3
ATOM      3  N   UNL     1     182.628 181.168 174.368  1.00  0.00    -0.350 N 
ATOM      4  H   UNL     1     182.903 181.952 175.003  1.00  0.00     0.345 HD
ATOM      5  H   UNL     1     183.096 181.300 173.442  1.00  0.00     0.345 HD
ATOM      6  H   UNL     1     181.590 181.201 174.238  1.00  0.00     0.345 HD
ENDBRANCH   2   3
BRANCH   2   7
ATOM      7  C   UNL     1     182.630 179.854 176.425  1.00  0.00     0.100 C 
ATOM      8  O   UNL     1     181.535 179.347 176.788  1.00  0.00    -0.544 OA
ATOM      9  O   UNL     1     183.495 180.373 177.381  1.00  0.00    -0.544 OA
ENDBRANCH   2   7
ENDBRANCH   1   2
BRANCH   1  10
ATOM     10  C   UNL     1     183.343 178.064 173.260  1.00  0.00     0.223 C 
ATOM     11  O   UNL     1     183.708 176.875 173.461  1.00  0.00    -0.275 OA
ATOM     12  N   UNL     1     183.887 178.796 172.162  1.00  0.00    -0.369 N 
ATOM     13  H   UNL     1     184.575 178.347 171.518  1.00  0.00     0.159 HD
ATOM     14  H   UNL     1     183.606 179.787 171.993  1.00  0.00     0.159 HD
ENDBRANCH   1  10
TORSDOF 4
ENDMDL
