MODEL 1
REMARK VINA RESULT:    -4.002      0.000      0.000
REMARK INTER + INTRA:          -5.177
REMARK INTER:                  -4.938
REMARK INTRA:                  -0.239
REMARK UNBOUND:                -0.239
REMARK SMILES C=CC[C@H](C)C(=O)CC
REMARK SMILES IDX 4 1 5 2 6 3 7 4 8 5 9 6 3 7 2 8 1 9
REMARK H PARENT
REMARK Flexibility Score: inf
ROOT
ATOM      1  C   UNL     1      22.609 -25.317  19.560  1.00  0.00     0.057 C 
ATOM      2  C   UNL     1      23.346 -26.637  19.818  1.00  0.00     0.016 C 
ENDROOT
BRANCH   1   3
ATOM      3  C   UNL     1      23.363 -24.173  20.206  1.00  0.00     0.135 C 
ATOM      4  O   UNL     1      24.187 -23.547  19.555  1.00  0.00    -0.299 OA
BRANCH   3   5
ATOM      5  C   UNL     1      23.126 -23.798  21.645  1.00  0.00     0.072 C 
ATOM      6  C   UNL     1      23.845 -22.497  21.989  1.00  0.00     0.012 C 
ENDBRANCH   3   5
ENDBRANCH   1   3
BRANCH   1   7
ATOM      7  C   UNL     1      21.160 -25.357  20.089  1.00  0.00     0.038 C 
BRANCH   7   8
ATOM      8  C   UNL     1      20.831 -26.665  20.761  1.00  0.00    -0.034 C 
ATOM      9  C   UNL     1      19.685 -27.309  20.523  1.00  0.00     0.004 C 
ENDBRANCH   7   8
ENDBRANCH   1   7
TORSDOF 4
ENDMDL
MODEL 2
REMARK VINA RESULT:    -3.954      8.645     10.976
REMARK INTER + INTRA:          -5.118
REMARK INTER:                  -4.786
REMARK INTRA:                  -0.332
REMARK UNBOUND:                -0.239
REMARK SMILES C=CC[C@H](C)C(=O)CC
REMARK SMILES IDX 4 1 5 2 6 3 7 4 8 5 9 6 3 7 2 8 1 9
REMARK H PARENT
REMARK Flexibility Score: inf
ROOT
ATOM      1  C   UNL     1      13.557 -31.424  22.363  1.00  0.00     0.057 C 
ATOM      2  C   UNL     1      13.447 -31.700  20.858  1.00  0.00     0.016 C 
ENDROOT
BRANCH   1   3
ATOM      3  C   UNL     1      12.585 -30.331  22.757  1.00  0.00     0.135 C 
ATOM      4  O   UNL     1      11.576 -30.148  22.090  1.00  0.00    -0.299 OA
BRANCH   3   5
ATOM      5  C   UNL     1      12.842 -29.454  23.954  1.00  0.00     0.072 C 
ATOM      6  C   UNL     1      11.759 -28.388  24.084  1.00  0.00     0.012 C 
ENDBRANCH   3   5
ENDBRANCH   1   3
BRANCH   1   7
ATOM      7  C   UNL     1      14.991 -31.023  22.767  1.00  0.00     0.038 C 
BRANCH   7   8
ATOM      8  C   UNL     1      15.735 -30.345  21.647  1.00  0.00    -0.034 C 
ATOM      9  C   UNL     1      16.206 -29.101  21.767  1.00  0.00     0.004 C 
ENDBRANCH   7   8
ENDBRANCH   1   7
TORSDOF 4
ENDMDL
MODEL 3
REMARK VINA RESULT:    -3.941      9.883     11.219
REMARK INTER + INTRA:          -5.102
REMARK INTER:                  -4.844
REMARK INTRA:                  -0.257
REMARK UNBOUND:                -0.239
REMARK SMILES C=CC[C@H](C)C(=O)CC
REMARK SMILES IDX 4 1 5 2 6 3 7 4 8 5 9 6 3 7 2 8 1 9
REMARK H PARENT
REMARK Flexibility Score: inf
ROOT
ATOM      1  C   UNL     1      13.957 -31.020  21.086  1.00  0.00     0.057 C 
ATOM      2  C   UNL     1      15.365 -30.724  21.618  1.00  0.00     0.016 C 
ENDROOT
BRANCH   1   3
ATOM      3  C   UNL     1      12.929 -30.712  22.155  1.00  0.00     0.135 C 
ATOM      4  O   UNL     1      11.753 -30.582  21.845  1.00  0.00    -0.299 OA
BRANCH   3   5
ATOM      5  C   UNL     1      13.330 -30.550  23.597  1.00  0.00     0.072 C 
ATOM      6  C   UNL     1      12.870 -29.199  24.137  1.00  0.00     0.012 C 
ENDBRANCH   3   5
ENDBRANCH   1   3
BRANCH   1   7
ATOM      7  C   UNL     1      13.815 -32.486  20.627  1.00  0.00     0.038 C 
BRANCH   7   8
ATOM      8  C   UNL     1      14.779 -33.404  21.331  1.00  0.00    -0.034 C 
ATOM      9  C   UNL     1      15.234 -34.522  20.758  1.00  0.00     0.004 C 
ENDBRANCH   7   8
ENDBRANCH   1   7
TORSDOF 4
ENDMDL
MODEL 4
REMARK VINA RESULT:    -3.890      9.420     10.870
REMARK INTER + INTRA:          -5.039
REMARK INTER:                  -4.618
REMARK INTRA:                  -0.422
REMARK UNBOUND:                -0.239
REMARK SMILES C=CC[C@H](C)C(=O)CC
REMARK SMILES IDX 4 1 5 2 6 3 7 4 8 5 9 6 3 7 2 8 1 9
REMARK H PARENT
REMARK Flexibility Score: inf
ROOT
ATOM      1  C   UNL     1      12.956 -31.041  22.189  1.00  0.00     0.057 C 
ATOM      2  C   UNL     1      11.586 -30.408  21.912  1.00  0.00     0.016 C 
ENDROOT
BRANCH   1   3
ATOM      3  C   UNL     1      13.758 -30.146  23.111  1.00  0.00     0.135 C 
ATOM      4  O   UNL     1      13.276 -29.789  24.177  1.00  0.00    -0.299 OA
BRANCH   3   5
ATOM      5  C   UNL     1      15.138 -29.676  22.736  1.00  0.00     0.072 C 
ATOM      6  C   UNL     1      16.201 -30.437  23.523  1.00  0.00     0.012 C 
ENDBRANCH   3   5
ENDBRANCH   1   3
BRANCH   1   7
ATOM      7  C   UNL     1      13.743 -31.293  20.885  1.00  0.00     0.038 C 
BRANCH   7   8
ATOM      8  C   UNL     1      14.115 -32.742  20.711  1.00  0.00    -0.034 C 
ATOM      9  C   UNL     1      14.845 -33.395  21.620  1.00  0.00     0.004 C 
ENDBRANCH   7   8
ENDBRANCH   1   7
TORSDOF 4
ENDMDL
MODEL 5
REMARK VINA RESULT:    -3.830     10.718     11.336
REMARK INTER + INTRA:          -4.966
REMARK INTER:                  -4.676
REMARK INTRA:                  -0.289
REMARK UNBOUND:                -0.239
REMARK SMILES C=CC[C@H](C)C(=O)CC
REMARK SMILES IDX 4 1 5 2 6 3 7 4 8 5 9 6 3 7 2 8 1 9
REMARK H PARENT
REMARK Flexibility Score: inf
ROOT
ATOM      1  C   UNL     1      14.142 -31.706  21.869  1.00  0.00     0.057 C 
ATOM      2  C   UNL     1      13.461 -31.908  20.509  1.00  0.00     0.016 C 
ENDROOT
BRANCH   1   3
ATOM      3  C   UNL     1      14.752 -33.010  22.337  1.00  0.00     0.135 C 
ATOM      4  O   UNL     1      14.937 -33.915  21.535  1.00  0.00    -0.299 OA
BRANCH   3   5
ATOM      5  C   UNL     1      15.128 -33.222  23.780  1.00  0.00     0.072 C 
ATOM      6  C   UNL     1      16.472 -32.570  24.090  1.00  0.00     0.012 C 
ENDBRANCH   3   5
ENDBRANCH   1   3
BRANCH   1   7
ATOM      7  C   UNL     1      13.154 -31.176  22.930  1.00  0.00     0.038 C 
BRANCH   7   8
ATOM      8  C   UNL     1      13.561 -29.831  23.471  1.00  0.00    -0.034 C 
ATOM      9  C   UNL     1      12.735 -29.094  24.219  1.00  0.00     0.004 C 
ENDBRANCH   7   8
ENDBRANCH   1   7
TORSDOF 4
ENDMDL
MODEL 6
REMARK VINA RESULT:    -3.829      1.659      2.390
REMARK INTER + INTRA:          -4.964
REMARK INTER:                  -4.732
REMARK INTRA:                  -0.232
REMARK UNBOUND:                -0.239
REMARK SMILES C=CC[C@H](C)C(=O)CC
REMARK SMILES IDX 4 1 5 2 6 3 7 4 8 5 9 6 3 7 2 8 1 9
REMARK H PARENT
REMARK Flexibility Score: inf
ROOT
ATOM      1  C   UNL     1      21.909 -26.032  20.698  1.00  0.00     0.057 C 
ATOM      2  C   UNL     1      20.578 -25.551  20.104  1.00  0.00     0.016 C 
ENDROOT
BRANCH   1   3
ATOM      3  C   UNL     1      23.016 -25.869  19.678  1.00  0.00     0.135 C 
ATOM      4  O   UNL     1      23.682 -26.840  19.348  1.00  0.00    -0.299 OA
BRANCH   3   5
ATOM      5  C   UNL     1      23.322 -24.528  19.067  1.00  0.00     0.072 C 
ATOM      6  C   UNL     1      24.026 -23.624  20.074  1.00  0.00     0.012 C 
ENDBRANCH   3   5
ENDBRANCH   1   3
BRANCH   1   7
ATOM      7  C   UNL     1      21.831 -27.502  21.161  1.00  0.00     0.038 C 
BRANCH   7   8
ATOM      8  C   UNL     1      20.499 -28.131  20.848  1.00  0.00    -0.034 C 
ATOM      9  C   UNL     1      20.238 -29.409  21.141  1.00  0.00     0.004 C 
ENDBRANCH   7   8
ENDBRANCH   1   7
TORSDOF 4
ENDMDL
MODEL 7
REMARK VINA RESULT:    -3.826      9.802     11.429
REMARK INTER + INTRA:          -4.960
REMARK INTER:                  -4.823
REMARK INTRA:                  -0.137
REMARK UNBOUND:                -0.239
REMARK SMILES C=CC[C@H](C)C(=O)CC
REMARK SMILES IDX 4 1 5 2 6 3 7 4 8 5 9 6 3 7 2 8 1 9
REMARK H PARENT
REMARK Flexibility Score: inf
ROOT
ATOM      1  C   UNL     1      14.101 -31.126  23.213  1.00  0.00     0.057 C 
ATOM      2  C   UNL     1      15.364 -30.257  23.265  1.00  0.00     0.016 C 
ENDROOT
BRANCH   1   3
ATOM      3  C   UNL     1      14.201 -32.109  22.066  1.00  0.00     0.135 C 
ATOM      4  O   UNL     1      13.563 -31.911  21.041  1.00  0.00    -0.299 OA
BRANCH   3   5
ATOM      5  C   UNL     1      15.065 -33.338  22.165  1.00  0.00     0.072 C 
ATOM      6  C   UNL     1      15.031 -34.129  20.861  1.00  0.00     0.012 C 
ENDBRANCH   3   5
ENDBRANCH   1   3
BRANCH   1   7
ATOM      7  C   UNL     1      12.825 -30.271  23.065  1.00  0.00     0.038 C 
BRANCH   7   8
ATOM      8  C   UNL     1      12.783 -29.128  24.045  1.00  0.00    -0.034 C 
ATOM      9  C   UNL     1      11.727 -28.314  24.131  1.00  0.00     0.004 C 
ENDBRANCH   7   8
ENDBRANCH   1   7
TORSDOF 4
ENDMDL
MODEL 8
REMARK VINA RESULT:    -3.815      8.746     11.188
REMARK INTER + INTRA:          -4.947
REMARK INTER:                  -4.567
REMARK INTRA:                  -0.380
REMARK UNBOUND:                -0.239
REMARK SMILES C=CC[C@H](C)C(=O)CC
REMARK SMILES IDX 4 1 5 2 6 3 7 4 8 5 9 6 3 7 2 8 1 9
REMARK H PARENT
REMARK Flexibility Score: inf
ROOT
ATOM      1  C   UNL     1      16.612 -34.577  20.588  1.00  0.00     0.057 C 
ATOM      2  C   UNL     1      16.272 -35.855  19.809  1.00  0.00     0.016 C 
ENDROOT
BRANCH   1   3
ATOM      3  C   UNL     1      15.343 -33.950  21.124  1.00  0.00     0.135 C 
ATOM      4  O   UNL     1      15.140 -33.927  22.330  1.00  0.00    -0.299 OA
BRANCH   3   5
ATOM      5  C   UNL     1      14.313 -33.360  20.196  1.00  0.00     0.072 C 
ATOM      6  C   UNL     1      13.720 -32.085  20.788  1.00  0.00     0.012 C 
ENDBRANCH   3   5
ENDBRANCH   1   3
BRANCH   1   7
ATOM      7  C   UNL     1      17.374 -33.560  19.714  1.00  0.00     0.038 C 
BRANCH   7   8
ATOM      8  C   UNL     1      18.221 -32.621  20.532  1.00  0.00    -0.034 C 
ATOM      9  C   UNL     1      17.891 -31.337  20.695  1.00  0.00     0.004 C 
ENDBRANCH   7   8
ENDBRANCH   1   7
TORSDOF 4
ENDMDL
MODEL 9
REMARK VINA RESULT:    -3.748     10.795     11.632
REMARK INTER + INTRA:          -4.864
REMARK INTER:                  -4.698
REMARK INTRA:                  -0.166
REMARK UNBOUND:                -0.239
REMARK SMILES C=CC[C@H](C)C(=O)CC
REMARK SMILES IDX 4 1 5 2 6 3 7 4 8 5 9 6 3 7 2 8 1 9
REMARK H PARENT
REMARK Flexibility Score: inf
ROOT
ATOM      1  C   UNL     1      14.414 -31.910  21.696  1.00  0.00     0.057 C 
ATOM      2  C   UNL     1      13.349 -31.752  20.603  1.00  0.00     0.016 C 
ENDROOT
BRANCH   1   3
ATOM      3  C   UNL     1      14.992 -33.309  21.651  1.00  0.00     0.135 C 
ATOM      4  O   UNL     1      15.474 -33.798  22.663  1.00  0.00    -0.299 OA
BRANCH   3   5
ATOM      5  C   UNL     1      14.997 -34.110  20.376  1.00  0.00     0.072 C 
ATOM      6  C   UNL     1      16.129 -35.133  20.385  1.00  0.00     0.012 C 
ENDBRANCH   3   5
ENDBRANCH   1   3
BRANCH   1   7
ATOM      7  C   UNL     1      13.840 -31.622  23.099  1.00  0.00     0.038 C 
BRANCH   7   8
ATOM      8  C   UNL     1      13.863 -30.155  23.438  1.00  0.00    -0.034 C 
ATOM      9  C   UNL     1      12.775 -29.518  23.879  1.00  0.00     0.004 C 
ENDBRANCH   7   8
ENDBRANCH   1   7
TORSDOF 4
ENDMDL
