MODEL 1
REMARK VINA RESULT:    -5.563      0.000      0.000
REMARK INTER + INTRA:          -7.139
REMARK INTER:                  -6.863
REMARK INTRA:                  -0.276
REMARK UNBOUND:                -0.276
REMARK SMILES COc1cc(-c2oc3cc(O)cc(O)c3c(=O)c2O)ccc1O
REMARK SMILES IDX 6 1 18 2 16 3 17 4 15 5 13 6 12 7 10 8 9 9 8 10 7 11 5 12
REMARK SMILES IDX 3 13 22 14 4 15 21 16 20 17 2 18 1 19 23 20 19 22 14 24
REMARK SMILES IDX 11 26
REMARK H PARENT 23 21 19 23 14 25 11 27
REMARK Flexibility Score: inf
ROOT
ATOM      1  C   UNL     1      -4.259  -6.458   7.725  1.00  0.00     0.180 A 
ATOM      2  C   UNL     1      -3.500  -6.748   8.875  1.00  0.00     0.208 A 
ATOM      3  C   UNL     1      -2.414  -7.630   8.766  1.00  0.00     0.238 A 
ATOM      4  O   UNL     1      -1.733  -7.906   9.792  1.00  0.00    -0.285 OA
ATOM      5  C   UNL     1      -2.092  -8.189   7.511  1.00  0.00     0.111 A 
ATOM      6  C   UNL     1      -1.011  -9.082   7.316  1.00  0.00     0.134 A 
ATOM      7  C   UNL     1      -0.751  -9.588   6.034  1.00  0.00     0.093 A 
ATOM      8  C   UNL     1      -1.549  -9.217   4.946  1.00  0.00     0.123 A 
ATOM      9  C   UNL     1      -2.616  -8.337   5.134  1.00  0.00     0.094 A 
ATOM     10  C   UNL     1      -2.893  -7.823   6.405  1.00  0.00     0.146 A 
ATOM     11  O   UNL     1      -3.917  -6.992   6.555  1.00  0.00    -0.452 OA
ENDROOT
BRANCH   1  12
ATOM     12  C   UNL     1      -5.430  -5.553   7.763  1.00  0.00     0.025 A 
ATOM     13  C   UNL     1      -6.407  -3.327   8.043  1.00  0.00     0.161 A 
ATOM     14  C   UNL     1      -7.690  -3.881   7.882  1.00  0.00     0.157 A 
ATOM     15  C   UNL     1      -5.281  -4.172   7.990  1.00  0.00     0.062 A 
ATOM     16  C   UNL     1      -7.838  -5.256   7.678  1.00  0.00     0.051 A 
ATOM     17  C   UNL     1      -6.719  -6.088   7.627  1.00  0.00     0.016 A 
BRANCH  13  18
ATOM     18  O   UNL     1      -6.290  -1.944   8.258  1.00  0.00    -0.493 OA
ATOM     19  C   UNL     1      -6.217  -1.330   9.540  1.00  0.00     0.278 C 
ENDBRANCH  13  18
BRANCH  14  20
ATOM     20  O   UNL     1      -8.832  -3.081   7.923  1.00  0.00    -0.504 OA
ATOM     21  H   UNL     1      -9.211  -2.637   7.095  1.00  0.00     0.293 HD
ENDBRANCH  14  20
ENDBRANCH   1  12
BRANCH   2  22
ATOM     22  O   UNL     1      -3.808  -6.142  10.095  1.00  0.00    -0.502 OA
ATOM     23  H   UNL     1      -4.455  -6.554  10.758  1.00  0.00     0.293 HD
ENDBRANCH   2  22
BRANCH   6  24
ATOM     24  O   UNL     1      -0.198  -9.470   8.382  1.00  0.00    -0.507 OA
ATOM     25  H   UNL     1       0.767  -9.167   8.453  1.00  0.00     0.293 HD
ENDBRANCH   6  24
BRANCH   8  26
ATOM     26  O   UNL     1      -1.290  -9.719   3.672  1.00  0.00    -0.508 OA
ATOM     27  H   UNL     1      -1.538  -9.199   2.838  1.00  0.00     0.293 HD
ENDBRANCH   8  26
TORSDOF 6
ENDMDL
MODEL 2
REMARK VINA RESULT:    -5.223      1.077      2.131
REMARK INTER + INTRA:          -6.720
REMARK INTER:                  -6.327
REMARK INTRA:                  -0.394
REMARK UNBOUND:                -0.276
REMARK SMILES COc1cc(-c2oc3cc(O)cc(O)c3c(=O)c2O)ccc1O
REMARK SMILES IDX 6 1 18 2 16 3 17 4 15 5 13 6 12 7 10 8 9 9 8 10 7 11 5 12
REMARK SMILES IDX 3 13 22 14 4 15 21 16 20 17 2 18 1 19 23 20 19 22 14 24
REMARK SMILES IDX 11 26
REMARK H PARENT 23 21 19 23 14 25 11 27
REMARK Flexibility Score: inf
ROOT
ATOM      1  C   UNL     1      -4.124  -6.690   7.570  1.00  0.00     0.180 A 
ATOM      2  C   UNL     1      -3.376  -6.812   8.756  1.00  0.00     0.208 A 
ATOM      3  C   UNL     1      -2.231  -7.625   8.755  1.00  0.00     0.238 A 
ATOM      4  O   UNL     1      -1.558  -7.750   9.815  1.00  0.00    -0.285 OA
ATOM      5  C   UNL     1      -1.843  -8.281   7.568  1.00  0.00     0.111 A 
ATOM      6  C   UNL     1      -0.701  -9.114   7.482  1.00  0.00     0.134 A 
ATOM      7  C   UNL     1      -0.378  -9.725   6.261  1.00  0.00     0.093 A 
ATOM      8  C   UNL     1      -1.172  -9.519   5.128  1.00  0.00     0.123 A 
ATOM      9  C   UNL     1      -2.299  -8.699   5.209  1.00  0.00     0.094 A 
ATOM     10  C   UNL     1      -2.640  -8.082   6.417  1.00  0.00     0.146 A 
ATOM     11  O   UNL     1      -3.720  -7.312   6.465  1.00  0.00    -0.452 OA
ENDROOT
BRANCH   1  12
ATOM     12  C   UNL     1      -5.353  -5.867   7.497  1.00  0.00     0.025 A 
ATOM     13  C   UNL     1      -7.789  -5.647   7.574  1.00  0.00     0.161 A 
ATOM     14  C   UNL     1      -7.663  -4.273   7.296  1.00  0.00     0.157 A 
ATOM     15  C   UNL     1      -6.628  -6.439   7.666  1.00  0.00     0.062 A 
ATOM     16  C   UNL     1      -6.398  -3.711   7.107  1.00  0.00     0.051 A 
ATOM     17  C   UNL     1      -5.251  -4.501   7.198  1.00  0.00     0.016 A 
BRANCH  13  18
ATOM     18  O   UNL     1      -9.074  -6.187   7.748  1.00  0.00    -0.493 OA
ATOM     19  C   UNL     1      -9.848  -6.778   6.709  1.00  0.00     0.278 C 
ENDBRANCH  13  18
BRANCH  14  20
ATOM     20  O   UNL     1      -8.786  -3.451   7.201  1.00  0.00    -0.504 OA
ATOM     21  H   UNL     1      -8.965  -2.703   7.860  1.00  0.00     0.293 HD
ENDBRANCH  14  20
ENDBRANCH   1  12
BRANCH   2  22
ATOM     22  O   UNL     1      -3.752  -6.111   9.904  1.00  0.00    -0.502 OA
ATOM     23  H   UNL     1      -4.540  -6.390  10.477  1.00  0.00     0.293 HD
ENDBRANCH   2  22
BRANCH   6  24
ATOM     24  O   UNL     1       0.111  -9.338   8.595  1.00  0.00    -0.507 OA
ATOM     25  H   UNL     1       0.667 -10.180   8.687  1.00  0.00     0.293 HD
ENDBRANCH   6  24
BRANCH   8  26
ATOM     26  O   UNL     1      -0.851 -10.125   3.916  1.00  0.00    -0.508 OA
ATOM     27  H   UNL     1       0.111 -10.323   3.661  1.00  0.00     0.293 HD
ENDBRANCH   8  26
TORSDOF 6
ENDMDL
MODEL 3
REMARK VINA RESULT:    -5.097     19.985     21.578
REMARK INTER + INTRA:          -6.565
REMARK INTER:                  -6.169
REMARK INTRA:                  -0.395
REMARK UNBOUND:                -0.276
REMARK SMILES COc1cc(-c2oc3cc(O)cc(O)c3c(=O)c2O)ccc1O
REMARK SMILES IDX 6 1 18 2 16 3 17 4 15 5 13 6 12 7 10 8 9 9 8 10 7 11 5 12
REMARK SMILES IDX 3 13 22 14 4 15 21 16 20 17 2 18 1 19 23 20 19 22 14 24
REMARK SMILES IDX 11 26
REMARK H PARENT 23 21 19 23 14 25 11 27
REMARK Flexibility Score: inf
ROOT
ATOM      1  C   UNL     1       6.585   7.640  -3.725  1.00  0.00     0.180 A 
ATOM      2  C   UNL     1       5.551   8.494  -3.297  1.00  0.00     0.208 A 
ATOM      3  C   UNL     1       5.619   9.050  -2.010  1.00  0.00     0.238 A 
ATOM      4  O   UNL     1       4.692   9.808  -1.612  1.00  0.00    -0.285 OA
ATOM      5  C   UNL     1       6.725   8.762  -1.184  1.00  0.00     0.111 A 
ATOM      6  C   UNL     1       6.871   9.286   0.124  1.00  0.00     0.134 A 
ATOM      7  C   UNL     1       8.007   8.958   0.879  1.00  0.00     0.093 A 
ATOM      8  C   UNL     1       8.996   8.120   0.354  1.00  0.00     0.123 A 
ATOM      9  C   UNL     1       8.855   7.602  -0.934  1.00  0.00     0.094 A 
ATOM     10  C   UNL     1       7.730   7.914  -1.704  1.00  0.00     0.146 A 
ATOM     11  O   UNL     1       7.621   7.403  -2.924  1.00  0.00    -0.452 OA
ENDROOT
BRANCH   1  12
ATOM     12  C   UNL     1       6.575   7.001  -5.060  1.00  0.00     0.025 A 
ATOM     13  C   UNL     1       6.018   5.126  -6.532  1.00  0.00     0.161 A 
ATOM     14  C   UNL     1       6.629   5.802  -7.605  1.00  0.00     0.157 A 
ATOM     15  C   UNL     1       6.003   5.731  -5.259  1.00  0.00     0.062 A 
ATOM     16  C   UNL     1       7.216   7.053  -7.401  1.00  0.00     0.051 A 
ATOM     17  C   UNL     1       7.198   7.646  -6.138  1.00  0.00     0.016 A 
BRANCH  13  18
ATOM     18  O   UNL     1       5.447   3.865  -6.763  1.00  0.00    -0.493 OA
ATOM     19  C   UNL     1       4.437   3.275  -5.951  1.00  0.00     0.278 C 
ENDBRANCH  13  18
BRANCH  14  20
ATOM     20  O   UNL     1       6.664   5.242  -8.883  1.00  0.00    -0.504 OA
ATOM     21  H   UNL     1       7.310   4.502  -9.131  1.00  0.00     0.293 HD
ENDBRANCH  14  20
ENDBRANCH   1  12
BRANCH   2  22
ATOM     22  O   UNL     1       4.491   8.804  -4.154  1.00  0.00    -0.502 OA
ATOM     23  H   UNL     1       4.615   8.913  -5.153  1.00  0.00     0.293 HD
ENDBRANCH   2  22
BRANCH   6  24
ATOM     24  O   UNL     1       5.902  10.124   0.675  1.00  0.00    -0.507 OA
ATOM     25  H   UNL     1       6.071  11.114   0.814  1.00  0.00     0.293 HD
ENDBRANCH   6  24
BRANCH   8  26
ATOM     26  O   UNL     1      10.124   7.796   1.104  1.00  0.00    -0.508 OA
ATOM     27  H   UNL     1      10.240   6.877   1.517  1.00  0.00     0.293 HD
ENDBRANCH   8  26
TORSDOF 6
ENDMDL
MODEL 4
REMARK VINA RESULT:    -4.963     19.134     20.829
REMARK INTER + INTRA:          -6.400
REMARK INTER:                  -6.009
REMARK INTRA:                  -0.390
REMARK UNBOUND:                -0.276
REMARK SMILES COc1cc(-c2oc3cc(O)cc(O)c3c(=O)c2O)ccc1O
REMARK SMILES IDX 6 1 18 2 16 3 17 4 15 5 13 6 12 7 10 8 9 9 8 10 7 11 5 12
REMARK SMILES IDX 3 13 22 14 4 15 21 16 20 17 2 18 1 19 23 20 19 22 14 24
REMARK SMILES IDX 11 26
REMARK H PARENT 23 21 19 23 14 25 11 27
REMARK Flexibility Score: inf
ROOT
ATOM      1  C   UNL     1       6.454   3.274  -7.520  1.00  0.00     0.180 A 
ATOM      2  C   UNL     1       5.636   3.024  -8.638  1.00  0.00     0.208 A 
ATOM      3  C   UNL     1       5.234   1.706  -8.904  1.00  0.00     0.238 A 
ATOM      4  O   UNL     1       4.509   1.469  -9.909  1.00  0.00    -0.285 OA
ATOM      5  C   UNL     1       5.638   0.666  -8.040  1.00  0.00     0.111 A 
ATOM      6  C   UNL     1       5.273  -0.688  -8.236  1.00  0.00     0.134 A 
ATOM      7  C   UNL     1       5.709  -1.663  -7.325  1.00  0.00     0.093 A 
ATOM      8  C   UNL     1       6.499  -1.310  -6.227  1.00  0.00     0.123 A 
ATOM      9  C   UNL     1       6.862   0.024  -6.031  1.00  0.00     0.094 A 
ATOM     10  C   UNL     1       6.440   1.010  -6.927  1.00  0.00     0.146 A 
ATOM     11  O   UNL     1       6.804   2.270  -6.719  1.00  0.00    -0.452 OA
ENDROOT
BRANCH   1  12
ATOM     12  C   UNL     1       6.935   4.633  -7.185  1.00  0.00     0.025 A 
ATOM     13  C   UNL     1       6.701   6.749  -5.978  1.00  0.00     0.161 A 
ATOM     14  C   UNL     1       7.856   7.232  -6.621  1.00  0.00     0.157 A 
ATOM     15  C   UNL     1       6.243   5.450  -6.271  1.00  0.00     0.062 A 
ATOM     16  C   UNL     1       8.530   6.428  -7.545  1.00  0.00     0.051 A 
ATOM     17  C   UNL     1       8.070   5.141  -7.832  1.00  0.00     0.016 A 
BRANCH  13  18
ATOM     18  O   UNL     1       6.038   7.583  -5.063  1.00  0.00    -0.493 OA
ATOM     19  C   UNL     1       6.065   7.414  -3.650  1.00  0.00     0.278 C 
ENDBRANCH  13  18
BRANCH  14  20
ATOM     20  O   UNL     1       8.348   8.510  -6.358  1.00  0.00    -0.504 OA
ATOM     21  H   UNL     1       8.919   9.017  -7.024  1.00  0.00     0.293 HD
ENDBRANCH  14  20
ENDBRANCH   1  12
BRANCH   2  22
ATOM     22  O   UNL     1       5.208   4.078  -9.449  1.00  0.00    -0.502 OA
ATOM     23  H   UNL     1       5.780   4.457 -10.194  1.00  0.00     0.293 HD
ENDBRANCH   2  22
BRANCH   6  24
ATOM     24  O   UNL     1       4.484  -1.070  -9.321  1.00  0.00    -0.507 OA
ATOM     25  H   UNL     1       4.116  -0.391  -9.977  1.00  0.00     0.293 HD
ENDBRANCH   6  24
BRANCH   8  26
ATOM     26  O   UNL     1       6.931  -2.278  -5.323  1.00  0.00    -0.508 OA
ATOM     27  H   UNL     1       6.906  -3.265  -5.551  1.00  0.00     0.293 HD
ENDBRANCH   8  26
TORSDOF 6
ENDMDL
MODEL 5
REMARK VINA RESULT:    -4.865     20.039     21.201
REMARK INTER + INTRA:          -6.278
REMARK INTER:                  -5.964
REMARK INTRA:                  -0.314
REMARK UNBOUND:                -0.276
REMARK SMILES COc1cc(-c2oc3cc(O)cc(O)c3c(=O)c2O)ccc1O
REMARK SMILES IDX 6 1 18 2 16 3 17 4 15 5 13 6 12 7 10 8 9 9 8 10 7 11 5 12
REMARK SMILES IDX 3 13 22 14 4 15 21 16 20 17 2 18 1 19 23 20 19 22 14 24
REMARK SMILES IDX 11 26
REMARK H PARENT 23 21 19 23 14 25 11 27
REMARK Flexibility Score: inf
ROOT
ATOM      1  C   UNL     1       6.433   6.802  -5.074  1.00  0.00     0.180 A 
ATOM      2  C   UNL     1       7.249   7.319  -6.098  1.00  0.00     0.208 A 
ATOM      3  C   UNL     1       7.458   6.548  -7.253  1.00  0.00     0.238 A 
ATOM      4  O   UNL     1       8.196   6.996  -8.173  1.00  0.00    -0.285 OA
ATOM      5  C   UNL     1       6.833   5.289  -7.374  1.00  0.00     0.111 A 
ATOM      6  C   UNL     1       6.988   4.453  -8.506  1.00  0.00     0.134 A 
ATOM      7  C   UNL     1       6.325   3.218  -8.553  1.00  0.00     0.093 A 
ATOM      8  C   UNL     1       5.511   2.804  -7.493  1.00  0.00     0.123 A 
ATOM      9  C   UNL     1       5.356   3.625  -6.374  1.00  0.00     0.094 A 
ATOM     10  C   UNL     1       6.010   4.859  -6.307  1.00  0.00     0.146 A 
ATOM     11  O   UNL     1       5.848   5.617  -5.229  1.00  0.00    -0.452 OA
ENDROOT
BRANCH   1  12
ATOM     12  C   UNL     1       6.181   7.546  -3.819  1.00  0.00     0.025 A 
ATOM     13  C   UNL     1       6.482   7.841  -1.408  1.00  0.00     0.161 A 
ATOM     14  C   UNL     1       5.629   8.961  -1.450  1.00  0.00     0.157 A 
ATOM     15  C   UNL     1       6.746   7.135  -2.598  1.00  0.00     0.062 A 
ATOM     16  C   UNL     1       5.051   9.355  -2.659  1.00  0.00     0.051 A 
ATOM     17  C   UNL     1       5.317   8.650  -3.834  1.00  0.00     0.016 A 
BRANCH  13  18
ATOM     18  O   UNL     1       7.039   7.461  -0.177  1.00  0.00    -0.493 OA
ATOM     19  C   UNL     1       8.342   7.827   0.267  1.00  0.00     0.278 C 
ENDBRANCH  13  18
BRANCH  14  20
ATOM     20  O   UNL     1       5.343   9.692  -0.297  1.00  0.00    -0.504 OA
ATOM     21  H   UNL     1       5.951  10.430   0.039  1.00  0.00     0.293 HD
ENDBRANCH  14  20
ENDBRANCH   1  12
BRANCH   2  22
ATOM     22  O   UNL     1       7.816   8.590  -5.976  1.00  0.00    -0.502 OA
ATOM     23  H   UNL     1       8.684   8.844  -6.434  1.00  0.00     0.293 HD
ENDBRANCH   2  22
BRANCH   6  24
ATOM     24  O   UNL     1       7.792   4.839  -9.579  1.00  0.00    -0.507 OA
ATOM     25  H   UNL     1       7.787   5.788  -9.934  1.00  0.00     0.293 HD
ENDBRANCH   6  24
BRANCH   8  26
ATOM     26  O   UNL     1       4.852   1.578  -7.540  1.00  0.00    -0.508 OA
ATOM     27  H   UNL     1       3.845   1.514  -7.443  1.00  0.00     0.293 HD
ENDBRANCH   8  26
TORSDOF 6
ENDMDL
MODEL 6
REMARK VINA RESULT:    -4.758     20.091     21.599
REMARK INTER + INTRA:          -6.147
REMARK INTER:                  -5.758
REMARK INTRA:                  -0.388
REMARK UNBOUND:                -0.276
REMARK SMILES COc1cc(-c2oc3cc(O)cc(O)c3c(=O)c2O)ccc1O
REMARK SMILES IDX 6 1 18 2 16 3 17 4 15 5 13 6 12 7 10 8 9 9 8 10 7 11 5 12
REMARK SMILES IDX 3 13 22 14 4 15 21 16 20 17 2 18 1 19 23 20 19 22 14 24
REMARK SMILES IDX 11 26
REMARK H PARENT 23 21 19 23 14 25 11 27
REMARK Flexibility Score: inf
ROOT
ATOM      1  C   UNL     1       7.198   7.358  -3.730  1.00  0.00     0.180 A 
ATOM      2  C   UNL     1       8.507   7.105  -3.278  1.00  0.00     0.208 A 
ATOM      3  C   UNL     1       8.875   7.529  -1.991  1.00  0.00     0.238 A 
ATOM      4  O   UNL     1      10.048   7.317  -1.579  1.00  0.00    -0.285 OA
ATOM      5  C   UNL     1       7.926   8.177  -1.173  1.00  0.00     0.111 A 
ATOM      6  C   UNL     1       8.214   8.631   0.137  1.00  0.00     0.134 A 
ATOM      7  C   UNL     1       7.212   9.259   0.890  1.00  0.00     0.093 A 
ATOM      8  C   UNL     1       5.930   9.441   0.361  1.00  0.00     0.123 A 
ATOM      9  C   UNL     1       5.641   8.995  -0.930  1.00  0.00     0.094 A 
ATOM     10  C   UNL     1       6.627   8.368  -1.698  1.00  0.00     0.146 A 
ATOM     11  O   UNL     1       6.325   7.959  -2.925  1.00  0.00    -0.452 OA
ENDROOT
BRANCH   1  12
ATOM     12  C   UNL     1       6.742   6.960  -5.081  1.00  0.00     0.025 A 
ATOM     13  C   UNL     1       5.866   5.287  -6.637  1.00  0.00     0.161 A 
ATOM     14  C   UNL     1       5.936   6.233  -7.677  1.00  0.00     0.157 A 
ATOM     15  C   UNL     1       6.279   5.657  -5.342  1.00  0.00     0.062 A 
ATOM     16  C   UNL     1       6.417   7.520  -7.420  1.00  0.00     0.051 A 
ATOM     17  C   UNL     1       6.824   7.880  -6.135  1.00  0.00     0.016 A 
BRANCH  13  18
ATOM     18  O   UNL     1       5.391   3.998  -6.927  1.00  0.00    -0.493 OA
ATOM     19  C   UNL     1       4.253   3.400  -6.312  1.00  0.00     0.278 C 
ENDBRANCH  13  18
BRANCH  14  20
ATOM     20  O   UNL     1       5.535   5.911  -8.973  1.00  0.00    -0.504 OA
ATOM     21  H   UNL     1       5.598   4.968  -9.339  1.00  0.00     0.293 HD
ENDBRANCH  14  20
ENDBRANCH   1  12
BRANCH   2  22
ATOM     22  O   UNL     1       9.413   6.417  -4.088  1.00  0.00    -0.502 OA
ATOM     23  H   UNL     1       9.461   6.558  -5.090  1.00  0.00     0.293 HD
ENDBRANCH   2  22
BRANCH   6  24
ATOM     24  O   UNL     1       9.484   8.463   0.692  1.00  0.00    -0.507 OA
ATOM     25  H   UNL     1       9.863   7.543   0.883  1.00  0.00     0.293 HD
ENDBRANCH   6  24
BRANCH   8  26
ATOM     26  O   UNL     1       4.934  10.064   1.110  1.00  0.00    -0.508 OA
ATOM     27  H   UNL     1       4.955  11.061   1.294  1.00  0.00     0.293 HD
ENDBRANCH   8  26
TORSDOF 6
ENDMDL
MODEL 7
REMARK VINA RESULT:    -4.695     19.373     21.198
REMARK INTER + INTRA:          -6.068
REMARK INTER:                  -5.663
REMARK INTRA:                  -0.405
REMARK UNBOUND:                -0.276
REMARK SMILES COc1cc(-c2oc3cc(O)cc(O)c3c(=O)c2O)ccc1O
REMARK SMILES IDX 6 1 18 2 16 3 17 4 15 5 13 6 12 7 10 8 9 9 8 10 7 11 5 12
REMARK SMILES IDX 3 13 22 14 4 15 21 16 20 17 2 18 1 19 23 20 19 22 14 24
REMARK SMILES IDX 11 26
REMARK H PARENT 23 21 19 23 14 25 11 27
REMARK Flexibility Score: inf
ROOT
ATOM      1  C   UNL     1       6.383   3.085  -7.594  1.00  0.00     0.180 A 
ATOM      2  C   UNL     1       5.602   2.779  -8.725  1.00  0.00     0.208 A 
ATOM      3  C   UNL     1       5.232   1.445  -8.953  1.00  0.00     0.238 A 
ATOM      4  O   UNL     1       4.540   1.157  -9.969  1.00  0.00    -0.285 OA
ATOM      5  C   UNL     1       5.628   0.445  -8.040  1.00  0.00     0.111 A 
ATOM      6  C   UNL     1       5.293  -0.922  -8.196  1.00  0.00     0.134 A 
ATOM      7  C   UNL     1       5.719  -1.854  -7.238  1.00  0.00     0.093 A 
ATOM      8  C   UNL     1       6.471  -1.447  -6.131  1.00  0.00     0.123 A 
ATOM      9  C   UNL     1       6.804  -0.100  -5.975  1.00  0.00     0.094 A 
ATOM     10  C   UNL     1       6.391   0.845  -6.919  1.00  0.00     0.146 A 
ATOM     11  O   UNL     1       6.727   2.118  -6.747  1.00  0.00    -0.452 OA
ENDROOT
BRANCH   1  12
ATOM     12  C   UNL     1       6.829   4.465  -7.296  1.00  0.00     0.025 A 
ATOM     13  C   UNL     1       8.438   6.293  -7.536  1.00  0.00     0.161 A 
ATOM     14  C   UNL     1       7.665   7.074  -6.657  1.00  0.00     0.157 A 
ATOM     15  C   UNL     1       8.016   4.985  -7.844  1.00  0.00     0.062 A 
ATOM     16  C   UNL     1       6.498   6.549  -6.096  1.00  0.00     0.051 A 
ATOM     17  C   UNL     1       6.086   5.252  -6.406  1.00  0.00     0.016 A 
BRANCH  13  18
ATOM     18  O   UNL     1       9.612   6.842  -8.075  1.00  0.00    -0.493 OA
ATOM     19  C   UNL     1       9.705   7.445  -9.362  1.00  0.00     0.278 C 
ENDBRANCH  13  18
BRANCH  14  20
ATOM     20  O   UNL     1       8.043   8.376  -6.328  1.00  0.00    -0.504 OA
ATOM     21  H   UNL     1       8.058   8.708  -5.370  1.00  0.00     0.293 HD
ENDBRANCH  14  20
ENDBRANCH   1  12
BRANCH   2  22
ATOM     22  O   UNL     1       5.179   3.795  -9.587  1.00  0.00    -0.502 OA
ATOM     23  H   UNL     1       5.632   3.977 -10.474  1.00  0.00     0.293 HD
ENDBRANCH   2  22
BRANCH   6  24
ATOM     24  O   UNL     1       4.543  -1.358  -9.289  1.00  0.00    -0.507 OA
ATOM     25  H   UNL     1       3.548  -1.181  -9.356  1.00  0.00     0.293 HD
ENDBRANCH   6  24
BRANCH   8  26
ATOM     26  O   UNL     1       6.893  -2.372  -5.179  1.00  0.00    -0.508 OA
ATOM     27  H   UNL     1       6.476  -2.411  -4.256  1.00  0.00     0.293 HD
ENDBRANCH   8  26
TORSDOF 6
ENDMDL
MODEL 8
REMARK VINA RESULT:    -4.688     20.321     21.518
REMARK INTER + INTRA:          -6.060
REMARK INTER:                  -5.670
REMARK INTRA:                  -0.389
REMARK UNBOUND:                -0.276
REMARK SMILES COc1cc(-c2oc3cc(O)cc(O)c3c(=O)c2O)ccc1O
REMARK SMILES IDX 6 1 18 2 16 3 17 4 15 5 13 6 12 7 10 8 9 9 8 10 7 11 5 12
REMARK SMILES IDX 3 13 22 14 4 15 21 16 20 17 2 18 1 19 23 20 19 22 14 24
REMARK SMILES IDX 11 26
REMARK H PARENT 23 21 19 23 14 25 11 27
REMARK Flexibility Score: inf
ROOT
ATOM      1  C   UNL     1       6.678   7.025  -4.847  1.00  0.00     0.180 A 
ATOM      2  C   UNL     1       6.717   7.962  -5.898  1.00  0.00     0.208 A 
ATOM      3  C   UNL     1       6.341   7.551  -7.187  1.00  0.00     0.238 A 
ATOM      4  O   UNL     1       6.382   8.378  -8.138  1.00  0.00    -0.285 OA
ATOM      5  C   UNL     1       5.913   6.223  -7.399  1.00  0.00     0.111 A 
ATOM      6  C   UNL     1       5.514   5.732  -8.665  1.00  0.00     0.134 A 
ATOM      7  C   UNL     1       5.093   4.399  -8.791  1.00  0.00     0.093 A 
ATOM      8  C   UNL     1       5.063   3.552  -7.678  1.00  0.00     0.123 A 
ATOM      9  C   UNL     1       5.457   4.033  -6.428  1.00  0.00     0.094 A 
ATOM     10  C   UNL     1       5.882   5.357  -6.281  1.00  0.00     0.146 A 
ATOM     11  O   UNL     1       6.255   5.785  -5.082  1.00  0.00    -0.452 OA
ENDROOT
BRANCH   1  12
ATOM     12  C   UNL     1       7.078   7.377  -3.466  1.00  0.00     0.025 A 
ATOM     13  C   UNL     1       6.562   8.292  -1.255  1.00  0.00     0.161 A 
ATOM     14  C   UNL     1       7.899   8.079  -0.868  1.00  0.00     0.157 A 
ATOM     15  C   UNL     1       6.162   7.944  -2.561  1.00  0.00     0.062 A 
ATOM     16  C   UNL     1       8.813   7.537  -1.775  1.00  0.00     0.051 A 
ATOM     17  C   UNL     1       8.409   7.195  -3.067  1.00  0.00     0.016 A 
BRANCH  13  18
ATOM     18  O   UNL     1       5.669   8.849  -0.327  1.00  0.00    -0.493 OA
ATOM     19  C   UNL     1       4.837   9.976  -0.584  1.00  0.00     0.278 C 
ENDBRANCH  13  18
BRANCH  14  20
ATOM     20  O   UNL     1       8.338   8.405   0.415  1.00  0.00    -0.504 OA
ATOM     21  H   UNL     1       8.158   9.311   0.834  1.00  0.00     0.293 HD
ENDBRANCH  14  20
ENDBRANCH   1  12
BRANCH   2  22
ATOM     22  O   UNL     1       7.096   9.283  -5.653  1.00  0.00    -0.502 OA
ATOM     23  H   UNL     1       7.042  10.005  -6.362  1.00  0.00     0.293 HD
ENDBRANCH   2  22
BRANCH   6  24
ATOM     24  O   UNL     1       5.531   6.553  -9.793  1.00  0.00    -0.507 OA
ATOM     25  H   UNL     1       6.177   7.330  -9.875  1.00  0.00     0.293 HD
ENDBRANCH   6  24
BRANCH   8  26
ATOM     26  O   UNL     1       4.644   2.230  -7.803  1.00  0.00    -0.508 OA
ATOM     27  H   UNL     1       4.647   1.596  -7.012  1.00  0.00     0.293 HD
ENDBRANCH   8  26
TORSDOF 6
ENDMDL
MODEL 9
REMARK VINA RESULT:    -4.481     19.360     21.638
REMARK INTER + INTRA:          -5.804
REMARK INTER:                  -5.421
REMARK INTRA:                  -0.383
REMARK UNBOUND:                -0.276
REMARK SMILES COc1cc(-c2oc3cc(O)cc(O)c3c(=O)c2O)ccc1O
REMARK SMILES IDX 6 1 18 2 16 3 17 4 15 5 13 6 12 7 10 8 9 9 8 10 7 11 5 12
REMARK SMILES IDX 3 13 22 14 4 15 21 16 20 17 2 18 1 19 23 20 19 22 14 24
REMARK SMILES IDX 11 26
REMARK H PARENT 23 21 19 23 14 25 11 27
REMARK Flexibility Score: inf
ROOT
ATOM      1  C   UNL     1       7.009   2.842  -7.537  1.00  0.00     0.180 A 
ATOM      2  C   UNL     1       8.294   3.164  -8.015  1.00  0.00     0.208 A 
ATOM      3  C   UNL     1       8.824   4.433  -7.732  1.00  0.00     0.238 A 
ATOM      4  O   UNL     1       9.970   4.737  -8.164  1.00  0.00    -0.285 OA
ATOM      5  C   UNL     1       8.074   5.346  -6.962  1.00  0.00     0.111 A 
ATOM      6  C   UNL     1       8.538   6.642  -6.630  1.00  0.00     0.134 A 
ATOM      7  C   UNL     1       7.734   7.489  -5.852  1.00  0.00     0.093 A 
ATOM      8  C   UNL     1       6.479   7.065  -5.401  1.00  0.00     0.123 A 
ATOM      9  C   UNL     1       6.018   5.789  -5.727  1.00  0.00     0.094 A 
ATOM     10  C   UNL     1       6.803   4.930  -6.503  1.00  0.00     0.146 A 
ATOM     11  O   UNL     1       6.337   3.724  -6.802  1.00  0.00    -0.452 OA
ENDROOT
BRANCH   1  12
ATOM     12  C   UNL     1       6.375   1.532  -7.810  1.00  0.00     0.025 A 
ATOM     13  C   UNL     1       5.913  -0.792  -7.199  1.00  0.00     0.161 A 
ATOM     14  C   UNL     1       5.196  -0.954  -8.400  1.00  0.00     0.157 A 
ATOM     15  C   UNL     1       6.506   0.455  -6.916  1.00  0.00     0.062 A 
ATOM     16  C   UNL     1       5.085   0.111  -9.297  1.00  0.00     0.051 A 
ATOM     17  C   UNL     1       5.676   1.343  -9.011  1.00  0.00     0.016 A 
BRANCH  13  18
ATOM     18  O   UNL     1       6.018  -1.882  -6.321  1.00  0.00    -0.493 OA
ATOM     19  C   UNL     1       6.819  -1.897  -5.144  1.00  0.00     0.278 C 
ENDBRANCH  13  18
BRANCH  14  20
ATOM     20  O   UNL     1       4.590  -2.169  -8.718  1.00  0.00    -0.504 OA
ATOM     21  H   UNL     1       4.248  -2.374  -9.650  1.00  0.00     0.293 HD
ENDBRANCH  14  20
ENDBRANCH   1  12
BRANCH   2  22
ATOM     22  O   UNL     1       9.037   2.224  -8.732  1.00  0.00    -0.502 OA
ATOM     23  H   UNL     1       8.711   1.277  -8.887  1.00  0.00     0.293 HD
ENDBRANCH   2  22
BRANCH   6  24
ATOM     24  O   UNL     1       9.785   7.092  -7.064  1.00  0.00    -0.507 OA
ATOM     25  H   UNL     1      10.399   6.506  -7.617  1.00  0.00     0.293 HD
ENDBRANCH   6  24
BRANCH   8  26
ATOM     26  O   UNL     1       5.682   7.906  -4.628  1.00  0.00    -0.508 OA
ATOM     27  H   UNL     1       4.700   8.048  -4.840  1.00  0.00     0.293 HD
ENDBRANCH   8  26
TORSDOF 6
ENDMDL
