MODEL 1
REMARK VINA RESULT:    -3.612      0.000      0.000
REMARK INTER + INTRA:          -5.579
REMARK INTER:                  -5.513
REMARK INTRA:                  -0.066
REMARK UNBOUND:                -0.066
REMARK SMILES CC1=CCC[C@H](C)C(=O)C[C@@H](C(C)C)C(=O)C1
REMARK SMILES IDX 8 1 9 2 6 3 7 4 5 5 4 6 3 7 2 8 1 9 10 11 11 12 15 13 16 14
REMARK SMILES IDX 17 15 12 17 13 18 14 19
REMARK H PARENT
REMARK Flexibility Score: 70.00
ROOT
ATOM      1  C   UNL     1       3.855  30.486 -26.190  1.00  0.00     0.136 C 
ATOM      2  O   UNL     1       4.351  29.472 -25.719  1.00  0.00    -0.299 OA
ENDROOT
BRANCH   1   3
ATOM      3  C   UNL     1       3.998  30.771 -27.672  1.00  0.00     0.053 C 
ATOM      4  C   UNL     1       4.940  29.751 -28.328  1.00  0.00     0.016 C 
BRANCH   3   5
ATOM      5  C   UNL     1       2.611  30.763 -28.355  1.00  0.00     0.015 C 
BRANCH   5   6
ATOM      6  C   UNL     1       2.104  32.187 -28.658  1.00  0.00     0.028 C 
BRANCH   6   7
ATOM      7  C   UNL     1       0.606  32.279 -28.517  1.00  0.00    -0.028 C 
ATOM      8  C   UNL     1      -0.055  32.498 -27.358  1.00  0.00    -0.070 CG0
ATOM      9  C   UNL     1      -1.562  32.497 -27.393  1.00  0.00     0.039 C 
ATOM     10  G   UNL     1       0.644  32.730 -26.027  1.00  0.00     0.000 G0
ENDBRANCH   6   7
ENDBRANCH   5   6
ENDBRANCH   3   5
ENDBRANCH   1   3
BRANCH   1  11
ATOM     11  C   UNL     1       3.110  31.434 -25.280  1.00  0.00     0.087 C 
BRANCH  11  12
ATOM     12  C   UNL     1       1.842  30.789 -24.661  1.00  0.00     0.066 C 
BRANCH  12  13
ATOM     13  C   UNL     1       0.586  31.541 -25.089  1.00  0.00     0.140 C 
ATOM     14  O   UNL     1      -0.492  31.198 -24.622  1.00  0.00    -0.299 OA
BRANCH  13  15
ATOM     15  C   UNL     1       0.643  32.738 -26.011  1.00  0.00     0.106 CG0
ATOM     16  G   UNL     1      -0.054  32.476 -27.338  1.00  0.00     0.000 G0
ENDBRANCH  13  15
ENDBRANCH  12  13
BRANCH  12  17
ATOM     17  C   UNL     1       1.923  30.648 -23.107  1.00  0.00    -0.006 C 
ATOM     18  C   UNL     1       2.152  29.181 -22.696  1.00  0.00     0.008 C 
ATOM     19  C   UNL     1       3.043  31.510 -22.497  1.00  0.00     0.008 C 
ENDBRANCH  12  17
ENDBRANCH  11  12
ENDBRANCH   1  11
TORSDOF 1
ENDMDL
MODEL 2
REMARK VINA RESULT:    -3.568     15.364     16.906
REMARK INTER + INTRA:          -5.512
REMARK INTER:                  -5.345
REMARK INTRA:                  -0.168
REMARK UNBOUND:                -0.066
REMARK SMILES CC1=CCC[C@H](C)C(=O)C[C@@H](C(C)C)C(=O)C1
REMARK SMILES IDX 8 1 9 2 6 3 7 4 5 5 4 6 3 7 2 8 1 9 10 11 11 12 15 13 16 14
REMARK SMILES IDX 17 15 12 17 13 18 14 19
REMARK H PARENT
REMARK Flexibility Score: 70.00
ROOT
ATOM      1  C   UNL     1      10.795  32.475 -14.109  1.00  0.00     0.136 C 
ATOM      2  O   UNL     1      11.489  32.234 -15.088  1.00  0.00    -0.299 OA
ENDROOT
BRANCH   1   3
ATOM      3  C   UNL     1      10.688  31.452 -12.996  1.00  0.00     0.053 C 
ATOM      4  C   UNL     1      10.494  30.043 -13.577  1.00  0.00     0.016 C 
BRANCH   3   5
ATOM      5  C   UNL     1      11.942  31.510 -12.094  1.00  0.00     0.015 C 
BRANCH   5   6
ATOM      6  C   UNL     1      11.593  31.870 -10.637  1.00  0.00     0.028 C 
BRANCH   6   7
ATOM      7  C   UNL     1      10.110  31.775 -10.386  1.00  0.00    -0.028 C 
ATOM      8  C   UNL     1       9.271  32.830 -10.267  1.00  0.00    -0.070 CG0
ATOM      9  C   UNL     1       7.823  32.549  -9.955  1.00  0.00     0.039 C 
ATOM     10  G   UNL     1       9.718  34.276 -10.419  1.00  0.00     0.000 G0
ENDBRANCH   6   7
ENDBRANCH   5   6
ENDBRANCH   3   5
ENDBRANCH   1   3
BRANCH   1  11
ATOM     11  C   UNL     1      10.057  33.791 -14.036  1.00  0.00     0.087 C 
BRANCH  11  12
ATOM     12  C   UNL     1      10.568  34.694 -12.883  1.00  0.00     0.066 C 
BRANCH  12  13
ATOM     13  C   UNL     1       9.509  34.836 -11.794  1.00  0.00     0.140 C 
ATOM     14  O   UNL     1       8.440  35.358 -12.079  1.00  0.00    -0.299 OA
BRANCH  13  15
ATOM     15  C   UNL     1       9.714  34.286 -10.400  1.00  0.00     0.106 CG0
ATOM     16  G   UNL     1       9.271  32.835 -10.284  1.00  0.00     0.000 G0
ENDBRANCH  13  15
ENDBRANCH  12  13
BRANCH  12  17
ATOM     17  C   UNL     1      11.073  36.089 -13.376  1.00  0.00    -0.006 C 
ATOM     18  C   UNL     1      12.010  36.736 -12.339  1.00  0.00     0.008 C 
ATOM     19  C   UNL     1      11.814  36.002 -14.722  1.00  0.00     0.008 C 
ENDBRANCH  12  17
ENDBRANCH  11  12
ENDBRANCH   1  11
TORSDOF 1
ENDMDL
MODEL 3
REMARK VINA RESULT:    -3.533      2.270      4.730
REMARK INTER + INTRA:          -5.459
REMARK INTER:                  -5.566
REMARK INTRA:                   0.107
REMARK UNBOUND:                -0.066
REMARK SMILES CC1=CCC[C@H](C)C(=O)C[C@@H](C(C)C)C(=O)C1
REMARK SMILES IDX 8 1 9 2 6 3 7 4 5 5 4 6 3 7 2 8 1 9 10 11 11 12 15 13 16 14
REMARK SMILES IDX 17 15 12 17 13 18 14 19
REMARK H PARENT
REMARK Flexibility Score: 70.00
ROOT
ATOM      1  C   UNL     1       2.441  31.401 -24.608  1.00  0.00     0.136 C 
ATOM      2  O   UNL     1       2.963  32.501 -24.739  1.00  0.00    -0.299 OA
ENDROOT
BRANCH   1   3
ATOM      3  C   UNL     1       2.932  30.463 -23.524  1.00  0.00     0.053 C 
ATOM      4  C   UNL     1       3.115  31.220 -22.199  1.00  0.00     0.016 C 
BRANCH   3   5
ATOM      5  C   UNL     1       1.951  29.281 -23.354  1.00  0.00     0.015 C 
BRANCH   5   6
ATOM      6  C   UNL     1       0.934  29.527 -22.222  1.00  0.00     0.028 C 
BRANCH   6   7
ATOM      7  C   UNL     1      -0.462  29.146 -22.644  1.00  0.00    -0.028 C 
ATOM      8  C   UNL     1      -1.368  29.989 -23.191  1.00  0.00    -0.070 CG0
ATOM      9  C   UNL     1      -2.742  29.449 -23.496  1.00  0.00     0.039 C 
ATOM     10  G   UNL     1      -1.073  31.449 -23.499  1.00  0.00     0.000 G0
ENDBRANCH   6   7
ENDBRANCH   5   6
ENDBRANCH   3   5
ENDBRANCH   1   3
BRANCH   1  11
ATOM     11  C   UNL     1       1.318  31.005 -25.536  1.00  0.00     0.087 C 
BRANCH  11  12
ATOM     12  C   UNL     1       0.259  32.126 -25.700  1.00  0.00     0.066 C 
BRANCH  12  13
ATOM     13  C   UNL     1      -1.035  31.761 -24.979  1.00  0.00     0.140 C 
ATOM     14  O   UNL     1      -2.062  31.650 -25.635  1.00  0.00    -0.299 OA
BRANCH  13  15
ATOM     15  C   UNL     1      -1.071  31.460 -23.498  1.00  0.00     0.106 CG0
ATOM     16  G   UNL     1      -1.379  29.998 -23.215  1.00  0.00     0.000 G0
ENDBRANCH  13  15
ENDBRANCH  12  13
BRANCH  12  17
ATOM     17  C   UNL     1      -0.005  32.506 -27.193  1.00  0.00    -0.006 C 
ATOM     18  C   UNL     1      -0.432  33.980 -27.321  1.00  0.00     0.008 C 
ATOM     19  C   UNL     1       1.228  32.272 -28.084  1.00  0.00     0.008 C 
ENDBRANCH  12  17
ENDBRANCH  11  12
ENDBRANCH   1  11
TORSDOF 1
ENDMDL
MODEL 4
REMARK VINA RESULT:    -3.527     15.135     16.913
REMARK INTER + INTRA:          -5.448
REMARK INTER:                  -5.349
REMARK INTRA:                  -0.099
REMARK UNBOUND:                -0.066
REMARK SMILES CC1=CCC[C@H](C)C(=O)C[C@@H](C(C)C)C(=O)C1
REMARK SMILES IDX 8 1 9 2 6 3 7 4 5 5 4 6 3 7 2 8 1 9 10 11 11 12 15 13 16 14
REMARK SMILES IDX 17 15 12 17 13 18 14 19
REMARK H PARENT
REMARK Flexibility Score: 70.00
ROOT
ATOM      1  C   UNL     1       9.087  33.190 -10.407  1.00  0.00     0.136 C 
ATOM      2  O   UNL     1       8.374  34.162 -10.192  1.00  0.00    -0.299 OA
ENDROOT
BRANCH   1   3
ATOM      3  C   UNL     1       8.653  31.821  -9.923  1.00  0.00     0.053 C 
ATOM      4  C   UNL     1       7.282  31.903  -9.234  1.00  0.00     0.016 C 
BRANCH   3   5
ATOM      5  C   UNL     1       8.621  30.822 -11.101  1.00  0.00     0.015 C 
BRANCH   5   6
ATOM      6  C   UNL     1       9.900  29.964 -11.171  1.00  0.00     0.028 C 
BRANCH   6   7
ATOM      7  C   UNL     1      10.231  29.585 -12.592  1.00  0.00    -0.028 C 
ATOM      8  C   UNL     1      11.020  30.301 -13.426  1.00  0.00    -0.070 CG0
ATOM      9  C   UNL     1      11.192  29.801 -14.838  1.00  0.00     0.039 C 
ATOM     10  G   UNL     1      11.727  31.583 -13.014  1.00  0.00     0.000 G0
ENDBRANCH   6   7
ENDBRANCH   5   6
ENDBRANCH   3   5
ENDBRANCH   1   3
BRANCH   1  11
ATOM     11  C   UNL     1      10.387  33.381 -11.152  1.00  0.00     0.087 C 
BRANCH  11  12
ATOM     12  C   UNL     1      10.169  33.710 -12.652  1.00  0.00     0.066 C 
BRANCH  12  13
ATOM     13  C   UNL     1      11.048  32.830 -13.535  1.00  0.00     0.140 C 
ATOM     14  O   UNL     1      11.248  33.173 -14.692  1.00  0.00    -0.299 OA
BRANCH  13  15
ATOM     15  C   UNL     1      11.736  31.593 -13.003  1.00  0.00     0.106 CG0
ATOM     16  G   UNL     1      11.036  30.314 -13.437  1.00  0.00     0.000 G0
ENDBRANCH  13  15
ENDBRANCH  12  13
BRANCH  12  17
ATOM     17  C   UNL     1      10.363  35.226 -12.980  1.00  0.00    -0.006 C 
ATOM     18  C   UNL     1       9.012  35.965 -12.996  1.00  0.00     0.008 C 
ATOM     19  C   UNL     1      11.297  35.928 -11.978  1.00  0.00     0.008 C 
ENDBRANCH  12  17
ENDBRANCH  11  12
ENDBRANCH   1  11
TORSDOF 1
ENDMDL
MODEL 5
REMARK VINA RESULT:    -3.517     15.792     17.010
REMARK INTER + INTRA:          -5.434
REMARK INTER:                  -5.655
REMARK INTRA:                   0.221
REMARK UNBOUND:                -0.066
REMARK SMILES CC1=CCC[C@H](C)C(=O)C[C@@H](C(C)C)C(=O)C1
REMARK SMILES IDX 8 1 9 2 6 3 7 4 5 5 4 6 3 7 2 8 1 9 10 11 11 12 15 13 16 14
REMARK SMILES IDX 17 15 12 17 13 18 14 19
REMARK H PARENT
REMARK Flexibility Score: 70.00
ROOT
ATOM      1  C   UNL     1       9.290  34.958 -11.638  1.00  0.00     0.136 C 
ATOM      2  O   UNL     1       8.262  35.500 -12.023  1.00  0.00    -0.299 OA
ENDROOT
BRANCH   1   3
ATOM      3  C   UNL     1       9.213  33.857 -10.600  1.00  0.00     0.053 C 
ATOM      4  C   UNL     1       7.833  33.849  -9.925  1.00  0.00     0.016 C 
BRANCH   3   5
ATOM      5  C   UNL     1       9.519  32.488 -11.248  1.00  0.00     0.015 C 
BRANCH   5   6
ATOM      6  C   UNL     1      11.017  32.129 -11.168  1.00  0.00     0.028 C 
BRANCH   6   7
ATOM      7  C   UNL     1      11.498  31.487 -12.444  1.00  0.00    -0.028 C 
ATOM      8  C   UNL     1      12.161  32.127 -13.435  1.00  0.00    -0.070 CG0
ATOM      9  C   UNL     1      12.512  31.340 -14.672  1.00  0.00     0.039 C 
ATOM     10  G   UNL     1      12.554  33.595 -13.367  1.00  0.00     0.000 G0
ENDBRANCH   6   7
ENDBRANCH   5   6
ENDBRANCH   3   5
ENDBRANCH   1   3
BRANCH   1  11
ATOM     11  C   UNL     1      10.615  35.404 -12.210  1.00  0.00     0.087 C 
BRANCH  11  12
ATOM     12  C   UNL     1      10.627  35.395 -13.761  1.00  0.00     0.066 C 
BRANCH  12  13
ATOM     13  C   UNL     1      11.704  34.454 -14.291  1.00  0.00     0.140 C 
ATOM     14  O   UNL     1      11.930  34.439 -15.493  1.00  0.00    -0.299 OA
BRANCH  13  15
ATOM     15  C   UNL     1      12.547  33.600 -13.371  1.00  0.00     0.106 CG0
ATOM     16  G   UNL     1      12.170  32.128 -13.446  1.00  0.00     0.000 G0
ENDBRANCH  13  15
ENDBRANCH  12  13
BRANCH  12  17
ATOM     17  C   UNL     1      10.758  36.824 -14.380  1.00  0.00    -0.006 C 
ATOM     18  C   UNL     1       9.663  37.763 -13.840  1.00  0.00     0.008 C 
ATOM     19  C   UNL     1      12.132  37.459 -14.102  1.00  0.00     0.008 C 
ENDBRANCH  12  17
ENDBRANCH  11  12
ENDBRANCH   1  11
TORSDOF 1
ENDMDL
MODEL 6
REMARK VINA RESULT:    -3.373      2.042      5.480
REMARK INTER + INTRA:          -5.214
REMARK INTER:                  -5.151
REMARK INTRA:                  -0.063
REMARK UNBOUND:                -0.066
REMARK SMILES CC1=CCC[C@H](C)C(=O)C[C@@H](C(C)C)C(=O)C1
REMARK SMILES IDX 8 1 9 2 6 3 7 4 5 5 4 6 3 7 2 8 1 9 10 11 11 12 15 13 16 14
REMARK SMILES IDX 17 15 12 17 13 18 14 19
REMARK H PARENT
REMARK Flexibility Score: 70.00
ROOT
ATOM      1  C   UNL     1      -1.491  31.451 -24.625  1.00  0.00     0.136 C 
ATOM      2  O   UNL     1      -2.534  31.112 -25.169  1.00  0.00    -0.299 OA
ENDROOT
BRANCH   1   3
ATOM      3  C   UNL     1      -1.091  30.814 -23.310  1.00  0.00     0.053 C 
ATOM      4  C   UNL     1      -2.286  30.085 -22.679  1.00  0.00     0.016 C 
BRANCH   3   5
ATOM      5  C   UNL     1       0.097  29.848 -23.523  1.00  0.00     0.015 C 
BRANCH   5   6
ATOM      6  C   UNL     1       1.437  30.466 -23.077  1.00  0.00     0.028 C 
BRANCH   6   7
ATOM      7  C   UNL     1       2.552  30.103 -24.023  1.00  0.00    -0.028 C 
ATOM      8  C   UNL     1       2.898  30.806 -25.125  1.00  0.00    -0.070 CG0
ATOM      9  C   UNL     1       4.003  30.260 -25.994  1.00  0.00     0.039 C 
ATOM     10  G   UNL     1       2.222  32.106 -25.535  1.00  0.00     0.000 G0
ENDBRANCH   6   7
ENDBRANCH   5   6
ENDBRANCH   3   5
ENDBRANCH   1   3
BRANCH   1  11
ATOM     11  C   UNL     1      -0.626  32.503 -25.281  1.00  0.00     0.087 C 
BRANCH  11  12
ATOM     12  C   UNL     1      -0.161  32.088 -26.701  1.00  0.00     0.066 C 
BRANCH  12  13
ATOM     13  C   UNL     1       1.359  31.981 -26.766  1.00  0.00     0.140 C 
ATOM     14  O   UNL     1       1.892  31.843 -27.858  1.00  0.00    -0.299 OA
BRANCH  13  15
ATOM     15  C   UNL     1       2.225  32.115 -25.534  1.00  0.00     0.106 CG0
ATOM     16  G   UNL     1       2.879  30.798 -25.144  1.00  0.00     0.000 G0
ENDBRANCH  13  15
ENDBRANCH  12  13
BRANCH  12  17
ATOM     17  C   UNL     1      -0.719  33.021 -27.824  1.00  0.00    -0.006 C 
ATOM     18  C   UNL     1      -2.130  32.582 -28.257  1.00  0.00     0.008 C 
ATOM     19  C   UNL     1      -0.774  34.496 -27.388  1.00  0.00     0.008 C 
ENDBRANCH  12  17
ENDBRANCH  11  12
ENDBRANCH   1  11
TORSDOF 1
ENDMDL
MODEL 7
REMARK VINA RESULT:    -3.368     15.066     16.514
REMARK INTER + INTRA:          -5.206
REMARK INTER:                  -4.905
REMARK INTRA:                  -0.301
REMARK UNBOUND:                -0.066
REMARK SMILES CC1=CCC[C@H](C)C(=O)C[C@@H](C(C)C)C(=O)C1
REMARK SMILES IDX 8 1 9 2 6 3 7 4 5 5 4 6 3 7 2 8 1 9 10 11 11 12 15 13 16 14
REMARK SMILES IDX 17 15 12 17 13 18 14 19
REMARK H PARENT
REMARK Flexibility Score: 70.00
ROOT
ATOM      1  C   UNL     1       9.645  35.084 -12.397  1.00  0.00     0.136 C 
ATOM      2  O   UNL     1       8.844  35.431 -11.539  1.00  0.00    -0.299 OA
ENDROOT
BRANCH   1   3
ATOM      3  C   UNL     1      10.582  36.109 -13.005  1.00  0.00     0.053 C 
ATOM      4  C   UNL     1      11.890  36.185 -12.204  1.00  0.00     0.016 C 
BRANCH   3   5
ATOM      5  C   UNL     1      10.860  35.767 -14.486  1.00  0.00     0.015 C 
BRANCH   5   6
ATOM      6  C   UNL     1      12.343  35.427 -14.736  1.00  0.00     0.028 C 
BRANCH   6   7
ATOM      7  C   UNL     1      12.490  34.300 -15.725  1.00  0.00    -0.028 C 
ATOM      8  C   UNL     1      12.748  33.011 -15.404  1.00  0.00    -0.070 CG0
ATOM      9  C   UNL     1      12.925  32.024 -16.530  1.00  0.00     0.039 C 
ATOM     10  G   UNL     1      12.878  32.515 -13.972  1.00  0.00     0.000 G0
ENDBRANCH   6   7
ENDBRANCH   5   6
ENDBRANCH   3   5
ENDBRANCH   1   3
BRANCH   1  11
ATOM     11  C   UNL     1       9.678  33.638 -12.832  1.00  0.00     0.087 C 
BRANCH  11  12
ATOM     12  C   UNL     1      10.896  32.872 -12.253  1.00  0.00     0.066 C 
BRANCH  12  13
ATOM     13  C   UNL     1      11.592  32.058 -13.340  1.00  0.00     0.140 C 
ATOM     14  O   UNL     1      11.040  31.051 -13.762  1.00  0.00    -0.299 OA
BRANCH  13  15
ATOM     15  C   UNL     1      12.900  32.497 -13.958  1.00  0.00     0.106 CG0
ATOM     16  G   UNL     1      12.723  32.997 -15.383  1.00  0.00     0.000 G0
ENDBRANCH  13  15
ENDBRANCH  12  13
BRANCH  12  17
ATOM     17  C   UNL     1      10.532  31.986 -11.018  1.00  0.00    -0.006 C 
ATOM     18  C   UNL     1      11.115  32.579  -9.722  1.00  0.00     0.008 C 
ATOM     19  C   UNL     1       9.012  31.820 -10.843  1.00  0.00     0.008 C 
ENDBRANCH  12  17
ENDBRANCH  11  12
ENDBRANCH   1  11
TORSDOF 1
ENDMDL
MODEL 8
REMARK VINA RESULT:    -3.165     15.396     16.845
REMARK INTER + INTRA:          -4.897
REMARK INTER:                  -5.756
REMARK INTRA:                   0.859
REMARK UNBOUND:                -0.066
REMARK SMILES CC1=CCC[C@H](C)C(=O)C[C@@H](C(C)C)C(=O)C1
REMARK SMILES IDX 8 1 9 2 6 3 7 4 5 5 4 6 3 7 2 8 1 9 10 11 11 12 15 13 16 14
REMARK SMILES IDX 17 15 12 17 13 18 14 19
REMARK H PARENT
REMARK Flexibility Score: 70.00
ROOT
ATOM      1  C   UNL     1      11.859  37.426 -13.120  1.00  0.00     0.136 C 
ATOM      2  O   UNL     1      12.283  37.703 -12.006  1.00  0.00    -0.299 OA
ENDROOT
BRANCH   1   3
ATOM      3  C   UNL     1      10.445  37.815 -13.502  1.00  0.00     0.053 C 
ATOM      4  C   UNL     1      10.424  39.210 -14.144  1.00  0.00     0.016 C 
BRANCH   3   5
ATOM      5  C   UNL     1       9.838  36.759 -14.454  1.00  0.00     0.015 C 
BRANCH   5   6
ATOM      6  C   UNL     1       8.754  35.908 -13.763  1.00  0.00     0.028 C 
BRANCH   6   7
ATOM      7  C   UNL     1       9.110  35.624 -12.326  1.00  0.00    -0.028 C 
ATOM      8  C   UNL     1       9.976  34.670 -11.912  1.00  0.00    -0.070 CG0
ATOM      9  C   UNL     1      10.165  34.484 -10.428  1.00  0.00     0.039 C 
ATOM     10  G   UNL     1      10.751  33.774 -12.865  1.00  0.00     0.000 G0
ENDBRANCH   6   7
ENDBRANCH   5   6
ENDBRANCH   3   5
ENDBRANCH   1   3
BRANCH   1  11
ATOM     11  C   UNL     1      12.760  36.699 -14.091  1.00  0.00     0.087 C 
BRANCH  11  12
ATOM     12  C   UNL     1      12.196  35.314 -14.500  1.00  0.00     0.066 C 
BRANCH  12  13
ATOM     13  C   UNL     1      12.081  34.394 -13.289  1.00  0.00     0.140 C 
ATOM     14  O   UNL     1      13.075  34.202 -12.602  1.00  0.00    -0.299 OA
BRANCH  13  15
ATOM     15  C   UNL     1      10.766  33.775 -12.873  1.00  0.00     0.106 CG0
ATOM     16  G   UNL     1       9.978  34.675 -11.934  1.00  0.00     0.000 G0
ENDBRANCH  13  15
ENDBRANCH  12  13
BRANCH  12  17
ATOM     17  C   UNL     1      13.005  34.641 -15.656  1.00  0.00    -0.006 C 
ATOM     18  C   UNL     1      12.482  33.221 -15.944  1.00  0.00     0.008 C 
ATOM     19  C   UNL     1      12.956  35.458 -16.960  1.00  0.00     0.008 C 
ENDBRANCH  12  17
ENDBRANCH  11  12
ENDBRANCH   1  11
TORSDOF 1
ENDMDL
MODEL 9
REMARK VINA RESULT:    -3.160     15.640     17.088
REMARK INTER + INTRA:          -4.889
REMARK INTER:                  -5.157
REMARK INTRA:                   0.269
REMARK UNBOUND:                -0.066
REMARK SMILES CC1=CCC[C@H](C)C(=O)C[C@@H](C(C)C)C(=O)C1
REMARK SMILES IDX 8 1 9 2 6 3 7 4 5 5 4 6 3 7 2 8 1 9 10 11 11 12 15 13 16 14
REMARK SMILES IDX 17 15 12 17 13 18 14 19
REMARK H PARENT
REMARK Flexibility Score: 70.00
ROOT
ATOM      1  C   UNL     1       9.564  30.505  -9.423  1.00  0.00     0.136 C 
ATOM      2  O   UNL     1      10.346  29.564  -9.369  1.00  0.00    -0.299 OA
ENDROOT
BRANCH   1   3
ATOM      3  C   UNL     1       8.083  30.260  -9.216  1.00  0.00     0.053 C 
ATOM      4  C   UNL     1       7.300  31.578  -9.317  1.00  0.00     0.016 C 
BRANCH   3   5
ATOM      5  C   UNL     1       7.562  29.228 -10.243  1.00  0.00     0.015 C 
BRANCH   5   6
ATOM      6  C   UNL     1       7.770  29.698 -11.696  1.00  0.00     0.028 C 
BRANCH   6   7
ATOM      7  C   UNL     1       8.852  28.904 -12.382  1.00  0.00    -0.028 C 
ATOM      8  C   UNL     1       9.844  29.429 -13.138  1.00  0.00    -0.070 CG0
ATOM      9  C   UNL     1      10.806  28.476 -13.801  1.00  0.00     0.039 C 
ATOM     10  G   UNL     1      10.025  30.923 -13.360  1.00  0.00     0.000 G0
ENDBRANCH   6   7
ENDBRANCH   5   6
ENDBRANCH   3   5
ENDBRANCH   1   3
BRANCH   1  11
ATOM     11  C   UNL     1      10.098  31.891  -9.699  1.00  0.00     0.087 C 
BRANCH  11  12
ATOM     12  C   UNL     1       9.792  32.368 -11.142  1.00  0.00     0.066 C 
BRANCH  12  13
ATOM     13  C   UNL     1      10.648  31.616 -12.156  1.00  0.00     0.140 C 
ATOM     14  O   UNL     1      11.849  31.513 -11.949  1.00  0.00    -0.299 OA
BRANCH  13  15
ATOM     15  C   UNL     1      10.046  30.933 -13.364  1.00  0.00     0.106 CG0
ATOM     16  G   UNL     1       9.839  29.443 -13.140  1.00  0.00     0.000 G0
ENDBRANCH  13  15
ENDBRANCH  12  13
BRANCH  12  17
ATOM     17  C   UNL     1       9.926  33.916 -11.316  1.00  0.00    -0.006 C 
ATOM     18  C   UNL     1       9.758  34.323 -12.792  1.00  0.00     0.008 C 
ATOM     19  C   UNL     1       8.901  34.692 -10.470  1.00  0.00     0.008 C 
ENDBRANCH  12  17
ENDBRANCH  11  12
ENDBRANCH   1  11
TORSDOF 1
ENDMDL
