MODEL 1
REMARK VINA RESULT:    -4.429      0.000      0.000
REMARK INTER + INTRA:          -9.049
REMARK INTER:                  -7.536
REMARK INTRA:                  -1.513
REMARK UNBOUND:                -1.513
REMARK SMILES CCCCCCCCCCCCCC(=O)[O-]
REMARK SMILES IDX 8 1 9 2 10 3 11 4 12 5 13 6 14 7 15 8 16 9 7 10 6 11 5 12
REMARK SMILES IDX 4 13 3 14 2 15 1 16
REMARK H PARENT
REMARK Flexibility Score: inf
ROOT
ATOM      1  C   UNL     1     -18.870 -33.378  20.197  1.00  0.00     0.000 C 
ENDROOT
BRANCH   1   2
ATOM      2  C   UNL     1     -18.968 -31.898  20.623  1.00  0.00     0.000 C 
BRANCH   2   3
ATOM      3  C   UNL     1     -20.143 -31.117  20.012  1.00  0.00     0.000 C 
BRANCH   3   4
ATOM      4  C   UNL     1     -19.716 -30.193  18.862  1.00  0.00     0.000 C 
BRANCH   4   5
ATOM      5  C   UNL     1     -18.189 -30.134  18.742  1.00  0.00     0.006 C 
BRANCH   5   6
ATOM      6  C   UNL     1     -17.750 -28.945  17.882  1.00  0.00     0.053 C 
BRANCH   6   7
ATOM      7  C   UNL     1     -17.435 -27.763  18.743  1.00  0.00     0.041 C 
ATOM      8  O   UNL     1     -16.238 -27.440  18.963  1.00  0.00    -0.550 OA
ATOM      9  O   UNL     1     -18.464 -26.988  19.263  1.00  0.00    -0.550 OA
ENDBRANCH   6   7
ENDBRANCH   5   6
ENDBRANCH   4   5
ENDBRANCH   3   4
ENDBRANCH   2   3
ENDBRANCH   1   2
BRANCH   1  10
ATOM     10  C   UNL     1     -17.549 -33.775  19.514  1.00  0.00     0.000 C 
BRANCH  10  11
ATOM     11  C   UNL     1     -17.603 -33.804  17.973  1.00  0.00    -0.000 C 
BRANCH  11  12
ATOM     12  C   UNL     1     -19.038 -33.781  17.404  1.00  0.00    -0.000 C 
BRANCH  12  13
ATOM     13  C   UNL     1     -19.206 -32.739  16.284  1.00  0.00    -0.000 C 
BRANCH  13  14
ATOM     14  C   UNL     1     -17.973 -32.638  15.368  1.00  0.00    -0.000 C 
BRANCH  14  15
ATOM     15  C   UNL     1     -18.139 -33.292  13.985  1.00  0.00    -0.003 C 
ATOM     16  C   UNL     1     -17.408 -32.538  12.875  1.00  0.00     0.004 C 
ENDBRANCH  14  15
ENDBRANCH  13  14
ENDBRANCH  12  13
ENDBRANCH  11  12
ENDBRANCH  10  11
ENDBRANCH   1  10
TORSDOF 12
ENDMDL
MODEL 2
REMARK VINA RESULT:    -4.323      1.161      1.764
REMARK INTER + INTRA:          -8.868
REMARK INTER:                  -7.005
REMARK INTRA:                  -1.864
REMARK UNBOUND:                -1.513
REMARK SMILES CCCCCCCCCCCCCC(=O)[O-]
REMARK SMILES IDX 8 1 9 2 10 3 11 4 12 5 13 6 14 7 15 8 16 9 7 10 6 11 5 12
REMARK SMILES IDX 4 13 3 14 2 15 1 16
REMARK H PARENT
REMARK Flexibility Score: inf
ROOT
ATOM      1  C   UNL     1     -18.444 -33.126  20.940  1.00  0.00     0.000 C 
ENDROOT
BRANCH   1   2
ATOM      2  C   UNL     1     -18.719 -31.625  20.709  1.00  0.00     0.000 C 
BRANCH   2   3
ATOM      3  C   UNL     1     -20.057 -31.303  20.021  1.00  0.00     0.000 C 
BRANCH   3   4
ATOM      4  C   UNL     1     -19.960 -30.123  19.044  1.00  0.00     0.000 C 
BRANCH   4   5
ATOM      5  C   UNL     1     -18.559 -29.502  19.070  1.00  0.00     0.006 C 
BRANCH   5   6
ATOM      6  C   UNL     1     -17.936 -29.489  17.670  1.00  0.00     0.053 C 
BRANCH   6   7
ATOM      7  C   UNL     1     -16.652 -28.721  17.674  1.00  0.00     0.041 C 
ATOM      8  O   UNL     1     -16.664 -27.465  17.588  1.00  0.00    -0.550 OA
ATOM      9  O   UNL     1     -15.444 -29.389  17.824  1.00  0.00    -0.550 OA
ENDBRANCH   6   7
ENDBRANCH   5   6
ENDBRANCH   4   5
ENDBRANCH   3   4
ENDBRANCH   2   3
ENDBRANCH   1   2
BRANCH   1  10
ATOM     10  C   UNL     1     -17.368 -33.741  20.026  1.00  0.00     0.000 C 
BRANCH  10  11
ATOM     11  C   UNL     1     -16.601 -32.724  19.158  1.00  0.00    -0.000 C 
BRANCH  11  12
ATOM     12  C   UNL     1     -16.778 -32.946  17.641  1.00  0.00    -0.000 C 
BRANCH  12  13
ATOM     13  C   UNL     1     -17.980 -33.851  17.318  1.00  0.00    -0.000 C 
BRANCH  13  14
ATOM     14  C   UNL     1     -19.208 -33.064  16.827  1.00  0.00    -0.000 C 
BRANCH  14  15
ATOM     15  C   UNL     1     -19.692 -33.434  15.414  1.00  0.00    -0.003 C 
ATOM     16  C   UNL     1     -18.619 -33.236  14.343  1.00  0.00     0.004 C 
ENDBRANCH  14  15
ENDBRANCH  13  14
ENDBRANCH  12  13
ENDBRANCH  11  12
ENDBRANCH  10  11
ENDBRANCH   1  10
TORSDOF 12
ENDMDL
MODEL 3
REMARK VINA RESULT:    -4.283      2.543      4.135
REMARK INTER + INTRA:          -8.801
REMARK INTER:                  -6.785
REMARK INTRA:                  -2.016
REMARK UNBOUND:                -1.513
REMARK SMILES CCCCCCCCCCCCCC(=O)[O-]
REMARK SMILES IDX 8 1 9 2 10 3 11 4 12 5 13 6 14 7 15 8 16 9 7 10 6 11 5 12
REMARK SMILES IDX 4 13 3 14 2 15 1 16
REMARK H PARENT
REMARK Flexibility Score: inf
ROOT
ATOM      1  C   UNL     1     -14.418 -32.963  20.374  1.00  0.00     0.000 C 
ENDROOT
BRANCH   1   2
ATOM      2  C   UNL     1     -14.491 -32.067  19.120  1.00  0.00     0.000 C 
BRANCH   2   3
ATOM      3  C   UNL     1     -15.739 -32.269  18.243  1.00  0.00     0.000 C 
BRANCH   3   4
ATOM      4  C   UNL     1     -16.541 -30.976  18.035  1.00  0.00     0.000 C 
BRANCH   4   5
ATOM      5  C   UNL     1     -16.408 -30.046  19.247  1.00  0.00     0.006 C 
BRANCH   5   6
ATOM      6  C   UNL     1     -16.015 -28.631  18.813  1.00  0.00     0.053 C 
BRANCH   6   7
ATOM      7  C   UNL     1     -17.214 -27.877  18.332  1.00  0.00     0.041 C 
ATOM      8  O   UNL     1     -17.996 -27.336  19.157  1.00  0.00    -0.550 OA
ATOM      9  O   UNL     1     -17.442 -27.730  16.969  1.00  0.00    -0.550 OA
ENDBRANCH   6   7
ENDBRANCH   5   6
ENDBRANCH   4   5
ENDBRANCH   3   4
ENDBRANCH   2   3
ENDBRANCH   1   2
BRANCH   1  10
ATOM     10  C   UNL     1     -15.767 -33.531  20.851  1.00  0.00     0.000 C 
BRANCH  10  11
ATOM     11  C   UNL     1     -16.510 -32.651  21.875  1.00  0.00    -0.000 C 
BRANCH  11  12
ATOM     12  C   UNL     1     -18.044 -32.661  21.701  1.00  0.00    -0.000 C 
BRANCH  12  13
ATOM     13  C   UNL     1     -18.484 -33.383  20.415  1.00  0.00    -0.000 C 
BRANCH  13  14
ATOM     14  C   UNL     1     -19.662 -32.688  19.710  1.00  0.00    -0.000 C 
BRANCH  14  15
ATOM     15  C   UNL     1     -19.922 -31.239  20.160  1.00  0.00    -0.003 C 
ATOM     16  C   UNL     1     -20.063 -30.266  18.989  1.00  0.00     0.004 C 
ENDBRANCH  14  15
ENDBRANCH  13  14
ENDBRANCH  12  13
ENDBRANCH  11  12
ENDBRANCH  10  11
ENDBRANCH   1  10
TORSDOF 12
ENDMDL
MODEL 4
REMARK VINA RESULT:    -4.257      1.392      3.185
REMARK INTER + INTRA:          -8.757
REMARK INTER:                  -7.117
REMARK INTRA:                  -1.640
REMARK UNBOUND:                -1.513
REMARK SMILES CCCCCCCCCCCCCC(=O)[O-]
REMARK SMILES IDX 8 1 9 2 10 3 11 4 12 5 13 6 14 7 15 8 16 9 7 10 6 11 5 12
REMARK SMILES IDX 4 13 3 14 2 15 1 16
REMARK H PARENT
REMARK Flexibility Score: inf
ROOT
ATOM      1  C   UNL     1     -19.281 -33.961  17.017  1.00  0.00     0.000 C 
ENDROOT
BRANCH   1   2
ATOM      2  C   UNL     1     -17.970 -33.770  17.808  1.00  0.00     0.000 C 
BRANCH   2   3
ATOM      3  C   UNL     1     -18.145 -33.297  19.261  1.00  0.00     0.000 C 
BRANCH   3   4
ATOM      4  C   UNL     1     -19.600 -32.952  19.609  1.00  0.00     0.000 C 
BRANCH   4   5
ATOM      5  C   UNL     1     -19.730 -31.488  20.042  1.00  0.00     0.006 C 
BRANCH   5   6
ATOM      6  C   UNL     1     -19.496 -30.541  18.860  1.00  0.00     0.053 C 
BRANCH   6   7
ATOM      7  C   UNL     1     -18.356 -29.616  19.148  1.00  0.00     0.041 C 
ATOM      8  O   UNL     1     -18.247 -28.530  18.520  1.00  0.00    -0.550 OA
ATOM      9  O   UNL     1     -17.441 -29.929  20.145  1.00  0.00    -0.550 OA
ENDBRANCH   6   7
ENDBRANCH   5   6
ENDBRANCH   4   5
ENDBRANCH   3   4
ENDBRANCH   2   3
ENDBRANCH   1   2
BRANCH   1  10
ATOM     10  C   UNL     1     -19.453 -33.028  15.804  1.00  0.00     0.000 C 
BRANCH  10  11
ATOM     11  C   UNL     1     -19.256 -33.709  14.435  1.00  0.00    -0.000 C 
BRANCH  11  12
ATOM     12  C   UNL     1     -17.788 -33.726  13.957  1.00  0.00    -0.000 C 
BRANCH  12  13
ATOM     13  C   UNL     1     -17.435 -32.495  13.104  1.00  0.00    -0.000 C 
BRANCH  13  14
ATOM     14  C   UNL     1     -16.307 -31.645  13.716  1.00  0.00    -0.000 C 
BRANCH  14  15
ATOM     15  C   UNL     1     -15.951 -31.993  15.172  1.00  0.00    -0.003 C 
ATOM     16  C   UNL     1     -16.350 -30.900  16.163  1.00  0.00     0.004 C 
ENDBRANCH  14  15
ENDBRANCH  13  14
ENDBRANCH  12  13
ENDBRANCH  11  12
ENDBRANCH  10  11
ENDBRANCH   1  10
TORSDOF 12
ENDMDL
MODEL 5
REMARK VINA RESULT:    -4.209      1.559      2.891
REMARK INTER + INTRA:          -8.675
REMARK INTER:                  -7.080
REMARK INTRA:                  -1.595
REMARK UNBOUND:                -1.513
REMARK SMILES CCCCCCCCCCCCCC(=O)[O-]
REMARK SMILES IDX 8 1 9 2 10 3 11 4 12 5 13 6 14 7 15 8 16 9 7 10 6 11 5 12
REMARK SMILES IDX 4 13 3 14 2 15 1 16
REMARK H PARENT
REMARK Flexibility Score: inf
ROOT
ATOM      1  C   UNL     1     -20.357 -31.051  19.997  1.00  0.00     0.000 C 
ENDROOT
BRANCH   1   2
ATOM      2  C   UNL     1     -20.148 -30.055  18.837  1.00  0.00     0.000 C 
BRANCH   2   3
ATOM      3  C   UNL     1     -18.723 -30.009  18.261  1.00  0.00     0.000 C 
BRANCH   3   4
ATOM      4  C   UNL     1     -18.050 -28.640  18.435  1.00  0.00     0.000 C 
BRANCH   4   5
ATOM      5  C   UNL     1     -17.046 -28.374  17.307  1.00  0.00     0.006 C 
BRANCH   5   6
ATOM      6  C   UNL     1     -16.335 -29.664  16.887  1.00  0.00     0.053 C 
BRANCH   6   7
ATOM      7  C   UNL     1     -15.104 -29.876  17.711  1.00  0.00     0.041 C 
ATOM      8  O   UNL     1     -14.717 -31.043  17.984  1.00  0.00    -0.550 OA
ATOM      9  O   UNL     1     -14.354 -28.786  18.134  1.00  0.00    -0.550 OA
ENDBRANCH   6   7
ENDBRANCH   5   6
ENDBRANCH   4   5
ENDBRANCH   3   4
ENDBRANCH   2   3
ENDBRANCH   1   2
BRANCH   1  10
ATOM     10  C   UNL     1     -19.072 -31.717  20.525  1.00  0.00     0.000 C 
BRANCH  10  11
ATOM     11  C   UNL     1     -19.012 -33.245  20.332  1.00  0.00    -0.000 C 
BRANCH  11  12
ATOM     12  C   UNL     1     -17.729 -33.729  19.624  1.00  0.00    -0.000 C 
BRANCH  12  13
ATOM     13  C   UNL     1     -17.748 -33.437  18.113  1.00  0.00    -0.000 C 
BRANCH  13  14
ATOM     14  C   UNL     1     -19.098 -33.775  17.454  1.00  0.00    -0.000 C 
BRANCH  14  15
ATOM     15  C   UNL     1     -19.401 -32.994  16.163  1.00  0.00    -0.003 C 
ATOM     16  C   UNL     1     -18.166 -32.781  15.288  1.00  0.00     0.004 C 
ENDBRANCH  14  15
ENDBRANCH  13  14
ENDBRANCH  12  13
ENDBRANCH  11  12
ENDBRANCH  10  11
ENDBRANCH   1  10
TORSDOF 12
ENDMDL
MODEL 6
REMARK VINA RESULT:    -4.202      1.474      2.602
REMARK INTER + INTRA:          -8.663
REMARK INTER:                  -6.746
REMARK INTRA:                  -1.917
REMARK UNBOUND:                -1.513
REMARK SMILES CCCCCCCCCCCCCC(=O)[O-]
REMARK SMILES IDX 8 1 9 2 10 3 11 4 12 5 13 6 14 7 15 8 16 9 7 10 6 11 5 12
REMARK SMILES IDX 4 13 3 14 2 15 1 16
REMARK H PARENT
REMARK Flexibility Score: inf
ROOT
ATOM      1  C   UNL     1     -18.893 -33.438  20.385  1.00  0.00     0.000 C 
ENDROOT
BRANCH   1   2
ATOM      2  C   UNL     1     -19.858 -32.544  19.580  1.00  0.00     0.000 C 
BRANCH   2   3
ATOM      3  C   UNL     1     -19.960 -31.087  20.065  1.00  0.00     0.000 C 
BRANCH   3   4
ATOM      4  C   UNL     1     -19.999 -30.073  18.913  1.00  0.00     0.000 C 
BRANCH   4   5
ATOM      5  C   UNL     1     -18.586 -29.762  18.407  1.00  0.00     0.006 C 
BRANCH   5   6
ATOM      6  C   UNL     1     -17.658 -29.379  19.565  1.00  0.00     0.053 C 
BRANCH   6   7
ATOM      7  C   UNL     1     -17.371 -27.910  19.542  1.00  0.00     0.041 C 
ATOM      8  O   UNL     1     -16.238 -27.481  19.882  1.00  0.00    -0.550 OA
ATOM      9  O   UNL     1     -18.341 -27.020  19.099  1.00  0.00    -0.550 OA
ENDBRANCH   6   7
ENDBRANCH   5   6
ENDBRANCH   4   5
ENDBRANCH   3   4
ENDBRANCH   2   3
ENDBRANCH   1   2
BRANCH   1  10
ATOM     10  C   UNL     1     -17.953 -32.686  21.346  1.00  0.00     0.000 C 
BRANCH  10  11
ATOM     11  C   UNL     1     -16.553 -33.313  21.500  1.00  0.00    -0.000 C 
BRANCH  11  12
ATOM     12  C   UNL     1     -15.469 -32.621  20.646  1.00  0.00    -0.000 C 
BRANCH  12  13
ATOM     13  C   UNL     1     -15.332 -33.252  19.250  1.00  0.00    -0.000 C 
BRANCH  13  14
ATOM     14  C   UNL     1     -15.921 -32.371  18.133  1.00  0.00    -0.000 C 
BRANCH  14  15
ATOM     15  C   UNL     1     -16.999 -33.052  17.272  1.00  0.00    -0.003 C 
ATOM     16  C   UNL     1     -17.289 -32.302  15.972  1.00  0.00     0.004 C 
ENDBRANCH  14  15
ENDBRANCH  13  14
ENDBRANCH  12  13
ENDBRANCH  11  12
ENDBRANCH  10  11
ENDBRANCH   1  10
TORSDOF 12
ENDMDL
MODEL 7
REMARK VINA RESULT:    -4.194      2.690      5.333
REMARK INTER + INTRA:          -8.649
REMARK INTER:                  -7.004
REMARK INTRA:                  -1.645
REMARK UNBOUND:                -1.513
REMARK SMILES CCCCCCCCCCCCCC(=O)[O-]
REMARK SMILES IDX 8 1 9 2 10 3 11 4 12 5 13 6 14 7 15 8 16 9 7 10 6 11 5 12
REMARK SMILES IDX 4 13 3 14 2 15 1 16
REMARK H PARENT
REMARK Flexibility Score: inf
ROOT
ATOM      1  C   UNL     1     -18.744 -31.240  20.683  1.00  0.00     0.000 C 
ENDROOT
BRANCH   1   2
ATOM      2  C   UNL     1     -18.481 -32.657  21.236  1.00  0.00     0.000 C 
BRANCH   2   3
ATOM      3  C   UNL     1     -18.150 -33.722  20.177  1.00  0.00     0.000 C 
BRANCH   3   4
ATOM      4  C   UNL     1     -16.858 -33.419  19.404  1.00  0.00     0.000 C 
BRANCH   4   5
ATOM      5  C   UNL     1     -17.020 -33.742  17.915  1.00  0.00     0.006 C 
BRANCH   5   6
ATOM      6  C   UNL     1     -18.500 -33.796  17.521  1.00  0.00     0.053 C 
BRANCH   6   7
ATOM      7  C   UNL     1     -18.711 -33.148  16.189  1.00  0.00     0.041 C 
ATOM      8  O   UNL     1     -19.872 -32.840  15.811  1.00  0.00    -0.550 OA
ATOM      9  O   UNL     1     -17.621 -32.839  15.385  1.00  0.00    -0.550 OA
ENDBRANCH   6   7
ENDBRANCH   5   6
ENDBRANCH   4   5
ENDBRANCH   3   4
ENDBRANCH   2   3
ENDBRANCH   1   2
BRANCH   1  10
ATOM     10  C   UNL     1     -19.982 -31.112  19.778  1.00  0.00     0.000 C 
BRANCH  10  11
ATOM     11  C   UNL     1     -19.757 -30.298  18.489  1.00  0.00    -0.000 C 
BRANCH  11  12
ATOM     12  C   UNL     1     -18.267 -30.063  18.158  1.00  0.00    -0.000 C 
BRANCH  12  13
ATOM     13  C   UNL     1     -17.946 -28.576  17.927  1.00  0.00    -0.000 C 
BRANCH  13  14
ATOM     14  C   UNL     1     -17.933 -27.756  19.230  1.00  0.00    -0.000 C 
BRANCH  14  15
ATOM     15  C   UNL     1     -16.585 -27.095  19.565  1.00  0.00    -0.003 C 
ATOM     16  C   UNL     1     -15.392 -27.820  18.942  1.00  0.00     0.004 C 
ENDBRANCH  14  15
ENDBRANCH  13  14
ENDBRANCH  12  13
ENDBRANCH  11  12
ENDBRANCH  10  11
ENDBRANCH   1  10
TORSDOF 12
ENDMDL
MODEL 8
REMARK VINA RESULT:    -4.120      1.438      2.167
REMARK INTER + INTRA:          -8.523
REMARK INTER:                  -6.330
REMARK INTRA:                  -2.193
REMARK UNBOUND:                -1.513
REMARK SMILES CCCCCCCCCCCCCC(=O)[O-]
REMARK SMILES IDX 8 1 9 2 10 3 11 4 12 5 13 6 14 7 15 8 16 9 7 10 6 11 5 12
REMARK SMILES IDX 4 13 3 14 2 15 1 16
REMARK H PARENT
REMARK Flexibility Score: inf
ROOT
ATOM      1  C   UNL     1     -17.237 -33.767  20.002  1.00  0.00     0.000 C 
ENDROOT
BRANCH   1   2
ATOM      2  C   UNL     1     -16.302 -32.690  20.591  1.00  0.00     0.000 C 
BRANCH   2   3
ATOM      3  C   UNL     1     -17.001 -31.404  21.064  1.00  0.00     0.000 C 
BRANCH   3   4
ATOM      4  C   UNL     1     -16.912 -30.262  20.040  1.00  0.00     0.000 C 
BRANCH   4   5
ATOM      5  C   UNL     1     -18.290 -29.946  19.448  1.00  0.00     0.006 C 
BRANCH   5   6
ATOM      6  C   UNL     1     -18.161 -29.327  18.053  1.00  0.00     0.053 C 
BRANCH   6   7
ATOM      7  C   UNL     1     -17.698 -27.907  18.150  1.00  0.00     0.041 C 
ATOM      8  O   UNL     1     -16.836 -27.465  17.347  1.00  0.00    -0.550 OA
ATOM      9  O   UNL     1     -18.256 -27.058  19.098  1.00  0.00    -0.550 OA
ENDBRANCH   6   7
ENDBRANCH   5   6
ENDBRANCH   4   5
ENDBRANCH   3   4
ENDBRANCH   2   3
ENDBRANCH   1   2
BRANCH   1  10
ATOM     10  C   UNL     1     -18.737 -33.549  20.273  1.00  0.00     0.000 C 
BRANCH  10  11
ATOM     11  C   UNL     1     -19.606 -33.405  19.008  1.00  0.00    -0.000 C 
BRANCH  11  12
ATOM     12  C   UNL     1     -18.868 -33.779  17.704  1.00  0.00    -0.000 C 
BRANCH  12  13
ATOM     13  C   UNL     1     -19.074 -32.733  16.594  1.00  0.00    -0.000 C 
BRANCH  13  14
ATOM     14  C   UNL     1     -17.749 -32.223  15.998  1.00  0.00    -0.000 C 
BRANCH  14  15
ATOM     15  C   UNL     1     -16.481 -32.814  16.639  1.00  0.00    -0.003 C 
ATOM     16  C   UNL     1     -15.459 -31.749  17.035  1.00  0.00     0.004 C 
ENDBRANCH  14  15
ENDBRANCH  13  14
ENDBRANCH  12  13
ENDBRANCH  11  12
ENDBRANCH  10  11
ENDBRANCH   1  10
TORSDOF 12
ENDMDL
MODEL 9
REMARK VINA RESULT:    -4.103      1.746      4.244
REMARK INTER + INTRA:          -8.495
REMARK INTER:                  -6.767
REMARK INTRA:                  -1.728
REMARK UNBOUND:                -1.513
REMARK SMILES CCCCCCCCCCCCCC(=O)[O-]
REMARK SMILES IDX 8 1 9 2 10 3 11 4 12 5 13 6 14 7 15 8 16 9 7 10 6 11 5 12
REMARK SMILES IDX 4 13 3 14 2 15 1 16
REMARK H PARENT
REMARK Flexibility Score: inf
ROOT
ATOM      1  C   UNL     1     -17.874 -33.947  17.804  1.00  0.00     0.000 C 
ENDROOT
BRANCH   1   2
ATOM      2  C   UNL     1     -16.669 -33.128  17.296  1.00  0.00     0.000 C 
BRANCH   2   3
ATOM      3  C   UNL     1     -17.011 -31.731  16.749  1.00  0.00     0.000 C 
BRANCH   3   4
ATOM      4  C   UNL     1     -16.460 -30.594  17.621  1.00  0.00     0.000 C 
BRANCH   4   5
ATOM      5  C   UNL     1     -17.442 -29.418  17.675  1.00  0.00     0.006 C 
BRANCH   5   6
ATOM      6  C   UNL     1     -16.712 -28.104  17.970  1.00  0.00     0.053 C 
BRANCH   6   7
ATOM      7  C   UNL     1     -17.242 -27.479  19.222  1.00  0.00     0.041 C 
ATOM      8  O   UNL     1     -16.514 -27.395  20.245  1.00  0.00    -0.550 OA
ATOM      9  O   UNL     1     -18.524 -26.945  19.243  1.00  0.00    -0.550 OA
ENDBRANCH   6   7
ENDBRANCH   5   6
ENDBRANCH   4   5
ENDBRANCH   3   4
ENDBRANCH   2   3
ENDBRANCH   1   2
BRANCH   1  10
ATOM     10  C   UNL     1     -19.157 -33.135  18.056  1.00  0.00     0.000 C 
BRANCH  10  11
ATOM     11  C   UNL     1     -19.596 -33.065  19.532  1.00  0.00    -0.000 C 
BRANCH  11  12
ATOM     12  C   UNL     1     -19.610 -31.631  20.106  1.00  0.00    -0.000 C 
BRANCH  12  13
ATOM     13  C   UNL     1     -18.279 -31.258  20.783  1.00  0.00    -0.000 C 
BRANCH  13  14
ATOM     14  C   UNL     1     -17.833 -32.289  21.836  1.00  0.00    -0.000 C 
BRANCH  14  15
ATOM     15  C   UNL     1     -16.313 -32.517  21.914  1.00  0.00    -0.003 C 
ATOM     16  C   UNL     1     -15.807 -33.529  20.886  1.00  0.00     0.004 C 
ENDBRANCH  14  15
ENDBRANCH  13  14
ENDBRANCH  12  13
ENDBRANCH  11  12
ENDBRANCH  10  11
ENDBRANCH   1  10
TORSDOF 12
ENDMDL
