MODEL 1
REMARK VINA RESULT:    -5.511      0.000      0.000
REMARK INTER + INTRA:          -9.655
REMARK INTER:                  -8.411
REMARK INTRA:                  -1.244
REMARK UNBOUND:                -1.244
REMARK SMILES OC[C@@H]1O[C@@H](O[C@@]2(CO)O[C@H](CO)[C@H](O)[C@H]2O)[C@H](O)[C@H](O)[C@H]1O
REMARK SMILES IDX 6 1 5 2 3 3 22 4 4 5 20 6 18 7 2 8 1 9 23 11 21 13 19 15
REMARK SMILES IDX 7 17 16 18 10 19 14 20 11 21 8 22 9 23 17 25 15 27 12 29
REMARK SMILES IDX 13 30
REMARK H PARENT 1 10 23 12 21 14 19 16 9 24 17 26 15 28 13 31
REMARK Flexibility Score: inf
ROOT
ATOM      1  O   UNL     1      17.458   1.118  -9.625  1.00  0.00    -0.313 OA
ENDROOT
BRANCH   1   2
ATOM      2  C   UNL     1      16.144   0.989 -10.157  1.00  0.00     0.285 C 
ATOM      3  C   UNL     1      15.190   1.754  -8.145  1.00  0.00     0.178 C 
ATOM      4  C   UNL     1      14.560   0.384  -7.803  1.00  0.00     0.177 C 
ATOM      5  O   UNL     1      15.276   1.935  -9.551  1.00  0.00    -0.341 OA
ATOM      6  C   UNL     1      15.376  -0.744  -8.462  1.00  0.00     0.179 C 
ATOM      7  C   UNL     1      15.620  -0.452  -9.954  1.00  0.00     0.202 C 
BRANCH   3   8
ATOM      8  C   UNL     1      14.346   2.897  -7.564  1.00  0.00     0.191 C 
BRANCH   8   9
ATOM      9  O   UNL     1      14.439   2.911  -6.165  1.00  0.00    -0.394 OA
ATOM     10  H   UNL     1      13.537   2.680  -5.818  1.00  0.00     0.210 HD
ENDBRANCH   8   9
ENDBRANCH   3   8
BRANCH   4  11
ATOM     11  O   UNL     1      14.555   0.209  -6.409  1.00  0.00    -0.387 OA
ATOM     12  H   UNL     1      15.357   0.675  -6.055  1.00  0.00     0.211 HD
ENDBRANCH   4  11
BRANCH   6  13
ATOM     13  O   UNL     1      14.705  -1.972  -8.330  1.00  0.00    -0.387 OA
ATOM     14  H   UNL     1      14.571  -2.127  -7.359  1.00  0.00     0.211 HD
ENDBRANCH   6  13
BRANCH   7  15
ATOM     15  O   UNL     1      14.462  -0.683 -10.721  1.00  0.00    -0.385 OA
ATOM     16  H   UNL     1      14.557  -1.564 -11.169  1.00  0.00     0.211 HD
ENDBRANCH   7  15
ENDBRANCH   1   2
BRANCH   1  17
ATOM     17  C   UNL     1      18.423   1.642 -10.537  1.00  0.00     0.224 C 
ATOM     18  C   UNL     1      18.490   3.186 -10.469  1.00  0.00     0.208 C 
ATOM     19  O   UNL     1      18.148   1.243 -11.871  1.00  0.00    -0.337 OA
ATOM     20  C   UNL     1      17.959   3.625 -11.814  1.00  0.00     0.180 C 
ATOM     21  C   UNL     1      18.164   2.389 -12.695  1.00  0.00     0.179 C 
BRANCH  17  22
ATOM     22  C   UNL     1      19.783   1.040 -10.131  1.00  0.00     0.225 C 
BRANCH  22  23
ATOM     23  O   UNL     1      20.534   1.968  -9.393  1.00  0.00    -0.391 OA
ATOM     24  H   UNL     1      21.379   2.113  -9.892  1.00  0.00     0.210 HD
ENDBRANCH  22  23
ENDBRANCH  17  22
BRANCH  18  25
ATOM     25  O   UNL     1      17.703   3.696  -9.422  1.00  0.00    -0.385 OA
ATOM     26  H   UNL     1      18.328   3.963  -8.698  1.00  0.00     0.211 HD
ENDBRANCH  18  25
BRANCH  20  27
ATOM     27  O   UNL     1      18.645   4.753 -12.295  1.00  0.00    -0.387 OA
ATOM     28  H   UNL     1      18.435   5.498 -11.675  1.00  0.00     0.211 HD
ENDBRANCH  20  27
BRANCH  21  29
ATOM     29  C   UNL     1      19.470   2.406 -13.511  1.00  0.00     0.191 C 
BRANCH  29  30
ATOM     30  O   UNL     1      19.255   3.019 -14.751  1.00  0.00    -0.394 OA
ATOM     31  H   UNL     1      19.215   2.285 -15.418  1.00  0.00     0.210 HD
ENDBRANCH  29  30
ENDBRANCH  21  29
ENDBRANCH   1  17
TORSDOF 13
ENDMDL
MODEL 2
REMARK VINA RESULT:    -5.400      1.909      6.115
REMARK INTER + INTRA:          -9.485
REMARK INTER:                  -8.230
REMARK INTRA:                  -1.256
REMARK UNBOUND:                -1.244
REMARK SMILES OC[C@@H]1O[C@@H](O[C@@]2(CO)O[C@H](CO)[C@H](O)[C@H]2O)[C@H](O)[C@H](O)[C@H]1O
REMARK SMILES IDX 6 1 5 2 3 3 22 4 4 5 20 6 18 7 2 8 1 9 23 11 21 13 19 15
REMARK SMILES IDX 7 17 16 18 10 19 14 20 11 21 8 22 9 23 17 25 15 27 12 29
REMARK SMILES IDX 13 30
REMARK H PARENT 1 10 23 12 21 14 19 16 9 24 17 26 15 28 13 31
REMARK Flexibility Score: inf
ROOT
ATOM      1  O   UNL     1      18.494   0.968 -10.352  1.00  0.00    -0.313 OA
ENDROOT
BRANCH   1   2
ATOM      2  C   UNL     1      19.213   2.193 -10.461  1.00  0.00     0.285 C 
ATOM      3  C   UNL     1      19.376   1.958 -12.798  1.00  0.00     0.178 C 
ATOM      4  C   UNL     1      20.905   1.736 -12.772  1.00  0.00     0.177 C 
ATOM      5  O   UNL     1      18.968   2.793 -11.724  1.00  0.00    -0.341 OA
ATOM      6  C   UNL     1      21.323   1.141 -11.414  1.00  0.00     0.179 C 
ATOM      7  C   UNL     1      20.725   1.950 -10.249  1.00  0.00     0.202 C 
BRANCH   3   8
ATOM      8  C   UNL     1      18.949   2.625 -14.114  1.00  0.00     0.191 C 
BRANCH   8   9
ATOM      9  O   UNL     1      17.554   2.770 -14.158  1.00  0.00    -0.394 OA
ATOM     10  H   UNL     1      17.182   1.872 -14.359  1.00  0.00     0.210 HD
ENDBRANCH   8   9
ENDBRANCH   3   8
BRANCH   4  11
ATOM     11  O   UNL     1      21.265   0.851 -13.804  1.00  0.00    -0.387 OA
ATOM     12  H   UNL     1      20.806  -0.011 -13.620  1.00  0.00     0.211 HD
ENDBRANCH   4  11
BRANCH   6  13
ATOM     13  O   UNL     1      22.723   1.121 -11.300  1.00  0.00    -0.387 OA
ATOM     14  H   UNL     1      23.091   1.384 -12.183  1.00  0.00     0.211 HD
ENDBRANCH   6  13
BRANCH   7  15
ATOM     15  O   UNL     1      21.412   3.165 -10.059  1.00  0.00    -0.385 OA
ATOM     16  H   UNL     1      22.073   3.266 -10.793  1.00  0.00     0.211 HD
ENDBRANCH   7  15
ENDBRANCH   1   2
BRANCH   1  17
ATOM     17  C   UNL     1      17.347   1.022  -9.505  1.00  0.00     0.224 C 
ATOM     18  C   UNL     1      16.055   1.283 -10.314  1.00  0.00     0.208 C 
ATOM     19  O   UNL     1      17.484   2.021  -8.506  1.00  0.00    -0.337 OA
ATOM     20  C   UNL     1      15.626   2.661  -9.867  1.00  0.00     0.180 C 
ATOM     21  C   UNL     1      16.325   2.826  -8.514  1.00  0.00     0.179 C 
BRANCH  17  22
ATOM     22  C   UNL     1      17.258  -0.346  -8.800  1.00  0.00     0.225 C 
BRANCH  22  23
ATOM     23  O   UNL     1      18.529  -0.772  -8.384  1.00  0.00    -0.391 OA
ATOM     24  H   UNL     1      18.961   0.005  -7.943  1.00  0.00     0.210 HD
ENDBRANCH  22  23
ENDBRANCH  17  22
BRANCH  18  25
ATOM     25  O   UNL     1      16.292   1.249 -11.699  1.00  0.00    -0.385 OA
ATOM     26  H   UNL     1      15.479   0.864 -12.119  1.00  0.00     0.211 HD
ENDBRANCH  18  25
BRANCH  20  27
ATOM     27  O   UNL     1      14.228   2.760  -9.770  1.00  0.00    -0.387 OA
ATOM     28  H   UNL     1      13.872   1.838  -9.859  1.00  0.00     0.211 HD
ENDBRANCH  20  27
BRANCH  21  29
ATOM     29  C   UNL     1      15.448   2.460  -7.303  1.00  0.00     0.191 C 
BRANCH  29  30
ATOM     30  O   UNL     1      14.675   3.561  -6.916  1.00  0.00    -0.394 OA
ATOM     31  H   UNL     1      15.261   4.356  -7.012  1.00  0.00     0.210 HD
ENDBRANCH  29  30
ENDBRANCH  21  29
ENDBRANCH   1  17
TORSDOF 13
ENDMDL
MODEL 3
REMARK VINA RESULT:    -5.384      2.865      5.840
REMARK INTER + INTRA:          -9.460
REMARK INTER:                  -8.230
REMARK INTRA:                  -1.230
REMARK UNBOUND:                -1.244
REMARK SMILES OC[C@@H]1O[C@@H](O[C@@]2(CO)O[C@H](CO)[C@H](O)[C@H]2O)[C@H](O)[C@H](O)[C@H]1O
REMARK SMILES IDX 6 1 5 2 3 3 22 4 4 5 20 6 18 7 2 8 1 9 23 11 21 13 19 15
REMARK SMILES IDX 7 17 16 18 10 19 14 20 11 21 8 22 9 23 17 25 15 27 12 29
REMARK SMILES IDX 13 30
REMARK H PARENT 1 10 23 12 21 14 19 16 9 24 17 26 15 28 13 31
REMARK Flexibility Score: inf
ROOT
ATOM      1  O   UNL     1      16.145   2.984 -12.390  1.00  0.00    -0.313 OA
ENDROOT
BRANCH   1   2
ATOM      2  C   UNL     1      16.281   1.852 -13.243  1.00  0.00     0.285 C 
ATOM      3  C   UNL     1      16.457   3.230 -15.144  1.00  0.00     0.178 C 
ATOM      4  C   UNL     1      15.097   2.777 -15.724  1.00  0.00     0.177 C 
ATOM      5  O   UNL     1      17.055   2.189 -14.384  1.00  0.00    -0.341 OA
ATOM      6  C   UNL     1      14.170   2.316 -14.583  1.00  0.00     0.179 C 
ATOM      7  C   UNL     1      14.889   1.319 -13.656  1.00  0.00     0.202 C 
BRANCH   3   8
ATOM      8  C   UNL     1      17.424   3.618 -16.271  1.00  0.00     0.191 C 
BRANCH   8   9
ATOM      9  O   UNL     1      17.259   2.764 -17.372  1.00  0.00    -0.394 OA
ATOM     10  H   UNL     1      17.439   1.843 -17.045  1.00  0.00     0.210 HD
ENDBRANCH   8   9
ENDBRANCH   3   8
BRANCH   4  11
ATOM     11  O   UNL     1      14.502   3.851 -16.408  1.00  0.00    -0.387 OA
ATOM     12  H   UNL     1      14.309   3.536 -17.331  1.00  0.00     0.211 HD
ENDBRANCH   4  11
BRANCH   6  13
ATOM     13  O   UNL     1      13.013   1.716 -15.107  1.00  0.00    -0.387 OA
ATOM     14  H   UNL     1      12.321   1.749 -14.397  1.00  0.00     0.211 HD
ENDBRANCH   6  13
BRANCH   7  15
ATOM     15  O   UNL     1      14.989   0.045 -14.246  1.00  0.00    -0.385 OA
ATOM     16  H   UNL     1      15.186   0.164 -15.212  1.00  0.00     0.211 HD
ENDBRANCH   7  15
ENDBRANCH   1   2
BRANCH   1  17
ATOM     17  C   UNL     1      16.965   2.954 -11.222  1.00  0.00     0.224 C 
ATOM     18  C   UNL     1      18.066   4.040 -11.272  1.00  0.00     0.208 C 
ATOM     19  O   UNL     1      17.570   1.682 -11.044  1.00  0.00    -0.337 OA
ATOM     20  C   UNL     1      19.346   3.246 -11.383  1.00  0.00     0.180 C 
ATOM     21  C   UNL     1      18.955   1.868 -10.840  1.00  0.00     0.179 C 
BRANCH  17  22
ATOM     22  C   UNL     1      16.031   3.209 -10.023  1.00  0.00     0.225 C 
BRANCH  22  23
ATOM     23  O   UNL     1      14.692   3.262 -10.442  1.00  0.00    -0.391 OA
ATOM     24  H   UNL     1      14.489   2.387 -10.862  1.00  0.00     0.210 HD
ENDBRANCH  22  23
ENDBRANCH  17  22
BRANCH  18  25
ATOM     25  O   UNL     1      17.903   4.897 -12.374  1.00  0.00    -0.385 OA
ATOM     26  H   UNL     1      17.705   5.798 -12.009  1.00  0.00     0.211 HD
ENDBRANCH  18  25
BRANCH  20  27
ATOM     27  O   UNL     1      20.386   3.840 -10.649  1.00  0.00    -0.387 OA
ATOM     28  H   UNL     1      20.634   4.671 -11.131  1.00  0.00     0.211 HD
ENDBRANCH  20  27
BRANCH  21  29
ATOM     29  C   UNL     1      19.277   1.662  -9.349  1.00  0.00     0.191 C 
BRANCH  29  30
ATOM     30  O   UNL     1      20.663   1.603  -9.159  1.00  0.00    -0.394 OA
ATOM     31  H   UNL     1      21.053   1.377 -10.044  1.00  0.00     0.210 HD
ENDBRANCH  29  30
ENDBRANCH  21  29
ENDBRANCH   1  17
TORSDOF 13
ENDMDL
MODEL 4
REMARK VINA RESULT:    -5.312      3.620      5.707
REMARK INTER + INTRA:          -9.350
REMARK INTER:                  -8.051
REMARK INTRA:                  -1.300
REMARK UNBOUND:                -1.244
REMARK SMILES OC[C@@H]1O[C@@H](O[C@@]2(CO)O[C@H](CO)[C@H](O)[C@H]2O)[C@H](O)[C@H](O)[C@H]1O
REMARK SMILES IDX 6 1 5 2 3 3 22 4 4 5 20 6 18 7 2 8 1 9 23 11 21 13 19 15
REMARK SMILES IDX 7 17 16 18 10 19 14 20 11 21 8 22 9 23 17 25 15 27 12 29
REMARK SMILES IDX 13 30
REMARK H PARENT 1 10 23 12 21 14 19 16 9 24 17 26 15 28 13 31
REMARK Flexibility Score: inf
ROOT
ATOM      1  O   UNL     1      19.823   2.491 -14.144  1.00  0.00    -0.313 OA
ENDROOT
BRANCH   1   2
ATOM      2  C   UNL     1      19.380   1.492 -13.232  1.00  0.00     0.285 C 
ATOM      3  C   UNL     1      19.284   3.055 -11.474  1.00  0.00     0.178 C 
ATOM      4  C   UNL     1      20.460   2.414 -10.702  1.00  0.00     0.177 C 
ATOM      5  O   UNL     1      18.574   2.076 -12.220  1.00  0.00    -0.341 OA
ATOM      6  C   UNL     1      21.391   1.679 -11.686  1.00  0.00     0.179 C 
ATOM      7  C   UNL     1      20.589   0.750 -12.616  1.00  0.00     0.202 C 
BRANCH   3   8
ATOM      8  C   UNL     1      18.301   3.724 -10.503  1.00  0.00     0.191 C 
BRANCH   8   9
ATOM      9  O   UNL     1      18.225   2.997  -9.306  1.00  0.00    -0.394 OA
ATOM     10  H   UNL     1      18.649   3.559  -8.605  1.00  0.00     0.210 HD
ENDBRANCH   8   9
ENDBRANCH   3   8
BRANCH   4  11
ATOM     11  O   UNL     1      21.181   3.418 -10.034  1.00  0.00    -0.387 OA
ATOM     12  H   UNL     1      22.106   3.078  -9.910  1.00  0.00     0.211 HD
ENDBRANCH   4  11
BRANCH   6  13
ATOM     13  O   UNL     1      22.347   0.926 -10.984  1.00  0.00    -0.387 OA
ATOM     14  H   UNL     1      22.889   0.443 -11.659  1.00  0.00     0.211 HD
ENDBRANCH   6  13
BRANCH   7  15
ATOM     15  O   UNL     1      20.180  -0.420 -11.948  1.00  0.00    -0.385 OA
ATOM     16  H   UNL     1      20.157  -0.230 -10.974  1.00  0.00     0.211 HD
ENDBRANCH   7  15
ENDBRANCH   1   2
BRANCH   1  17
ATOM     17  C   UNL     1      19.153   2.489 -15.404  1.00  0.00     0.224 C 
ATOM     18  C   UNL     1      18.065   3.586 -15.471  1.00  0.00     0.208 C 
ATOM     19  O   UNL     1      18.564   1.226 -15.678  1.00  0.00    -0.337 OA
ATOM     20  C   UNL     1      16.773   2.803 -15.533  1.00  0.00     0.180 C 
ATOM     21  C   UNL     1      17.216   1.430 -16.047  1.00  0.00     0.179 C 
BRANCH  17  22
ATOM     22  C   UNL     1      20.230   2.752 -16.475  1.00  0.00     0.225 C 
BRANCH  22  23
ATOM     23  O   UNL     1      20.730   1.543 -16.982  1.00  0.00    -0.391 OA
ATOM     24  H   UNL     1      21.678   1.482 -16.695  1.00  0.00     0.210 HD
ENDBRANCH  22  23
ENDBRANCH  17  22
BRANCH  18  25
ATOM     25  O   UNL     1      18.098   4.422 -14.342  1.00  0.00    -0.385 OA
ATOM     26  H   UNL     1      18.493   5.284 -14.637  1.00  0.00     0.211 HD
ENDBRANCH  18  25
BRANCH  20  27
ATOM     27  O   UNL     1      15.836   3.421 -16.378  1.00  0.00    -0.387 OA
ATOM     28  H   UNL     1      16.314   4.158 -16.840  1.00  0.00     0.211 HD
ENDBRANCH  20  27
BRANCH  21  29
ATOM     29  C   UNL     1      17.078   1.252 -17.570  1.00  0.00     0.191 C 
BRANCH  29  30
ATOM     30  O   UNL     1      15.725   1.199 -17.928  1.00  0.00    -0.394 OA
ATOM     31  H   UNL     1      15.262   0.731 -17.185  1.00  0.00     0.210 HD
ENDBRANCH  29  30
ENDBRANCH  21  29
ENDBRANCH   1  17
TORSDOF 13
ENDMDL
MODEL 5
REMARK VINA RESULT:    -5.249      4.084      6.665
REMARK INTER + INTRA:          -9.255
REMARK INTER:                  -8.117
REMARK INTRA:                  -1.138
REMARK UNBOUND:                -1.244
REMARK SMILES OC[C@@H]1O[C@@H](O[C@@]2(CO)O[C@H](CO)[C@H](O)[C@H]2O)[C@H](O)[C@H](O)[C@H]1O
REMARK SMILES IDX 6 1 5 2 3 3 22 4 4 5 20 6 18 7 2 8 1 9 23 11 21 13 19 15
REMARK SMILES IDX 7 17 16 18 10 19 14 20 11 21 8 22 9 23 17 25 15 27 12 29
REMARK SMILES IDX 13 30
REMARK H PARENT 1 10 23 12 21 14 19 16 9 24 17 26 15 28 13 31
REMARK Flexibility Score: inf
ROOT
ATOM      1  O   UNL     1      17.098   1.499 -15.884  1.00  0.00    -0.313 OA
ENDROOT
BRANCH   1   2
ATOM      2  C   UNL     1      16.485   2.779 -15.774  1.00  0.00     0.285 C 
ATOM      3  C   UNL     1      16.137   2.481 -13.465  1.00  0.00     0.178 C 
ATOM      4  C   UNL     1      14.600   2.399 -13.602  1.00  0.00     0.177 C 
ATOM      5  O   UNL     1      16.692   3.312 -14.475  1.00  0.00    -0.341 OA
ATOM      6  C   UNL     1      14.228   1.890 -15.008  1.00  0.00     0.179 C 
ATOM      7  C   UNL     1      14.975   2.682 -16.098  1.00  0.00     0.202 C 
BRANCH   3   8
ATOM      8  C   UNL     1      16.527   3.062 -12.098  1.00  0.00     0.191 C 
BRANCH   8   9
ATOM      9  O   UNL     1      16.508   2.058 -11.118  1.00  0.00    -0.394 OA
ATOM     10  H   UNL     1      17.253   2.258 -10.492  1.00  0.00     0.210 HD
ENDBRANCH   8   9
ENDBRANCH   3   8
BRANCH   4  11
ATOM     11  O   UNL     1      14.092   1.516 -12.634  1.00  0.00    -0.387 OA
ATOM     12  H   UNL     1      13.201   1.861 -12.364  1.00  0.00     0.211 HD
ENDBRANCH   4  11
BRANCH   6  13
ATOM     13  O   UNL     1      12.843   2.001 -15.217  1.00  0.00    -0.387 OA
ATOM     14  H   UNL     1      12.529   1.123 -15.556  1.00  0.00     0.211 HD
ENDBRANCH   6  13
BRANCH   7  15
ATOM     15  O   UNL     1      14.413   3.959 -16.284  1.00  0.00    -0.385 OA
ATOM     16  H   UNL     1      15.041   4.632 -15.913  1.00  0.00     0.211 HD
ENDBRANCH   7  15
ENDBRANCH   1   2
BRANCH   1  17
ATOM     17  C   UNL     1      17.875   1.308 -17.066  1.00  0.00     0.224 C 
ATOM     18  C   UNL     1      19.181   0.534 -16.769  1.00  0.00     0.208 C 
ATOM     19  O   UNL     1      18.194   2.545 -17.684  1.00  0.00    -0.337 OA
ATOM     20  C   UNL     1      20.266   1.556 -17.020  1.00  0.00     0.180 C 
ATOM     21  C   UNL     1      19.583   2.578 -17.934  1.00  0.00     0.179 C 
BRANCH  17  22
ATOM     22  C   UNL     1      16.997   0.501 -18.042  1.00  0.00     0.225 C 
BRANCH  22  23
ATOM     23  O   UNL     1      16.359   1.355 -18.955  1.00  0.00    -0.391 OA
ATOM     24  H   UNL     1      15.903   2.056 -18.420  1.00  0.00     0.210 HD
ENDBRANCH  22  23
ENDBRANCH  17  22
BRANCH  18  25
ATOM     25  O   UNL     1      19.221   0.067 -15.444  1.00  0.00    -0.385 OA
ATOM     26  H   UNL     1      18.924   0.819 -14.868  1.00  0.00     0.211 HD
ENDBRANCH  18  25
BRANCH  20  27
ATOM     27  O   UNL     1      21.397   0.971 -17.614  1.00  0.00    -0.387 OA
ATOM     28  H   UNL     1      21.957   0.622 -16.874  1.00  0.00     0.211 HD
ENDBRANCH  20  27
BRANCH  21  29
ATOM     29  C   UNL     1      19.831   2.348 -19.435  1.00  0.00     0.191 C 
BRANCH  29  30
ATOM     30  O   UNL     1      20.992   3.018 -19.840  1.00  0.00    -0.394 OA
ATOM     31  H   UNL     1      20.688   3.855 -20.280  1.00  0.00     0.210 HD
ENDBRANCH  29  30
ENDBRANCH  21  29
ENDBRANCH   1  17
TORSDOF 13
ENDMDL
MODEL 6
REMARK VINA RESULT:    -5.216      2.184      6.035
REMARK INTER + INTRA:          -9.204
REMARK INTER:                  -8.175
REMARK INTRA:                  -1.029
REMARK UNBOUND:                -1.244
REMARK SMILES OC[C@@H]1O[C@@H](O[C@@]2(CO)O[C@H](CO)[C@H](O)[C@H]2O)[C@H](O)[C@H](O)[C@H]1O
REMARK SMILES IDX 6 1 5 2 3 3 22 4 4 5 20 6 18 7 2 8 1 9 23 11 21 13 19 15
REMARK SMILES IDX 7 17 16 18 10 19 14 20 11 21 8 22 9 23 17 25 15 27 12 29
REMARK SMILES IDX 13 30
REMARK H PARENT 1 10 23 12 21 14 19 16 9 24 17 26 15 28 13 31
REMARK Flexibility Score: inf
ROOT
ATOM      1  O   UNL     1      16.719   1.847 -10.833  1.00  0.00    -0.313 OA
ENDROOT
BRANCH   1   2
ATOM      2  C   UNL     1      16.534   3.095 -11.494  1.00  0.00     0.285 C 
ATOM      3  C   UNL     1      15.293   2.069 -13.211  1.00  0.00     0.178 C 
ATOM      4  C   UNL     1      16.376   2.321 -14.285  1.00  0.00     0.177 C 
ATOM      5  O   UNL     1      15.315   3.088 -12.221  1.00  0.00    -0.341 OA
ATOM      6  C   UNL     1      17.761   2.418 -13.617  1.00  0.00     0.179 C 
ATOM      7  C   UNL     1      17.733   3.393 -12.425  1.00  0.00     0.202 C 
BRANCH   3   8
ATOM      8  C   UNL     1      13.896   2.049 -13.848  1.00  0.00     0.191 C 
BRANCH   8   9
ATOM      9  O   UNL     1      13.900   2.756 -15.059  1.00  0.00    -0.394 OA
ATOM     10  H   UNL     1      14.835   2.738 -15.395  1.00  0.00     0.210 HD
ENDBRANCH   8   9
ENDBRANCH   3   8
BRANCH   4  11
ATOM     11  O   UNL     1      16.373   1.260 -15.207  1.00  0.00    -0.387 OA
ATOM     12  H   UNL     1      17.164   1.383 -15.795  1.00  0.00     0.211 HD
ENDBRANCH   4  11
BRANCH   6  13
ATOM     13  O   UNL     1      18.723   2.844 -14.547  1.00  0.00    -0.387 OA
ATOM     14  H   UNL     1      19.027   2.039 -15.041  1.00  0.00     0.211 HD
ENDBRANCH   6  13
BRANCH   7  15
ATOM     15  O   UNL     1      17.718   4.734 -12.857  1.00  0.00    -0.385 OA
ATOM     16  H   UNL     1      18.537   4.896 -13.394  1.00  0.00     0.211 HD
ENDBRANCH   7  15
ENDBRANCH   1   2
BRANCH   1  17
ATOM     17  C   UNL     1      16.446   1.867  -9.433  1.00  0.00     0.224 C 
ATOM     18  C   UNL     1      16.440   0.440  -8.834  1.00  0.00     0.208 C 
ATOM     19  O   UNL     1      15.204   2.497  -9.154  1.00  0.00    -0.337 OA
ATOM     20  C   UNL     1      14.998   0.225  -8.438  1.00  0.00     0.180 C 
ATOM     21  C   UNL     1      14.450   1.650  -8.313  1.00  0.00     0.179 C 
BRANCH  17  22
ATOM     22  C   UNL     1      17.562   2.705  -8.779  1.00  0.00     0.225 C 
BRANCH  22  23
ATOM     23  O   UNL     1      18.726   1.939  -8.617  1.00  0.00    -0.391 OA
ATOM     24  H   UNL     1      19.320   2.155  -9.383  1.00  0.00     0.210 HD
ENDBRANCH  22  23
ENDBRANCH  17  22
BRANCH  18  25
ATOM     25  O   UNL     1      16.858  -0.520  -9.772  1.00  0.00    -0.385 OA
ATOM     26  H   UNL     1      17.127  -0.023 -10.588  1.00  0.00     0.211 HD
ENDBRANCH  18  25
BRANCH  20  27
ATOM     27  O   UNL     1      14.895  -0.501  -7.240  1.00  0.00    -0.387 OA
ATOM     28  H   UNL     1      15.106  -1.445  -7.462  1.00  0.00     0.211 HD
ENDBRANCH  20  27
BRANCH  21  29
ATOM     29  C   UNL     1      14.474   2.211  -6.879  1.00  0.00     0.191 C 
BRANCH  29  30
ATOM     30  O   UNL     1      14.653   3.600  -6.908  1.00  0.00    -0.394 OA
ATOM     31  H   UNL     1      15.171   3.827  -6.092  1.00  0.00     0.210 HD
ENDBRANCH  29  30
ENDBRANCH  21  29
ENDBRANCH   1  17
TORSDOF 13
ENDMDL
MODEL 7
REMARK VINA RESULT:    -5.192      4.439      7.817
REMARK INTER + INTRA:          -9.168
REMARK INTER:                  -8.324
REMARK INTRA:                  -0.844
REMARK UNBOUND:                -1.244
REMARK SMILES OC[C@@H]1O[C@@H](O[C@@]2(CO)O[C@H](CO)[C@H](O)[C@H]2O)[C@H](O)[C@H](O)[C@H]1O
REMARK SMILES IDX 6 1 5 2 3 3 22 4 4 5 20 6 18 7 2 8 1 9 23 11 21 13 19 15
REMARK SMILES IDX 7 17 16 18 10 19 14 20 11 21 8 22 9 23 17 25 15 27 12 29
REMARK SMILES IDX 13 30
REMARK H PARENT 1 10 23 12 21 14 19 16 9 24 17 26 15 28 13 31
REMARK Flexibility Score: inf
ROOT
ATOM      1  O   UNL     1      18.993   1.197 -16.304  1.00  0.00    -0.313 OA
ENDROOT
BRANCH   1   2
ATOM      2  C   UNL     1      19.248   2.446 -15.670  1.00  0.00     0.285 C 
ATOM      3  C   UNL     1      20.217   1.373 -13.812  1.00  0.00     0.178 C 
ATOM      4  C   UNL     1      19.074   1.779 -12.852  1.00  0.00     0.177 C 
ATOM      5  O   UNL     1      20.390   2.346 -14.832  1.00  0.00    -0.341 OA
ATOM      6  C   UNL     1      17.773   1.987 -13.650  1.00  0.00     0.179 C 
ATOM      7  C   UNL     1      18.010   2.904 -14.864  1.00  0.00     0.202 C 
BRANCH   3   8
ATOM      8  C   UNL     1      21.542   1.238 -13.047  1.00  0.00     0.191 C 
BRANCH   8   9
ATOM      9  O   UNL     1      22.496   2.128 -13.562  1.00  0.00    -0.394 OA
ATOM     10  H   UNL     1      23.371   1.859 -13.177  1.00  0.00     0.210 HD
ENDBRANCH   8   9
ENDBRANCH   3   8
BRANCH   4  11
ATOM     11  O   UNL     1      18.884   0.763 -11.899  1.00  0.00    -0.387 OA
ATOM     12  H   UNL     1      19.370   1.040 -11.079  1.00  0.00     0.211 HD
ENDBRANCH   4  11
BRANCH   6  13
ATOM     13  O   UNL     1      16.781   2.548 -12.827  1.00  0.00    -0.387 OA
ATOM     14  H   UNL     1      16.848   3.534 -12.922  1.00  0.00     0.211 HD
ENDBRANCH   6  13
BRANCH   7  15
ATOM     15  O   UNL     1      18.126   4.253 -14.477  1.00  0.00    -0.385 OA
ATOM     16  H   UNL     1      19.021   4.382 -14.068  1.00  0.00     0.211 HD
ENDBRANCH   7  15
ENDBRANCH   1   2
BRANCH   1  17
ATOM     17  C   UNL     1      19.294   1.163 -17.698  1.00  0.00     0.224 C 
ATOM     18  C   UNL     1      19.156  -0.266 -18.275  1.00  0.00     0.208 C 
ATOM     19  O   UNL     1      20.601   1.650 -17.961  1.00  0.00    -0.337 OA
ATOM     20  C   UNL     1      20.574  -0.642 -18.637  1.00  0.00     0.180 C 
ATOM     21  C   UNL     1      21.276   0.713 -18.773  1.00  0.00     0.179 C 
BRANCH  17  22
ATOM     22  C   UNL     1      18.288   2.106 -18.387  1.00  0.00     0.225 C 
BRANCH  22  23
ATOM     23  O   UNL     1      17.010   1.528 -18.420  1.00  0.00    -0.391 OA
ATOM     24  H   UNL     1      16.774   1.408 -19.376  1.00  0.00     0.210 HD
ENDBRANCH  22  23
ENDBRANCH  17  22
BRANCH  18  25
ATOM     25  O   UNL     1      18.619  -1.159 -17.332  1.00  0.00    -0.385 OA
ATOM     26  H   UNL     1      19.152  -1.994 -17.394  1.00  0.00     0.211 HD
ENDBRANCH  18  25
BRANCH  20  27
ATOM     27  O   UNL     1      20.620  -1.396 -19.822  1.00  0.00    -0.387 OA
ATOM     28  H   UNL     1      20.685  -0.747 -20.569  1.00  0.00     0.211 HD
ENDBRANCH  20  27
BRANCH  21  29
ATOM     29  C   UNL     1      21.340   1.248 -20.215  1.00  0.00     0.191 C 
BRANCH  29  30
ATOM     30  O   UNL     1      21.304   2.648 -20.211  1.00  0.00    -0.394 OA
ATOM     31  H   UNL     1      20.406   2.901 -20.550  1.00  0.00     0.210 HD
ENDBRANCH  29  30
ENDBRANCH  21  29
ENDBRANCH   1  17
TORSDOF 13
ENDMDL
MODEL 8
REMARK VINA RESULT:    -5.159      2.784      6.317
REMARK INTER + INTRA:          -9.118
REMARK INTER:                  -7.983
REMARK INTRA:                  -1.135
REMARK UNBOUND:                -1.244
REMARK SMILES OC[C@@H]1O[C@@H](O[C@@]2(CO)O[C@H](CO)[C@H](O)[C@H]2O)[C@H](O)[C@H](O)[C@H]1O
REMARK SMILES IDX 6 1 5 2 3 3 22 4 4 5 20 6 18 7 2 8 1 9 23 11 21 13 19 15
REMARK SMILES IDX 7 17 16 18 10 19 14 20 11 21 8 22 9 23 17 25 15 27 12 29
REMARK SMILES IDX 13 30
REMARK H PARENT 1 10 23 12 21 14 19 16 9 24 17 26 15 28 13 31
REMARK Flexibility Score: inf
ROOT
ATOM      1  O   UNL     1      15.854   2.388 -12.730  1.00  0.00    -0.313 OA
ENDROOT
BRANCH   1   2
ATOM      2  C   UNL     1      15.564   1.474 -13.783  1.00  0.00     0.285 C 
ATOM      3  C   UNL     1      17.371   2.280 -15.059  1.00  0.00     0.178 C 
ATOM      4  C   UNL     1      16.461   2.911 -16.138  1.00  0.00     0.177 C 
ATOM      5  O   UNL     1      16.754   1.139 -14.481  1.00  0.00    -0.341 OA
ATOM      6  C   UNL     1      15.094   3.268 -15.524  1.00  0.00     0.179 C 
ATOM      7  C   UNL     1      14.511   2.076 -14.743  1.00  0.00     0.202 C 
BRANCH   3   8
ATOM      8  C   UNL     1      18.710   1.844 -15.670  1.00  0.00     0.191 C 
BRANCH   8   9
ATOM      9  O   UNL     1      19.571   2.945 -15.795  1.00  0.00    -0.394 OA
ATOM     10  H   UNL     1      19.047   3.746 -15.532  1.00  0.00     0.210 HD
ENDBRANCH   8   9
ENDBRANCH   3   8
BRANCH   4  11
ATOM     11  O   UNL     1      17.069   4.075 -16.638  1.00  0.00    -0.387 OA
ATOM     12  H   UNL     1      17.128   3.972 -17.624  1.00  0.00     0.211 HD
ENDBRANCH   4  11
BRANCH   6  13
ATOM     13  O   UNL     1      14.192   3.653 -16.530  1.00  0.00    -0.387 OA
ATOM     14  H   UNL     1      13.755   2.826 -16.861  1.00  0.00     0.211 HD
ENDBRANCH   6  13
BRANCH   7  15
ATOM     15  O   UNL     1      13.995   1.093 -15.610  1.00  0.00    -0.385 OA
ATOM     16  H   UNL     1      14.439   1.195 -16.493  1.00  0.00     0.211 HD
ENDBRANCH   7  15
ENDBRANCH   1   2
BRANCH   1  17
ATOM     17  C   UNL     1      16.265   1.779 -11.507  1.00  0.00     0.224 C 
ATOM     18  C   UNL     1      15.752   2.566 -10.278  1.00  0.00     0.208 C 
ATOM     19  O   UNL     1      17.678   1.663 -11.433  1.00  0.00    -0.337 OA
ATOM     20  C   UNL     1      17.013   3.117  -9.656  1.00  0.00     0.180 C 
ATOM     21  C   UNL     1      18.108   2.191 -10.196  1.00  0.00     0.179 C 
BRANCH  17  22
ATOM     22  C   UNL     1      15.672   0.356 -11.504  1.00  0.00     0.225 C 
BRANCH  22  23
ATOM     23  O   UNL     1      14.957   0.121 -10.319  1.00  0.00    -0.391 OA
ATOM     24  H   UNL     1      15.148   0.883  -9.713  1.00  0.00     0.210 HD
ENDBRANCH  22  23
ENDBRANCH  17  22
BRANCH  18  25
ATOM     25  O   UNL     1      14.876   3.600 -10.651  1.00  0.00    -0.385 OA
ATOM     26  H   UNL     1      14.001   3.399 -10.227  1.00  0.00     0.211 HD
ENDBRANCH  18  25
BRANCH  20  27
ATOM     27  O   UNL     1      16.942   3.109  -8.253  1.00  0.00    -0.387 OA
ATOM     28  H   UNL     1      17.860   2.925  -7.923  1.00  0.00     0.211 HD
ENDBRANCH  20  27
BRANCH  21  29
ATOM     29  C   UNL     1      18.476   1.032  -9.253  1.00  0.00     0.191 C 
BRANCH  29  30
ATOM     30  O   UNL     1      19.440   1.450  -8.328  1.00  0.00    -0.394 OA
ATOM     31  H   UNL     1      20.317   1.361  -8.785  1.00  0.00     0.210 HD
ENDBRANCH  29  30
ENDBRANCH  21  29
ENDBRANCH   1  17
TORSDOF 13
ENDMDL
MODEL 9
REMARK VINA RESULT:    -5.131      3.232      5.444
REMARK INTER + INTRA:          -9.075
REMARK INTER:                  -8.353
REMARK INTRA:                  -0.722
REMARK UNBOUND:                -1.244
REMARK SMILES OC[C@@H]1O[C@@H](O[C@@]2(CO)O[C@H](CO)[C@H](O)[C@H]2O)[C@H](O)[C@H](O)[C@H]1O
REMARK SMILES IDX 6 1 5 2 3 3 22 4 4 5 20 6 18 7 2 8 1 9 23 11 21 13 19 15
REMARK SMILES IDX 7 17 16 18 10 19 14 20 11 21 8 22 9 23 17 25 15 27 12 29
REMARK SMILES IDX 13 30
REMARK H PARENT 1 10 23 12 21 14 19 16 9 24 17 26 15 28 13 31
REMARK Flexibility Score: inf
ROOT
ATOM      1  O   UNL     1      18.501   1.569 -13.454  1.00  0.00    -0.313 OA
ENDROOT
BRANCH   1   2
ATOM      2  C   UNL     1      18.505   0.928 -12.182  1.00  0.00     0.285 C 
ATOM      3  C   UNL     1      18.699   2.996 -11.075  1.00  0.00     0.178 C 
ATOM      4  C   UNL     1      20.134   2.711 -10.576  1.00  0.00     0.177 C 
ATOM      5  O   UNL     1      17.957   1.791 -11.198  1.00  0.00    -0.341 OA
ATOM      6  C   UNL     1      20.831   1.723 -11.530  1.00  0.00     0.179 C 
ATOM      7  C   UNL     1      19.941   0.496 -11.802  1.00  0.00     0.202 C 
BRANCH   3   8
ATOM      8  C   UNL     1      17.959   3.918 -10.094  1.00  0.00     0.191 C 
BRANCH   8   9
ATOM      9  O   UNL     1      17.644   3.225  -8.916  1.00  0.00    -0.394 OA
ATOM     10  H   UNL     1      18.068   2.330  -8.991  1.00  0.00     0.210 HD
ENDBRANCH   8   9
ENDBRANCH   3   8
BRANCH   4  11
ATOM     11  O   UNL     1      20.860   3.914 -10.533  1.00  0.00    -0.387 OA
ATOM     12  H   UNL     1      21.510   3.835  -9.786  1.00  0.00     0.211 HD
ENDBRANCH   4  11
BRANCH   6  13
ATOM     13  O   UNL     1      22.055   1.300 -10.985  1.00  0.00    -0.387 OA
ATOM     14  H   UNL     1      22.687   1.186 -11.742  1.00  0.00     0.211 HD
ENDBRANCH   6  13
BRANCH   7  15
ATOM     15  O   UNL     1      19.931  -0.388 -10.706  1.00  0.00    -0.385 OA
ATOM     16  H   UNL     1      19.063  -0.288 -10.234  1.00  0.00     0.211 HD
ENDBRANCH   7  15
ENDBRANCH   1   2
BRANCH   1  17
ATOM     17  C   UNL     1      17.246   1.542 -14.132  1.00  0.00     0.224 C 
ATOM     18  C   UNL     1      17.408   1.122 -15.612  1.00  0.00     0.208 C 
ATOM     19  O   UNL     1      16.594   2.802 -14.071  1.00  0.00    -0.337 OA
ATOM     20  C   UNL     1      17.043   2.372 -16.379  1.00  0.00     0.180 C 
ATOM     21  C   UNL     1      16.202   3.169 -15.377  1.00  0.00     0.179 C 
BRANCH  17  22
ATOM     22  C   UNL     1      16.367   0.517 -13.389  1.00  0.00     0.225 C 
BRANCH  22  23
ATOM     23  O   UNL     1      15.353   1.165 -12.667  1.00  0.00    -0.391 OA
ATOM     24  H   UNL     1      14.499   0.966 -13.132  1.00  0.00     0.210 HD
ENDBRANCH  22  23
ENDBRANCH  17  22
BRANCH  18  25
ATOM     25  O   UNL     1      18.723   0.717 -15.898  1.00  0.00    -0.385 OA
ATOM     26  H   UNL     1      18.758   0.530 -16.872  1.00  0.00     0.211 HD
ENDBRANCH  18  25
BRANCH  20  27
ATOM     27  O   UNL     1      16.337   2.067 -17.555  1.00  0.00    -0.387 OA
ATOM     28  H   UNL     1      16.025   2.931 -17.930  1.00  0.00     0.211 HD
ENDBRANCH  20  27
BRANCH  21  29
ATOM     29  C   UNL     1      14.684   2.965 -15.524  1.00  0.00     0.191 C 
BRANCH  29  30
ATOM     30  O   UNL     1      14.167   3.858 -16.471  1.00  0.00    -0.394 OA
ATOM     31  H   UNL     1      14.826   3.885 -17.212  1.00  0.00     0.210 HD
ENDBRANCH  29  30
ENDBRANCH  21  29
ENDBRANCH   1  17
TORSDOF 13
ENDMDL
