MODEL 1
REMARK VINA RESULT:    -3.497      0.000      0.000
REMARK INTER + INTRA:          -4.436
REMARK INTER:                  -4.212
REMARK INTRA:                  -0.224
REMARK UNBOUND:                -0.224
REMARK SMILES OCC(O)CO
REMARK SMILES IDX 3 1 5 2 6 3 2 5 1 6 4 8
REMARK H PARENT 6 4 1 7 4 9
REMARK Flexibility Score: inf
ROOT
ATOM      1  C   UNL     1       0.689  -8.350  -0.258  1.00  0.00     0.165 C 
ENDROOT
BRANCH   1   2
ATOM      2  C   UNL     1       1.692  -9.516  -0.296  1.00  0.00     0.190 C 
BRANCH   2   3
ATOM      3  O   UNL     1       1.036 -10.714  -0.613  1.00  0.00    -0.394 OA
ATOM      4  H   UNL     1       0.916 -10.723  -1.599  1.00  0.00     0.210 HD
ENDBRANCH   2   3
ENDBRANCH   1   2
BRANCH   1   5
ATOM      5  C   UNL     1      -0.754  -8.834  -0.459  1.00  0.00     0.190 C 
BRANCH   5   6
ATOM      6  O   UNL     1      -1.236  -9.421   0.718  1.00  0.00    -0.394 OA
ATOM      7  H   UNL     1      -1.285 -10.396   0.540  1.00  0.00     0.210 HD
ENDBRANCH   5   6
ENDBRANCH   1   5
BRANCH   1   8
ATOM      8  O   UNL     1       1.016  -7.381  -1.222  1.00  0.00    -0.388 OA
ATOM      9  H   UNL     1       0.604  -7.662  -2.081  1.00  0.00     0.211 HD
ENDBRANCH   1   8
TORSDOF 5
ENDMDL
MODEL 2
REMARK VINA RESULT:    -3.485      2.228      2.954
REMARK INTER + INTRA:          -4.421
REMARK INTER:                  -4.198
REMARK INTRA:                  -0.224
REMARK UNBOUND:                -0.224
REMARK SMILES OCC(O)CO
REMARK SMILES IDX 3 1 5 2 6 3 2 5 1 6 4 8
REMARK H PARENT 6 4 1 7 4 9
REMARK Flexibility Score: inf
ROOT
ATOM      1  C   UNL     1       2.916  -8.968   0.558  1.00  0.00     0.165 C 
ENDROOT
BRANCH   1   2
ATOM      2  C   UNL     1       2.926  -9.528   1.991  1.00  0.00     0.190 C 
BRANCH   2   3
ATOM      3  O   UNL     1       2.925 -10.929   1.969  1.00  0.00    -0.394 OA
ATOM      4  H   UNL     1       3.642 -11.207   1.341  1.00  0.00     0.210 HD
ENDBRANCH   2   3
ENDBRANCH   1   2
BRANCH   1   5
ATOM      5  C   UNL     1       1.552  -9.164  -0.120  1.00  0.00     0.190 C 
BRANCH   5   6
ATOM      6  O   UNL     1       1.386 -10.504  -0.494  1.00  0.00    -0.394 OA
ATOM      7  H   UNL     1       0.461 -10.751  -0.231  1.00  0.00     0.210 HD
ENDBRANCH   5   6
ENDBRANCH   1   5
BRANCH   1   8
ATOM      8  O   UNL     1       3.931  -9.560  -0.214  1.00  0.00    -0.388 OA
ATOM      9  H   UNL     1       4.614  -9.919   0.413  1.00  0.00     0.211 HD
ENDBRANCH   1   8
TORSDOF 5
ENDMDL
MODEL 3
REMARK VINA RESULT:    -3.446      3.299      4.685
REMARK INTER + INTRA:          -4.375
REMARK INTER:                  -4.352
REMARK INTRA:                  -0.024
REMARK UNBOUND:                -0.224
REMARK SMILES OCC(O)CO
REMARK SMILES IDX 3 1 5 2 6 3 2 5 1 6 4 8
REMARK H PARENT 6 4 1 7 4 9
REMARK Flexibility Score: inf
ROOT
ATOM      1  C   UNL     1       3.385  -9.563   1.804  1.00  0.00     0.165 C 
ENDROOT
BRANCH   1   2
ATOM      2  C   UNL     1       2.363  -9.190   0.716  1.00  0.00     0.190 C 
BRANCH   2   3
ATOM      3  O   UNL     1       2.750  -9.723  -0.522  1.00  0.00    -0.394 OA
ATOM      4  H   UNL     1       2.861  -8.955  -1.142  1.00  0.00     0.210 HD
ENDBRANCH   2   3
ENDBRANCH   1   2
BRANCH   1   5
ATOM      5  C   UNL     1       4.823  -9.246   1.367  1.00  0.00     0.190 C 
BRANCH   5   6
ATOM      6  O   UNL     1       5.680 -10.295   1.725  1.00  0.00    -0.394 OA
ATOM      7  H   UNL     1       6.497  -9.870   2.093  1.00  0.00     0.210 HD
ENDBRANCH   5   6
ENDBRANCH   1   5
BRANCH   1   8
ATOM      8  O   UNL     1       3.271 -10.921   2.148  1.00  0.00    -0.388 OA
ATOM      9  H   UNL     1       3.416 -10.996   3.128  1.00  0.00     0.211 HD
ENDBRANCH   1   8
TORSDOF 5
ENDMDL
MODEL 4
REMARK VINA RESULT:    -3.445      2.238      3.172
REMARK INTER + INTRA:          -4.373
REMARK INTER:                  -4.151
REMARK INTRA:                  -0.222
REMARK UNBOUND:                -0.224
REMARK SMILES OCC(O)CO
REMARK SMILES IDX 3 1 5 2 6 3 2 5 1 6 4 8
REMARK H PARENT 6 4 1 7 4 9
REMARK Flexibility Score: inf
ROOT
ATOM      1  C   UNL     1       3.163  -9.222   0.382  1.00  0.00     0.165 C 
ENDROOT
BRANCH   1   2
ATOM      2  C   UNL     1       1.730  -9.225  -0.177  1.00  0.00     0.190 C 
BRANCH   2   3
ATOM      3  O   UNL     1       1.342 -10.527  -0.522  1.00  0.00    -0.394 OA
ATOM      4  H   UNL     1       2.175 -11.056  -0.627  1.00  0.00     0.210 HD
ENDBRANCH   2   3
ENDBRANCH   1   2
BRANCH   1   5
ATOM      5  C   UNL     1       3.199  -9.651   1.857  1.00  0.00     0.190 C 
BRANCH   5   6
ATOM      6  O   UNL     1       2.905 -11.016   1.971  1.00  0.00    -0.394 OA
ATOM      7  H   UNL     1       2.498 -11.136   2.868  1.00  0.00     0.210 HD
ENDBRANCH   5   6
ENDBRANCH   1   5
BRANCH   1   8
ATOM      8  O   UNL     1       3.754  -7.956   0.229  1.00  0.00    -0.388 OA
ATOM      9  H   UNL     1       3.678  -7.702  -0.728  1.00  0.00     0.211 HD
ENDBRANCH   1   8
TORSDOF 5
ENDMDL
MODEL 5
REMARK VINA RESULT:    -3.431      6.189      7.545
REMARK INTER + INTRA:          -4.357
REMARK INTER:                  -4.136
REMARK INTRA:                  -0.222
REMARK UNBOUND:                -0.224
REMARK SMILES OCC(O)CO
REMARK SMILES IDX 3 1 5 2 6 3 2 5 1 6 4 8
REMARK H PARENT 6 4 1 7 4 9
REMARK Flexibility Score: inf
ROOT
ATOM      1  C   UNL     1      -7.310  -9.138   0.342  1.00  0.00     0.165 C 
ENDROOT
BRANCH   1   2
ATOM      2  C   UNL     1      -7.476 -10.411  -0.506  1.00  0.00     0.190 C 
BRANCH   2   3
ATOM      3  O   UNL     1      -6.295 -11.167  -0.490  1.00  0.00    -0.394 OA
ATOM      4  H   UNL     1      -5.602 -10.606  -0.052  1.00  0.00     0.210 HD
ENDBRANCH   2   3
ENDBRANCH   1   2
BRANCH   1   5
ATOM      5  C   UNL     1      -5.831  -8.824   0.613  1.00  0.00     0.190 C 
BRANCH   5   6
ATOM      6  O   UNL     1      -5.176  -8.515  -0.587  1.00  0.00    -0.394 OA
ATOM      7  H   UNL     1      -5.514  -9.162  -1.260  1.00  0.00     0.210 HD
ENDBRANCH   5   6
ENDBRANCH   1   5
BRANCH   1   8
ATOM      8  O   UNL     1      -8.012  -9.255   1.555  1.00  0.00    -0.388 OA
ATOM      9  H   UNL     1      -7.551  -9.943   2.103  1.00  0.00     0.211 HD
ENDBRANCH   1   8
TORSDOF 5
ENDMDL
MODEL 6
REMARK VINA RESULT:    -3.349      6.019      7.212
REMARK INTER + INTRA:          -4.258
REMARK INTER:                  -4.049
REMARK INTRA:                  -0.209
REMARK UNBOUND:                -0.224
REMARK SMILES OCC(O)CO
REMARK SMILES IDX 3 1 5 2 6 3 2 5 1 6 4 8
REMARK H PARENT 6 4 1 7 4 9
REMARK Flexibility Score: inf
ROOT
ATOM      1  C   UNL     1      -5.865  -8.886   0.735  1.00  0.00     0.165 C 
ENDROOT
BRANCH   1   2
ATOM      2  C   UNL     1      -7.312  -8.370   0.824  1.00  0.00     0.190 C 
BRANCH   2   3
ATOM      3  O   UNL     1      -8.125  -9.306   1.479  1.00  0.00    -0.394 OA
ATOM      4  H   UNL     1      -7.621 -10.161   1.496  1.00  0.00     0.210 HD
ENDBRANCH   2   3
ENDBRANCH   1   2
BRANCH   1   5
ATOM      5  C   UNL     1      -5.026  -8.438   1.941  1.00  0.00     0.190 C 
BRANCH   5   6
ATOM      6  O   UNL     1      -5.844  -7.813   2.893  1.00  0.00    -0.394 OA
ATOM      7  H   UNL     1      -5.920  -8.449   3.650  1.00  0.00     0.210 HD
ENDBRANCH   5   6
ENDBRANCH   1   5
BRANCH   1   8
ATOM      8  O   UNL     1      -5.260  -8.463  -0.461  1.00  0.00    -0.388 OA
ATOM      9  H   UNL     1      -5.864  -7.798  -0.885  1.00  0.00     0.211 HD
ENDBRANCH   1   8
TORSDOF 5
ENDMDL
MODEL 7
REMARK VINA RESULT:    -3.346      3.969      5.169
REMARK INTER + INTRA:          -4.254
REMARK INTER:                  -4.036
REMARK INTRA:                  -0.219
REMARK UNBOUND:                -0.224
REMARK SMILES OCC(O)CO
REMARK SMILES IDX 3 1 5 2 6 3 2 5 1 6 4 8
REMARK H PARENT 6 4 1 7 4 9
REMARK Flexibility Score: inf
ROOT
ATOM      1  C   UNL     1      -3.609  -7.905   2.027  1.00  0.00     0.165 C 
ENDROOT
BRANCH   1   2
ATOM      2  C   UNL     1      -4.702  -8.970   2.228  1.00  0.00     0.190 C 
BRANCH   2   3
ATOM      3  O   UNL     1      -4.125 -10.213   2.526  1.00  0.00    -0.394 OA
ATOM      4  H   UNL     1      -3.223 -10.028   2.899  1.00  0.00     0.210 HD
ENDBRANCH   2   3
ENDBRANCH   1   2
BRANCH   1   5
ATOM      5  C   UNL     1      -2.244  -8.541   1.725  1.00  0.00     0.190 C 
BRANCH   5   6
ATOM      6  O   UNL     1      -1.613  -8.920   2.917  1.00  0.00    -0.394 OA
ATOM      7  H   UNL     1      -1.241  -9.825   2.757  1.00  0.00     0.210 HD
ENDBRANCH   5   6
ENDBRANCH   1   5
BRANCH   1   8
ATOM      8  O   UNL     1      -3.517  -7.069   3.153  1.00  0.00    -0.388 OA
ATOM      9  H   UNL     1      -3.591  -6.130   2.837  1.00  0.00     0.211 HD
ENDBRANCH   1   8
TORSDOF 5
ENDMDL
MODEL 8
REMARK VINA RESULT:    -3.335      4.083      4.951
REMARK INTER + INTRA:          -4.241
REMARK INTER:                  -4.028
REMARK INTRA:                  -0.214
REMARK UNBOUND:                -0.224
REMARK SMILES OCC(O)CO
REMARK SMILES IDX 3 1 5 2 6 3 2 5 1 6 4 8
REMARK H PARENT 6 4 1 7 4 9
REMARK Flexibility Score: inf
ROOT
ATOM      1  C   UNL     1      -3.826  -7.843   2.365  1.00  0.00     0.165 C 
ENDROOT
BRANCH   1   2
ATOM      2  C   UNL     1      -2.418  -8.204   1.861  1.00  0.00     0.190 C 
BRANCH   2   3
ATOM      3  O   UNL     1      -1.718  -8.923   2.840  1.00  0.00    -0.394 OA
ATOM      4  H   UNL     1      -2.380  -9.184   3.532  1.00  0.00     0.210 HD
ENDBRANCH   2   3
ENDBRANCH   1   2
BRANCH   1   5
ATOM      5  C   UNL     1      -4.812  -9.005   2.177  1.00  0.00     0.190 C 
BRANCH   5   6
ATOM      6  O   UNL     1      -4.199 -10.219   2.516  1.00  0.00    -0.394 OA
ATOM      7  H   UNL     1      -4.222 -10.778   1.697  1.00  0.00     0.210 HD
ENDBRANCH   5   6
ENDBRANCH   1   5
BRANCH   1   8
ATOM      8  O   UNL     1      -4.305  -6.690   1.718  1.00  0.00    -0.388 OA
ATOM      9  H   UNL     1      -5.225  -6.885   1.399  1.00  0.00     0.211 HD
ENDBRANCH   1   8
TORSDOF 5
ENDMDL
MODEL 9
REMARK VINA RESULT:    -3.266      6.529      7.499
REMARK INTER + INTRA:          -4.158
REMARK INTER:                  -4.155
REMARK INTRA:                  -0.003
REMARK UNBOUND:                -0.224
REMARK SMILES OCC(O)CO
REMARK SMILES IDX 3 1 5 2 6 3 2 5 1 6 4 8
REMARK H PARENT 6 4 1 7 4 9
REMARK Flexibility Score: inf
ROOT
ATOM      1  C   UNL     1       5.679 -12.292   3.349  1.00  0.00     0.165 C 
ENDROOT
BRANCH   1   2
ATOM      2  C   UNL     1       6.664 -12.968   4.319  1.00  0.00     0.190 C 
BRANCH   2   3
ATOM      3  O   UNL     1       7.350 -12.004   5.070  1.00  0.00    -0.394 OA
ATOM      4  H   UNL     1       8.314 -12.106   4.854  1.00  0.00     0.210 HD
ENDBRANCH   2   3
ENDBRANCH   1   2
BRANCH   1   5
ATOM      5  C   UNL     1       4.375 -13.091   3.212  1.00  0.00     0.190 C 
BRANCH   5   6
ATOM      6  O   UNL     1       3.406 -12.326   2.549  1.00  0.00    -0.394 OA
ATOM      7  H   UNL     1       2.536 -12.564   2.964  1.00  0.00     0.210 HD
ENDBRANCH   5   6
ENDBRANCH   1   5
BRANCH   1   8
ATOM      8  O   UNL     1       6.271 -12.109   2.087  1.00  0.00    -0.388 OA
ATOM      9  H   UNL     1       6.592 -11.170   2.039  1.00  0.00     0.211 HD
ENDBRANCH   1   8
TORSDOF 5
ENDMDL
