MODEL 1
REMARK VINA RESULT:    18.668      0.000      0.000
REMARK INTER + INTRA:          39.286
REMARK INTER:                  40.494
REMARK INTRA:                  -1.208
REMARK UNBOUND:                -1.208
REMARK SMILES CCCCCCCCCCCCCCCCCCCCCC(=O)[O-]
REMARK SMILES IDX 12 1 11 2 10 3 9 4 8 5 7 6 6 7 5 8 4 9 3 10 2 11 1 12 13 13
REMARK SMILES IDX 14 14 15 15 16 16 17 17 18 18 19 19 20 20 21 21 22 22 23 23
REMARK SMILES IDX 24 24
REMARK H PARENT
REMARK Flexibility Score: inf
ROOT
ATOM      1  C   UNL     1     -10.036 -15.946  26.855  1.00  0.00     0.000 C 
ENDROOT
BRANCH   1   2
ATOM      2  C   UNL     1     -10.072 -16.753  28.165  1.00  0.00     0.000 C 
BRANCH   2   3
ATOM      3  C   UNL     1      -8.919 -17.760  28.284  1.00  0.00     0.000 C 
BRANCH   3   4
ATOM      4  C   UNL     1      -8.116 -17.831  26.976  1.00  0.00    -0.000 C 
BRANCH   4   5
ATOM      5  C   UNL     1      -6.705 -17.232  27.109  1.00  0.00    -0.000 C 
BRANCH   5   6
ATOM      6  C   UNL     1      -5.561 -18.136  26.606  1.00  0.00    -0.000 C 
BRANCH   6   7
ATOM      7  C   UNL     1      -5.922 -19.059  25.428  1.00  0.00    -0.000 C 
BRANCH   7   8
ATOM      8  C   UNL     1      -5.663 -18.408  24.058  1.00  0.00    -0.000 C 
BRANCH   8   9
ATOM      9  C   UNL     1      -4.455 -19.019  23.324  1.00  0.00    -0.000 C 
BRANCH   9  10
ATOM     10  C   UNL     1      -4.517 -20.544  23.106  1.00  0.00    -0.000 C 
BRANCH  10  11
ATOM     11  C   UNL     1      -3.401 -21.120  22.218  1.00  0.00    -0.003 C 
ATOM     12  C   UNL     1      -2.133 -20.269  22.228  1.00  0.00     0.004 C 
ENDBRANCH  10  11
ENDBRANCH   9  10
ENDBRANCH   8   9
ENDBRANCH   7   8
ENDBRANCH   6   7
ENDBRANCH   5   6
ENDBRANCH   4   5
ENDBRANCH   3   4
ENDBRANCH   2   3
ENDBRANCH   1   2
BRANCH   1  13
ATOM     13  C   UNL     1      -9.857 -14.427  27.024  1.00  0.00     0.000 C 
BRANCH  13  14
ATOM     14  C   UNL     1     -10.919 -13.608  26.271  1.00  0.00     0.000 C 
BRANCH  14  15
ATOM     15  C   UNL     1     -11.805 -12.771  27.212  1.00  0.00     0.000 C 
BRANCH  15  16
ATOM     16  C   UNL     1     -11.091 -11.605  27.928  1.00  0.00     0.000 C 
BRANCH  16  17
ATOM     17  C   UNL     1     -10.278 -10.672  27.013  1.00  0.00     0.000 C 
BRANCH  17  18
ATOM     18  C   UNL     1     -10.074  -9.274  27.615  1.00  0.00     0.000 C 
BRANCH  18  19
ATOM     19  C   UNL     1      -8.589  -9.002  27.881  1.00  0.00     0.000 C 
BRANCH  19  20
ATOM     20  C   UNL     1      -7.709  -9.656  26.807  1.00  0.00     0.006 C 
BRANCH  20  21
ATOM     21  C   UNL     1      -6.318 -10.025  27.338  1.00  0.00     0.053 C 
BRANCH  21  22
ATOM     22  C   UNL     1      -5.623 -11.002  26.440  1.00  0.00     0.041 C 
ATOM     23  O   UNL     1      -5.325 -10.677  25.260  1.00  0.00    -0.550 OA
ATOM     24  O   UNL     1      -5.275 -12.259  26.916  1.00  0.00    -0.550 OA
ENDBRANCH  21  22
ENDBRANCH  20  21
ENDBRANCH  19  20
ENDBRANCH  18  19
ENDBRANCH  17  18
ENDBRANCH  16  17
ENDBRANCH  15  16
ENDBRANCH  14  15
ENDBRANCH  13  14
ENDBRANCH   1  13
TORSDOF 20
ENDMDL
MODEL 2
REMARK VINA RESULT:    18.697      1.199      2.453
REMARK INTER + INTRA:          39.349
REMARK INTER:                  40.304
REMARK INTRA:                  -0.955
REMARK UNBOUND:                -1.208
REMARK SMILES CCCCCCCCCCCCCCCCCCCCCC(=O)[O-]
REMARK SMILES IDX 12 1 11 2 10 3 9 4 8 5 7 6 6 7 5 8 4 9 3 10 2 11 1 12 13 13
REMARK SMILES IDX 14 14 15 15 16 16 17 17 18 18 19 19 20 20 21 21 22 22 23 23
REMARK SMILES IDX 24 24
REMARK H PARENT
REMARK Flexibility Score: inf
ROOT
ATOM      1  C   UNL     1      -8.544 -17.180  27.789  1.00  0.00     0.000 C 
ENDROOT
BRANCH   1   2
ATOM      2  C   UNL     1      -7.542 -17.088  26.624  1.00  0.00     0.000 C 
BRANCH   2   3
ATOM      3  C   UNL     1      -6.217 -17.807  26.911  1.00  0.00     0.000 C 
BRANCH   3   4
ATOM      4  C   UNL     1      -6.023 -19.000  25.963  1.00  0.00    -0.000 C 
BRANCH   4   5
ATOM      5  C   UNL     1      -5.742 -18.572  24.513  1.00  0.00    -0.000 C 
BRANCH   5   6
ATOM      6  C   UNL     1      -4.423 -19.104  23.918  1.00  0.00    -0.000 C 
BRANCH   6   7
ATOM      7  C   UNL     1      -4.580 -20.071  22.730  1.00  0.00    -0.000 C 
BRANCH   7   8
ATOM      8  C   UNL     1      -3.367 -21.000  22.552  1.00  0.00    -0.000 C 
BRANCH   8   9
ATOM      9  C   UNL     1      -2.044 -20.231  22.381  1.00  0.00    -0.000 C 
BRANCH   9  10
ATOM     10  C   UNL     1      -1.157 -20.156  23.639  1.00  0.00    -0.000 C 
BRANCH  10  11
ATOM     11  C   UNL     1      -0.541 -18.775  23.920  1.00  0.00    -0.003 C 
ATOM     12  C   UNL     1      -0.995 -18.181  25.253  1.00  0.00     0.004 C 
ENDBRANCH  10  11
ENDBRANCH   9  10
ENDBRANCH   8   9
ENDBRANCH   7   8
ENDBRANCH   6   7
ENDBRANCH   5   6
ENDBRANCH   4   5
ENDBRANCH   3   4
ENDBRANCH   2   3
ENDBRANCH   1   2
BRANCH   1  13
ATOM     13  C   UNL     1      -9.924 -16.555  27.520  1.00  0.00     0.000 C 
BRANCH  13  14
ATOM     14  C   UNL     1      -9.842 -15.228  26.745  1.00  0.00     0.000 C 
BRANCH  14  15
ATOM     15  C   UNL     1     -10.884 -14.197  27.215  1.00  0.00     0.000 C 
BRANCH  15  16
ATOM     16  C   UNL     1     -10.802 -12.816  26.530  1.00  0.00     0.000 C 
BRANCH  16  17
ATOM     17  C   UNL     1     -10.640 -11.619  27.484  1.00  0.00     0.000 C 
BRANCH  17  18
ATOM     18  C   UNL     1     -10.270 -10.319  26.754  1.00  0.00     0.000 C 
BRANCH  18  19
ATOM     19  C   UNL     1      -9.298  -9.478  27.589  1.00  0.00     0.000 C 
BRANCH  19  20
ATOM     20  C   UNL     1      -7.968  -9.279  26.849  1.00  0.00     0.006 C 
BRANCH  20  21
ATOM     21  C   UNL     1      -6.798  -9.974  27.558  1.00  0.00     0.053 C 
BRANCH  21  22
ATOM     22  C   UNL     1      -5.899 -10.674  26.585  1.00  0.00     0.041 C 
ATOM     23  O   UNL     1      -5.530 -10.093  25.531  1.00  0.00    -0.550 OA
ATOM     24  O   UNL     1      -5.442 -11.957  26.858  1.00  0.00    -0.550 OA
ENDBRANCH  21  22
ENDBRANCH  20  21
ENDBRANCH  19  20
ENDBRANCH  18  19
ENDBRANCH  17  18
ENDBRANCH  16  17
ENDBRANCH  15  16
ENDBRANCH  14  15
ENDBRANCH  13  14
ENDBRANCH   1  13
TORSDOF 20
ENDMDL
MODEL 3
REMARK VINA RESULT:    18.929      1.950      2.361
REMARK INTER + INTRA:          39.853
REMARK INTER:                  40.859
REMARK INTRA:                  -1.006
REMARK UNBOUND:                -1.208
REMARK SMILES CCCCCCCCCCCCCCCCCCCCCC(=O)[O-]
REMARK SMILES IDX 12 1 11 2 10 3 9 4 8 5 7 6 6 7 5 8 4 9 3 10 2 11 1 12 13 13
REMARK SMILES IDX 14 14 15 15 16 16 17 17 18 18 19 19 20 20 21 21 22 22 23 23
REMARK SMILES IDX 24 24
REMARK H PARENT
REMARK Flexibility Score: inf
ROOT
ATOM      1  C   UNL     1      -9.936 -16.722  27.802  1.00  0.00     0.000 C 
ENDROOT
BRANCH   1   2
ATOM      2  C   UNL     1      -8.812 -17.765  27.940  1.00  0.00     0.000 C 
BRANCH   2   3
ATOM      3  C   UNL     1      -7.486 -17.306  27.316  1.00  0.00     0.000 C 
BRANCH   3   4
ATOM      4  C   UNL     1      -7.027 -18.282  26.223  1.00  0.00    -0.000 C 
BRANCH   4   5
ATOM      5  C   UNL     1      -5.496 -18.338  26.076  1.00  0.00    -0.000 C 
BRANCH   5   6
ATOM      6  C   UNL     1      -4.706 -17.621  27.189  1.00  0.00    -0.000 C 
BRANCH   6   7
ATOM      7  C   UNL     1      -3.207 -17.964  27.257  1.00  0.00    -0.000 C 
BRANCH   7   8
ATOM      8  C   UNL     1      -2.446 -17.573  25.978  1.00  0.00    -0.000 C 
BRANCH   8   9
ATOM      9  C   UNL     1      -1.029 -18.170  25.919  1.00  0.00    -0.000 C 
BRANCH   9  10
ATOM     10  C   UNL     1      -0.734 -19.051  24.688  1.00  0.00    -0.000 C 
BRANCH  10  11
ATOM     11  C   UNL     1       0.002 -18.339  23.540  1.00  0.00    -0.003 C 
ATOM     12  C   UNL     1       0.056 -16.822  23.716  1.00  0.00     0.004 C 
ENDBRANCH  10  11
ENDBRANCH   9  10
ENDBRANCH   8   9
ENDBRANCH   7   8
ENDBRANCH   6   7
ENDBRANCH   5   6
ENDBRANCH   4   5
ENDBRANCH   3   4
ENDBRANCH   2   3
ENDBRANCH   1   2
BRANCH   1  13
ATOM     13  C   UNL     1      -9.530 -15.406  27.114  1.00  0.00     0.000 C 
BRANCH  13  14
ATOM     14  C   UNL     1     -10.715 -14.685  26.451  1.00  0.00     0.000 C 
BRANCH  14  15
ATOM     15  C   UNL     1     -11.083 -13.366  27.155  1.00  0.00     0.000 C 
BRANCH  15  16
ATOM     16  C   UNL     1     -10.409 -12.101  26.582  1.00  0.00     0.000 C 
BRANCH  16  17
ATOM     17  C   UNL     1     -10.617 -10.817  27.405  1.00  0.00     0.000 C 
BRANCH  17  18
ATOM     18  C   UNL     1      -9.786  -9.634  26.886  1.00  0.00     0.000 C 
BRANCH  18  19
ATOM     19  C   UNL     1      -8.999  -8.974  28.025  1.00  0.00     0.000 C 
BRANCH  19  20
ATOM     20  C   UNL     1      -7.512  -9.348  27.955  1.00  0.00     0.006 C 
BRANCH  20  21
ATOM     21  C   UNL     1      -7.096  -9.822  26.556  1.00  0.00     0.053 C 
BRANCH  21  22
ATOM     22  C   UNL     1      -5.846 -10.645  26.600  1.00  0.00     0.041 C 
ATOM     23  O   UNL     1      -5.597 -11.470  25.681  1.00  0.00    -0.550 OA
ATOM     24  O   UNL     1      -4.938 -10.478  27.637  1.00  0.00    -0.550 OA
ENDBRANCH  21  22
ENDBRANCH  20  21
ENDBRANCH  19  20
ENDBRANCH  18  19
ENDBRANCH  17  18
ENDBRANCH  16  17
ENDBRANCH  15  16
ENDBRANCH  14  15
ENDBRANCH  13  14
ENDBRANCH   1  13
TORSDOF 20
ENDMDL
MODEL 4
REMARK VINA RESULT:    18.976      3.017      9.024
REMARK INTER + INTRA:          39.953
REMARK INTER:                  40.601
REMARK INTRA:                  -0.648
REMARK UNBOUND:                -1.208
REMARK SMILES CCCCCCCCCCCCCCCCCCCCCC(=O)[O-]
REMARK SMILES IDX 12 1 11 2 10 3 9 4 8 5 7 6 6 7 5 8 4 9 3 10 2 11 1 12 13 13
REMARK SMILES IDX 14 14 15 15 16 16 17 17 18 18 19 19 20 20 21 21 22 22 23 23
REMARK SMILES IDX 24 24
REMARK H PARENT
REMARK Flexibility Score: inf
ROOT
ATOM      1  C   UNL     1      -9.631 -15.656  26.974  1.00  0.00     0.000 C 
ENDROOT
BRANCH   1   2
ATOM      2  C   UNL     1     -10.874 -14.954  26.397  1.00  0.00     0.000 C 
BRANCH   2   3
ATOM      3  C   UNL     1     -10.728 -13.426  26.335  1.00  0.00     0.000 C 
BRANCH   3   4
ATOM      4  C   UNL     1     -11.713 -12.741  27.293  1.00  0.00    -0.000 C 
BRANCH   4   5
ATOM      5  C   UNL     1     -11.140 -11.461  27.925  1.00  0.00    -0.000 C 
BRANCH   5   6
ATOM      6  C   UNL     1     -10.123 -10.699  27.051  1.00  0.00    -0.000 C 
BRANCH   6   7
ATOM      7  C   UNL     1     -10.005  -9.192  27.342  1.00  0.00    -0.000 C 
BRANCH   7   8
ATOM      8  C   UNL     1      -8.616  -8.792  27.868  1.00  0.00    -0.000 C 
BRANCH   8   9
ATOM      9  C   UNL     1      -7.468  -9.472  27.100  1.00  0.00    -0.000 C 
BRANCH   9  10
ATOM     10  C   UNL     1      -6.241  -9.857  27.950  1.00  0.00    -0.000 C 
BRANCH  10  11
ATOM     11  C   UNL     1      -5.055 -10.434  27.158  1.00  0.00    -0.003 C 
ATOM     12  C   UNL     1      -5.481 -11.105  25.854  1.00  0.00     0.004 C 
ENDBRANCH  10  11
ENDBRANCH   9  10
ENDBRANCH   8   9
ENDBRANCH   7   8
ENDBRANCH   6   7
ENDBRANCH   5   6
ENDBRANCH   4   5
ENDBRANCH   3   4
ENDBRANCH   2   3
ENDBRANCH   1   2
BRANCH   1  13
ATOM     13  C   UNL     1      -9.902 -16.603  28.157  1.00  0.00     0.000 C 
BRANCH  13  14
ATOM     14  C   UNL     1      -9.256 -17.987  27.978  1.00  0.00     0.000 C 
BRANCH  14  15
ATOM     15  C   UNL     1      -8.296 -18.048  26.775  1.00  0.00     0.000 C 
BRANCH  15  16
ATOM     16  C   UNL     1      -7.009 -17.207  26.914  1.00  0.00     0.000 C 
BRANCH  16  17
ATOM     17  C   UNL     1      -5.694 -17.993  26.770  1.00  0.00     0.000 C 
BRANCH  17  18
ATOM     18  C   UNL     1      -5.782 -19.119  25.730  1.00  0.00     0.000 C 
BRANCH  18  19
ATOM     19  C   UNL     1      -5.683 -18.561  24.305  1.00  0.00     0.000 C 
BRANCH  19  20
ATOM     20  C   UNL     1      -4.337 -18.927  23.664  1.00  0.00     0.006 C 
BRANCH  20  21
ATOM     21  C   UNL     1      -4.428 -20.194  22.803  1.00  0.00     0.053 C 
BRANCH  21  22
ATOM     22  C   UNL     1      -3.075 -20.774  22.528  1.00  0.00     0.041 C 
ATOM     23  O   UNL     1      -2.737 -21.870  23.049  1.00  0.00    -0.550 OA
ATOM     24  O   UNL     1      -2.199 -20.122  21.670  1.00  0.00    -0.550 OA
ENDBRANCH  21  22
ENDBRANCH  20  21
ENDBRANCH  19  20
ENDBRANCH  18  19
ENDBRANCH  17  18
ENDBRANCH  16  17
ENDBRANCH  15  16
ENDBRANCH  14  15
ENDBRANCH  13  14
ENDBRANCH   1  13
TORSDOF 20
ENDMDL
MODEL 5
REMARK VINA RESULT:    18.988      2.400      9.797
REMARK INTER + INTRA:          39.980
REMARK INTER:                  41.114
REMARK INTRA:                  -1.134
REMARK UNBOUND:                -1.208
REMARK SMILES CCCCCCCCCCCCCCCCCCCCCC(=O)[O-]
REMARK SMILES IDX 12 1 11 2 10 3 9 4 8 5 7 6 6 7 5 8 4 9 3 10 2 11 1 12 13 13
REMARK SMILES IDX 14 14 15 15 16 16 17 17 18 18 19 19 20 20 21 21 22 22 23 23
REMARK SMILES IDX 24 24
REMARK H PARENT
REMARK Flexibility Score: inf
ROOT
ATOM      1  C   UNL     1      -6.068 -18.001  26.887  1.00  0.00     0.000 C 
ENDROOT
BRANCH   1   2
ATOM      2  C   UNL     1      -7.263 -17.119  27.290  1.00  0.00     0.000 C 
BRANCH   2   3
ATOM      3  C   UNL     1      -8.531 -17.928  27.600  1.00  0.00     0.000 C 
BRANCH   3   4
ATOM      4  C   UNL     1      -9.756 -17.009  27.706  1.00  0.00    -0.000 C 
BRANCH   4   5
ATOM      5  C   UNL     1      -9.530 -15.634  27.052  1.00  0.00    -0.000 C 
BRANCH   5   6
ATOM      6  C   UNL     1     -10.815 -14.891  26.632  1.00  0.00    -0.000 C 
BRANCH   6   7
ATOM      7  C   UNL     1     -10.672 -13.366  26.480  1.00  0.00    -0.000 C 
BRANCH   7   8
ATOM      8  C   UNL     1     -11.657 -12.582  27.365  1.00  0.00    -0.000 C 
BRANCH   8   9
ATOM      9  C   UNL     1     -11.063 -11.268  27.903  1.00  0.00    -0.000 C 
BRANCH   9  10
ATOM     10  C   UNL     1     -10.180 -10.487  26.910  1.00  0.00    -0.000 C 
BRANCH  10  11
ATOM     11  C   UNL     1      -9.507  -9.230  27.488  1.00  0.00    -0.003 C 
ATOM     12  C   UNL     1      -7.989  -9.237  27.321  1.00  0.00     0.004 C 
ENDBRANCH  10  11
ENDBRANCH   9  10
ENDBRANCH   8   9
ENDBRANCH   7   8
ENDBRANCH   6   7
ENDBRANCH   5   6
ENDBRANCH   4   5
ENDBRANCH   3   4
ENDBRANCH   2   3
ENDBRANCH   1   2
BRANCH   1  13
ATOM     13  C   UNL     1      -6.154 -18.621  25.480  1.00  0.00     0.000 C 
BRANCH  13  14
ATOM     14  C   UNL     1      -4.806 -18.621  24.740  1.00  0.00     0.000 C 
BRANCH  14  15
ATOM     15  C   UNL     1      -4.933 -19.057  23.268  1.00  0.00     0.000 C 
BRANCH  15  16
ATOM     16  C   UNL     1      -4.746 -20.567  23.009  1.00  0.00     0.000 C 
BRANCH  16  17
ATOM     17  C   UNL     1      -3.515 -20.940  22.164  1.00  0.00     0.000 C 
BRANCH  17  18
ATOM     18  C   UNL     1      -2.269 -20.121  22.531  1.00  0.00     0.000 C 
BRANCH  18  19
ATOM     19  C   UNL     1      -1.299 -20.949  23.384  1.00  0.00     0.000 C 
BRANCH  19  20
ATOM     20  C   UNL     1      -0.534 -20.055  24.370  1.00  0.00     0.006 C 
BRANCH  20  21
ATOM     21  C   UNL     1      -0.040 -18.757  23.717  1.00  0.00     0.053 C 
BRANCH  21  22
ATOM     22  C   UNL     1      -0.531 -17.547  24.451  1.00  0.00     0.041 C 
ATOM     23  O   UNL     1      -1.259 -17.676  25.471  1.00  0.00    -0.550 OA
ATOM     24  O   UNL     1      -0.157 -16.278  24.029  1.00  0.00    -0.550 OA
ENDBRANCH  21  22
ENDBRANCH  20  21
ENDBRANCH  19  20
ENDBRANCH  18  19
ENDBRANCH  17  18
ENDBRANCH  16  17
ENDBRANCH  15  16
ENDBRANCH  14  15
ENDBRANCH  13  14
ENDBRANCH   1  13
TORSDOF 20
ENDMDL
MODEL 6
REMARK VINA RESULT:    19.113      1.010      1.746
REMARK INTER + INTRA:          40.251
REMARK INTER:                  41.156
REMARK INTRA:                  -0.905
REMARK UNBOUND:                -1.208
REMARK SMILES CCCCCCCCCCCCCCCCCCCCCC(=O)[O-]
REMARK SMILES IDX 12 1 11 2 10 3 9 4 8 5 7 6 6 7 5 8 4 9 3 10 2 11 1 12 13 13
REMARK SMILES IDX 14 14 15 15 16 16 17 17 18 18 19 19 20 20 21 21 22 22 23 23
REMARK SMILES IDX 24 24
REMARK H PARENT
REMARK Flexibility Score: inf
ROOT
ATOM      1  C   UNL     1      -9.850 -16.528  27.399  1.00  0.00     0.000 C 
ENDROOT
BRANCH   1   2
ATOM      2  C   UNL     1      -8.558 -17.294  27.738  1.00  0.00     0.000 C 
BRANCH   2   3
ATOM      3  C   UNL     1      -7.722 -17.641  26.497  1.00  0.00     0.000 C 
BRANCH   3   4
ATOM      4  C   UNL     1      -6.232 -17.747  26.852  1.00  0.00    -0.000 C 
BRANCH   4   5
ATOM      5  C   UNL     1      -5.473 -18.741  25.955  1.00  0.00    -0.000 C 
BRANCH   5   6
ATOM      6  C   UNL     1      -5.660 -18.527  24.439  1.00  0.00    -0.000 C 
BRANCH   6   7
ATOM      7  C   UNL     1      -4.462 -18.941  23.564  1.00  0.00    -0.000 C 
BRANCH   7   8
ATOM      8  C   UNL     1      -4.623 -20.347  22.960  1.00  0.00    -0.000 C 
BRANCH   8   9
ATOM      9  C   UNL     1      -3.285 -20.959  22.507  1.00  0.00    -0.000 C 
BRANCH   9  10
ATOM     10  C   UNL     1      -2.097 -19.979  22.443  1.00  0.00    -0.000 C 
BRANCH  10  11
ATOM     11  C   UNL     1      -1.220 -19.936  23.706  1.00  0.00    -0.003 C 
ATOM     12  C   UNL     1      -0.385 -18.661  23.808  1.00  0.00     0.004 C 
ENDBRANCH  10  11
ENDBRANCH   9  10
ENDBRANCH   8   9
ENDBRANCH   7   8
ENDBRANCH   6   7
ENDBRANCH   5   6
ENDBRANCH   4   5
ENDBRANCH   3   4
ENDBRANCH   2   3
ENDBRANCH   1   2
BRANCH   1  13
ATOM     13  C   UNL     1      -9.644 -15.119  26.814  1.00  0.00     0.000 C 
BRANCH  13  14
ATOM     14  C   UNL     1     -10.959 -14.448  26.385  1.00  0.00     0.000 C 
BRANCH  14  15
ATOM     15  C   UNL     1     -11.238 -13.139  27.147  1.00  0.00     0.000 C 
BRANCH  15  16
ATOM     16  C   UNL     1     -10.248 -11.988  26.866  1.00  0.00     0.000 C 
BRANCH  16  17
ATOM     17  C   UNL     1     -10.657 -10.617  27.435  1.00  0.00     0.000 C 
BRANCH  17  18
ATOM     18  C   UNL     1      -9.770  -9.472  26.927  1.00  0.00     0.000 C 
BRANCH  18  19
ATOM     19  C   UNL     1      -8.919  -8.891  28.063  1.00  0.00     0.000 C 
BRANCH  19  20
ATOM     20  C   UNL     1      -7.437  -9.247  27.877  1.00  0.00     0.006 C 
BRANCH  20  21
ATOM     21  C   UNL     1      -7.184 -10.026  26.580  1.00  0.00     0.053 C 
BRANCH  21  22
ATOM     22  C   UNL     1      -5.766 -10.500  26.487  1.00  0.00     0.041 C 
ATOM     23  O   UNL     1      -5.239 -10.706  25.362  1.00  0.00    -0.550 OA
ATOM     24  O   UNL     1      -5.015 -10.681  27.641  1.00  0.00    -0.550 OA
ENDBRANCH  21  22
ENDBRANCH  20  21
ENDBRANCH  19  20
ENDBRANCH  18  19
ENDBRANCH  17  18
ENDBRANCH  16  17
ENDBRANCH  15  16
ENDBRANCH  14  15
ENDBRANCH  13  14
ENDBRANCH   1  13
TORSDOF 20
ENDMDL
MODEL 7
REMARK VINA RESULT:    19.170      2.414      9.514
REMARK INTER + INTRA:          40.374
REMARK INTER:                  41.015
REMARK INTRA:                  -0.641
REMARK UNBOUND:                -1.208
REMARK SMILES CCCCCCCCCCCCCCCCCCCCCC(=O)[O-]
REMARK SMILES IDX 12 1 11 2 10 3 9 4 8 5 7 6 6 7 5 8 4 9 3 10 2 11 1 12 13 13
REMARK SMILES IDX 14 14 15 15 16 16 17 17 18 18 19 19 20 20 21 21 22 22 23 23
REMARK SMILES IDX 24 24
REMARK H PARENT
REMARK Flexibility Score: inf
ROOT
ATOM      1  C   UNL     1      -7.740 -16.967  26.796  1.00  0.00     0.000 C 
ENDROOT
BRANCH   1   2
ATOM      2  C   UNL     1      -8.782 -17.144  27.915  1.00  0.00     0.000 C 
BRANCH   2   3
ATOM      3  C   UNL     1     -10.056 -16.318  27.687  1.00  0.00     0.000 C 
BRANCH   3   4
ATOM      4  C   UNL     1      -9.748 -15.045  26.885  1.00  0.00    -0.000 C 
BRANCH   4   5
ATOM      5  C   UNL     1     -11.017 -14.281  26.466  1.00  0.00    -0.000 C 
BRANCH   5   6
ATOM      6  C   UNL     1     -11.213 -12.914  27.150  1.00  0.00    -0.000 C 
BRANCH   6   7
ATOM      7  C   UNL     1     -10.274 -11.794  26.666  1.00  0.00    -0.000 C 
BRANCH   7   8
ATOM      8  C   UNL     1     -10.257 -10.579  27.609  1.00  0.00    -0.000 C 
BRANCH   8   9
ATOM      9  C   UNL     1      -9.472  -9.386  27.034  1.00  0.00    -0.000 C 
BRANCH   9  10
ATOM     10  C   UNL     1      -7.978  -9.335  27.411  1.00  0.00    -0.000 C 
BRANCH  10  11
ATOM     11  C   UNL     1      -7.064 -10.246  26.573  1.00  0.00    -0.003 C 
ATOM     12  C   UNL     1      -5.631 -10.296  27.099  1.00  0.00     0.004 C 
ENDBRANCH  10  11
ENDBRANCH   9  10
ENDBRANCH   8   9
ENDBRANCH   7   8
ENDBRANCH   6   7
ENDBRANCH   5   6
ENDBRANCH   4   5
ENDBRANCH   3   4
ENDBRANCH   2   3
ENDBRANCH   1   2
BRANCH   1  13
ATOM     13  C   UNL     1      -6.453 -17.797  26.961  1.00  0.00     0.000 C 
BRANCH  13  14
ATOM     14  C   UNL     1      -6.331 -18.928  25.927  1.00  0.00     0.000 C 
BRANCH  14  15
ATOM     15  C   UNL     1      -5.511 -18.520  24.689  1.00  0.00     0.000 C 
BRANCH  15  16
ATOM     16  C   UNL     1      -4.429 -19.530  24.252  1.00  0.00     0.000 C 
BRANCH  16  17
ATOM     17  C   UNL     1      -4.432 -19.888  22.754  1.00  0.00     0.000 C 
BRANCH  17  18
ATOM     18  C   UNL     1      -3.479 -21.044  22.415  1.00  0.00     0.000 C 
BRANCH  18  19
ATOM     19  C   UNL     1      -2.069 -20.523  22.115  1.00  0.00     0.000 C 
BRANCH  19  20
ATOM     20  C   UNL     1      -1.375 -20.042  23.397  1.00  0.00     0.006 C 
BRANCH  20  21
ATOM     21  C   UNL     1      -0.502 -18.803  23.157  1.00  0.00     0.053 C 
BRANCH  21  22
ATOM     22  C   UNL     1      -0.562 -17.852  24.313  1.00  0.00     0.041 C 
ATOM     23  O   UNL     1      -1.002 -18.236  25.429  1.00  0.00    -0.550 OA
ATOM     24  O   UNL     1      -0.100 -16.550  24.168  1.00  0.00    -0.550 OA
ENDBRANCH  21  22
ENDBRANCH  20  21
ENDBRANCH  19  20
ENDBRANCH  18  19
ENDBRANCH  17  18
ENDBRANCH  16  17
ENDBRANCH  15  16
ENDBRANCH  14  15
ENDBRANCH  13  14
ENDBRANCH   1  13
TORSDOF 20
ENDMDL
MODEL 8
REMARK VINA RESULT:    19.211      3.188      9.749
REMARK INTER + INTRA:          40.463
REMARK INTER:                  41.467
REMARK INTRA:                  -1.004
REMARK UNBOUND:                -1.208
REMARK SMILES CCCCCCCCCCCCCCCCCCCCCC(=O)[O-]
REMARK SMILES IDX 12 1 11 2 10 3 9 4 8 5 7 6 6 7 5 8 4 9 3 10 2 11 1 12 13 13
REMARK SMILES IDX 14 14 15 15 16 16 17 17 18 18 19 19 20 20 21 21 22 22 23 23
REMARK SMILES IDX 24 24
REMARK H PARENT
REMARK Flexibility Score: inf
ROOT
ATOM      1  C   UNL     1      -7.081 -18.089  26.098  1.00  0.00     0.000 C 
ENDROOT
BRANCH   1   2
ATOM      2  C   UNL     1      -7.572 -17.036  27.109  1.00  0.00     0.000 C 
BRANCH   2   3
ATOM      3  C   UNL     1      -8.578 -17.599  28.123  1.00  0.00     0.000 C 
BRANCH   3   4
ATOM      4  C   UNL     1      -9.793 -16.671  28.264  1.00  0.00    -0.000 C 
BRANCH   4   5
ATOM      5  C   UNL     1     -10.236 -16.059  26.924  1.00  0.00    -0.000 C 
BRANCH   5   6
ATOM      6  C   UNL     1      -9.856 -14.577  26.725  1.00  0.00    -0.000 C 
BRANCH   6   7
ATOM      7  C   UNL     1     -11.030 -13.636  26.394  1.00  0.00    -0.000 C 
BRANCH   7   8
ATOM      8  C   UNL     1     -11.059 -12.383  27.285  1.00  0.00    -0.000 C 
BRANCH   8   9
ATOM      9  C   UNL     1     -10.086 -11.288  26.810  1.00  0.00    -0.000 C 
BRANCH   9  10
ATOM     10  C   UNL     1     -10.271  -9.908  27.470  1.00  0.00    -0.000 C 
BRANCH  10  11
ATOM     11  C   UNL     1      -8.974  -9.109  27.683  1.00  0.00    -0.003 C 
ATOM     12  C   UNL     1      -7.820  -9.602  26.812  1.00  0.00     0.004 C 
ENDBRANCH  10  11
ENDBRANCH   9  10
ENDBRANCH   8   9
ENDBRANCH   7   8
ENDBRANCH   6   7
ENDBRANCH   5   6
ENDBRANCH   4   5
ENDBRANCH   3   4
ENDBRANCH   2   3
ENDBRANCH   1   2
BRANCH   1  13
ATOM     13  C   UNL     1      -5.565 -18.355  26.113  1.00  0.00     0.000 C 
BRANCH  13  14
ATOM     14  C   UNL     1      -4.860 -17.749  27.338  1.00  0.00     0.000 C 
BRANCH  14  15
ATOM     15  C   UNL     1      -3.325 -17.798  27.229  1.00  0.00     0.000 C 
BRANCH  15  16
ATOM     16  C   UNL     1      -2.768 -17.915  25.795  1.00  0.00     0.000 C 
BRANCH  16  17
ATOM     17  C   UNL     1      -1.255 -17.663  25.656  1.00  0.00     0.000 C 
BRANCH  17  18
ATOM     18  C   UNL     1      -0.495 -18.880  25.108  1.00  0.00     0.000 C 
BRANCH  18  19
ATOM     19  C   UNL     1      -0.872 -19.151  23.647  1.00  0.00     0.000 C 
BRANCH  19  20
ATOM     20  C   UNL     1      -1.627 -20.481  23.511  1.00  0.00     0.006 C 
BRANCH  20  21
ATOM     21  C   UNL     1      -2.418 -20.570  22.199  1.00  0.00     0.053 C 
BRANCH  21  22
ATOM     22  C   UNL     1      -3.893 -20.645  22.447  1.00  0.00     0.041 C 
ATOM     23  O   UNL     1      -4.465 -19.766  23.145  1.00  0.00    -0.550 OA
ATOM     24  O   UNL     1      -4.644 -21.667  21.878  1.00  0.00    -0.550 OA
ENDBRANCH  21  22
ENDBRANCH  20  21
ENDBRANCH  19  20
ENDBRANCH  18  19
ENDBRANCH  17  18
ENDBRANCH  16  17
ENDBRANCH  15  16
ENDBRANCH  14  15
ENDBRANCH  13  14
ENDBRANCH   1  13
TORSDOF 20
ENDMDL
MODEL 9
REMARK VINA RESULT:    19.337      4.320      6.952
REMARK INTER + INTRA:          40.738
REMARK INTER:                  41.996
REMARK INTRA:                  -1.258
REMARK UNBOUND:                -1.208
REMARK SMILES CCCCCCCCCCCCCCCCCCCCCC(=O)[O-]
REMARK SMILES IDX 12 1 11 2 10 3 9 4 8 5 7 6 6 7 5 8 4 9 3 10 2 11 1 12 13 13
REMARK SMILES IDX 14 14 15 15 16 16 17 17 18 18 19 19 20 20 21 21 22 22 23 23
REMARK SMILES IDX 24 24
REMARK H PARENT
REMARK Flexibility Score: inf
ROOT
ATOM      1  C   UNL     1      -5.896 -17.978  24.405  1.00  0.00     0.000 C 
ENDROOT
BRANCH   1   2
ATOM      2  C   UNL     1      -5.220 -18.635  23.187  1.00  0.00     0.000 C 
BRANCH   2   3
ATOM      3  C   UNL     1      -4.409 -19.887  23.552  1.00  0.00     0.000 C 
BRANCH   3   4
ATOM      4  C   UNL     1      -4.135 -20.745  22.308  1.00  0.00    -0.000 C 
BRANCH   4   5
ATOM      5  C   UNL     1      -2.659 -21.160  22.181  1.00  0.00    -0.000 C 
BRANCH   5   6
ATOM      6  C   UNL     1      -1.682 -20.386  23.089  1.00  0.00    -0.000 C 
BRANCH   6   7
ATOM      7  C   UNL     1      -0.999 -19.170  22.436  1.00  0.00    -0.000 C 
BRANCH   7   8
ATOM      8  C   UNL     1       0.092 -18.550  23.324  1.00  0.00    -0.000 C 
BRANCH   8   9
ATOM      9  C   UNL     1      -0.161 -17.063  23.633  1.00  0.00    -0.000 C 
BRANCH   9  10
ATOM     10  C   UNL     1      -1.011 -16.784  24.888  1.00  0.00    -0.000 C 
BRANCH  10  11
ATOM     11  C   UNL     1      -1.340 -18.022  25.739  1.00  0.00    -0.003 C 
ATOM     12  C   UNL     1      -2.526 -17.802  26.678  1.00  0.00     0.004 C 
ENDBRANCH  10  11
ENDBRANCH   9  10
ENDBRANCH   8   9
ENDBRANCH   7   8
ENDBRANCH   6   7
ENDBRANCH   5   6
ENDBRANCH   4   5
ENDBRANCH   3   4
ENDBRANCH   2   3
ENDBRANCH   1   2
BRANCH   1  13
ATOM     13  C   UNL     1      -5.968 -18.856  25.668  1.00  0.00     0.000 C 
BRANCH  13  14
ATOM     14  C   UNL     1      -5.973 -18.036  26.969  1.00  0.00     0.000 C 
BRANCH  14  15
ATOM     15  C   UNL     1      -7.391 -17.637  27.419  1.00  0.00     0.000 C 
BRANCH  15  16
ATOM     16  C   UNL     1      -7.900 -16.285  26.876  1.00  0.00     0.000 C 
BRANCH  16  17
ATOM     17  C   UNL     1      -9.427 -16.095  26.917  1.00  0.00     0.000 C 
BRANCH  17  18
ATOM     18  C   UNL     1     -10.162 -17.294  27.534  1.00  0.00     0.000 C 
BRANCH  18  19
ATOM     19  C   UNL     1     -10.355 -17.102  29.043  1.00  0.00     0.000 C 
BRANCH  19  20
ATOM     20  C   UNL     1      -9.348 -17.944  29.838  1.00  0.00     0.006 C 
BRANCH  20  21
ATOM     21  C   UNL     1      -9.253 -17.505  31.305  1.00  0.00     0.053 C 
BRANCH  21  22
ATOM     22  C   UNL     1      -7.881 -17.733  31.862  1.00  0.00     0.041 C 
ATOM     23  O   UNL     1      -7.133 -16.754  32.125  1.00  0.00    -0.550 OA
ATOM     24  O   UNL     1      -7.441 -19.024  32.124  1.00  0.00    -0.550 OA
ENDBRANCH  21  22
ENDBRANCH  20  21
ENDBRANCH  19  20
ENDBRANCH  18  19
ENDBRANCH  17  18
ENDBRANCH  16  17
ENDBRANCH  15  16
ENDBRANCH  14  15
ENDBRANCH  13  14
ENDBRANCH   1  13
TORSDOF 20
ENDMDL
