MODEL 1
REMARK VINA RESULT:    -4.644      0.000      0.000
REMARK INTER + INTRA:         -10.273
REMARK INTER:                  -8.716
REMARK INTRA:                  -1.557
REMARK UNBOUND:                -1.557
REMARK SMILES CCCCCCCCC=CCCCCCCCC(=O)[O-]
REMARK SMILES IDX 10 1 9 2 11 3 12 4 13 5 14 6 15 7 16 8 17 9 18 10 19 11
REMARK SMILES IDX 20 12 8 13 7 14 6 15 5 16 4 17 3 18 2 19 1 20
REMARK H PARENT
REMARK Flexibility Score: inf
ROOT
ATOM      1  C   UNL     1       0.910   2.539   7.539  1.00  0.00    -0.031 C 
ATOM      2  C   UNL     1       1.318   2.361   6.274  1.00  0.00    -0.031 C 
ENDROOT
BRANCH   1   3
ATOM      3  C   UNL     1       1.421   3.682   8.374  1.00  0.00     0.027 C 
BRANCH   3   4
ATOM      4  C   UNL     1       2.396   4.559   7.572  1.00  0.00     0.004 C 
BRANCH   4   5
ATOM      5  C   UNL     1       2.998   5.690   8.421  1.00  0.00     0.000 C 
BRANCH   5   6
ATOM      6  C   UNL     1       3.659   6.781   7.557  1.00  0.00     0.000 C 
BRANCH   6   7
ATOM      7  C   UNL     1       5.138   7.000   7.912  1.00  0.00     0.000 C 
BRANCH   7   8
ATOM      8  C   UNL     1       5.722   8.262   7.252  1.00  0.00     0.006 C 
BRANCH   8   9
ATOM      9  C   UNL     1       7.013   7.962   6.475  1.00  0.00     0.053 C 
BRANCH   9  10
ATOM     10  C   UNL     1       6.796   8.015   4.994  1.00  0.00     0.041 C 
ATOM     11  O   UNL     1       5.639   7.870   4.519  1.00  0.00    -0.550 OA
ATOM     12  O   UNL     1       7.866   8.254   4.142  1.00  0.00    -0.550 OA
ENDBRANCH   9  10
ENDBRANCH   8   9
ENDBRANCH   7   8
ENDBRANCH   6   7
ENDBRANCH   5   6
ENDBRANCH   4   5
ENDBRANCH   3   4
ENDBRANCH   1   3
BRANCH   2  13
ATOM     13  C   UNL     1       0.827   1.209   5.437  1.00  0.00     0.027 C 
BRANCH  13  14
ATOM     14  C   UNL     1      -0.483   1.531   4.702  1.00  0.00     0.004 C 
BRANCH  14  15
ATOM     15  C   UNL     1      -1.680   0.753   5.276  1.00  0.00     0.000 C 
BRANCH  15  16
ATOM     16  C   UNL     1      -2.411   1.532   6.380  1.00  0.00     0.000 C 
BRANCH  16  17
ATOM     17  C   UNL     1      -2.179   0.928   7.777  1.00  0.00    -0.000 C 
BRANCH  17  18
ATOM     18  C   UNL     1      -1.914  -0.587   7.733  1.00  0.00    -0.000 C 
BRANCH  18  19
ATOM     19  C   UNL     1      -0.766  -1.062   8.643  1.00  0.00    -0.003 C 
ATOM     20  C   UNL     1       0.509  -1.401   7.869  1.00  0.00     0.004 C 
ENDBRANCH  18  19
ENDBRANCH  17  18
ENDBRANCH  16  17
ENDBRANCH  15  16
ENDBRANCH  14  15
ENDBRANCH  13  14
ENDBRANCH   2  13
TORSDOF 15
ENDMDL
MODEL 2
REMARK VINA RESULT:    -4.557     17.524     20.146
REMARK INTER + INTRA:         -10.109
REMARK INTER:                  -9.225
REMARK INTRA:                  -0.884
REMARK UNBOUND:                -1.557
REMARK SMILES CCCCCCCCC=CCCCCCCCC(=O)[O-]
REMARK SMILES IDX 10 1 9 2 11 3 12 4 13 5 14 6 15 7 16 8 17 9 18 10 19 11
REMARK SMILES IDX 20 12 8 13 7 14 6 15 5 16 4 17 3 18 2 19 1 20
REMARK H PARENT
REMARK Flexibility Score: inf
ROOT
ATOM      1  C   UNL     1      -7.718  -7.201  -5.803  1.00  0.00    -0.031 C 
ATOM      2  C   UNL     1      -7.136  -7.648  -6.926  1.00  0.00    -0.031 C 
ENDROOT
BRANCH   1   3
ATOM      3  C   UNL     1      -8.966  -7.842  -5.258  1.00  0.00     0.027 C 
BRANCH   3   4
ATOM      4  C   UNL     1      -8.635  -8.802  -4.105  1.00  0.00     0.004 C 
BRANCH   4   5
ATOM      5  C   UNL     1      -7.667  -8.181  -3.086  1.00  0.00     0.000 C 
BRANCH   5   6
ATOM      6  C   UNL     1      -7.655  -8.946  -1.749  1.00  0.00     0.000 C 
BRANCH   6   7
ATOM      7  C   UNL     1      -9.024  -8.937  -1.050  1.00  0.00     0.000 C 
BRANCH   7   8
ATOM      8  C   UNL     1      -9.085  -9.909   0.142  1.00  0.00     0.006 C 
BRANCH   8   9
ATOM      9  C   UNL     1      -7.728 -10.042   0.849  1.00  0.00     0.053 C 
BRANCH   9  10
ATOM     10  C   UNL     1      -7.849  -9.844   2.328  1.00  0.00     0.041 C 
ATOM     11  O   UNL     1      -8.979  -9.663   2.851  1.00  0.00    -0.550 OA
ATOM     12  O   UNL     1      -6.717  -9.892   3.131  1.00  0.00    -0.550 OA
ENDBRANCH   9  10
ENDBRANCH   8   9
ENDBRANCH   7   8
ENDBRANCH   6   7
ENDBRANCH   5   6
ENDBRANCH   4   5
ENDBRANCH   3   4
ENDBRANCH   1   3
BRANCH   2  13
ATOM     13  C   UNL     1      -5.899  -7.000  -7.488  1.00  0.00     0.027 C 
BRANCH  13  14
ATOM     14  C   UNL     1      -6.079  -6.550  -8.946  1.00  0.00     0.004 C 
BRANCH  14  15
ATOM     15  C   UNL     1      -6.648  -5.123  -9.049  1.00  0.00     0.000 C 
BRANCH  15  16
ATOM     16  C   UNL     1      -6.092  -4.191  -7.962  1.00  0.00     0.000 C 
BRANCH  16  17
ATOM     17  C   UNL     1      -6.563  -2.737  -8.140  1.00  0.00    -0.000 C 
BRANCH  17  18
ATOM     18  C   UNL     1      -5.887  -2.033  -9.329  1.00  0.00    -0.000 C 
BRANCH  18  19
ATOM     19  C   UNL     1      -4.987  -0.845  -8.942  1.00  0.00    -0.003 C 
ATOM     20  C   UNL     1      -4.057  -0.405 -10.074  1.00  0.00     0.004 C 
ENDBRANCH  18  19
ENDBRANCH  17  18
ENDBRANCH  16  17
ENDBRANCH  15  16
ENDBRANCH  14  15
ENDBRANCH  13  14
ENDBRANCH   2  13
TORSDOF 15
ENDMDL
MODEL 3
REMARK VINA RESULT:    -4.550      3.410      7.824
REMARK INTER + INTRA:         -10.096
REMARK INTER:                  -8.488
REMARK INTRA:                  -1.608
REMARK UNBOUND:                -1.557
REMARK SMILES CCCCCCCCC=CCCCCCCCC(=O)[O-]
REMARK SMILES IDX 10 1 9 2 11 3 12 4 13 5 14 6 15 7 16 8 17 9 18 10 19 11
REMARK SMILES IDX 20 12 8 13 7 14 6 15 5 16 4 17 3 18 2 19 1 20
REMARK H PARENT
REMARK Flexibility Score: inf
ROOT
ATOM      1  C   UNL     1      -1.262   2.370   9.050  1.00  0.00    -0.031 C 
ATOM      2  C   UNL     1      -0.499   3.038   9.929  1.00  0.00    -0.031 C 
ENDROOT
BRANCH   1   3
ATOM      3  C   UNL     1      -2.491   1.622   9.490  1.00  0.00     0.027 C 
BRANCH   3   4
ATOM      4  C   UNL     1      -2.350   0.117   9.212  1.00  0.00     0.004 C 
BRANCH   4   5
ATOM      5  C   UNL     1      -1.996  -0.177   7.745  1.00  0.00     0.000 C 
BRANCH   5   6
ATOM      6  C   UNL     1      -1.189  -1.479   7.588  1.00  0.00     0.000 C 
BRANCH   6   7
ATOM      7  C   UNL     1       0.260  -1.227   7.141  1.00  0.00     0.000 C 
BRANCH   7   8
ATOM      8  C   UNL     1       0.495   0.226   6.693  1.00  0.00     0.006 C 
BRANCH   8   9
ATOM      9  C   UNL     1       0.665   0.341   5.171  1.00  0.00     0.053 C 
BRANCH   9  10
ATOM     10  C   UNL     1      -0.002   1.566   4.627  1.00  0.00     0.041 C 
ATOM     11  O   UNL     1      -1.114   1.937   5.085  1.00  0.00    -0.550 OA
ATOM     12  O   UNL     1       0.620   2.315   3.637  1.00  0.00    -0.550 OA
ENDBRANCH   9  10
ENDBRANCH   8   9
ENDBRANCH   7   8
ENDBRANCH   6   7
ENDBRANCH   5   6
ENDBRANCH   4   5
ENDBRANCH   3   4
ENDBRANCH   1   3
BRANCH   2  13
ATOM     13  C   UNL     1       0.743   3.774   9.501  1.00  0.00     0.027 C 
BRANCH  13  14
ATOM     14  C   UNL     1       1.231   3.347   8.109  1.00  0.00     0.004 C 
BRANCH  14  15
ATOM     15  C   UNL     1       2.168   4.392   7.475  1.00  0.00     0.000 C 
BRANCH  15  16
ATOM     16  C   UNL     1       3.189   4.950   8.479  1.00  0.00     0.000 C 
BRANCH  16  17
ATOM     17  C   UNL     1       2.821   6.363   8.965  1.00  0.00    -0.000 C 
BRANCH  17  18
ATOM     18  C   UNL     1       2.556   7.340   7.807  1.00  0.00    -0.000 C 
BRANCH  18  19
ATOM     19  C   UNL     1       1.350   8.273   8.021  1.00  0.00    -0.003 C 
ATOM     20  C   UNL     1       0.556   7.944   9.286  1.00  0.00     0.004 C 
ENDBRANCH  18  19
ENDBRANCH  17  18
ENDBRANCH  16  17
ENDBRANCH  15  16
ENDBRANCH  14  15
ENDBRANCH  13  14
ENDBRANCH   2  13
TORSDOF 15
ENDMDL
MODEL 4
REMARK VINA RESULT:    -4.519      3.168      8.120
REMARK INTER + INTRA:         -10.039
REMARK INTER:                  -8.465
REMARK INTRA:                  -1.574
REMARK UNBOUND:                -1.557
REMARK SMILES CCCCCCCCC=CCCCCCCCC(=O)[O-]
REMARK SMILES IDX 10 1 9 2 11 3 12 4 13 5 14 6 15 7 16 8 17 9 18 10 19 11
REMARK SMILES IDX 20 12 8 13 7 14 6 15 5 16 4 17 3 18 2 19 1 20
REMARK H PARENT
REMARK Flexibility Score: inf
ROOT
ATOM      1  C   UNL     1      -1.054   2.359   9.024  1.00  0.00    -0.031 C 
ATOM      2  C   UNL     1      -0.426   3.201   9.858  1.00  0.00    -0.031 C 
ENDROOT
BRANCH   1   3
ATOM      3  C   UNL     1      -2.364   1.720   9.395  1.00  0.00     0.027 C 
BRANCH   3   4
ATOM      4  C   UNL     1      -2.487   0.315   8.783  1.00  0.00     0.004 C 
BRANCH   4   5
ATOM      5  C   UNL     1      -1.190  -0.498   8.920  1.00  0.00     0.000 C 
BRANCH   5   6
ATOM      6  C   UNL     1      -0.972  -1.456   7.733  1.00  0.00     0.000 C 
BRANCH   6   7
ATOM      7  C   UNL     1       0.382  -1.239   7.039  1.00  0.00     0.000 C 
BRANCH   7   8
ATOM      8  C   UNL     1       0.654   0.243   6.725  1.00  0.00     0.006 C 
BRANCH   8   9
ATOM      9  C   UNL     1       0.621   0.529   5.217  1.00  0.00     0.053 C 
BRANCH   9  10
ATOM     10  C   UNL     1      -0.416   1.549   4.866  1.00  0.00     0.041 C 
ATOM     11  O   UNL     1      -0.180   2.413   3.981  1.00  0.00    -0.550 OA
ATOM     12  O   UNL     1      -1.655   1.527   5.493  1.00  0.00    -0.550 OA
ENDBRANCH   9  10
ENDBRANCH   8   9
ENDBRANCH   7   8
ENDBRANCH   6   7
ENDBRANCH   5   6
ENDBRANCH   4   5
ENDBRANCH   3   4
ENDBRANCH   1   3
BRANCH   2  13
ATOM     13  C   UNL     1       0.895   3.830   9.503  1.00  0.00     0.027 C 
BRANCH  13  14
ATOM     14  C   UNL     1       1.359   3.467   8.085  1.00  0.00     0.004 C 
BRANCH  14  15
ATOM     15  C   UNL     1       2.471   4.404   7.579  1.00  0.00     0.000 C 
BRANCH  15  16
ATOM     16  C   UNL     1       3.023   5.312   8.688  1.00  0.00     0.000 C 
BRANCH  16  17
ATOM     17  C   UNL     1       4.543   5.157   8.871  1.00  0.00    -0.000 C 
BRANCH  17  18
ATOM     18  C   UNL     1       5.129   6.169   9.869  1.00  0.00    -0.000 C 
BRANCH  18  19
ATOM     19  C   UNL     1       6.209   7.096   9.281  1.00  0.00    -0.003 C 
ATOM     20  C   UNL     1       6.073   7.290   7.770  1.00  0.00     0.004 C 
ENDBRANCH  18  19
ENDBRANCH  17  18
ENDBRANCH  16  17
ENDBRANCH  15  16
ENDBRANCH  14  15
ENDBRANCH  13  14
ENDBRANCH   2  13
TORSDOF 15
ENDMDL
MODEL 5
REMARK VINA RESULT:    -4.417      3.855      9.346
REMARK INTER + INTRA:          -9.847
REMARK INTER:                  -8.601
REMARK INTRA:                  -1.246
REMARK UNBOUND:                -1.557
REMARK SMILES CCCCCCCCC=CCCCCCCCC(=O)[O-]
REMARK SMILES IDX 10 1 9 2 11 3 12 4 13 5 14 6 15 7 16 8 17 9 18 10 19 11
REMARK SMILES IDX 20 12 8 13 7 14 6 15 5 16 4 17 3 18 2 19 1 20
REMARK H PARENT
REMARK Flexibility Score: inf
ROOT
ATOM      1  C   UNL     1       1.685   3.537   7.525  1.00  0.00    -0.031 C 
ATOM      2  C   UNL     1       1.634   4.122   8.731  1.00  0.00    -0.031 C 
ENDROOT
BRANCH   1   3
ATOM      3  C   UNL     1       0.826   2.347   7.194  1.00  0.00     0.027 C 
BRANCH   3   4
ATOM      4  C   UNL     1       0.990   1.938   5.722  1.00  0.00     0.004 C 
BRANCH   4   5
ATOM      5  C   UNL     1       0.044   0.796   5.322  1.00  0.00     0.000 C 
BRANCH   5   6
ATOM      6  C   UNL     1      -1.437   1.214   5.385  1.00  0.00     0.000 C 
BRANCH   6   7
ATOM      7  C   UNL     1      -2.302   0.211   6.166  1.00  0.00     0.000 C 
BRANCH   7   8
ATOM      8  C   UNL     1      -1.750  -0.073   7.575  1.00  0.00     0.006 C 
BRANCH   8   9
ATOM      9  C   UNL     1      -1.245  -1.516   7.717  1.00  0.00     0.053 C 
BRANCH   9  10
ATOM     10  C   UNL     1       0.004  -1.590   8.539  1.00  0.00     0.041 C 
ATOM     11  O   UNL     1       1.034  -0.958   8.184  1.00  0.00    -0.550 OA
ATOM     12  O   UNL     1       0.022  -2.331   9.713  1.00  0.00    -0.550 OA
ENDBRANCH   9  10
ENDBRANCH   8   9
ENDBRANCH   7   8
ENDBRANCH   6   7
ENDBRANCH   5   6
ENDBRANCH   4   5
ENDBRANCH   3   4
ENDBRANCH   1   3
BRANCH   2  13
ATOM     13  C   UNL     1       2.504   5.301   9.078  1.00  0.00     0.027 C 
BRANCH  13  14
ATOM     14  C   UNL     1       3.748   5.399   8.182  1.00  0.00     0.004 C 
BRANCH  14  15
ATOM     15  C   UNL     1       5.055   5.344   8.994  1.00  0.00     0.000 C 
BRANCH  15  16
ATOM     16  C   UNL     1       5.363   6.674   9.700  1.00  0.00     0.000 C 
BRANCH  16  17
ATOM     17  C   UNL     1       5.699   7.801   8.707  1.00  0.00    -0.000 C 
BRANCH  17  18
ATOM     18  C   UNL     1       6.708   7.364   7.631  1.00  0.00    -0.000 C 
BRANCH  18  19
ATOM     19  C   UNL     1       6.513   8.038   6.260  1.00  0.00    -0.003 C 
ATOM     20  C   UNL     1       5.061   8.014   5.783  1.00  0.00     0.004 C 
ENDBRANCH  18  19
ENDBRANCH  17  18
ENDBRANCH  16  17
ENDBRANCH  15  16
ENDBRANCH  14  15
ENDBRANCH  13  14
ENDBRANCH   2  13
TORSDOF 15
ENDMDL
MODEL 6
REMARK VINA RESULT:    -4.402      1.072      2.521
REMARK INTER + INTRA:          -9.819
REMARK INTER:                  -8.399
REMARK INTRA:                  -1.420
REMARK UNBOUND:                -1.557
REMARK SMILES CCCCCCCCC=CCCCCCCCC(=O)[O-]
REMARK SMILES IDX 10 1 9 2 11 3 12 4 13 5 14 6 15 7 16 8 17 9 18 10 19 11
REMARK SMILES IDX 20 12 8 13 7 14 6 15 5 16 4 17 3 18 2 19 1 20
REMARK H PARENT
REMARK Flexibility Score: inf
ROOT
ATOM      1  C   UNL     1       1.449   3.963   8.364  1.00  0.00    -0.031 C 
ATOM      2  C   UNL     1       0.694   2.909   8.019  1.00  0.00    -0.031 C 
ENDROOT
BRANCH   1   3
ATOM      3  C   UNL     1       2.598   4.418   7.506  1.00  0.00     0.027 C 
BRANCH   3   4
ATOM      4  C   UNL     1       3.276   5.660   8.104  1.00  0.00     0.004 C 
BRANCH   4   5
ATOM      5  C   UNL     1       4.206   5.312   9.277  1.00  0.00     0.000 C 
BRANCH   5   6
ATOM      6  C   UNL     1       5.535   6.088   9.221  1.00  0.00     0.000 C 
BRANCH   6   7
ATOM      7  C   UNL     1       5.513   7.224   8.185  1.00  0.00     0.000 C 
BRANCH   7   8
ATOM      8  C   UNL     1       6.854   7.375   7.446  1.00  0.00     0.006 C 
BRANCH   8   9
ATOM      9  C   UNL     1       6.860   8.586   6.502  1.00  0.00     0.053 C 
BRANCH   9  10
ATOM     10  C   UNL     1       6.749   8.173   5.067  1.00  0.00     0.041 C 
ATOM     11  O   UNL     1       7.778   8.115   4.345  1.00  0.00    -0.550 OA
ATOM     12  O   UNL     1       5.514   7.824   4.537  1.00  0.00    -0.550 OA
ENDBRANCH   9  10
ENDBRANCH   8   9
ENDBRANCH   7   8
ENDBRANCH   6   7
ENDBRANCH   5   6
ENDBRANCH   4   5
ENDBRANCH   3   4
ENDBRANCH   1   3
BRANCH   2  13
ATOM     13  C   UNL     1      -0.446   2.434   8.881  1.00  0.00     0.027 C 
BRANCH  13  14
ATOM     14  C   UNL     1      -1.674   2.017   8.057  1.00  0.00     0.004 C 
BRANCH  14  15
ATOM     15  C   UNL     1      -2.064   0.548   8.299  1.00  0.00     0.000 C 
BRANCH  15  16
ATOM     16  C   UNL     1      -1.805  -0.337   7.070  1.00  0.00     0.000 C 
BRANCH  16  17
ATOM     17  C   UNL     1      -0.442  -1.049   7.137  1.00  0.00    -0.000 C 
BRANCH  17  18
ATOM     18  C   UNL     1       0.638  -0.346   6.296  1.00  0.00    -0.000 C 
BRANCH  18  19
ATOM     19  C   UNL     1       0.126   0.265   4.979  1.00  0.00    -0.003 C 
ATOM     20  C   UNL     1       0.746   1.629   4.670  1.00  0.00     0.004 C 
ENDBRANCH  18  19
ENDBRANCH  17  18
ENDBRANCH  16  17
ENDBRANCH  15  16
ENDBRANCH  14  15
ENDBRANCH  13  14
ENDBRANCH   2  13
TORSDOF 15
ENDMDL
MODEL 7
REMARK VINA RESULT:    -4.286     16.933     18.685
REMARK INTER + INTRA:          -9.602
REMARK INTER:                  -8.539
REMARK INTRA:                  -1.063
REMARK UNBOUND:                -1.557
REMARK SMILES CCCCCCCCC=CCCCCCCCC(=O)[O-]
REMARK SMILES IDX 10 1 9 2 11 3 12 4 13 5 14 6 15 7 16 8 17 9 18 10 19 11
REMARK SMILES IDX 20 12 8 13 7 14 6 15 5 16 4 17 3 18 2 19 1 20
REMARK H PARENT
REMARK Flexibility Score: inf
ROOT
ATOM      1  C   UNL     1      -6.343  -4.198  -8.985  1.00  0.00    -0.031 C 
ATOM      2  C   UNL     1      -6.555  -5.507  -8.781  1.00  0.00    -0.031 C 
ENDROOT
BRANCH   1   3
ATOM      3  C   UNL     1      -6.483  -3.198  -7.870  1.00  0.00     0.027 C 
BRANCH   3   4
ATOM      4  C   UNL     1      -6.375  -1.760  -8.400  1.00  0.00     0.004 C 
BRANCH   4   5
ATOM      5  C   UNL     1      -6.010  -1.712  -9.892  1.00  0.00     0.000 C 
BRANCH   5   6
ATOM      6  C   UNL     1      -4.561  -1.246 -10.125  1.00  0.00     0.000 C 
BRANCH   6   7
ATOM      7  C   UNL     1      -4.196  -0.009  -9.290  1.00  0.00     0.000 C 
BRANCH   7   8
ATOM      8  C   UNL     1      -4.230   1.291 -10.114  1.00  0.00     0.006 C 
BRANCH   8   9
ATOM      9  C   UNL     1      -2.957   2.127  -9.925  1.00  0.00     0.053 C 
BRANCH   9  10
ATOM     10  C   UNL     1      -3.263   3.501  -9.415  1.00  0.00     0.041 C 
ATOM     11  O   UNL     1      -4.455   3.901  -9.351  1.00  0.00    -0.550 OA
ATOM     12  O   UNL     1      -2.235   4.327  -8.979  1.00  0.00    -0.550 OA
ENDBRANCH   9  10
ENDBRANCH   8   9
ENDBRANCH   7   8
ENDBRANCH   6   7
ENDBRANCH   5   6
ENDBRANCH   4   5
ENDBRANCH   3   4
ENDBRANCH   1   3
BRANCH   2  13
ATOM     13  C   UNL     1      -6.436  -6.512  -9.895  1.00  0.00     0.027 C 
BRANCH  13  14
ATOM     14  C   UNL     1      -5.831  -7.844  -9.425  1.00  0.00     0.004 C 
BRANCH  14  15
ATOM     15  C   UNL     1      -6.911  -8.860  -9.012  1.00  0.00     0.000 C 
BRANCH  15  16
ATOM     16  C   UNL     1      -6.878  -9.173  -7.508  1.00  0.00     0.000 C 
BRANCH  16  17
ATOM     17  C   UNL     1      -7.789  -8.236  -6.695  1.00  0.00    -0.000 C 
BRANCH  17  18
ATOM     18  C   UNL     1      -6.998  -7.274  -5.792  1.00  0.00    -0.000 C 
BRANCH  18  19
ATOM     19  C   UNL     1      -7.724  -6.872  -4.495  1.00  0.00    -0.003 C 
ATOM     20  C   UNL     1      -7.705  -7.972  -3.433  1.00  0.00     0.004 C 
ENDBRANCH  18  19
ENDBRANCH  17  18
ENDBRANCH  16  17
ENDBRANCH  15  16
ENDBRANCH  14  15
ENDBRANCH  13  14
ENDBRANCH   2  13
TORSDOF 15
ENDMDL
MODEL 8
REMARK VINA RESULT:    -4.247      1.131      1.503
REMARK INTER + INTRA:          -9.528
REMARK INTER:                  -8.246
REMARK INTRA:                  -1.282
REMARK UNBOUND:                -1.557
REMARK SMILES CCCCCCCCC=CCCCCCCCC(=O)[O-]
REMARK SMILES IDX 10 1 9 2 11 3 12 4 13 5 14 6 15 7 16 8 17 9 18 10 19 11
REMARK SMILES IDX 20 12 8 13 7 14 6 15 5 16 4 17 3 18 2 19 1 20
REMARK H PARENT
REMARK Flexibility Score: inf
ROOT
ATOM      1  C   UNL     1       0.981   2.445   7.126  1.00  0.00    -0.031 C 
ATOM      2  C   UNL     1       1.066   1.882   5.911  1.00  0.00    -0.031 C 
ENDROOT
BRANCH   1   3
ATOM      3  C   UNL     1       1.830   3.629   7.501  1.00  0.00     0.027 C 
BRANCH   3   4
ATOM      4  C   UNL     1       1.434   4.178   8.881  1.00  0.00     0.004 C 
BRANCH   4   5
ATOM      5  C   UNL     1       2.539   5.043   9.506  1.00  0.00     0.000 C 
BRANCH   5   6
ATOM      6  C   UNL     1       3.701   5.304   8.529  1.00  0.00     0.000 C 
BRANCH   6   7
ATOM      7  C   UNL     1       4.960   5.832   9.235  1.00  0.00     0.000 C 
BRANCH   7   8
ATOM      8  C   UNL     1       5.782   6.780   8.344  1.00  0.00     0.006 C 
BRANCH   8   9
ATOM      9  C   UNL     1       4.906   7.513   7.318  1.00  0.00     0.053 C 
BRANCH   9  10
ATOM     10  C   UNL     1       5.699   7.968   6.132  1.00  0.00     0.041 C 
ATOM     11  O   UNL     1       5.192   7.933   4.981  1.00  0.00    -0.550 OA
ATOM     12  O   UNL     1       6.987   8.459   6.303  1.00  0.00    -0.550 OA
ENDBRANCH   9  10
ENDBRANCH   8   9
ENDBRANCH   7   8
ENDBRANCH   6   7
ENDBRANCH   5   6
ENDBRANCH   4   5
ENDBRANCH   3   4
ENDBRANCH   1   3
BRANCH   2  13
ATOM     13  C   UNL     1       0.234   0.685   5.533  1.00  0.00     0.027 C 
BRANCH  13  14
ATOM     14  C   UNL     1      -1.110   1.077   4.901  1.00  0.00     0.004 C 
BRANCH  14  15
ATOM     15  C   UNL     1      -2.288   0.891   5.874  1.00  0.00     0.000 C 
BRANCH  15  16
ATOM     16  C   UNL     1      -1.998  -0.169   6.949  1.00  0.00     0.000 C 
BRANCH  16  17
ATOM     17  C   UNL     1      -2.063   0.408   8.374  1.00  0.00    -0.000 C 
BRANCH  17  18
ATOM     18  C   UNL     1      -1.466  -0.540   9.428  1.00  0.00    -0.000 C 
BRANCH  18  19
ATOM     19  C   UNL     1      -0.438  -1.545   8.874  1.00  0.00    -0.003 C 
ATOM     20  C   UNL     1      -0.343  -2.824   9.707  1.00  0.00     0.004 C 
ENDBRANCH  18  19
ENDBRANCH  17  18
ENDBRANCH  16  17
ENDBRANCH  15  16
ENDBRANCH  14  15
ENDBRANCH  13  14
ENDBRANCH   2  13
TORSDOF 15
ENDMDL
MODEL 9
REMARK VINA RESULT:    -4.224      3.859      8.965
REMARK INTER + INTRA:          -9.484
REMARK INTER:                  -8.151
REMARK INTRA:                  -1.333
REMARK UNBOUND:                -1.557
REMARK SMILES CCCCCCCCC=CCCCCCCCC(=O)[O-]
REMARK SMILES IDX 10 1 9 2 11 3 12 4 13 5 14 6 15 7 16 8 17 9 18 10 19 11
REMARK SMILES IDX 20 12 8 13 7 14 6 15 5 16 4 17 3 18 2 19 1 20
REMARK H PARENT
REMARK Flexibility Score: inf
ROOT
ATOM      1  C   UNL     1       1.030   1.966   5.822  1.00  0.00    -0.031 C 
ATOM      2  C   UNL     1       1.046   2.443   7.075  1.00  0.00    -0.031 C 
ENDROOT
BRANCH   1   3
ATOM      3  C   UNL     1       0.243   0.736   5.462  1.00  0.00     0.027 C 
BRANCH   3   4
ATOM      4  C   UNL     1      -1.143   1.107   4.910  1.00  0.00     0.004 C 
BRANCH   4   5
ATOM      5  C   UNL     1      -2.276   0.747   5.884  1.00  0.00     0.000 C 
BRANCH   5   6
ATOM      6  C   UNL     1      -2.318   1.685   7.105  1.00  0.00     0.000 C 
BRANCH   6   7
ATOM      7  C   UNL     1      -2.085   0.942   8.430  1.00  0.00     0.000 C 
BRANCH   7   8
ATOM      8  C   UNL     1      -1.793  -0.555   8.224  1.00  0.00     0.006 C 
BRANCH   8   9
ATOM      9  C   UNL     1      -1.052  -1.169   9.421  1.00  0.00     0.053 C 
BRANCH   9  10
ATOM     10  C   UNL     1       0.269  -1.747   9.021  1.00  0.00     0.041 C 
ATOM     11  O   UNL     1       1.068  -1.074   8.319  1.00  0.00    -0.550 OA
ATOM     12  O   UNL     1       0.632  -3.017   9.451  1.00  0.00    -0.550 OA
ENDBRANCH   9  10
ENDBRANCH   8   9
ENDBRANCH   7   8
ENDBRANCH   6   7
ENDBRANCH   5   6
ENDBRANCH   4   5
ENDBRANCH   3   4
ENDBRANCH   1   3
BRANCH   2  13
ATOM     13  C   UNL     1       1.846   3.663   7.449  1.00  0.00     0.027 C 
BRANCH  13  14
ATOM     14  C   UNL     1       1.487   4.199   8.843  1.00  0.00     0.004 C 
BRANCH  14  15
ATOM     15  C   UNL     1       2.587   5.110   9.417  1.00  0.00     0.000 C 
BRANCH  15  16
ATOM     16  C   UNL     1       3.767   5.286   8.449  1.00  0.00     0.000 C 
BRANCH  16  17
ATOM     17  C   UNL     1       3.834   6.705   7.858  1.00  0.00    -0.000 C 
BRANCH  17  18
ATOM     18  C   UNL     1       4.385   7.739   8.854  1.00  0.00    -0.000 C 
BRANCH  18  19
ATOM     19  C   UNL     1       5.823   8.205   8.563  1.00  0.00    -0.003 C 
ATOM     20  C   UNL     1       6.426   7.545   7.322  1.00  0.00     0.004 C 
ENDBRANCH  18  19
ENDBRANCH  17  18
ENDBRANCH  16  17
ENDBRANCH  15  16
ENDBRANCH  14  15
ENDBRANCH  13  14
ENDBRANCH   2  13
TORSDOF 15
ENDMDL
