MODEL 1
REMARK VINA RESULT:    -5.249      0.000      0.000
REMARK INTER + INTRA:          -6.193
REMARK INTER:                  -5.709
REMARK INTRA:                  -0.484
REMARK UNBOUND:                -0.484
REMARK SMILES C=C(C)[C@@H]1CC[C@]2(C)CC[C@]3(C)[C@H](CC[C@H]4[C@]5(C)CC[C@@H](O)C(C)(C)[C@H]5CC[C@]43C)[C@H]12
REMARK SMILES IDX 4 1 5 2 6 3 7 4 31 5 13 6 14 7 15 8 16 9 17 10 19 11 20 12
REMARK SMILES IDX 21 13 23 14 26 15 27 16 28 17 29 18 11 19 10 20 9 21 12 22
REMARK SMILES IDX 30 23 24 24 25 25 18 26 8 27 2 28 3 29 1 30 22 31
REMARK H PARENT 22 32
REMARK Flexibility Score: inf
ROOT
ATOM      1  C   UNL     1       5.882  -1.780  -2.532  1.00  0.00     0.018 C 
ATOM      2  C   UNL     1       6.569  -0.931  -3.585  1.00  0.00     0.009 C 
ATOM      3  C   UNL     1       5.524   0.112  -3.935  1.00  0.00     0.008 C 
ATOM      4  C   UNL     1       4.704   0.375  -2.637  1.00  0.00    -0.029 C 
ATOM      5  C   UNL     1       5.068  -0.790  -1.647  1.00  0.00     0.006 C 
ATOM      6  C   UNL     1       5.569  -0.274  -0.237  1.00  0.00    -0.000 C 
ATOM      7  C   UNL     1       5.896  -1.373   0.779  1.00  0.00     0.005 C 
ATOM      8  C   UNL     1       6.304  -0.857   2.170  1.00  0.00     0.005 C 
ATOM      9  C   UNL     1       6.222   0.682   2.454  1.00  0.00     0.002 C 
ATOM     10  C   UNL     1       7.007   1.064   3.797  1.00  0.00    -0.026 C 
ATOM     11  C   UNL     1       6.264   0.382   4.993  1.00  0.00     0.010 C 
ATOM     12  C   UNL     1       6.718   0.872   6.365  1.00  0.00     0.033 C 
ATOM     13  C   UNL     1       6.500   2.383   6.508  1.00  0.00     0.120 C 
ATOM     14  C   UNL     1       7.294   3.194   5.437  1.00  0.00    -0.006 C 
ATOM     15  C   UNL     1       6.944   2.619   3.997  1.00  0.00     0.003 C 
ATOM     16  C   UNL     1       7.593   3.401   2.820  1.00  0.00     0.005 C 
ATOM     17  C   UNL     1       7.659   2.627   1.489  1.00  0.00     0.008 C 
ATOM     18  C   UNL     1       6.441   1.684   1.213  1.00  0.00    -0.024 C 
ATOM     19  C   UNL     1       6.623   0.892  -0.191  1.00  0.00    -0.024 C 
ATOM     20  C   UNL     1       6.441   1.829  -1.442  1.00  0.00     0.008 C 
ATOM     21  C   UNL     1       5.041   1.776  -2.069  1.00  0.00     0.007 C 
ATOM     22  C   UNL     1       8.064   0.299  -0.302  1.00  0.00     0.012 C 
ATOM     23  C   UNL     1       5.183   2.633   1.128  1.00  0.00     0.012 C 
ATOM     24  C   UNL     1       8.808   3.202   5.807  1.00  0.00     0.014 C 
ATOM     25  C   UNL     1       6.808   4.666   5.501  1.00  0.00     0.014 C 
ATOM     26  C   UNL     1       8.487   0.559   3.755  1.00  0.00     0.012 C 
ATOM     27  C   UNL     1       3.196   0.340  -2.975  1.00  0.00     0.011 C 
ENDROOT
BRANCH   1  28
ATOM     28  C   UNL     1       6.695  -2.903  -1.896  1.00  0.00    -0.077 C 
ATOM     29  C   UNL     1       8.206  -2.922  -1.883  1.00  0.00     0.039 C 
ATOM     30  C   UNL     1       6.051  -4.006  -1.480  1.00  0.00     0.008 C 
ENDBRANCH   1  28
BRANCH  13  31
ATOM     31  O   UNL     1       6.866   2.766   7.812  1.00  0.00    -0.393 OA
ATOM     32  H   UNL     1       7.857   2.771   7.854  1.00  0.00     0.210 HD
ENDBRANCH  13  31
TORSDOF 2
ENDMDL
MODEL 2
REMARK VINA RESULT:    -4.944      9.708     13.467
REMARK INTER + INTRA:          -5.862
REMARK INTER:                  -5.371
REMARK INTRA:                  -0.491
REMARK UNBOUND:                -0.484
REMARK SMILES C=C(C)[C@@H]1CC[C@]2(C)CC[C@]3(C)[C@H](CC[C@H]4[C@]5(C)CC[C@@H](O)C(C)(C)[C@H]5CC[C@]43C)[C@H]12
REMARK SMILES IDX 4 1 5 2 6 3 7 4 31 5 13 6 14 7 15 8 16 9 17 10 19 11 20 12
REMARK SMILES IDX 21 13 23 14 26 15 27 16 28 17 29 18 11 19 10 20 9 21 12 22
REMARK SMILES IDX 30 23 24 24 25 25 18 26 8 27 2 28 3 29 1 30 22 31
REMARK H PARENT 22 32
REMARK Flexibility Score: inf
ROOT
ATOM      1  C   UNL     1       0.771   2.636  -6.453  1.00  0.00     0.018 C 
ATOM      2  C   UNL     1       1.598   3.367  -7.493  1.00  0.00     0.009 C 
ATOM      3  C   UNL     1       0.941   2.980  -8.804  1.00  0.00     0.008 C 
ATOM      4  C   UNL     1      -0.576   2.789  -8.503  1.00  0.00    -0.029 C 
ATOM      5  C   UNL     1      -0.707   2.728  -6.939  1.00  0.00     0.006 C 
ATOM      6  C   UNL     1      -1.747   3.770  -6.360  1.00  0.00    -0.000 C 
ATOM      7  C   UNL     1      -1.942   3.719  -4.840  1.00  0.00     0.005 C 
ATOM      8  C   UNL     1      -3.014   4.681  -4.301  1.00  0.00     0.005 C 
ATOM      9  C   UNL     1      -3.874   5.499  -5.325  1.00  0.00     0.002 C 
ATOM     10  C   UNL     1      -4.668   6.683  -4.596  1.00  0.00    -0.026 C 
ATOM     11  C   UNL     1      -5.700   6.032  -3.616  1.00  0.00     0.010 C 
ATOM     12  C   UNL     1      -6.724   7.013  -3.054  1.00  0.00     0.033 C 
ATOM     13  C   UNL     1      -7.532   7.669  -4.180  1.00  0.00     0.120 C 
ATOM     14  C   UNL     1      -6.622   8.462  -5.169  1.00  0.00    -0.006 C 
ATOM     15  C   UNL     1      -5.460   7.503  -5.675  1.00  0.00     0.003 C 
ATOM     16  C   UNL     1      -4.529   8.135  -6.748  1.00  0.00     0.005 C 
ATOM     17  C   UNL     1      -3.165   7.437  -6.912  1.00  0.00     0.008 C 
ATOM     18  C   UNL     1      -3.194   5.882  -6.733  1.00  0.00    -0.024 C 
ATOM     19  C   UNL     1      -1.709   5.250  -6.891  1.00  0.00    -0.024 C 
ATOM     20  C   UNL     1      -1.197   5.272  -8.379  1.00  0.00     0.008 C 
ATOM     21  C   UNL     1      -1.392   3.948  -9.131  1.00  0.00     0.007 C 
ATOM     22  C   UNL     1      -0.672   6.075  -6.065  1.00  0.00     0.012 C 
ATOM     23  C   UNL     1      -4.127   5.342  -7.885  1.00  0.00     0.012 C 
ATOM     24  C   UNL     1      -6.154   9.788  -4.497  1.00  0.00     0.014 C 
ATOM     25  C   UNL     1      -7.487   8.860  -6.393  1.00  0.00     0.014 C 
ATOM     26  C   UNL     1      -3.699   7.605  -3.785  1.00  0.00     0.012 C 
ATOM     27  C   UNL     1      -1.056   1.462  -9.135  1.00  0.00     0.011 C 
ENDROOT
BRANCH   1  28
ATOM     28  C   UNL     1       1.123   2.868  -4.987  1.00  0.00    -0.077 C 
ATOM     29  C   UNL     1       1.845   4.102  -4.497  1.00  0.00     0.039 C 
ATOM     30  C   UNL     1       0.939   1.862  -4.116  1.00  0.00     0.008 C 
ENDBRANCH   1  28
BRANCH  13  31
ATOM     31  O   UNL     1      -8.506   8.505  -3.602  1.00  0.00    -0.393 OA
ATOM     32  H   UNL     1      -9.375   8.028  -3.650  1.00  0.00     0.210 HD
ENDBRANCH  13  31
TORSDOF 2
ENDMDL
MODEL 3
REMARK VINA RESULT:    -4.726      9.755     14.309
REMARK INTER + INTRA:          -5.624
REMARK INTER:                  -5.131
REMARK INTRA:                  -0.494
REMARK UNBOUND:                -0.484
REMARK SMILES C=C(C)[C@@H]1CC[C@]2(C)CC[C@]3(C)[C@H](CC[C@H]4[C@]5(C)CC[C@@H](O)C(C)(C)[C@H]5CC[C@]43C)[C@H]12
REMARK SMILES IDX 4 1 5 2 6 3 7 4 31 5 13 6 14 7 15 8 16 9 17 10 19 11 20 12
REMARK SMILES IDX 21 13 23 14 26 15 27 16 28 17 29 18 11 19 10 20 9 21 12 22
REMARK SMILES IDX 30 23 24 24 25 25 18 26 8 27 2 28 3 29 1 30 22 31
REMARK H PARENT 22 32
REMARK Flexibility Score: inf
ROOT
ATOM      1  C   UNL     1       1.608   5.330  -4.500  1.00  0.00     0.018 C 
ATOM      2  C   UNL     1       2.427   4.898  -5.701  1.00  0.00     0.009 C 
ATOM      3  C   UNL     1       2.268   3.390  -5.715  1.00  0.00     0.008 C 
ATOM      4  C   UNL     1       0.847   3.086  -5.154  1.00  0.00    -0.029 C 
ATOM      5  C   UNL     1       0.343   4.420  -4.494  1.00  0.00     0.006 C 
ATOM      6  C   UNL     1      -1.066   4.891  -5.039  1.00  0.00    -0.000 C 
ATOM      7  C   UNL     1      -1.620   6.166  -4.395  1.00  0.00     0.005 C 
ATOM      8  C   UNL     1      -3.025   6.567  -4.876  1.00  0.00     0.005 C 
ATOM      9  C   UNL     1      -3.792   5.601  -5.843  1.00  0.00     0.002 C 
ATOM     10  C   UNL     1      -5.054   6.331  -6.507  1.00  0.00    -0.026 C 
ATOM     11  C   UNL     1      -6.068   6.663  -5.363  1.00  0.00     0.010 C 
ATOM     12  C   UNL     1      -7.440   7.106  -5.862  1.00  0.00     0.033 C 
ATOM     13  C   UNL     1      -8.086   6.020  -6.729  1.00  0.00     0.120 C 
ATOM     14  C   UNL     1      -7.223   5.681  -7.984  1.00  0.00    -0.006 C 
ATOM     15  C   UNL     1      -5.744   5.341  -7.509  1.00  0.00     0.003 C 
ATOM     16  C   UNL     1      -4.793   4.887  -8.653  1.00  0.00     0.005 C 
ATOM     17  C   UNL     1      -3.291   4.998  -8.326  1.00  0.00     0.008 C 
ATOM     18  C   UNL     1      -2.915   4.689  -6.838  1.00  0.00    -0.024 C 
ATOM     19  C   UNL     1      -1.322   4.867  -6.591  1.00  0.00    -0.024 C 
ATOM     20  C   UNL     1      -0.475   3.719  -7.256  1.00  0.00     0.008 C 
ATOM     21  C   UNL     1      -0.079   2.591  -6.293  1.00  0.00     0.007 C 
ATOM     22  C   UNL     1      -0.814   6.200  -7.225  1.00  0.00     0.012 C 
ATOM     23  C   UNL     1      -3.325   3.184  -6.603  1.00  0.00     0.012 C 
ATOM     24  C   UNL     1      -7.346   6.831  -9.027  1.00  0.00     0.014 C 
ATOM     25  C   UNL     1      -7.822   4.411  -8.642  1.00  0.00     0.014 C 
ATOM     26  C   UNL     1      -4.633   7.658  -7.222  1.00  0.00     0.012 C 
ATOM     27  C   UNL     1       0.948   1.967  -4.092  1.00  0.00     0.011 C 
ENDROOT
BRANCH   1  28
ATOM     28  C   UNL     1       1.490   6.826  -4.232  1.00  0.00    -0.077 C 
ATOM     29  C   UNL     1       1.595   7.870  -5.319  1.00  0.00     0.039 C 
ATOM     30  C   UNL     1       1.463   7.250  -2.957  1.00  0.00     0.008 C 
ENDBRANCH   1  28
BRANCH  13  31
ATOM     31  O   UNL     1      -9.375   6.451  -7.099  1.00  0.00    -0.393 OA
ATOM     32  H   UNL     1      -9.471   7.393  -6.804  1.00  0.00     0.210 HD
ENDBRANCH  13  31
TORSDOF 2
ENDMDL
MODEL 4
REMARK VINA RESULT:    -4.567      9.194     12.861
REMARK INTER + INTRA:          -5.452
REMARK INTER:                  -4.955
REMARK INTRA:                  -0.496
REMARK UNBOUND:                -0.484
REMARK SMILES C=C(C)[C@@H]1CC[C@]2(C)CC[C@]3(C)[C@H](CC[C@H]4[C@]5(C)CC[C@@H](O)C(C)(C)[C@H]5CC[C@]43C)[C@H]12
REMARK SMILES IDX 4 1 5 2 6 3 7 4 31 5 13 6 14 7 15 8 16 9 17 10 19 11 20 12
REMARK SMILES IDX 21 13 23 14 26 15 27 16 28 17 29 18 11 19 10 20 9 21 12 22
REMARK SMILES IDX 30 23 24 24 25 25 18 26 8 27 2 28 3 29 1 30 22 31
REMARK H PARENT 22 32
REMARK Flexibility Score: inf
ROOT
ATOM      1  C   UNL     1       2.373   5.343  -5.909  1.00  0.00     0.018 C 
ATOM      2  C   UNL     1       2.209   4.638  -7.242  1.00  0.00     0.009 C 
ATOM      3  C   UNL     1       1.891   3.207  -6.849  1.00  0.00     0.008 C 
ATOM      4  C   UNL     1       1.101   3.278  -5.508  1.00  0.00    -0.029 C 
ATOM      5  C   UNL     1       1.285   4.743  -4.969  1.00  0.00     0.006 C 
ATOM      6  C   UNL     1      -0.086   5.468  -4.657  1.00  0.00    -0.000 C 
ATOM      7  C   UNL     1       0.042   6.885  -4.088  1.00  0.00     0.005 C 
ATOM      8  C   UNL     1      -1.295   7.547  -3.713  1.00  0.00     0.005 C 
ATOM      9  C   UNL     1      -2.608   6.697  -3.815  1.00  0.00     0.002 C 
ATOM     10  C   UNL     1      -3.908   7.631  -3.736  1.00  0.00    -0.026 C 
ATOM     11  C   UNL     1      -3.942   8.278  -2.311  1.00  0.00     0.010 C 
ATOM     12  C   UNL     1      -5.260   8.972  -1.978  1.00  0.00     0.033 C 
ATOM     13  C   UNL     1      -6.432   7.987  -2.050  1.00  0.00     0.120 C 
ATOM     14  C   UNL     1      -6.584   7.357  -3.469  1.00  0.00    -0.006 C 
ATOM     15  C   UNL     1      -5.186   6.738  -3.905  1.00  0.00     0.003 C 
ATOM     16  C   UNL     1      -5.215   5.986  -5.266  1.00  0.00     0.005 C 
ATOM     17  C   UNL     1      -3.836   5.786  -5.922  1.00  0.00     0.008 C 
ATOM     18  C   UNL     1      -2.659   5.530  -4.923  1.00  0.00    -0.024 C 
ATOM     19  C   UNL     1      -1.250   5.368  -5.709  1.00  0.00    -0.024 C 
ATOM     20  C   UNL     1      -1.148   4.008  -6.494  1.00  0.00     0.008 C 
ATOM     21  C   UNL     1      -0.384   2.906  -5.746  1.00  0.00     0.007 C 
ATOM     22  C   UNL     1      -1.087   6.495  -6.778  1.00  0.00     0.012 C 
ATOM     23  C   UNL     1      -3.016   4.180  -4.188  1.00  0.00     0.012 C 
ATOM     24  C   UNL     1      -7.185   8.412  -4.445  1.00  0.00     0.014 C 
ATOM     25  C   UNL     1      -7.613   6.201  -3.367  1.00  0.00     0.014 C 
ATOM     26  C   UNL     1      -3.862   8.763  -4.814  1.00  0.00     0.012 C 
ATOM     27  C   UNL     1       1.701   2.260  -4.511  1.00  0.00     0.011 C 
ENDROOT
BRANCH   1  28
ATOM     28  C   UNL     1       2.633   6.846  -5.937  1.00  0.00    -0.077 C 
ATOM     29  C   UNL     1       2.194   7.737  -7.075  1.00  0.00     0.039 C 
ATOM     30  C   UNL     1       3.433   7.377  -4.998  1.00  0.00     0.008 C 
ENDBRANCH   1  28
BRANCH  13  31
ATOM     31  O   UNL     1      -7.607   8.661  -1.663  1.00  0.00    -0.393 OA
ATOM     32  H   UNL     1      -8.202   7.997  -1.229  1.00  0.00     0.210 HD
ENDBRANCH  13  31
TORSDOF 2
ENDMDL
MODEL 5
REMARK VINA RESULT:    -4.425      9.400     13.250
REMARK INTER + INTRA:          -5.297
REMARK INTER:                  -4.814
REMARK INTRA:                  -0.484
REMARK UNBOUND:                -0.484
REMARK SMILES C=C(C)[C@@H]1CC[C@]2(C)CC[C@]3(C)[C@H](CC[C@H]4[C@]5(C)CC[C@@H](O)C(C)(C)[C@H]5CC[C@]43C)[C@H]12
REMARK SMILES IDX 4 1 5 2 6 3 7 4 31 5 13 6 14 7 15 8 16 9 17 10 19 11 20 12
REMARK SMILES IDX 21 13 23 14 26 15 27 16 28 17 29 18 11 19 10 20 9 21 12 22
REMARK SMILES IDX 30 23 24 24 25 25 18 26 8 27 2 28 3 29 1 30 22 31
REMARK H PARENT 22 32
REMARK Flexibility Score: inf
ROOT
ATOM      1  C   UNL     1      -6.472   7.804  -3.918  1.00  0.00     0.018 C 
ATOM      2  C   UNL     1      -6.477   9.069  -4.756  1.00  0.00     0.009 C 
ATOM      3  C   UNL     1      -5.803  10.090  -3.859  1.00  0.00     0.008 C 
ATOM      4  C   UNL     1      -4.761   9.312  -3.002  1.00  0.00    -0.029 C 
ATOM      5  C   UNL     1      -5.103   7.788  -3.174  1.00  0.00     0.006 C 
ATOM      6  C   UNL     1      -3.867   6.923  -3.651  1.00  0.00    -0.000 C 
ATOM      7  C   UNL     1      -4.141   5.421  -3.792  1.00  0.00     0.005 C 
ATOM      8  C   UNL     1      -2.911   4.581  -4.178  1.00  0.00     0.005 C 
ATOM      9  C   UNL     1      -1.514   5.288  -4.256  1.00  0.00     0.002 C 
ATOM     10  C   UNL     1      -0.440   4.362  -5.003  1.00  0.00    -0.026 C 
ATOM     11  C   UNL     1      -0.213   3.090  -4.120  1.00  0.00     0.010 C 
ATOM     12  C   UNL     1       0.982   2.244  -4.550  1.00  0.00     0.033 C 
ATOM     13  C   UNL     1       2.279   3.060  -4.499  1.00  0.00     0.120 C 
ATOM     14  C   UNL     1       2.227   4.304  -5.440  1.00  0.00    -0.006 C 
ATOM     15  C   UNL     1       0.917   5.141  -5.107  1.00  0.00     0.003 C 
ATOM     16  C   UNL     1       0.786   6.469  -5.907  1.00  0.00     0.005 C 
ATOM     17  C   UNL     1      -0.639   7.052  -5.959  1.00  0.00     0.008 C 
ATOM     18  C   UNL     1      -1.485   6.846  -4.658  1.00  0.00    -0.024 C 
ATOM     19  C   UNL     1      -2.975   7.463  -4.828  1.00  0.00    -0.024 C 
ATOM     20  C   UNL     1      -2.982   9.037  -4.825  1.00  0.00     0.008 C 
ATOM     21  C   UNL     1      -3.324   9.663  -3.466  1.00  0.00     0.007 C 
ATOM     22  C   UNL     1      -3.595   7.032  -6.194  1.00  0.00     0.012 C 
ATOM     23  C   UNL     1      -0.712   7.625  -3.524  1.00  0.00     0.012 C 
ATOM     24  C   UNL     1       2.372   3.842  -6.921  1.00  0.00     0.014 C 
ATOM     25  C   UNL     1       3.460   5.190  -5.122  1.00  0.00     0.014 C 
ATOM     26  C   UNL     1      -0.951   3.923  -6.415  1.00  0.00     0.012 C 
ATOM     27  C   UNL     1      -4.907   9.731  -1.521  1.00  0.00     0.011 C 
ENDROOT
BRANCH   1  28
ATOM     28  C   UNL     1      -7.022   6.535  -4.560  1.00  0.00    -0.077 C 
ATOM     29  C   UNL     1      -6.965   6.270  -6.046  1.00  0.00     0.039 C 
ATOM     30  C   UNL     1      -7.742   5.692  -3.801  1.00  0.00     0.008 C 
ENDBRANCH   1  28
BRANCH  13  31
ATOM     31  O   UNL     1       3.354   2.214  -4.832  1.00  0.00    -0.393 OA
ATOM     32  H   UNL     1       3.700   2.506  -5.715  1.00  0.00     0.210 HD
ENDBRANCH  13  31
TORSDOF 2
ENDMDL
MODEL 6
REMARK VINA RESULT:    -4.395      6.112      9.453
REMARK INTER + INTRA:          -5.264
REMARK INTER:                  -4.770
REMARK INTRA:                  -0.494
REMARK UNBOUND:                -0.484
REMARK SMILES C=C(C)[C@@H]1CC[C@]2(C)CC[C@]3(C)[C@H](CC[C@H]4[C@]5(C)CC[C@@H](O)C(C)(C)[C@H]5CC[C@]43C)[C@H]12
REMARK SMILES IDX 4 1 5 2 6 3 7 4 31 5 13 6 14 7 15 8 16 9 17 10 19 11 20 12
REMARK SMILES IDX 21 13 23 14 26 15 27 16 28 17 29 18 11 19 10 20 9 21 12 22
REMARK SMILES IDX 30 23 24 24 25 25 18 26 8 27 2 28 3 29 1 30 22 31
REMARK H PARENT 22 32
REMARK Flexibility Score: inf
ROOT
ATOM      1  C   UNL     1       7.738  -4.963  -0.747  1.00  0.00     0.018 C 
ATOM      2  C   UNL     1       8.105  -3.938   0.310  1.00  0.00     0.009 C 
ATOM      3  C   UNL     1       7.419  -2.673  -0.170  1.00  0.00     0.008 C 
ATOM      4  C   UNL     1       6.117  -3.121  -0.899  1.00  0.00    -0.029 C 
ATOM      5  C   UNL     1       6.257  -4.669  -1.133  1.00  0.00     0.006 C 
ATOM      6  C   UNL     1       5.033  -5.497  -0.568  1.00  0.00    -0.000 C 
ATOM      7  C   UNL     1       5.103  -7.009  -0.810  1.00  0.00     0.005 C 
ATOM      8  C   UNL     1       3.869  -7.791  -0.328  1.00  0.00     0.005 C 
ATOM      9  C   UNL     1       2.640  -6.990   0.222  1.00  0.00     0.002 C 
ATOM     10  C   UNL     1       1.620  -7.956   0.993  1.00  0.00    -0.026 C 
ATOM     11  C   UNL     1       1.027  -8.955  -0.056  1.00  0.00     0.010 C 
ATOM     12  C   UNL     1      -0.164  -9.757   0.459  1.00  0.00     0.033 C 
ATOM     13  C   UNL     1      -1.307  -8.829   0.885  1.00  0.00     0.120 C 
ATOM     14  C   UNL     1      -0.877  -7.853   2.024  1.00  0.00    -0.006 C 
ATOM     15  C   UNL     1       0.445  -7.094   1.574  1.00  0.00     0.003 C 
ATOM     16  C   UNL     1       0.936  -6.011   2.577  1.00  0.00     0.005 C 
ATOM     17  C   UNL     1       2.411  -5.599   2.411  1.00  0.00     0.008 C 
ATOM     18  C   UNL     1       2.928  -5.575   0.934  1.00  0.00    -0.024 C 
ATOM     19  C   UNL     1       4.495  -5.164   0.871  1.00  0.00    -0.024 C 
ATOM     20  C   UNL     1       4.735  -3.642   1.194  1.00  0.00     0.008 C 
ATOM     21  C   UNL     1       4.877  -2.751  -0.047  1.00  0.00     0.007 C 
ATOM     22  C   UNL     1       5.315  -5.964   1.933  1.00  0.00     0.012 C 
ATOM     23  C   UNL     1       2.061  -4.479   0.202  1.00  0.00     0.012 C 
ATOM     24  C   UNL     1      -0.778  -8.634   3.369  1.00  0.00     0.014 C 
ATOM     25  C   UNL     1      -2.003  -6.801   2.198  1.00  0.00     0.014 C 
ATOM     26  C   UNL     1       2.342  -8.762   2.122  1.00  0.00     0.012 C 
ATOM     27  C   UNL     1       6.013  -2.381  -2.253  1.00  0.00     0.011 C 
ENDROOT
BRANCH   1  28
ATOM     28  C   UNL     1       8.215  -6.396  -0.530  1.00  0.00    -0.077 C 
ATOM     29  C   UNL     1       8.506  -6.971   0.836  1.00  0.00     0.039 C 
ATOM     30  C   UNL     1       8.556  -7.128  -1.604  1.00  0.00     0.008 C 
ENDBRANCH   1  28
BRANCH  13  31
ATOM     31  O   UNL     1      -2.403  -9.620   1.280  1.00  0.00    -0.393 OA
ATOM     32  H   UNL     1      -3.228  -9.103   1.091  1.00  0.00     0.210 HD
ENDBRANCH  13  31
TORSDOF 2
ENDMDL
MODEL 7
REMARK VINA RESULT:    -4.361      5.992     10.341
REMARK INTER + INTRA:          -5.227
REMARK INTER:                  -4.737
REMARK INTRA:                  -0.490
REMARK UNBOUND:                -0.484
REMARK SMILES C=C(C)[C@@H]1CC[C@]2(C)CC[C@]3(C)[C@H](CC[C@H]4[C@]5(C)CC[C@@H](O)C(C)(C)[C@H]5CC[C@]43C)[C@H]12
REMARK SMILES IDX 4 1 5 2 6 3 7 4 31 5 13 6 14 7 15 8 16 9 17 10 19 11 20 12
REMARK SMILES IDX 21 13 23 14 26 15 27 16 28 17 29 18 11 19 10 20 9 21 12 22
REMARK SMILES IDX 30 23 24 24 25 25 18 26 8 27 2 28 3 29 1 30 22 31
REMARK H PARENT 22 32
REMARK Flexibility Score: inf
ROOT
ATOM      1  C   UNL     1       7.075   3.175  -3.523  1.00  0.00     0.018 C 
ATOM      2  C   UNL     1       7.752   4.490  -3.859  1.00  0.00     0.009 C 
ATOM      3  C   UNL     1       8.211   4.297  -5.292  1.00  0.00     0.008 C 
ATOM      4  C   UNL     1       7.166   3.363  -5.972  1.00  0.00    -0.029 C 
ATOM      5  C   UNL     1       6.306   2.748  -4.810  1.00  0.00     0.006 C 
ATOM      6  C   UNL     1       4.751   2.966  -5.003  1.00  0.00    -0.000 C 
ATOM      7  C   UNL     1       3.867   2.347  -3.916  1.00  0.00     0.005 C 
ATOM      8  C   UNL     1       2.355   2.497  -4.159  1.00  0.00     0.005 C 
ATOM      9  C   UNL     1       1.871   3.125  -5.511  1.00  0.00     0.002 C 
ATOM     10  C   UNL     1       0.320   3.523  -5.439  1.00  0.00    -0.026 C 
ATOM     11  C   UNL     1      -0.503   2.203  -5.277  1.00  0.00     0.010 C 
ATOM     12  C   UNL     1      -2.006   2.382  -5.472  1.00  0.00     0.033 C 
ATOM     13  C   UNL     1      -2.315   2.932  -6.870  1.00  0.00     0.120 C 
ATOM     14  C   UNL     1      -1.645   4.319  -7.116  1.00  0.00    -0.006 C 
ATOM     15  C   UNL     1      -0.093   4.202  -6.791  1.00  0.00     0.003 C 
ATOM     16  C   UNL     1       0.724   5.492  -7.088  1.00  0.00     0.005 C 
ATOM     17  C   UNL     1       2.087   5.571  -6.375  1.00  0.00     0.008 C 
ATOM     18  C   UNL     1       2.832   4.203  -6.221  1.00  0.00    -0.024 C 
ATOM     19  C   UNL     1       4.235   4.390  -5.430  1.00  0.00    -0.024 C 
ATOM     20  C   UNL     1       5.328   5.117  -6.299  1.00  0.00     0.008 C 
ATOM     21  C   UNL     1       6.317   4.168  -6.989  1.00  0.00     0.007 C 
ATOM     22  C   UNL     1       4.035   5.275  -4.159  1.00  0.00     0.012 C 
ATOM     23  C   UNL     1       3.112   3.707  -7.692  1.00  0.00     0.012 C 
ATOM     24  C   UNL     1      -2.415   5.418  -6.324  1.00  0.00     0.014 C 
ATOM     25  C   UNL     1      -1.798   4.660  -8.621  1.00  0.00     0.014 C 
ATOM     26  C   UNL     1       0.030   4.464  -4.223  1.00  0.00     0.012 C 
ATOM     27  C   UNL     1       7.908   2.245  -6.740  1.00  0.00     0.011 C 
ENDROOT
BRANCH   1  28
ATOM     28  C   UNL     1       6.421   3.053  -2.151  1.00  0.00    -0.077 C 
ATOM     29  C   UNL     1       5.978   4.248  -1.338  1.00  0.00     0.039 C 
ATOM     30  C   UNL     1       6.390   1.847  -1.560  1.00  0.00     0.008 C 
ENDBRANCH   1  28
BRANCH  13  31
ATOM     31  O   UNL     1      -3.713   3.008  -7.021  1.00  0.00    -0.393 OA
ATOM     32  H   UNL     1      -3.913   2.917  -7.989  1.00  0.00     0.210 HD
ENDBRANCH  13  31
TORSDOF 2
ENDMDL
MODEL 8
REMARK VINA RESULT:    -4.359      9.963     13.965
REMARK INTER + INTRA:          -5.225
REMARK INTER:                  -4.729
REMARK INTRA:                  -0.496
REMARK UNBOUND:                -0.484
REMARK SMILES C=C(C)[C@@H]1CC[C@]2(C)CC[C@]3(C)[C@H](CC[C@H]4[C@]5(C)CC[C@@H](O)C(C)(C)[C@H]5CC[C@]43C)[C@H]12
REMARK SMILES IDX 4 1 5 2 6 3 7 4 31 5 13 6 14 7 15 8 16 9 17 10 19 11 20 12
REMARK SMILES IDX 21 13 23 14 26 15 27 16 28 17 29 18 11 19 10 20 9 21 12 22
REMARK SMILES IDX 30 23 24 24 25 25 18 26 8 27 2 28 3 29 1 30 22 31
REMARK H PARENT 22 32
REMARK Flexibility Score: inf
ROOT
ATOM      1  C   UNL     1       0.925   3.649  -7.515  1.00  0.00     0.018 C 
ATOM      2  C   UNL     1       1.155   2.602  -6.441  1.00  0.00     0.009 C 
ATOM      3  C   UNL     1       1.861   3.373  -5.341  1.00  0.00     0.008 C 
ATOM      4  C   UNL     1       1.311   4.829  -5.393  1.00  0.00    -0.029 C 
ATOM      5  C   UNL     1       0.550   4.960  -6.762  1.00  0.00     0.006 C 
ATOM      6  C   UNL     1      -0.939   5.471  -6.600  1.00  0.00    -0.000 C 
ATOM      7  C   UNL     1      -1.710   5.655  -7.911  1.00  0.00     0.005 C 
ATOM      8  C   UNL     1      -3.128   6.228  -7.744  1.00  0.00     0.005 C 
ATOM      9  C   UNL     1      -3.591   6.682  -6.317  1.00  0.00     0.002 C 
ATOM     10  C   UNL     1      -5.177   6.908  -6.270  1.00  0.00    -0.026 C 
ATOM     11  C   UNL     1      -5.514   8.108  -7.216  1.00  0.00     0.010 C 
ATOM     12  C   UNL     1      -6.941   8.629  -7.070  1.00  0.00     0.033 C 
ATOM     13  C   UNL     1      -7.208   9.103  -5.636  1.00  0.00     0.120 C 
ATOM     14  C   UNL     1      -7.023   7.955  -4.596  1.00  0.00    -0.006 C 
ATOM     15  C   UNL     1      -5.591   7.299  -4.808  1.00  0.00     0.003 C 
ATOM     16  C   UNL     1      -5.229   6.199  -3.769  1.00  0.00     0.005 C 
ATOM     17  C   UNL     1      -4.097   5.249  -4.203  1.00  0.00     0.008 C 
ATOM     18  C   UNL     1      -2.961   5.917  -5.049  1.00  0.00    -0.024 C 
ATOM     19  C   UNL     1      -1.840   4.828  -5.483  1.00  0.00    -0.024 C 
ATOM     20  C   UNL     1      -0.946   4.366  -4.273  1.00  0.00     0.008 C 
ATOM     21  C   UNL     1       0.399   5.098  -4.169  1.00  0.00     0.007 C 
ATOM     22  C   UNL     1      -2.518   3.535  -6.037  1.00  0.00     0.012 C 
ATOM     23  C   UNL     1      -2.313   7.000  -4.103  1.00  0.00     0.012 C 
ATOM     24  C   UNL     1      -8.231   6.975  -4.681  1.00  0.00     0.014 C 
ATOM     25  C   UNL     1      -7.058   8.589  -3.180  1.00  0.00     0.014 C 
ATOM     26  C   UNL     1      -5.948   5.637  -6.756  1.00  0.00     0.012 C 
ATOM     27  C   UNL     1       2.495   5.821  -5.341  1.00  0.00     0.011 C 
ENDROOT
BRANCH   1  28
ATOM     28  C   UNL     1       0.156   3.220  -8.760  1.00  0.00    -0.077 C 
ATOM     29  C   UNL     1      -0.829   2.074  -8.767  1.00  0.00     0.039 C 
ATOM     30  C   UNL     1       0.489   3.767  -9.941  1.00  0.00     0.008 C 
ENDBRANCH   1  28
BRANCH  13  31
ATOM     31  O   UNL     1      -8.508   9.639  -5.577  1.00  0.00    -0.393 OA
ATOM     32  H   UNL     1      -8.723   9.796  -4.622  1.00  0.00     0.210 HD
ENDBRANCH  13  31
TORSDOF 2
ENDMDL
MODEL 9
REMARK VINA RESULT:    -4.228      7.014     10.756
REMARK INTER + INTRA:          -5.083
REMARK INTER:                  -4.610
REMARK INTRA:                  -0.473
REMARK UNBOUND:                -0.484
REMARK SMILES C=C(C)[C@@H]1CC[C@]2(C)CC[C@]3(C)[C@H](CC[C@H]4[C@]5(C)CC[C@@H](O)C(C)(C)[C@H]5CC[C@]43C)[C@H]12
REMARK SMILES IDX 4 1 5 2 6 3 7 4 31 5 13 6 14 7 15 8 16 9 17 10 19 11 20 12
REMARK SMILES IDX 21 13 23 14 26 15 27 16 28 17 29 18 11 19 10 20 9 21 12 22
REMARK SMILES IDX 30 23 24 24 25 25 18 26 8 27 2 28 3 29 1 30 22 31
REMARK H PARENT 22 32
REMARK Flexibility Score: inf
ROOT
ATOM      1  C   UNL     1      -3.537   4.208  -7.154  1.00  0.00     0.018 C 
ATOM      2  C   UNL     1      -3.848   5.599  -7.675  1.00  0.00     0.009 C 
ATOM      3  C   UNL     1      -4.213   6.372  -6.422  1.00  0.00     0.008 C 
ATOM      4  C   UNL     1      -3.366   5.768  -5.262  1.00  0.00    -0.029 C 
ATOM      5  C   UNL     1      -2.783   4.414  -5.806  1.00  0.00     0.006 C 
ATOM      6  C   UNL     1      -1.210   4.313  -5.668  1.00  0.00    -0.000 C 
ATOM      7  C   UNL     1      -0.599   2.992  -6.146  1.00  0.00     0.005 C 
ATOM      8  C   UNL     1       0.921   2.876  -5.931  1.00  0.00     0.005 C 
ATOM      9  C   UNL     1       1.658   4.017  -5.150  1.00  0.00     0.002 C 
ATOM     10  C   UNL     1       3.246   3.909  -5.332  1.00  0.00    -0.026 C 
ATOM     11  C   UNL     1       3.712   2.576  -4.657  1.00  0.00     0.010 C 
ATOM     12  C   UNL     1       5.225   2.460  -4.498  1.00  0.00     0.033 C 
ATOM     13  C   UNL     1       5.778   3.608  -3.646  1.00  0.00     0.120 C 
ATOM     14  C   UNL     1       5.483   5.003  -4.280  1.00  0.00    -0.006 C 
ATOM     15  C   UNL     1       3.926   5.108  -4.583  1.00  0.00     0.003 C 
ATOM     16  C   UNL     1       3.471   6.491  -5.130  1.00  0.00     0.005 C 
ATOM     17  C   UNL     1       2.109   6.484  -5.850  1.00  0.00     0.008 C 
ATOM     18  C   UNL     1       1.048   5.504  -5.247  1.00  0.00    -0.024 C 
ATOM     19  C   UNL     1      -0.334   5.547  -6.095  1.00  0.00    -0.024 C 
ATOM     20  C   UNL     1      -1.140   6.880  -5.871  1.00  0.00     0.008 C 
ATOM     21  C   UNL     1      -2.264   6.768  -4.832  1.00  0.00     0.007 C 
ATOM     22  C   UNL     1      -0.039   5.473  -7.627  1.00  0.00     0.012 C 
ATOM     23  C   UNL     1       0.786   6.017  -3.778  1.00  0.00     0.012 C 
ATOM     24  C   UNL     1       6.421   5.228  -5.504  1.00  0.00     0.014 C 
ATOM     25  C   UNL     1       5.845   6.087  -3.231  1.00  0.00     0.014 C 
ATOM     26  C   UNL     1       3.645   3.887  -6.844  1.00  0.00     0.012 C 
ATOM     27  C   UNL     1      -4.284   5.507  -4.046  1.00  0.00     0.011 C 
ENDROOT
BRANCH   1  28
ATOM     28  C   UNL     1      -3.053   3.173  -8.165  1.00  0.00    -0.077 C 
ATOM     29  C   UNL     1      -2.468   3.542  -9.508  1.00  0.00     0.039 C 
ATOM     30  C   UNL     1      -3.313   1.877  -7.930  1.00  0.00     0.008 C 
ENDBRANCH   1  28
BRANCH  13  31
ATOM     31  O   UNL     1       7.161   3.410  -3.472  1.00  0.00    -0.393 OA
ATOM     32  H   UNL     1       7.619   3.797  -4.262  1.00  0.00     0.210 HD
ENDBRANCH  13  31
TORSDOF 2
ENDMDL
