MODEL 1
REMARK VINA RESULT:    -3.431      0.000      0.000
REMARK INTER + INTRA:          -4.220
REMARK INTER:                  -4.133
REMARK INTRA:                  -0.088
REMARK UNBOUND:                -0.088
REMARK SMILES NC(=O)C[C@H]([NH3+])C(=O)[O-]
REMARK SMILES IDX 4 1 5 2 6 3 7 7 8 8 9 9 2 10 3 11 1 12
REMARK H PARENT 6 4 6 5 6 6 1 13 1 14
REMARK Flexibility Score: inf
ROOT
ATOM      1  C   UNL     1     -53.907 449.056 -10.037  1.00  0.00     0.171 C 
ENDROOT
BRANCH   1   2
ATOM      2  C   UNL     1     -53.749 450.313  -9.158  1.00  0.00     0.237 C 
BRANCH   2   3
ATOM      3  N   UNL     1     -55.024 450.702  -8.540  1.00  0.00    -0.350 N 
ATOM      4  H   UNL     1     -54.847 451.261  -7.675  1.00  0.00     0.345 HD
ATOM      5  H   UNL     1     -55.571 451.301  -9.201  1.00  0.00     0.345 HD
ATOM      6  H   UNL     1     -55.590 449.858  -8.294  1.00  0.00     0.345 HD
ENDBRANCH   2   3
BRANCH   2   7
ATOM      7  C   UNL     1     -53.202 451.447  -9.984  1.00  0.00     0.100 C 
ATOM      8  O   UNL     1     -52.442 452.307  -9.466  1.00  0.00    -0.544 OA
ATOM      9  O   UNL     1     -53.550 451.560 -11.324  1.00  0.00    -0.544 OA
ENDBRANCH   2   7
ENDBRANCH   1   2
BRANCH   1  10
ATOM     10  C   UNL     1     -53.508 447.809  -9.301  1.00  0.00     0.223 C 
ATOM     11  O   UNL     1     -53.860 446.683  -9.741  1.00  0.00    -0.275 OA
ATOM     12  N   UNL     1     -52.701 447.888  -8.126  1.00  0.00    -0.369 N 
ATOM     13  H   UNL     1     -52.417 447.018  -7.623  1.00  0.00     0.159 HD
ATOM     14  H   UNL     1     -52.380 448.812  -7.759  1.00  0.00     0.159 HD
ENDBRANCH   1  10
TORSDOF 4
ENDMDL
MODEL 2
REMARK VINA RESULT:    -3.385      1.442      4.250
REMARK INTER + INTRA:          -4.165
REMARK INTER:                  -3.904
REMARK INTRA:                  -0.262
REMARK UNBOUND:                -0.088
REMARK SMILES NC(=O)C[C@H]([NH3+])C(=O)[O-]
REMARK SMILES IDX 4 1 5 2 6 3 7 7 8 8 9 9 2 10 3 11 1 12
REMARK H PARENT 6 4 6 5 6 6 1 13 1 14
REMARK Flexibility Score: inf
ROOT
ATOM      1  C   UNL     1     -53.748 449.183  -9.964  1.00  0.00     0.171 C 
ENDROOT
BRANCH   1   2
ATOM      2  C   UNL     1     -53.746 447.862  -9.169  1.00  0.00     0.237 C 
BRANCH   2   3
ATOM      3  N   UNL     1     -52.533 447.728  -8.350  1.00  0.00    -0.350 N 
ATOM      4  H   UNL     1     -51.774 447.274  -8.906  1.00  0.00     0.345 HD
ATOM      5  H   UNL     1     -52.195 448.674  -8.059  1.00  0.00     0.345 HD
ATOM      6  H   UNL     1     -52.724 447.154  -7.496  1.00  0.00     0.345 HD
ENDBRANCH   2   3
BRANCH   2   7
ATOM      7  C   UNL     1     -53.868 446.697 -10.116  1.00  0.00     0.100 C 
ATOM      8  O   UNL     1     -53.560 446.826 -11.330  1.00  0.00    -0.544 OA
ATOM      9  O   UNL     1     -54.339 445.475  -9.654  1.00  0.00    -0.544 OA
ENDBRANCH   2   7
ENDBRANCH   1   2
BRANCH   1  10
ATOM     10  C   UNL     1     -53.902 450.374  -9.062  1.00  0.00     0.223 C 
ATOM     11  O   UNL     1     -52.934 450.746  -8.347  1.00  0.00    -0.275 OA
ATOM     12  N   UNL     1     -55.125 451.110  -9.035  1.00  0.00    -0.369 N 
ATOM     13  H   UNL     1     -55.224 451.943  -8.414  1.00  0.00     0.159 HD
ATOM     14  H   UNL     1     -55.930 450.830  -9.638  1.00  0.00     0.159 HD
ENDBRANCH   1  10
TORSDOF 4
ENDMDL
MODEL 3
REMARK VINA RESULT:    -3.332      2.862      4.370
REMARK INTER + INTRA:          -4.102
REMARK INTER:                  -3.836
REMARK INTRA:                  -0.266
REMARK UNBOUND:                -0.088
REMARK SMILES NC(=O)C[C@H]([NH3+])C(=O)[O-]
REMARK SMILES IDX 4 1 5 2 6 3 7 7 8 8 9 9 2 10 3 11 1 12
REMARK H PARENT 6 4 6 5 6 6 1 13 1 14
REMARK Flexibility Score: inf
ROOT
ATOM      1  C   UNL     1     -52.413 452.372 -10.058  1.00  0.00     0.171 C 
ENDROOT
BRANCH   1   2
ATOM      2  C   UNL     1     -53.355 451.200 -10.400  1.00  0.00     0.237 C 
BRANCH   2   3
ATOM      3  N   UNL     1     -54.390 451.604 -11.362  1.00  0.00    -0.350 N 
ATOM      4  H   UNL     1     -54.472 450.889 -12.120  1.00  0.00     0.345 HD
ATOM      5  H   UNL     1     -55.316 451.668 -10.881  1.00  0.00     0.345 HD
ATOM      6  H   UNL     1     -54.159 452.531 -11.788  1.00  0.00     0.345 HD
ENDBRANCH   2   3
BRANCH   2   7
ATOM      7  C   UNL     1     -53.991 450.673  -9.141  1.00  0.00     0.100 C 
ATOM      8  O   UNL     1     -53.804 449.480  -8.781  1.00  0.00    -0.544 OA
ATOM      9  O   UNL     1     -54.806 451.498  -8.377  1.00  0.00    -0.544 OA
ENDBRANCH   2   7
ENDBRANCH   1   2
BRANCH   1  10
ATOM     10  C   UNL     1     -51.617 452.812 -11.253  1.00  0.00     0.223 C 
ATOM     11  O   UNL     1     -51.520 452.053 -12.253  1.00  0.00    -0.275 OA
ATOM     12  N   UNL     1     -50.999 454.099 -11.278  1.00  0.00    -0.369 N 
ATOM     13  H   UNL     1     -50.456 454.405 -12.115  1.00  0.00     0.159 HD
ATOM     14  H   UNL     1     -51.089 454.751 -10.467  1.00  0.00     0.159 HD
ENDBRANCH   1  10
TORSDOF 4
ENDMDL
MODEL 4
REMARK VINA RESULT:    -3.236      1.675      3.910
REMARK INTER + INTRA:          -3.986
REMARK INTER:                  -3.705
REMARK INTRA:                  -0.281
REMARK UNBOUND:                -0.088
REMARK SMILES NC(=O)C[C@H]([NH3+])C(=O)[O-]
REMARK SMILES IDX 4 1 5 2 6 3 7 7 8 8 9 9 2 10 3 11 1 12
REMARK H PARENT 6 4 6 5 6 6 1 13 1 14
REMARK Flexibility Score: inf
ROOT
ATOM      1  C   UNL     1     -53.651 450.231 -10.269  1.00  0.00     0.171 C 
ENDROOT
BRANCH   1   2
ATOM      2  C   UNL     1     -53.932 449.007  -9.374  1.00  0.00     0.237 C 
BRANCH   2   3
ATOM      3  N   UNL     1     -52.930 448.880  -8.306  1.00  0.00    -0.350 N 
ATOM      4  H   UNL     1     -51.969 448.978  -8.703  1.00  0.00     0.345 HD
ATOM      5  H   UNL     1     -53.065 449.641  -7.601  1.00  0.00     0.345 HD
ATOM      6  H   UNL     1     -53.013 447.953  -7.828  1.00  0.00     0.345 HD
ENDBRANCH   2   3
BRANCH   2   7
ATOM      7  C   UNL     1     -53.961 447.757 -10.212  1.00  0.00     0.100 C 
ATOM      8  O   UNL     1     -53.758 446.630  -9.687  1.00  0.00    -0.544 OA
ATOM      9  O   UNL     1     -54.197 447.843 -11.578  1.00  0.00    -0.544 OA
ENDBRANCH   2   7
ENDBRANCH   1   2
BRANCH   1  10
ATOM     10  C   UNL     1     -53.486 451.485  -9.461  1.00  0.00     0.223 C 
ATOM     11  O   UNL     1     -54.189 451.661  -8.430  1.00  0.00    -0.275 OA
ATOM     12  N   UNL     1     -52.515 452.464  -9.831  1.00  0.00    -0.369 N 
ATOM     13  H   UNL     1     -52.397 453.330  -9.260  1.00  0.00     0.159 HD
ATOM     14  H   UNL     1     -51.908 452.324 -10.669  1.00  0.00     0.159 HD
ENDBRANCH   1  10
TORSDOF 4
ENDMDL
MODEL 5
REMARK VINA RESULT:    -3.187      2.355      3.004
REMARK INTER + INTRA:          -3.926
REMARK INTER:                  -3.643
REMARK INTRA:                  -0.284
REMARK UNBOUND:                -0.088
REMARK SMILES NC(=O)C[C@H]([NH3+])C(=O)[O-]
REMARK SMILES IDX 4 1 5 2 6 3 7 7 8 8 9 9 2 10 3 11 1 12
REMARK H PARENT 6 4 6 5 6 6 1 13 1 14
REMARK Flexibility Score: inf
ROOT
ATOM      1  C   UNL     1     -54.209 446.598  -9.673  1.00  0.00     0.171 C 
ENDROOT
BRANCH   1   2
ATOM      2  C   UNL     1     -53.233 447.768  -9.437  1.00  0.00     0.237 C 
BRANCH   2   3
ATOM      3  N   UNL     1     -52.697 447.755  -8.069  1.00  0.00    -0.350 N 
ATOM      4  H   UNL     1     -52.177 446.865  -7.896  1.00  0.00     0.345 HD
ATOM      5  H   UNL     1     -52.025 448.547  -7.944  1.00  0.00     0.345 HD
ATOM      6  H   UNL     1     -53.467 447.845  -7.367  1.00  0.00     0.345 HD
ENDBRANCH   2   3
BRANCH   2   7
ATOM      7  C   UNL     1     -53.929 449.075  -9.712  1.00  0.00     0.100 C 
ATOM      8  O   UNL     1     -54.305 449.811  -8.762  1.00  0.00    -0.544 OA
ATOM      9  O   UNL     1     -54.174 449.469 -11.021  1.00  0.00    -0.544 OA
ENDBRANCH   2   7
ENDBRANCH   1   2
BRANCH   1  10
ATOM     10  C   UNL     1     -53.938 445.903 -10.976  1.00  0.00     0.223 C 
ATOM     11  O   UNL     1     -53.593 444.691 -10.978  1.00  0.00    -0.275 OA
ATOM     12  N   UNL     1     -54.104 446.593 -12.214  1.00  0.00    -0.369 N 
ATOM     13  H   UNL     1     -53.925 446.103 -13.118  1.00  0.00     0.159 HD
ATOM     14  H   UNL     1     -54.412 447.591 -12.232  1.00  0.00     0.159 HD
ENDBRANCH   1  10
TORSDOF 4
ENDMDL
MODEL 6
REMARK VINA RESULT:    -3.174      1.934      4.045
REMARK INTER + INTRA:          -3.911
REMARK INTER:                  -3.649
REMARK INTRA:                  -0.262
REMARK UNBOUND:                -0.088
REMARK SMILES NC(=O)C[C@H]([NH3+])C(=O)[O-]
REMARK SMILES IDX 4 1 5 2 6 3 7 7 8 8 9 9 2 10 3 11 1 12
REMARK H PARENT 6 4 6 5 6 6 1 13 1 14
REMARK Flexibility Score: inf
ROOT
ATOM      1  C   UNL     1     -54.137 450.164  -9.073  1.00  0.00     0.171 C 
ENDROOT
BRANCH   1   2
ATOM      2  C   UNL     1     -53.568 448.979  -9.879  1.00  0.00     0.237 C 
BRANCH   2   3
ATOM      3  N   UNL     1     -54.309 448.772 -11.130  1.00  0.00    -0.350 N 
ATOM      4  H   UNL     1     -53.658 448.822 -11.946  1.00  0.00     0.345 HD
ATOM      5  H   UNL     1     -54.748 447.822 -11.129  1.00  0.00     0.345 HD
ATOM      6  H   UNL     1     -55.057 449.494 -11.242  1.00  0.00     0.345 HD
ENDBRANCH   2   3
BRANCH   2   7
ATOM      7  C   UNL     1     -53.601 447.729  -9.039  1.00  0.00     0.100 C 
ATOM      8  O   UNL     1     -53.303 447.773  -7.816  1.00  0.00    -0.544 OA
ATOM      9  O   UNL     1     -53.945 446.514  -9.618  1.00  0.00    -0.544 OA
ENDBRANCH   2   7
ENDBRANCH   1   2
BRANCH   1  10
ATOM     10  C   UNL     1     -54.104 451.440  -9.864  1.00  0.00     0.223 C 
ATOM     11  O   UNL     1     -55.101 451.771 -10.559  1.00  0.00    -0.275 OA
ATOM     12  N   UNL     1     -52.965 452.300  -9.806  1.00  0.00    -0.369 N 
ATOM     13  H   UNL     1     -52.951 453.191 -10.349  1.00  0.00     0.159 HD
ATOM     14  H   UNL     1     -52.139 452.053  -9.217  1.00  0.00     0.159 HD
ENDBRANCH   1  10
TORSDOF 4
ENDMDL
MODEL 7
REMARK VINA RESULT:    -3.102      2.426      3.031
REMARK INTER + INTRA:          -3.824
REMARK INTER:                  -3.549
REMARK INTRA:                  -0.275
REMARK UNBOUND:                -0.088
REMARK SMILES NC(=O)C[C@H]([NH3+])C(=O)[O-]
REMARK SMILES IDX 4 1 5 2 6 3 7 7 8 8 9 9 2 10 3 11 1 12
REMARK H PARENT 6 4 6 5 6 6 1 13 1 14
REMARK Flexibility Score: inf
ROOT
ATOM      1  C   UNL     1     -53.258 447.222 -10.894  1.00  0.00     0.171 C 
ENDROOT
BRANCH   1   2
ATOM      2  C   UNL     1     -54.056 448.433 -10.373  1.00  0.00     0.237 C 
BRANCH   2   3
ATOM      3  N   UNL     1     -53.963 449.576 -11.293  1.00  0.00    -0.350 N 
ATOM      4  H   UNL     1     -54.780 450.213 -11.157  1.00  0.00     0.345 HD
ATOM      5  H   UNL     1     -53.094 450.123 -11.091  1.00  0.00     0.345 HD
ATOM      6  H   UNL     1     -53.941 449.251 -12.287  1.00  0.00     0.345 HD
ENDBRANCH   2   3
BRANCH   2   7
ATOM      7  C   UNL     1     -53.560 448.822  -9.006  1.00  0.00     0.100 C 
ATOM      8  O   UNL     1     -53.320 447.941  -8.139  1.00  0.00    -0.544 OA
ATOM      9  O   UNL     1     -53.381 450.162  -8.688  1.00  0.00    -0.544 OA
ENDBRANCH   2   7
ENDBRANCH   1   2
BRANCH   1  10
ATOM     10  C   UNL     1     -54.075 445.962 -10.863  1.00  0.00     0.223 C 
ATOM     11  O   UNL     1     -54.392 445.396 -11.943  1.00  0.00    -0.275 OA
ATOM     12  N   UNL     1     -54.467 445.382  -9.619  1.00  0.00    -0.369 N 
ATOM     13  H   UNL     1     -55.026 444.500  -9.602  1.00  0.00     0.159 HD
ATOM     14  H   UNL     1     -54.194 445.825  -8.714  1.00  0.00     0.159 HD
ENDBRANCH   1  10
TORSDOF 4
ENDMDL
MODEL 8
REMARK VINA RESULT:    -2.976      5.319      6.496
REMARK INTER + INTRA:          -3.673
REMARK INTER:                  -3.382
REMARK INTRA:                  -0.291
REMARK UNBOUND:                -0.088
REMARK SMILES NC(=O)C[C@H]([NH3+])C(=O)[O-]
REMARK SMILES IDX 4 1 5 2 6 3 7 7 8 8 9 9 2 10 3 11 1 12
REMARK H PARENT 6 4 6 5 6 6 1 13 1 14
REMARK Flexibility Score: inf
ROOT
ATOM      1  C   UNL     1     -49.154 452.625 -12.125  1.00  0.00     0.171 C 
ENDROOT
BRANCH   1   2
ATOM      2  C   UNL     1     -50.529 453.239 -12.454  1.00  0.00     0.237 C 
BRANCH   2   3
ATOM      3  N   UNL     1     -50.995 454.125 -11.379  1.00  0.00    -0.350 N 
ATOM      4  H   UNL     1     -50.259 454.212 -10.642  1.00  0.00     0.345 HD
ATOM      5  H   UNL     1     -51.179 455.081 -11.761  1.00  0.00     0.345 HD
ATOM      6  H   UNL     1     -51.872 453.754 -10.946  1.00  0.00     0.345 HD
ENDBRANCH   2   3
BRANCH   2   7
ATOM      7  C   UNL     1     -51.532 452.143 -12.698  1.00  0.00     0.100 C 
ATOM      8  O   UNL     1     -52.433 451.900 -11.851  1.00  0.00    -0.544 OA
ATOM      9  O   UNL     1     -51.457 451.379 -13.855  1.00  0.00    -0.544 OA
ENDBRANCH   2   7
ENDBRANCH   1   2
BRANCH   1  10
ATOM     10  C   UNL     1     -48.198 452.753 -13.275  1.00  0.00     0.223 C 
ATOM     11  O   UNL     1     -47.148 453.437 -13.143  1.00  0.00    -0.275 OA
ATOM     12  N   UNL     1     -48.450 452.076 -14.507  1.00  0.00    -0.369 N 
ATOM     13  H   UNL     1     -47.778 452.159 -15.301  1.00  0.00     0.159 HD
ATOM     14  H   UNL     1     -49.303 451.485 -14.627  1.00  0.00     0.159 HD
ENDBRANCH   1  10
TORSDOF 4
ENDMDL
