MODEL 1
REMARK VINA RESULT:    -4.100      0.000      0.000
REMARK INTER + INTRA:          -5.741
REMARK INTER:                  -5.538
REMARK INTRA:                  -0.203
REMARK UNBOUND:                -0.203
REMARK SMILES CCCCCCCC(=O)[O-]
REMARK SMILES IDX 5 1 6 2 7 3 8 4 9 5 10 6 4 7 3 8 2 9 1 10
REMARK H PARENT
REMARK Flexibility Score: inf
ROOT
ATOM      1  C   UNL     1      16.801  -6.200  14.854  1.00  0.00     0.000 C 
ENDROOT
BRANCH   1   2
ATOM      2  C   UNL     1      17.700  -6.854  13.792  1.00  0.00     0.006 C 
BRANCH   2   3
ATOM      3  C   UNL     1      17.023  -8.042  13.096  1.00  0.00     0.053 C 
BRANCH   3   4
ATOM      4  C   UNL     1      17.777  -9.305  13.373  1.00  0.00     0.041 C 
ATOM      5  O   UNL     1      17.663 -10.293  12.601  1.00  0.00    -0.550 OA
ATOM      6  O   UNL     1      18.567  -9.408  14.511  1.00  0.00    -0.550 OA
ENDBRANCH   3   4
ENDBRANCH   2   3
ENDBRANCH   1   2
BRANCH   1   7
ATOM      7  C   UNL     1      17.260  -6.508  16.288  1.00  0.00     0.000 C 
BRANCH   7   8
ATOM      8  C   UNL     1      16.261  -5.952  17.315  1.00  0.00    -0.000 C 
BRANCH   8   9
ATOM      9  C   UNL     1      16.948  -5.425  18.583  1.00  0.00    -0.003 C 
ATOM     10  C   UNL     1      16.204  -4.248  19.215  1.00  0.00     0.004 C 
ENDBRANCH   8   9
ENDBRANCH   7   8
ENDBRANCH   1   7
TORSDOF 6
ENDMDL
MODEL 2
REMARK VINA RESULT:    -3.739      3.615      6.289
REMARK INTER + INTRA:          -5.253
REMARK INTER:                  -4.918
REMARK INTRA:                  -0.335
REMARK UNBOUND:                -0.203
REMARK SMILES CCCCCCCC(=O)[O-]
REMARK SMILES IDX 5 1 6 2 7 3 8 4 9 5 10 6 4 7 3 8 2 9 1 10
REMARK H PARENT
REMARK Flexibility Score: inf
ROOT
ATOM      1  C   UNL     1      15.905  -9.649  12.621  1.00  0.00     0.000 C 
ENDROOT
BRANCH   1   2
ATOM      2  C   UNL     1      17.401 -10.003  12.602  1.00  0.00     0.006 C 
BRANCH   2   3
ATOM      3  C   UNL     1      18.164  -9.409  13.792  1.00  0.00     0.053 C 
BRANCH   3   4
ATOM      4  C   UNL     1      18.079  -7.915  13.771  1.00  0.00     0.041 C 
ATOM      5  O   UNL     1      17.556  -7.296  14.735  1.00  0.00    -0.550 OA
ATOM      6  O   UNL     1      18.534  -7.208  12.665  1.00  0.00    -0.550 OA
ENDBRANCH   3   4
ENDBRANCH   2   3
ENDBRANCH   1   2
BRANCH   1   7
ATOM      7  C   UNL     1      15.008 -10.841  12.251  1.00  0.00     0.000 C 
BRANCH   7   8
ATOM      8  C   UNL     1      15.849 -12.103  12.004  1.00  0.00    -0.000 C 
BRANCH   8   9
ATOM      9  C   UNL     1      15.195 -13.369  12.576  1.00  0.00    -0.003 C 
ATOM     10  C   UNL     1      13.674 -13.255  12.683  1.00  0.00     0.004 C 
ENDBRANCH   8   9
ENDBRANCH   7   8
ENDBRANCH   1   7
TORSDOF 6
ENDMDL
MODEL 3
REMARK VINA RESULT:    -3.696      2.248      3.496
REMARK INTER + INTRA:          -5.195
REMARK INTER:                  -4.891
REMARK INTRA:                  -0.305
REMARK UNBOUND:                -0.203
REMARK SMILES CCCCCCCC(=O)[O-]
REMARK SMILES IDX 5 1 6 2 7 3 8 4 9 5 10 6 4 7 3 8 2 9 1 10
REMARK H PARENT
REMARK Flexibility Score: inf
ROOT
ATOM      1  C   UNL     1      18.152  -8.647  13.702  1.00  0.00     0.000 C 
ENDROOT
BRANCH   1   2
ATOM      2  C   UNL     1      17.651  -9.896  12.959  1.00  0.00     0.006 C 
BRANCH   2   3
ATOM      3  C   UNL     1      16.222  -9.733  12.427  1.00  0.00     0.053 C 
BRANCH   3   4
ATOM      4  C   UNL     1      15.510 -11.050  12.436  1.00  0.00     0.041 C 
ATOM      5  O   UNL     1      14.277 -11.102  12.688  1.00  0.00    -0.550 OA
ATOM      6  O   UNL     1      16.218 -12.224  12.213  1.00  0.00    -0.550 OA
ENDBRANCH   3   4
ENDBRANCH   2   3
ENDBRANCH   1   2
BRANCH   1   7
ATOM      7  C   UNL     1      18.093  -7.378  12.836  1.00  0.00     0.000 C 
BRANCH   7   8
ATOM      8  C   UNL     1      17.782  -6.142  13.693  1.00  0.00    -0.000 C 
BRANCH   8   9
ATOM      9  C   UNL     1      16.622  -6.378  14.672  1.00  0.00    -0.003 C 
ATOM     10  C   UNL     1      17.043  -6.240  16.135  1.00  0.00     0.004 C 
ENDBRANCH   8   9
ENDBRANCH   7   8
ENDBRANCH   1   7
TORSDOF 6
ENDMDL
MODEL 4
REMARK VINA RESULT:    -3.690      3.725      5.305
REMARK INTER + INTRA:          -5.188
REMARK INTER:                  -4.907
REMARK INTRA:                  -0.280
REMARK UNBOUND:                -0.203
REMARK SMILES CCCCCCCC(=O)[O-]
REMARK SMILES IDX 5 1 6 2 7 3 8 4 9 5 10 6 4 7 3 8 2 9 1 10
REMARK H PARENT
REMARK Flexibility Score: inf
ROOT
ATOM      1  C   UNL     1      16.040  -9.567  12.195  1.00  0.00     0.000 C 
ENDROOT
BRANCH   1   2
ATOM      2  C   UNL     1      14.782 -10.416  12.436  1.00  0.00     0.006 C 
BRANCH   2   3
ATOM      3  C   UNL     1      15.028 -11.914  12.211  1.00  0.00     0.053 C 
BRANCH   3   4
ATOM      4  C   UNL     1      13.894 -12.717  12.769  1.00  0.00     0.041 C 
ATOM      5  O   UNL     1      13.948 -13.975  12.766  1.00  0.00    -0.550 OA
ATOM      6  O   UNL     1      12.758 -12.077  13.247  1.00  0.00    -0.550 OA
ENDBRANCH   3   4
ENDBRANCH   2   3
ENDBRANCH   1   2
BRANCH   1   7
ATOM      7  C   UNL     1      17.327 -10.274  12.647  1.00  0.00     0.000 C 
BRANCH   7   8
ATOM      8  C   UNL     1      18.090  -9.422  13.673  1.00  0.00    -0.000 C 
BRANCH   8   9
ATOM      9  C   UNL     1      18.036  -7.922  13.351  1.00  0.00    -0.003 C 
ATOM     10  C   UNL     1      17.520  -7.083  14.521  1.00  0.00     0.004 C 
ENDBRANCH   8   9
ENDBRANCH   7   8
ENDBRANCH   1   7
TORSDOF 6
ENDMDL
MODEL 5
REMARK VINA RESULT:    -3.661      4.041      6.617
REMARK INTER + INTRA:          -5.148
REMARK INTER:                  -4.907
REMARK INTRA:                  -0.241
REMARK UNBOUND:                -0.203
REMARK SMILES CCCCCCCC(=O)[O-]
REMARK SMILES IDX 5 1 6 2 7 3 8 4 9 5 10 6 4 7 3 8 2 9 1 10
REMARK H PARENT
REMARK Flexibility Score: inf
ROOT
ATOM      1  C   UNL     1      15.865 -11.811  12.018  1.00  0.00     0.000 C 
ENDROOT
BRANCH   1   2
ATOM      2  C   UNL     1      16.863 -11.044  12.900  1.00  0.00     0.006 C 
BRANCH   2   3
ATOM      3  C   UNL     1      17.120  -9.618  12.399  1.00  0.00     0.053 C 
BRANCH   3   4
ATOM      4  C   UNL     1      18.000  -8.879  13.359  1.00  0.00     0.041 C 
ATOM      5  O   UNL     1      18.278  -7.667  13.159  1.00  0.00    -0.550 OA
ATOM      6  O   UNL     1      18.552  -9.543  14.447  1.00  0.00    -0.550 OA
ENDBRANCH   3   4
ENDBRANCH   2   3
ENDBRANCH   1   2
BRANCH   1   7
ATOM      7  C   UNL     1      15.523 -13.200  12.580  1.00  0.00     0.000 C 
BRANCH   7   8
ATOM      8  C   UNL     1      14.003 -13.422  12.608  1.00  0.00    -0.000 C 
BRANCH   8   9
ATOM      9  C   UNL     1      13.219 -12.115  12.791  1.00  0.00    -0.003 C 
ATOM     10  C   UNL     1      11.763 -12.229  12.337  1.00  0.00     0.004 C 
ENDBRANCH   8   9
ENDBRANCH   7   8
ENDBRANCH   1   7
TORSDOF 6
ENDMDL
MODEL 6
REMARK VINA RESULT:    -3.618      3.077      5.739
REMARK INTER + INTRA:          -5.090
REMARK INTER:                  -4.775
REMARK INTRA:                  -0.315
REMARK UNBOUND:                -0.203
REMARK SMILES CCCCCCCC(=O)[O-]
REMARK SMILES IDX 5 1 6 2 7 3 8 4 9 5 10 6 4 7 3 8 2 9 1 10
REMARK H PARENT
REMARK Flexibility Score: inf
ROOT
ATOM      1  C   UNL     1      18.057  -9.070  13.370  1.00  0.00     0.000 C 
ENDROOT
BRANCH   1   2
ATOM      2  C   UNL     1      18.054  -7.801  12.503  1.00  0.00     0.006 C 
BRANCH   2   3
ATOM      3  C   UNL     1      18.117  -6.515  13.337  1.00  0.00     0.053 C 
BRANCH   3   4
ATOM      4  C   UNL     1      17.039  -6.515  14.375  1.00  0.00     0.041 C 
ATOM      5  O   UNL     1      17.337  -6.528  15.599  1.00  0.00    -0.550 OA
ATOM      6  O   UNL     1      15.705  -6.549  13.991  1.00  0.00    -0.550 OA
ENDBRANCH   3   4
ENDBRANCH   2   3
ENDBRANCH   1   2
BRANCH   1   7
ATOM      7  C   UNL     1      17.365 -10.258  12.684  1.00  0.00     0.000 C 
BRANCH   7   8
ATOM      8  C   UNL     1      15.862  -9.991  12.509  1.00  0.00    -0.000 C 
BRANCH   8   9
ATOM      9  C   UNL     1      15.076 -11.257  12.136  1.00  0.00    -0.003 C 
ATOM     10  C   UNL     1      15.887 -12.538  12.337  1.00  0.00     0.004 C 
ENDBRANCH   8   9
ENDBRANCH   7   8
ENDBRANCH   1   7
TORSDOF 6
ENDMDL
MODEL 7
REMARK VINA RESULT:    -3.612      3.022      5.243
REMARK INTER + INTRA:          -5.082
REMARK INTER:                  -4.656
REMARK INTRA:                  -0.427
REMARK UNBOUND:                -0.203
REMARK SMILES CCCCCCCC(=O)[O-]
REMARK SMILES IDX 5 1 6 2 7 3 8 4 9 5 10 6 4 7 3 8 2 9 1 10
REMARK H PARENT
REMARK Flexibility Score: inf
ROOT
ATOM      1  C   UNL     1      17.734  -5.965  13.768  1.00  0.00     0.000 C 
ENDROOT
BRANCH   1   2
ATOM      2  C   UNL     1      16.696  -6.320  14.845  1.00  0.00     0.006 C 
BRANCH   2   3
ATOM      3  C   UNL     1      17.327  -6.521  16.229  1.00  0.00     0.053 C 
BRANCH   3   4
ATOM      4  C   UNL     1      16.559  -5.763  17.266  1.00  0.00     0.041 C 
ATOM      5  O   UNL     1      17.049  -5.583  18.412  1.00  0.00    -0.550 OA
ATOM      6  O   UNL     1      15.281  -5.298  16.983  1.00  0.00    -0.550 OA
ENDBRANCH   3   4
ENDBRANCH   2   3
ENDBRANCH   1   2
BRANCH   1   7
ATOM      7  C   UNL     1      17.893  -7.070  12.712  1.00  0.00     0.000 C 
BRANCH   7   8
ATOM      8  C   UNL     1      17.066  -8.310  13.086  1.00  0.00    -0.000 C 
BRANCH   8   9
ATOM      9  C   UNL     1      17.934  -9.561  13.284  1.00  0.00    -0.003 C 
ATOM     10  C   UNL     1      18.529  -9.653  14.689  1.00  0.00     0.004 C 
ENDBRANCH   8   9
ENDBRANCH   7   8
ENDBRANCH   1   7
TORSDOF 6
ENDMDL
MODEL 8
REMARK VINA RESULT:    -3.555      4.039      5.288
REMARK INTER + INTRA:          -5.005
REMARK INTER:                  -4.702
REMARK INTRA:                  -0.303
REMARK UNBOUND:                -0.203
REMARK SMILES CCCCCCCC(=O)[O-]
REMARK SMILES IDX 5 1 6 2 7 3 8 4 9 5 10 6 4 7 3 8 2 9 1 10
REMARK H PARENT
REMARK Flexibility Score: inf
ROOT
ATOM      1  C   UNL     1      14.648  -9.157  12.613  1.00  0.00     0.000 C 
ENDROOT
BRANCH   1   2
ATOM      2  C   UNL     1      15.248 -10.554  12.390  1.00  0.00     0.006 C 
BRANCH   2   3
ATOM      3  C   UNL     1      14.176 -11.638  12.223  1.00  0.00     0.053 C 
BRANCH   3   4
ATOM      4  C   UNL     1      14.738 -12.983  12.562  1.00  0.00     0.041 C 
ATOM      5  O   UNL     1      15.982 -13.176  12.533  1.00  0.00    -0.550 OA
ATOM      6  O   UNL     1      13.884 -14.037  12.862  1.00  0.00    -0.550 OA
ENDBRANCH   3   4
ENDBRANCH   2   3
ENDBRANCH   1   2
BRANCH   1   7
ATOM      7  C   UNL     1      15.716  -8.052  12.650  1.00  0.00     0.000 C 
BRANCH   7   8
ATOM      8  C   UNL     1      17.126  -8.647  12.509  1.00  0.00    -0.000 C 
BRANCH   8   9
ATOM      9  C   UNL     1      18.044  -8.276  13.683  1.00  0.00    -0.003 C 
ATOM     10  C   UNL     1      18.460  -9.488  14.517  1.00  0.00     0.004 C 
ENDBRANCH   8   9
ENDBRANCH   7   8
ENDBRANCH   1   7
TORSDOF 6
ENDMDL
MODEL 9
REMARK VINA RESULT:    -3.525      3.048      4.749
REMARK INTER + INTRA:          -4.964
REMARK INTER:                  -4.471
REMARK INTRA:                  -0.494
REMARK UNBOUND:                -0.203
REMARK SMILES CCCCCCCC(=O)[O-]
REMARK SMILES IDX 5 1 6 2 7 3 8 4 9 5 10 6 4 7 3 8 2 9 1 10
REMARK H PARENT
REMARK Flexibility Score: inf
ROOT
ATOM      1  C   UNL     1      15.457  -8.348  12.877  1.00  0.00     0.000 C 
ENDROOT
BRANCH   1   2
ATOM      2  C   UNL     1      15.531  -6.817  12.754  1.00  0.00     0.006 C 
BRANCH   2   3
ATOM      3  C   UNL     1      15.579  -6.117  14.118  1.00  0.00     0.053 C 
BRANCH   3   4
ATOM      4  C   UNL     1      16.990  -6.027  14.608  1.00  0.00     0.041 C 
ATOM      5  O   UNL     1      17.898  -5.596  13.850  1.00  0.00    -0.550 OA
ATOM      6  O   UNL     1      17.311  -6.464  15.887  1.00  0.00    -0.550 OA
ENDBRANCH   3   4
ENDBRANCH   2   3
ENDBRANCH   1   2
BRANCH   1   7
ATOM      7  C   UNL     1      16.523  -9.062  12.030  1.00  0.00     0.000 C 
BRANCH   7   8
ATOM      8  C   UNL     1      17.402  -9.968  12.905  1.00  0.00    -0.000 C 
BRANCH   8   9
ATOM      9  C   UNL     1      18.402  -9.175  13.759  1.00  0.00    -0.003 C 
ATOM     10  C   UNL     1      18.570  -9.753  15.165  1.00  0.00     0.004 C 
ENDBRANCH   8   9
ENDBRANCH   7   8
ENDBRANCH   1   7
TORSDOF 6
ENDMDL
