MODEL 1
REMARK VINA RESULT:    -6.786      0.000      0.000
REMARK INTER + INTRA:          -6.786
REMARK INTER:                  -6.786
REMARK INTRA:                   0.000
REMARK UNBOUND:                 0.000
REMARK SMILES C=C1CCC[C@@]2(C)CC(=O)C(=C(C)C)C[C@H]12
REMARK SMILES IDX 13 1 12 2 11 3 15 4 16 5 2 6 1 7 3 8 4 9 5 10 6 11 8 12 9 13
REMARK SMILES IDX 10 14 7 15 14 16
REMARK H PARENT
REMARK Flexibility Score: inf
ROOT
ATOM      1  C   UNL     1     -16.696  13.330 -28.553  1.00  0.00     0.039 C 
ATOM      2  C   UNL     1     -16.743  13.500 -30.055  1.00  0.00    -0.070 C 
ATOM      3  C   UNL     1     -15.679  14.011 -30.744  1.00  0.00    -0.006 C 
ATOM      4  C   UNL     1     -14.397  14.407 -30.026  1.00  0.00     0.047 C 
ATOM      5  C   UNL     1     -13.131  14.301 -30.917  1.00  0.00     0.025 C 
ATOM      6  C   UNL     1     -11.842  14.803 -30.260  1.00  0.00    -0.073 C 
ATOM      7  C   UNL     1     -11.750  15.159 -28.964  1.00  0.00     0.008 C 
ATOM      8  C   UNL     1     -10.594  14.880 -31.108  1.00  0.00     0.031 C 
ATOM      9  C   UNL     1     -10.802  14.227 -32.476  1.00  0.00     0.005 C 
ATOM     10  C   UNL     1     -12.023  14.806 -33.210  1.00  0.00     0.008 C 
ATOM     11  C   UNL     1     -13.311  14.980 -32.317  1.00  0.00    -0.018 C 
ATOM     12  C   UNL     1     -14.507  14.307 -33.034  1.00  0.00     0.088 C 
ATOM     13  C   UNL     1     -15.752  14.324 -32.199  1.00  0.00     0.159 C 
ATOM     14  O   UNL     1     -16.845  14.625 -32.750  1.00  0.00    -0.295 OA
ATOM     15  C   UNL     1     -13.597  16.500 -32.162  1.00  0.00     0.012 C 
ATOM     16  C   UNL     1     -18.002  13.043 -30.755  1.00  0.00     0.039 C 
ENDROOT
TORSDOF 0
ENDMDL
MODEL 2
REMARK VINA RESULT:    -5.955      1.374      1.593
REMARK INTER + INTRA:          -5.955
REMARK INTER:                  -5.955
REMARK INTRA:                   0.000
REMARK UNBOUND:                 0.000
REMARK SMILES C=C1CCC[C@@]2(C)CC(=O)C(=C(C)C)C[C@H]12
REMARK SMILES IDX 13 1 12 2 11 3 15 4 16 5 2 6 1 7 3 8 4 9 5 10 6 11 8 12 9 13
REMARK SMILES IDX 10 14 7 15 14 16
REMARK H PARENT
REMARK Flexibility Score: inf
ROOT
ATOM      1  C   UNL     1     -15.800  11.808 -27.163  1.00  0.00     0.039 C 
ATOM      2  C   UNL     1     -16.293  12.006 -28.579  1.00  0.00    -0.070 C 
ATOM      3  C   UNL     1     -15.614  12.797 -29.462  1.00  0.00    -0.006 C 
ATOM      4  C   UNL     1     -14.322  13.493 -29.058  1.00  0.00     0.047 C 
ATOM      5  C   UNL     1     -13.359  13.748 -30.248  1.00  0.00     0.025 C 
ATOM      6  C   UNL     1     -12.102  14.549 -29.894  1.00  0.00    -0.073 C 
ATOM      7  C   UNL     1     -11.752  14.877 -28.636  1.00  0.00     0.008 C 
ATOM      8  C   UNL     1     -11.190  14.976 -31.021  1.00  0.00     0.031 C 
ATOM      9  C   UNL     1     -11.597  14.333 -32.348  1.00  0.00     0.005 C 
ATOM     10  C   UNL     1     -13.074  14.596 -32.685  1.00  0.00     0.008 C 
ATOM     11  C   UNL     1     -14.072  14.400 -31.481  1.00  0.00    -0.018 C 
ATOM     12  C   UNL     1     -15.217  13.460 -31.933  1.00  0.00     0.088 C 
ATOM     13  C   UNL     1     -16.153  13.125 -30.812  1.00  0.00     0.159 C 
ATOM     14  O   UNL     1     -17.395  13.147 -31.033  1.00  0.00    -0.295 OA
ATOM     15  C   UNL     1     -14.667  15.787 -31.108  1.00  0.00     0.012 C 
ATOM     16  C   UNL     1     -17.544  11.257 -28.977  1.00  0.00     0.039 C 
ENDROOT
TORSDOF 0
ENDMDL
MODEL 3
REMARK VINA RESULT:    -5.905      2.320      3.923
REMARK INTER + INTRA:          -5.905
REMARK INTER:                  -5.905
REMARK INTRA:                   0.000
REMARK UNBOUND:                 0.000
REMARK SMILES C=C1CCC[C@@]2(C)CC(=O)C(=C(C)C)C[C@H]12
REMARK SMILES IDX 13 1 12 2 11 3 15 4 16 5 2 6 1 7 3 8 4 9 5 10 6 11 8 12 9 13
REMARK SMILES IDX 10 14 7 15 14 16
REMARK H PARENT
REMARK Flexibility Score: inf
ROOT
ATOM      1  C   UNL     1     -18.355  11.559 -29.009  1.00  0.00     0.039 C 
ATOM      2  C   UNL     1     -17.023  11.581 -28.293  1.00  0.00    -0.070 C 
ATOM      3  C   UNL     1     -15.944  12.231 -28.821  1.00  0.00    -0.006 C 
ATOM      4  C   UNL     1     -16.050  12.979 -30.143  1.00  0.00     0.047 C 
ATOM      5  C   UNL     1     -15.058  14.166 -30.263  1.00  0.00     0.025 C 
ATOM      6  C   UNL     1     -15.059  14.866 -31.626  1.00  0.00    -0.073 C 
ATOM      7  C   UNL     1     -15.949  14.603 -32.603  1.00  0.00     0.008 C 
ATOM      8  C   UNL     1     -14.016  15.929 -31.881  1.00  0.00     0.031 C 
ATOM      9  C   UNL     1     -13.241  16.272 -30.608  1.00  0.00     0.005 C 
ATOM     10  C   UNL     1     -12.627  15.023 -29.954  1.00  0.00     0.008 C 
ATOM     11  C   UNL     1     -13.593  13.779 -29.868  1.00  0.00    -0.018 C 
ATOM     12  C   UNL     1     -13.604  13.260 -28.410  1.00  0.00     0.088 C 
ATOM     13  C   UNL     1     -14.587  12.146 -28.212  1.00  0.00     0.159 C 
ATOM     14  O   UNL     1     -14.234  11.139 -27.539  1.00  0.00    -0.295 OA
ATOM     15  C   UNL     1     -13.042  12.667 -30.804  1.00  0.00     0.012 C 
ATOM     16  C   UNL     1     -16.957  10.884 -26.953  1.00  0.00     0.039 C 
ENDROOT
TORSDOF 0
ENDMDL
MODEL 4
REMARK VINA RESULT:    -5.621      2.082      4.986
REMARK INTER + INTRA:          -5.621
REMARK INTER:                  -5.621
REMARK INTRA:                   0.000
REMARK UNBOUND:                 0.000
REMARK SMILES C=C1CCC[C@@]2(C)CC(=O)C(=C(C)C)C[C@H]12
REMARK SMILES IDX 13 1 12 2 11 3 15 4 16 5 2 6 1 7 3 8 4 9 5 10 6 11 8 12 9 13
REMARK SMILES IDX 10 14 7 15 14 16
REMARK H PARENT
REMARK Flexibility Score: inf
ROOT
ATOM      1  C   UNL     1     -10.897  14.980 -30.711  1.00  0.00     0.039 C 
ATOM      2  C   UNL     1     -12.229  14.731 -31.384  1.00  0.00    -0.070 C 
ATOM      3  C   UNL     1     -13.185  13.951 -30.797  1.00  0.00    -0.006 C 
ATOM      4  C   UNL     1     -12.952  13.320 -29.431  1.00  0.00     0.047 C 
ATOM      5  C   UNL     1     -14.260  13.081 -28.630  1.00  0.00     0.025 C 
ATOM      6  C   UNL     1     -14.070  12.342 -27.302  1.00  0.00    -0.073 C 
ATOM      7  C   UNL     1     -12.866  12.055 -26.768  1.00  0.00     0.008 C 
ATOM      8  C   UNL     1     -15.304  11.930 -26.533  1.00  0.00     0.031 C 
ATOM      9  C   UNL     1     -16.572  12.528 -27.146  1.00  0.00     0.005 C 
ATOM     10  C   UNL     1     -16.700  12.196 -28.642  1.00  0.00     0.008 C 
ATOM     11  C   UNL     1     -15.373  12.374 -29.475  1.00  0.00    -0.018 C 
ATOM     12  C   UNL     1     -15.678  13.255 -30.711  1.00  0.00     0.088 C 
ATOM     13  C   UNL     1     -14.443  13.572 -31.500  1.00  0.00     0.159 C 
ATOM     14  O   UNL     1     -14.492  13.493 -32.758  1.00  0.00    -0.295 OA
ATOM     15  C   UNL     1     -14.901  10.971 -29.949  1.00  0.00     0.012 C 
ATOM     16  C   UNL     1     -12.462  15.417 -32.710  1.00  0.00     0.039 C 
ENDROOT
TORSDOF 0
ENDMDL
MODEL 5
REMARK VINA RESULT:    -5.271      2.117      3.534
REMARK INTER + INTRA:          -5.271
REMARK INTER:                  -5.271
REMARK INTRA:                   0.000
REMARK UNBOUND:                 0.000
REMARK SMILES C=C1CCC[C@@]2(C)CC(=O)C(=C(C)C)C[C@H]12
REMARK SMILES IDX 13 1 12 2 11 3 15 4 16 5 2 6 1 7 3 8 4 9 5 10 6 11 8 12 9 13
REMARK SMILES IDX 10 14 7 15 14 16
REMARK H PARENT
REMARK Flexibility Score: inf
ROOT
ATOM      1  C   UNL     1     -18.138  12.909 -30.874  1.00  0.00     0.039 C 
ATOM      2  C   UNL     1     -17.342  12.386 -29.699  1.00  0.00    -0.070 C 
ATOM      3  C   UNL     1     -15.996  12.597 -29.605  1.00  0.00    -0.006 C 
ATOM      4  C   UNL     1     -15.249  13.387 -30.670  1.00  0.00     0.047 C 
ATOM      5  C   UNL     1     -13.984  14.107 -30.133  1.00  0.00     0.025 C 
ATOM      6  C   UNL     1     -13.147  14.815 -31.203  1.00  0.00    -0.073 C 
ATOM      7  C   UNL     1     -13.535  14.958 -32.485  1.00  0.00     0.008 C 
ATOM      8  C   UNL     1     -11.819  15.408 -30.792  1.00  0.00     0.031 C 
ATOM      9  C   UNL     1     -11.633  15.369 -29.274  1.00  0.00     0.005 C 
ATOM     10  C   UNL     1     -11.820  13.952 -28.708  1.00  0.00     0.008 C 
ATOM     11  C   UNL     1     -13.066  13.171 -29.276  1.00  0.00    -0.018 C 
ATOM     12  C   UNL     1     -13.897  12.630 -28.088  1.00  0.00     0.088 C 
ATOM     13  C   UNL     1     -15.167  11.970 -28.537  1.00  0.00     0.159 C 
ATOM     14  O   UNL     1     -15.500  10.876 -28.006  1.00  0.00    -0.295 OA
ATOM     15  C   UNL     1     -12.548  11.976 -30.125  1.00  0.00     0.012 C 
ATOM     16  C   UNL     1     -18.114  11.658 -28.623  1.00  0.00     0.039 C 
ENDROOT
TORSDOF 0
ENDMDL
MODEL 6
REMARK VINA RESULT:    -5.030      2.260      5.246
REMARK INTER + INTRA:          -5.030
REMARK INTER:                  -5.030
REMARK INTRA:                   0.000
REMARK UNBOUND:                 0.000
REMARK SMILES C=C1CCC[C@@]2(C)CC(=O)C(=C(C)C)C[C@H]12
REMARK SMILES IDX 13 1 12 2 11 3 15 4 16 5 2 6 1 7 3 8 4 9 5 10 6 11 8 12 9 13
REMARK SMILES IDX 10 14 7 15 14 16
REMARK H PARENT
REMARK Flexibility Score: inf
ROOT
ATOM      1  C   UNL     1     -13.584  16.493 -32.549  1.00  0.00     0.039 C 
ATOM      2  C   UNL     1     -12.735  15.292 -32.195  1.00  0.00    -0.070 C 
ATOM      3  C   UNL     1     -13.132  14.400 -31.239  1.00  0.00    -0.006 C 
ATOM      4  C   UNL     1     -14.457  14.571 -30.509  1.00  0.00     0.047 C 
ATOM      5  C   UNL     1     -15.069  13.232 -30.018  1.00  0.00     0.025 C 
ATOM      6  C   UNL     1     -16.343  13.380 -29.180  1.00  0.00    -0.073 C 
ATOM      7  C   UNL     1     -16.993  14.547 -29.004  1.00  0.00     0.008 C 
ATOM      8  C   UNL     1     -16.917  12.141 -28.532  1.00  0.00     0.031 C 
ATOM      9  C   UNL     1     -16.207  10.875 -29.015  1.00  0.00     0.005 C 
ATOM     10  C   UNL     1     -14.683  10.961 -28.822  1.00  0.00     0.008 C 
ATOM     11  C   UNL     1     -14.038  12.331 -29.259  1.00  0.00    -0.018 C 
ATOM     12  C   UNL     1     -12.853  12.040 -30.212  1.00  0.00     0.088 C 
ATOM     13  C   UNL     1     -12.251  13.294 -30.770  1.00  0.00     0.159 C 
ATOM     14  O   UNL     1     -10.995  13.395 -30.813  1.00  0.00    -0.295 OA
ATOM     15  C   UNL     1     -13.506  13.048 -27.987  1.00  0.00     0.012 C 
ATOM     16  C   UNL     1     -11.453  15.109 -32.975  1.00  0.00     0.039 C 
ENDROOT
TORSDOF 0
ENDMDL
MODEL 7
REMARK VINA RESULT:    -4.970      1.825      2.277
REMARK INTER + INTRA:          -4.970
REMARK INTER:                  -4.970
REMARK INTRA:                   0.000
REMARK UNBOUND:                 0.000
REMARK SMILES C=C1CCC[C@@]2(C)CC(=O)C(=C(C)C)C[C@H]12
REMARK SMILES IDX 13 1 12 2 11 3 15 4 16 5 2 6 1 7 3 8 4 9 5 10 6 11 8 12 9 13
REMARK SMILES IDX 10 14 7 15 14 16
REMARK H PARENT
REMARK Flexibility Score: inf
ROOT
ATOM      1  C   UNL     1     -15.870  11.228 -29.125  1.00  0.00     0.039 C 
ATOM      2  C   UNL     1     -15.852  12.600 -29.760  1.00  0.00    -0.070 C 
ATOM      3  C   UNL     1     -14.690  13.155 -30.218  1.00  0.00    -0.006 C 
ATOM      4  C   UNL     1     -13.371  12.400 -30.125  1.00  0.00     0.047 C 
ATOM      5  C   UNL     1     -12.354  12.796 -31.228  1.00  0.00     0.025 C 
ATOM      6  C   UNL     1     -10.976  12.139 -31.092  1.00  0.00    -0.073 C 
ATOM      7  C   UNL     1     -10.691  11.171 -30.200  1.00  0.00     0.008 C 
ATOM      8  C   UNL     1      -9.879  12.586 -32.031  1.00  0.00     0.031 C 
ATOM      9  C   UNL     1     -10.418  13.509 -33.126  1.00  0.00     0.005 C 
ATOM     10  C   UNL     1     -11.187  14.706 -32.542  1.00  0.00     0.008 C 
ATOM     11  C   UNL     1     -12.189  14.346 -31.380  1.00  0.00    -0.018 C 
ATOM     12  C   UNL     1     -13.574  14.951 -31.712  1.00  0.00     0.088 C 
ATOM     13  C   UNL     1     -14.620  14.559 -30.713  1.00  0.00     0.159 C 
ATOM     14  O   UNL     1     -15.418  15.441 -30.294  1.00  0.00    -0.295 OA
ATOM     15  C   UNL     1     -11.657  14.977 -30.063  1.00  0.00     0.012 C 
ATOM     16  C   UNL     1     -17.181  13.306 -29.898  1.00  0.00     0.039 C 
ENDROOT
TORSDOF 0
ENDMDL
MODEL 8
REMARK VINA RESULT:    -4.957      2.479      3.791
REMARK INTER + INTRA:          -4.957
REMARK INTER:                  -4.957
REMARK INTRA:                   0.000
REMARK UNBOUND:                 0.000
REMARK SMILES C=C1CCC[C@@]2(C)CC(=O)C(=C(C)C)C[C@H]12
REMARK SMILES IDX 13 1 12 2 11 3 15 4 16 5 2 6 1 7 3 8 4 9 5 10 6 11 8 12 9 13
REMARK SMILES IDX 10 14 7 15 14 16
REMARK H PARENT
REMARK Flexibility Score: inf
ROOT
ATOM      1  C   UNL     1     -12.495  13.488 -26.595  1.00  0.00     0.039 C 
ATOM      2  C   UNL     1     -13.274  12.469 -27.396  1.00  0.00    -0.070 C 
ATOM      3  C   UNL     1     -13.880  12.805 -28.573  1.00  0.00    -0.006 C 
ATOM      4  C   UNL     1     -13.773  14.216 -29.135  1.00  0.00     0.047 C 
ATOM      5  C   UNL     1     -13.880  14.275 -30.682  1.00  0.00     0.025 C 
ATOM      6  C   UNL     1     -13.893  15.690 -31.269  1.00  0.00    -0.073 C 
ATOM      7  C   UNL     1     -13.667  16.804 -30.546  1.00  0.00     0.008 C 
ATOM      8  C   UNL     1     -14.150  15.844 -32.750  1.00  0.00     0.031 C 
ATOM      9  C   UNL     1     -14.153  14.490 -33.463  1.00  0.00     0.005 C 
ATOM     10  C   UNL     1     -15.138  13.502 -32.817  1.00  0.00     0.008 C 
ATOM     11  C   UNL     1     -15.094  13.458 -31.242  1.00  0.00    -0.018 C 
ATOM     12  C   UNL     1     -14.939  11.986 -30.790  1.00  0.00     0.088 C 
ATOM     13  C   UNL     1     -14.773  11.863 -29.305  1.00  0.00     0.159 C 
ATOM     14  O   UNL     1     -15.414  10.963 -28.697  1.00  0.00    -0.295 OA
ATOM     15  C   UNL     1     -16.437  14.022 -30.700  1.00  0.00     0.012 C 
ATOM     16  C   UNL     1     -13.316  11.060 -26.850  1.00  0.00     0.039 C 
ENDROOT
TORSDOF 0
ENDMDL
