MODEL 1
REMARK VINA RESULT:    -5.983      0.000      0.000
REMARK INTER + INTRA:          -5.415
REMARK INTER:                  -6.332
REMARK INTRA:                   0.918
REMARK UNBOUND:                 0.918
REMARK SMILES C=C(C)[C@H]1CC[C@@H](C)[C@]12CC=C(C)CC2
REMARK SMILES IDX 8 1 7 2 6 3 5 4 4 5 9 6 15 7 14 8 12 9 11 10 10 11 13 12
REMARK SMILES IDX 2 13 1 14 3 15
REMARK H PARENT
REMARK Flexibility Score: inf
ROOT
ATOM      1  C   UNL     1     137.085 134.875 121.443  1.00  0.00     0.008 C 
ATOM      2  C   UNL     1     138.150 135.872 121.931  1.00  0.00    -0.007 C 
ATOM      3  C   UNL     1     139.480 135.169 122.226  1.00  0.00     0.004 C 
ATOM      4  C   UNL     1     140.107 135.908 123.392  1.00  0.00     0.009 C 
ATOM      5  C   UNL     1     138.951 136.482 124.211  1.00  0.00     0.021 C 
ATOM      6  C   UNL     1     137.793 136.774 123.184  1.00  0.00    -0.017 C 
ATOM      7  C   UNL     1     136.360 136.511 123.819  1.00  0.00     0.012 C 
ATOM      8  C   UNL     1     135.307 137.540 123.384  1.00  0.00     0.031 C 
ATOM      9  C   UNL     1     135.793 138.906 123.807  1.00  0.00    -0.077 C 
ATOM     10  C   UNL     1     137.073 139.224 123.551  1.00  0.00    -0.027 C 
ATOM     11  C   UNL     1     137.905 138.283 122.721  1.00  0.00     0.035 C 
ATOM     12  C   UNL     1     134.925 139.836 124.606  1.00  0.00     0.039 C 
ENDROOT
BRANCH   5  13
ATOM     13  C   UNL     1     138.623 135.567 125.401  1.00  0.00    -0.077 C 
ATOM     14  C   UNL     1     139.571 134.886 126.067  1.00  0.00     0.008 C 
ATOM     15  C   UNL     1     137.194 135.411 125.856  1.00  0.00     0.039 C 
ENDBRANCH   5  13
TORSDOF 1
ENDMDL
