MODEL 1
REMARK VINA RESULT:    -4.415      0.000      0.000
REMARK INTER + INTRA:          -6.835
REMARK INTER:                  -6.479
REMARK INTRA:                  -0.355
REMARK UNBOUND:                -0.355
REMARK SMILES O=C([O-])CCCCCCCC(=O)[O-]
REMARK SMILES IDX 7 1 6 2 5 3 4 4 2 5 1 6 3 7 8 8 9 9 10 10 11 11 12 12 13 13
REMARK H PARENT
REMARK Flexibility Score: inf
ROOT
ATOM      1  C   UNL     1    -119.089 -36.396 -55.955  1.00  0.00     0.000 C 
ENDROOT
BRANCH   1   2
ATOM      2  C   UNL     1    -118.020 -37.390 -56.436  1.00  0.00     0.000 C 
BRANCH   2   3
ATOM      3  C   UNL     1    -116.611 -36.823 -56.227  1.00  0.00     0.006 C 
BRANCH   3   4
ATOM      4  C   UNL     1    -116.487 -35.420 -56.831  1.00  0.00     0.053 C 
BRANCH   4   5
ATOM      5  C   UNL     1    -115.271 -35.329 -57.698  1.00  0.00     0.041 C 
ATOM      6  O   UNL     1    -115.387 -35.307 -58.952  1.00  0.00    -0.550 OA
ATOM      7  O   UNL     1    -114.013 -35.218 -57.121  1.00  0.00    -0.550 OA
ENDBRANCH   4   5
ENDBRANCH   3   4
ENDBRANCH   2   3
ENDBRANCH   1   2
BRANCH   1   8
ATOM      8  C   UNL     1    -120.519 -36.933 -56.128  1.00  0.00     0.000 C 
BRANCH   8   9
ATOM      9  C   UNL     1    -121.333 -36.129 -57.156  1.00  0.00     0.006 C 
BRANCH   9  10
ATOM     10  C   UNL     1    -120.934 -34.647 -57.179  1.00  0.00     0.053 C 
BRANCH  10  11
ATOM     11  C   UNL     1    -122.118 -33.755 -57.390  1.00  0.00     0.041 C 
ATOM     12  O   UNL     1    -122.405 -33.345 -58.546  1.00  0.00    -0.550 OA
ATOM     13  O   UNL     1    -122.886 -33.352 -56.307  1.00  0.00    -0.550 OA
ENDBRANCH  10  11
ENDBRANCH   9  10
ENDBRANCH   8   9
ENDBRANCH   1   8
TORSDOF 8
ENDMDL
MODEL 2
REMARK VINA RESULT:    -4.395      2.202      2.621
REMARK INTER + INTRA:          -6.806
REMARK INTER:                  -6.382
REMARK INTRA:                  -0.424
REMARK UNBOUND:                -0.355
REMARK SMILES O=C([O-])CCCCCCCC(=O)[O-]
REMARK SMILES IDX 7 1 6 2 5 3 4 4 2 5 1 6 3 7 8 8 9 9 10 10 11 11 12 12 13 13
REMARK H PARENT
REMARK Flexibility Score: inf
ROOT
ATOM      1  C   UNL     1    -119.421 -35.445 -56.245  1.00  0.00     0.000 C 
ENDROOT
BRANCH   1   2
ATOM      2  C   UNL     1    -118.802 -36.851 -56.248  1.00  0.00     0.000 C 
BRANCH   2   3
ATOM      3  C   UNL     1    -117.272 -36.776 -56.325  1.00  0.00     0.006 C 
BRANCH   3   4
ATOM      4  C   UNL     1    -116.815 -35.416 -56.862  1.00  0.00     0.053 C 
BRANCH   4   5
ATOM      5  C   UNL     1    -115.345 -35.430 -57.140  1.00  0.00     0.041 C 
ATOM      6  O   UNL     1    -114.563 -36.062 -56.381  1.00  0.00    -0.550 OA
ATOM      7  O   UNL     1    -114.844 -34.788 -58.265  1.00  0.00    -0.550 OA
ENDBRANCH   4   5
ENDBRANCH   3   4
ENDBRANCH   2   3
ENDBRANCH   1   2
BRANCH   1   8
ATOM      8  C   UNL     1    -120.713 -35.364 -57.074  1.00  0.00     0.000 C 
BRANCH   8   9
ATOM      9  C   UNL     1    -121.952 -35.063 -56.213  1.00  0.00     0.006 C 
BRANCH   9  10
ATOM     10  C   UNL     1    -123.117 -36.011 -56.524  1.00  0.00     0.053 C 
BRANCH  10  11
ATOM     11  C   UNL     1    -122.719 -37.448 -56.386  1.00  0.00     0.041 C 
ATOM     12  O   UNL     1    -122.972 -38.268 -57.308  1.00  0.00    -0.550 OA
ATOM     13  O   UNL     1    -122.093 -37.887 -55.227  1.00  0.00    -0.550 OA
ENDBRANCH  10  11
ENDBRANCH   9  10
ENDBRANCH   8   9
ENDBRANCH   1   8
TORSDOF 8
ENDMDL
MODEL 3
REMARK VINA RESULT:    -4.335      2.210      6.285
REMARK INTER + INTRA:          -6.717
REMARK INTER:                  -6.283
REMARK INTRA:                  -0.435
REMARK UNBOUND:                -0.355
REMARK SMILES O=C([O-])CCCCCCCC(=O)[O-]
REMARK SMILES IDX 7 1 6 2 5 3 4 4 2 5 1 6 3 7 8 8 9 9 10 10 11 11 12 12 13 13
REMARK H PARENT
REMARK Flexibility Score: inf
ROOT
ATOM      1  C   UNL     1    -119.645 -34.999 -56.154  1.00  0.00     0.000 C 
ENDROOT
BRANCH   1   2
ATOM      2  C   UNL     1    -120.823 -34.818 -57.124  1.00  0.00     0.000 C 
BRANCH   2   3
ATOM      3  C   UNL     1    -122.146 -35.220 -56.461  1.00  0.00     0.006 C 
BRANCH   3   4
ATOM      4  C   UNL     1    -122.862 -36.302 -57.276  1.00  0.00     0.053 C 
BRANCH   4   5
ATOM      5  C   UNL     1    -122.800 -37.618 -56.567  1.00  0.00     0.041 C 
ATOM      6  O   UNL     1    -123.114 -38.678 -57.171  1.00  0.00    -0.550 OA
ATOM      7  O   UNL     1    -122.348 -37.681 -55.255  1.00  0.00    -0.550 OA
ENDBRANCH   4   5
ENDBRANCH   3   4
ENDBRANCH   2   3
ENDBRANCH   1   2
BRANCH   1   8
ATOM      8  C   UNL     1    -119.171 -36.458 -56.061  1.00  0.00     0.000 C 
BRANCH   8   9
ATOM      9  C   UNL     1    -117.679 -36.619 -56.397  1.00  0.00     0.006 C 
BRANCH   9  10
ATOM     10  C   UNL     1    -117.025 -35.285 -56.779  1.00  0.00     0.053 C 
BRANCH  10  11
ATOM     11  C   UNL     1    -115.635 -35.476 -57.303  1.00  0.00     0.041 C 
ATOM     12  O   UNL     1    -115.388 -35.299 -58.526  1.00  0.00    -0.550 OA
ATOM     13  O   UNL     1    -114.618 -35.877 -56.447  1.00  0.00    -0.550 OA
ENDBRANCH  10  11
ENDBRANCH   9  10
ENDBRANCH   8   9
ENDBRANCH   1   8
TORSDOF 8
ENDMDL
MODEL 4
REMARK VINA RESULT:    -4.222      1.181      6.441
REMARK INTER + INTRA:          -6.551
REMARK INTER:                  -6.200
REMARK INTRA:                  -0.351
REMARK UNBOUND:                -0.355
REMARK SMILES O=C([O-])CCCCCCCC(=O)[O-]
REMARK SMILES IDX 7 1 6 2 5 3 4 4 2 5 1 6 3 7 8 8 9 9 10 10 11 11 12 12 13 13
REMARK H PARENT
REMARK Flexibility Score: inf
ROOT
ATOM      1  C   UNL     1    -119.574 -36.768 -56.265  1.00  0.00     0.000 C 
ENDROOT
BRANCH   1   2
ATOM      2  C   UNL     1    -119.931 -35.275 -56.299  1.00  0.00     0.000 C 
BRANCH   2   3
ATOM      3  C   UNL     1    -121.151 -35.023 -57.194  1.00  0.00     0.006 C 
BRANCH   3   4
ATOM      4  C   UNL     1    -122.451 -35.362 -56.458  1.00  0.00     0.053 C 
BRANCH   4   5
ATOM      5  C   UNL     1    -122.827 -34.257 -55.522  1.00  0.00     0.041 C 
ATOM      6  O   UNL     1    -123.125 -33.119 -55.973  1.00  0.00    -0.550 OA
ATOM      7  O   UNL     1    -122.896 -34.496 -54.156  1.00  0.00    -0.550 OA
ENDBRANCH   4   5
ENDBRANCH   3   4
ENDBRANCH   2   3
ENDBRANCH   1   2
BRANCH   1   8
ATOM      8  C   UNL     1    -118.059 -37.014 -56.179  1.00  0.00     0.000 C 
BRANCH   8   9
ATOM      9  C   UNL     1    -117.235 -35.750 -56.478  1.00  0.00     0.006 C 
BRANCH   9  10
ATOM     10  C   UNL     1    -115.725 -36.016 -56.417  1.00  0.00     0.053 C 
BRANCH  10  11
ATOM     11  C   UNL     1    -115.003 -35.388 -57.570  1.00  0.00     0.041 C 
ATOM     12  O   UNL     1    -115.618 -35.125 -58.636  1.00  0.00    -0.550 OA
ATOM     13  O   UNL     1    -113.644 -35.121 -57.475  1.00  0.00    -0.550 OA
ENDBRANCH  10  11
ENDBRANCH   9  10
ENDBRANCH   8   9
ENDBRANCH   1   8
TORSDOF 8
ENDMDL
MODEL 5
REMARK VINA RESULT:    -4.065     12.951     14.453
REMARK INTER + INTRA:          -6.321
REMARK INTER:                  -5.474
REMARK INTRA:                  -0.847
REMARK UNBOUND:                -0.355
REMARK SMILES O=C([O-])CCCCCCCC(=O)[O-]
REMARK SMILES IDX 7 1 6 2 5 3 4 4 2 5 1 6 3 7 8 8 9 9 10 10 11 11 12 12 13 13
REMARK H PARENT
REMARK Flexibility Score: inf
ROOT
ATOM      1  C   UNL     1    -113.677 -41.231 -65.470  1.00  0.00     0.000 C 
ENDROOT
BRANCH   1   2
ATOM      2  C   UNL     1    -112.972 -42.034 -64.366  1.00  0.00     0.000 C 
BRANCH   2   3
ATOM      3  C   UNL     1    -111.750 -42.774 -64.922  1.00  0.00     0.006 C 
BRANCH   3   4
ATOM      4  C   UNL     1    -110.724 -41.790 -65.493  1.00  0.00     0.053 C 
BRANCH   4   5
ATOM      5  C   UNL     1    -110.346 -42.178 -66.888  1.00  0.00     0.041 C 
ATOM      6  O   UNL     1    -110.292 -41.307 -67.796  1.00  0.00    -0.550 OA
ATOM      7  O   UNL     1    -110.005 -43.494 -67.175  1.00  0.00    -0.550 OA
ENDBRANCH   4   5
ENDBRANCH   3   4
ENDBRANCH   2   3
ENDBRANCH   1   2
BRANCH   1   8
ATOM      8  C   UNL     1    -114.462 -42.123 -66.444  1.00  0.00     0.000 C 
BRANCH   8   9
ATOM      9  C   UNL     1    -113.953 -42.011 -67.891  1.00  0.00     0.006 C 
BRANCH   9  10
ATOM     10  C   UNL     1    -113.439 -43.353 -68.429  1.00  0.00     0.053 C 
BRANCH  10  11
ATOM     11  C   UNL     1    -113.004 -43.251 -69.859  1.00  0.00     0.041 C 
ATOM     12  O   UNL     1    -113.861 -43.220 -70.782  1.00  0.00    -0.550 OA
ATOM     13  O   UNL     1    -111.652 -43.218 -70.173  1.00  0.00    -0.550 OA
ENDBRANCH  10  11
ENDBRANCH   9  10
ENDBRANCH   8   9
ENDBRANCH   1   8
TORSDOF 8
ENDMDL
MODEL 6
REMARK VINA RESULT:    -4.061     12.375     14.558
REMARK INTER + INTRA:          -6.316
REMARK INTER:                  -5.692
REMARK INTRA:                  -0.624
REMARK UNBOUND:                -0.355
REMARK SMILES O=C([O-])CCCCCCCC(=O)[O-]
REMARK SMILES IDX 7 1 6 2 5 3 4 4 2 5 1 6 3 7 8 8 9 9 10 10 11 11 12 12 13 13
REMARK H PARENT
REMARK Flexibility Score: inf
ROOT
ATOM      1  C   UNL     1    -112.726 -40.735 -66.480  1.00  0.00     0.000 C 
ENDROOT
BRANCH   1   2
ATOM      2  C   UNL     1    -113.331 -40.927 -67.879  1.00  0.00     0.000 C 
BRANCH   2   3
ATOM      3  C   UNL     1    -114.145 -42.225 -67.951  1.00  0.00     0.006 C 
BRANCH   3   4
ATOM      4  C   UNL     1    -113.270 -43.398 -68.404  1.00  0.00     0.053 C 
BRANCH   4   5
ATOM      5  C   UNL     1    -112.919 -43.260 -69.852  1.00  0.00     0.041 C 
ATOM      6  O   UNL     1    -113.816 -43.340 -70.732  1.00  0.00    -0.550 OA
ATOM      7  O   UNL     1    -111.608 -42.995 -70.228  1.00  0.00    -0.550 OA
ENDBRANCH   4   5
ENDBRANCH   3   4
ENDBRANCH   2   3
ENDBRANCH   1   2
BRANCH   1   8
ATOM      8  C   UNL     1    -113.662 -41.210 -65.358  1.00  0.00     0.000 C 
BRANCH   8   9
ATOM      9  C   UNL     1    -113.036 -42.316 -64.491  1.00  0.00     0.006 C 
BRANCH   9  10
ATOM     10  C   UNL     1    -111.650 -42.735 -65.000  1.00  0.00     0.053 C 
BRANCH  10  11
ATOM     11  C   UNL     1    -110.831 -43.375 -63.922  1.00  0.00     0.041 C 
ATOM     12  O   UNL     1    -111.393 -43.889 -62.920  1.00  0.00    -0.550 OA
ATOM     13  O   UNL     1    -109.445 -43.378 -64.011  1.00  0.00    -0.550 OA
ENDBRANCH  10  11
ENDBRANCH   9  10
ENDBRANCH   8   9
ENDBRANCH   1   8
TORSDOF 8
ENDMDL
MODEL 7
REMARK VINA RESULT:    -4.019     12.593     13.656
REMARK INTER + INTRA:          -6.254
REMARK INTER:                  -5.800
REMARK INTRA:                  -0.455
REMARK UNBOUND:                -0.355
REMARK SMILES O=C([O-])CCCCCCCC(=O)[O-]
REMARK SMILES IDX 7 1 6 2 5 3 4 4 2 5 1 6 3 7 8 8 9 9 10 10 11 11 12 12 13 13
REMARK H PARENT
REMARK Flexibility Score: inf
ROOT
ATOM      1  C   UNL     1    -112.455 -41.998 -65.031  1.00  0.00     0.000 C 
ENDROOT
BRANCH   1   2
ATOM      2  C   UNL     1    -112.627 -42.968 -63.852  1.00  0.00     0.000 C 
BRANCH   2   3
ATOM      3  C   UNL     1    -111.292 -43.629 -63.488  1.00  0.00     0.006 C 
BRANCH   3   4
ATOM      4  C   UNL     1    -110.229 -43.346 -64.554  1.00  0.00     0.053 C 
BRANCH   4   5
ATOM      5  C   UNL     1    -108.906 -43.068 -63.912  1.00  0.00     0.041 C 
ATOM      6  O   UNL     1    -108.739 -43.287 -62.683  1.00  0.00    -0.550 OA
ATOM      7  O   UNL     1    -107.842 -42.613 -64.681  1.00  0.00    -0.550 OA
ENDBRANCH   4   5
ENDBRANCH   3   4
ENDBRANCH   2   3
ENDBRANCH   1   2
BRANCH   1   8
ATOM      8  C   UNL     1    -113.756 -41.261 -65.387  1.00  0.00     0.000 C 
BRANCH   8   9
ATOM      9  C   UNL     1    -114.504 -41.914 -66.561  1.00  0.00     0.006 C 
BRANCH   9  10
ATOM     10  C   UNL     1    -113.647 -42.962 -67.283  1.00  0.00     0.053 C 
BRANCH  10  11
ATOM     11  C   UNL     1    -113.368 -42.571 -68.702  1.00  0.00     0.041 C 
ATOM     12  O   UNL     1    -113.474 -43.420 -69.626  1.00  0.00    -0.550 OA
ATOM     13  O   UNL     1    -112.962 -41.277 -68.999  1.00  0.00    -0.550 OA
ENDBRANCH  10  11
ENDBRANCH   9  10
ENDBRANCH   8   9
ENDBRANCH   1   8
TORSDOF 8
ENDMDL
MODEL 8
REMARK VINA RESULT:    -3.978     12.559     14.245
REMARK INTER + INTRA:          -6.194
REMARK INTER:                  -5.320
REMARK INTRA:                  -0.874
REMARK UNBOUND:                -0.355
REMARK SMILES O=C([O-])CCCCCCCC(=O)[O-]
REMARK SMILES IDX 7 1 6 2 5 3 4 4 2 5 1 6 3 7 8 8 9 9 10 10 11 11 12 12 13 13
REMARK H PARENT
REMARK Flexibility Score: inf
ROOT
ATOM      1  C   UNL     1    -111.606 -42.620 -64.967  1.00  0.00     0.000 C 
ENDROOT
BRANCH   1   2
ATOM      2  C   UNL     1    -110.890 -41.435 -65.633  1.00  0.00     0.000 C 
BRANCH   2   3
ATOM      3  C   UNL     1    -109.806 -41.923 -66.602  1.00  0.00     0.006 C 
BRANCH   3   4
ATOM      4  C   UNL     1    -110.256 -43.190 -67.337  1.00  0.00     0.053 C 
BRANCH   4   5
ATOM      5  C   UNL     1    -110.349 -42.937 -68.809  1.00  0.00     0.041 C 
ATOM      6  O   UNL     1    -110.092 -41.794 -69.272  1.00  0.00    -0.550 OA
ATOM      7  O   UNL     1    -110.672 -43.974 -69.674  1.00  0.00    -0.550 OA
ENDBRANCH   4   5
ENDBRANCH   3   4
ENDBRANCH   2   3
ENDBRANCH   1   2
BRANCH   1   8
ATOM      8  C   UNL     1    -113.023 -42.266 -64.491  1.00  0.00     0.000 C 
BRANCH   8   9
ATOM      9  C   UNL     1    -113.724 -41.256 -65.415  1.00  0.00     0.006 C 
BRANCH   9  10
ATOM     10  C   UNL     1    -114.585 -41.948 -66.481  1.00  0.00     0.053 C 
BRANCH  10  11
ATOM     11  C   UNL     1    -113.877 -42.034 -67.798  1.00  0.00     0.041 C 
ATOM     12  O   UNL     1    -113.819 -43.130 -68.416  1.00  0.00    -0.550 OA
ATOM     13  O   UNL     1    -113.256 -40.911 -68.328  1.00  0.00    -0.550 OA
ENDBRANCH  10  11
ENDBRANCH   9  10
ENDBRANCH   8   9
ENDBRANCH   1   8
TORSDOF 8
ENDMDL
MODEL 9
REMARK VINA RESULT:    -3.964     12.514     14.261
REMARK INTER + INTRA:          -6.174
REMARK INTER:                  -5.384
REMARK INTRA:                  -0.790
REMARK UNBOUND:                -0.355
REMARK SMILES O=C([O-])CCCCCCCC(=O)[O-]
REMARK SMILES IDX 7 1 6 2 5 3 4 4 2 5 1 6 3 7 8 8 9 9 10 10 11 11 12 12 13 13
REMARK H PARENT
REMARK Flexibility Score: inf
ROOT
ATOM      1  C   UNL     1    -113.453 -42.595 -65.230  1.00  0.00     0.000 C 
ENDROOT
BRANCH   1   2
ATOM      2  C   UNL     1    -113.776 -41.168 -65.699  1.00  0.00     0.000 C 
BRANCH   2   3
ATOM      3  C   UNL     1    -113.816 -41.090 -67.230  1.00  0.00     0.006 C 
BRANCH   3   4
ATOM      4  C   UNL     1    -113.862 -42.491 -67.850  1.00  0.00     0.053 C 
BRANCH   4   5
ATOM      5  C   UNL     1    -112.913 -42.584 -69.003  1.00  0.00     0.041 C 
ATOM      6  O   UNL     1    -113.278 -43.121 -70.082  1.00  0.00    -0.550 OA
ATOM      7  O   UNL     1    -111.641 -42.035 -68.902  1.00  0.00    -0.550 OA
ENDBRANCH   4   5
ENDBRANCH   3   4
ENDBRANCH   2   3
ENDBRANCH   1   2
BRANCH   1   8
ATOM      8  C   UNL     1    -112.533 -42.621 -63.999  1.00  0.00     0.000 C 
BRANCH   8   9
ATOM      9  C   UNL     1    -111.193 -43.325 -64.276  1.00  0.00     0.006 C 
BRANCH   9  10
ATOM     10  C   UNL     1    -110.571 -42.880 -65.606  1.00  0.00     0.053 C 
BRANCH  10  11
ATOM     11  C   UNL     1    -109.865 -41.565 -65.478  1.00  0.00     0.041 C 
ATOM     12  O   UNL     1    -108.801 -41.478 -64.809  1.00  0.00    -0.550 OA
ATOM     13  O   UNL     1    -110.397 -40.430 -66.074  1.00  0.00    -0.550 OA
ENDBRANCH  10  11
ENDBRANCH   9  10
ENDBRANCH   8   9
ENDBRANCH   1   8
TORSDOF 8
ENDMDL
