MODEL 1
REMARK VINA RESULT:    -7.171      0.000      0.000
REMARK INTER + INTRA:         -12.110
REMARK INTER:                 -11.154
REMARK INTRA:                  -0.956
REMARK UNBOUND:                -0.956
REMARK SMILES COc1cc(CNC(=O)CCCCC=CC(C)C)ccc1O
REMARK SMILES IDX 11 1 12 2 13 3 14 4 15 5 16 6 17 7 18 8 10 9 8 10 9 11 7 12
REMARK SMILES IDX 6 14 5 15 4 16 19 17 3 18 20 19 21 20 2 21 1 22 22 23
REMARK H PARENT 7 13 22 24
REMARK Flexibility Score: inf
ROOT
ATOM      1  C   UNL     1       7.695 -56.388 -29.848  1.00  0.00     0.010 C 
ENDROOT
BRANCH   1   2
ATOM      2  C   UNL     1       8.734 -55.685 -28.962  1.00  0.00     0.005 C 
BRANCH   2   3
ATOM      3  C   UNL     1       9.959 -55.206 -29.758  1.00  0.00     0.027 C 
BRANCH   3   4
ATOM      4  C   UNL     1       9.577 -54.113 -30.723  1.00  0.00    -0.031 C 
ATOM      5  C   UNL     1       9.522 -54.257 -32.061  1.00  0.00    -0.028 C 
BRANCH   5   6
ATOM      6  C   UNL     1       9.917 -55.513 -32.810  1.00  0.00     0.005 C 
ATOM      7  C   UNL     1       8.905 -55.797 -33.923  1.00  0.00     0.012 C 
ATOM      8  C   UNL     1      11.324 -55.350 -33.391  1.00  0.00     0.012 C 
ENDBRANCH   5   6
ENDBRANCH   3   4
ENDBRANCH   2   3
ENDBRANCH   1   2
BRANCH   1   9
ATOM      9  C   UNL     1       6.368 -55.622 -29.921  1.00  0.00     0.100 C 
BRANCH   9  10
ATOM     10  C   UNL     1       5.335 -56.287 -29.061  1.00  0.00     0.220 C 
ATOM     11  O   UNL     1       4.485 -57.052 -29.591  1.00  0.00    -0.275 OA
ATOM     12  N   UNL     1       5.349 -56.091 -27.640  1.00  0.00    -0.352 N 
ATOM     13  H   UNL     1       6.094 -55.492 -27.217  1.00  0.00     0.163 HD
BRANCH  12  14
ATOM     14  C   UNL     1       4.372 -56.717 -26.752  1.00  0.00     0.151 C 
BRANCH  14  15
ATOM     15  C   UNL     1       3.390 -55.693 -26.252  1.00  0.00    -0.025 A 
ATOM     16  C   UNL     1       3.384 -55.331 -24.896  1.00  0.00     0.056 A 
ATOM     17  C   UNL     1       2.494 -55.072 -27.136  1.00  0.00     0.009 A 
ATOM     18  C   UNL     1       2.482 -54.359 -24.418  1.00  0.00     0.160 A 
ATOM     19  C   UNL     1       1.599 -54.109 -26.668  1.00  0.00     0.050 A 
ATOM     20  C   UNL     1       1.590 -53.751 -25.314  1.00  0.00     0.157 A 
BRANCH  18  21
ATOM     21  O   UNL     1       2.442 -53.973 -23.069  1.00  0.00    -0.493 OA
ATOM     22  C   UNL     1       2.735 -54.836 -21.975  1.00  0.00     0.278 C 
ENDBRANCH  18  21
BRANCH  20  23
ATOM     23  O   UNL     1       0.695 -52.790 -24.848  1.00  0.00    -0.504 OA
ATOM     24  H   UNL     1       0.190 -52.912 -23.977  1.00  0.00     0.293 HD
ENDBRANCH  20  23
ENDBRANCH  14  15
ENDBRANCH  12  14
ENDBRANCH   9  10
ENDBRANCH   1   9
TORSDOF 10
ENDMDL
MODEL 2
REMARK VINA RESULT:    -7.167      1.515      2.089
REMARK INTER + INTRA:         -12.104
REMARK INTER:                 -11.077
REMARK INTRA:                  -1.027
REMARK UNBOUND:                -0.956
REMARK SMILES COc1cc(CNC(=O)CCCCC=CC(C)C)ccc1O
REMARK SMILES IDX 11 1 12 2 13 3 14 4 15 5 16 6 17 7 18 8 10 9 8 10 9 11 7 12
REMARK SMILES IDX 6 14 5 15 4 16 19 17 3 18 20 19 21 20 2 21 1 22 22 23
REMARK H PARENT 7 13 22 24
REMARK Flexibility Score: inf
ROOT
ATOM      1  C   UNL     1       7.592 -55.375 -29.405  1.00  0.00     0.010 C 
ENDROOT
BRANCH   1   2
ATOM      2  C   UNL     1       8.957 -55.960 -29.015  1.00  0.00     0.005 C 
BRANCH   2   3
ATOM      3  C   UNL     1      10.130 -55.114 -29.536  1.00  0.00     0.027 C 
BRANCH   3   4
ATOM      4  C   UNL     1       9.672 -54.169 -30.616  1.00  0.00    -0.031 C 
ATOM      5  C   UNL     1       9.818 -54.387 -31.938  1.00  0.00    -0.028 C 
BRANCH   5   6
ATOM      6  C   UNL     1      10.541 -55.573 -32.541  1.00  0.00     0.005 C 
ATOM      7  C   UNL     1       9.526 -56.593 -33.062  1.00  0.00     0.012 C 
ATOM      8  C   UNL     1      11.459 -55.101 -33.671  1.00  0.00     0.012 C 
ENDBRANCH   5   6
ENDBRANCH   3   4
ENDBRANCH   2   3
ENDBRANCH   1   2
BRANCH   1   9
ATOM      9  C   UNL     1       6.794 -56.304 -30.330  1.00  0.00     0.100 C 
BRANCH   9  10
ATOM     10  C   UNL     1       5.324 -56.047 -30.185  1.00  0.00     0.220 C 
ATOM     11  O   UNL     1       4.540 -56.396 -31.107  1.00  0.00    -0.275 OA
ATOM     12  N   UNL     1       4.814 -55.455 -28.983  1.00  0.00    -0.352 N 
ATOM     13  H   UNL     1       5.478 -55.219 -28.211  1.00  0.00     0.163 HD
BRANCH  12  14
ATOM     14  C   UNL     1       3.392 -55.186 -28.783  1.00  0.00     0.151 C 
BRANCH  14  15
ATOM     15  C   UNL     1       3.000 -55.481 -27.360  1.00  0.00    -0.025 A 
ATOM     16  C   UNL     1       3.858 -56.224 -26.536  1.00  0.00     0.056 A 
ATOM     17  C   UNL     1       1.792 -54.994 -26.838  1.00  0.00     0.009 A 
ATOM     18  C   UNL     1       3.512 -56.490 -25.195  1.00  0.00     0.160 A 
ATOM     19  C   UNL     1       1.444 -55.254 -25.512  1.00  0.00     0.050 A 
ATOM     20  C   UNL     1       2.299 -56.000 -24.690  1.00  0.00     0.157 A 
BRANCH  18  21
ATOM     21  O   UNL     1       4.342 -57.232 -24.340  1.00  0.00    -0.493 OA
ATOM     22  C   UNL     1       5.509 -57.934 -24.759  1.00  0.00     0.278 C 
ENDBRANCH  18  21
BRANCH  20  23
ATOM     23  O   UNL     1       1.950 -56.260 -23.366  1.00  0.00    -0.504 OA
ATOM     24  H   UNL     1       1.490 -57.123 -23.098  1.00  0.00     0.293 HD
ENDBRANCH  20  23
ENDBRANCH  14  15
ENDBRANCH  12  14
ENDBRANCH   9  10
ENDBRANCH   1   9
TORSDOF 10
ENDMDL
MODEL 3
REMARK VINA RESULT:    -7.141      2.969      7.934
REMARK INTER + INTRA:         -12.063
REMARK INTER:                 -10.978
REMARK INTRA:                  -1.085
REMARK UNBOUND:                -0.956
REMARK SMILES COc1cc(CNC(=O)CCCCC=CC(C)C)ccc1O
REMARK SMILES IDX 11 1 12 2 13 3 14 4 15 5 16 6 17 7 18 8 10 9 8 10 9 11 7 12
REMARK SMILES IDX 6 14 5 15 4 16 19 17 3 18 20 19 21 20 2 21 1 22 22 23
REMARK H PARENT 7 13 22 24
REMARK Flexibility Score: inf
ROOT
ATOM      1  C   UNL     1       2.665 -56.023 -26.372  1.00  0.00     0.010 C 
ENDROOT
BRANCH   1   2
ATOM      2  C   UNL     1       4.005 -55.942 -25.626  1.00  0.00     0.005 C 
BRANCH   2   3
ATOM      3  C   UNL     1       4.490 -57.316 -25.137  1.00  0.00     0.027 C 
BRANCH   3   4
ATOM      4  C   UNL     1       5.753 -57.724 -25.851  1.00  0.00    -0.031 C 
ATOM      5  C   UNL     1       6.892 -58.103 -25.239  1.00  0.00    -0.028 C 
BRANCH   5   6
ATOM      6  C   UNL     1       7.108 -58.097 -23.740  1.00  0.00     0.005 C 
ATOM      7  C   UNL     1       6.850 -59.494 -23.170  1.00  0.00     0.012 C 
ATOM      8  C   UNL     1       8.535 -57.641 -23.424  1.00  0.00     0.012 C 
ENDBRANCH   5   6
ENDBRANCH   3   4
ENDBRANCH   2   3
ENDBRANCH   1   2
BRANCH   1   9
ATOM      9  C   UNL     1       2.655 -55.187 -27.658  1.00  0.00     0.100 C 
BRANCH   9  10
ATOM     10  C   UNL     1       3.478 -55.853 -28.720  1.00  0.00     0.220 C 
ATOM     11  O   UNL     1       3.502 -57.111 -28.789  1.00  0.00    -0.275 OA
ATOM     12  N   UNL     1       4.189 -55.059 -29.680  1.00  0.00    -0.352 N 
ATOM     13  H   UNL     1       4.114 -54.017 -29.633  1.00  0.00     0.163 HD
BRANCH  12  14
ATOM     14  C   UNL     1       5.002 -55.651 -30.740  1.00  0.00     0.151 C 
BRANCH  14  15
ATOM     15  C   UNL     1       6.459 -55.603 -30.369  1.00  0.00    -0.025 A 
ATOM     16  C   UNL     1       7.385 -55.009 -31.239  1.00  0.00     0.056 A 
ATOM     17  C   UNL     1       6.901 -56.125 -29.143  1.00  0.00     0.009 A 
ATOM     18  C   UNL     1       8.751 -54.941 -30.895  1.00  0.00     0.160 A 
ATOM     19  C   UNL     1       8.251 -56.060 -28.797  1.00  0.00     0.050 A 
ATOM     20  C   UNL     1       9.176 -55.471 -29.668  1.00  0.00     0.157 A 
BRANCH  18  21
ATOM     21  O   UNL     1       9.708 -54.358 -31.740  1.00  0.00    -0.493 OA
ATOM     22  C   UNL     1      10.512 -55.081 -32.668  1.00  0.00     0.278 C 
ENDBRANCH  18  21
BRANCH  20  23
ATOM     23  O   UNL     1      10.525 -55.407 -29.322  1.00  0.00    -0.504 OA
ATOM     24  H   UNL     1      11.235 -55.147 -29.998  1.00  0.00     0.293 HD
ENDBRANCH  20  23
ENDBRANCH  14  15
ENDBRANCH  12  14
ENDBRANCH   9  10
ENDBRANCH   1   9
TORSDOF 10
ENDMDL
MODEL 4
REMARK VINA RESULT:    -7.041      2.621      8.920
REMARK INTER + INTRA:         -11.907
REMARK INTER:                 -10.730
REMARK INTRA:                  -1.177
REMARK UNBOUND:                -0.956
REMARK SMILES COc1cc(CNC(=O)CCCCC=CC(C)C)ccc1O
REMARK SMILES IDX 11 1 12 2 13 3 14 4 15 5 16 6 17 7 18 8 10 9 8 10 9 11 7 12
REMARK SMILES IDX 6 14 5 15 4 16 19 17 3 18 20 19 21 20 2 21 1 22 22 23
REMARK H PARENT 7 13 22 24
REMARK Flexibility Score: inf
ROOT
ATOM      1  C   UNL     1       3.745 -55.354 -26.831  1.00  0.00     0.010 C 
ENDROOT
BRANCH   1   2
ATOM      2  C   UNL     1       3.925 -56.549 -25.883  1.00  0.00     0.005 C 
BRANCH   2   3
ATOM      3  C   UNL     1       3.317 -56.296 -24.495  1.00  0.00     0.027 C 
BRANCH   3   4
ATOM      4  C   UNL     1       1.990 -56.997 -24.355  1.00  0.00    -0.031 C 
ATOM      5  C   UNL     1       0.797 -56.448 -24.652  1.00  0.00    -0.028 C 
BRANCH   5   6
ATOM      6  C   UNL     1       0.595 -55.013 -25.093  1.00  0.00     0.005 C 
ATOM      7  C   UNL     1      -0.635 -54.914 -25.999  1.00  0.00     0.012 C 
ATOM      8  C   UNL     1       0.434 -54.111 -23.866  1.00  0.00     0.012 C 
ENDBRANCH   5   6
ENDBRANCH   3   4
ENDBRANCH   2   3
ENDBRANCH   1   2
BRANCH   1   9
ATOM      9  C   UNL     1       2.915 -55.705 -28.072  1.00  0.00     0.100 C 
BRANCH   9  10
ATOM     10  C   UNL     1       3.809 -56.165 -29.184  1.00  0.00     0.220 C 
ATOM     11  O   UNL     1       3.755 -57.364 -29.567  1.00  0.00    -0.275 OA
ATOM     12  N   UNL     1       4.679 -55.231 -29.838  1.00  0.00    -0.352 N 
ATOM     13  H   UNL     1       4.670 -54.231 -29.537  1.00  0.00     0.163 HD
BRANCH  12  14
ATOM     14  C   UNL     1       5.567 -55.621 -30.932  1.00  0.00     0.151 C 
BRANCH  14  15
ATOM     15  C   UNL     1       7.003 -55.562 -30.484  1.00  0.00    -0.025 A 
ATOM     16  C   UNL     1       8.014 -55.261 -31.409  1.00  0.00     0.056 A 
ATOM     17  C   UNL     1       7.340 -55.779 -29.140  1.00  0.00     0.009 A 
ATOM     18  C   UNL     1       9.361 -55.184 -30.999  1.00  0.00     0.160 A 
ATOM     19  C   UNL     1       8.671 -55.704 -28.728  1.00  0.00     0.050 A 
ATOM     20  C   UNL     1       9.682 -55.408 -29.652  1.00  0.00     0.157 A 
BRANCH  18  21
ATOM     21  O   UNL     1      10.400 -54.889 -31.895  1.00  0.00    -0.493 OA
ATOM     22  C   UNL     1      10.566 -55.503 -33.169  1.00  0.00     0.278 C 
ENDBRANCH  18  21
BRANCH  20  23
ATOM     23  O   UNL     1      11.011 -55.334 -29.240  1.00  0.00    -0.504 OA
ATOM     24  H   UNL     1      11.493 -56.139 -28.855  1.00  0.00     0.293 HD
ENDBRANCH  20  23
ENDBRANCH  14  15
ENDBRANCH  12  14
ENDBRANCH   9  10
ENDBRANCH   1   9
TORSDOF 10
ENDMDL
MODEL 5
REMARK VINA RESULT:    -6.984      1.379      2.038
REMARK INTER + INTRA:         -11.819
REMARK INTER:                 -10.868
REMARK INTRA:                  -0.951
REMARK UNBOUND:                -0.956
REMARK SMILES COc1cc(CNC(=O)CCCCC=CC(C)C)ccc1O
REMARK SMILES IDX 11 1 12 2 13 3 14 4 15 5 16 6 17 7 18 8 10 9 8 10 9 11 7 12
REMARK SMILES IDX 6 14 5 15 4 16 19 17 3 18 20 19 21 20 2 21 1 22 22 23
REMARK H PARENT 7 13 22 24
REMARK Flexibility Score: inf
ROOT
ATOM      1  C   UNL     1       7.768 -55.391 -29.067  1.00  0.00     0.010 C 
ENDROOT
BRANCH   1   2
ATOM      2  C   UNL     1       9.185 -55.968 -28.933  1.00  0.00     0.005 C 
BRANCH   2   3
ATOM      3  C   UNL     1      10.267 -54.985 -29.408  1.00  0.00     0.027 C 
BRANCH   3   4
ATOM      4  C   UNL     1       9.738 -54.093 -30.502  1.00  0.00    -0.031 C 
ATOM      5  C   UNL     1       9.803 -54.372 -31.818  1.00  0.00    -0.028 C 
BRANCH   5   6
ATOM      6  C   UNL     1      10.492 -55.585 -32.409  1.00  0.00     0.005 C 
ATOM      7  C   UNL     1       9.449 -56.624 -32.830  1.00  0.00     0.012 C 
ATOM      8  C   UNL     1      11.347 -55.165 -33.606  1.00  0.00     0.012 C 
ENDBRANCH   5   6
ENDBRANCH   3   4
ENDBRANCH   2   3
ENDBRANCH   1   2
BRANCH   1   9
ATOM      9  C   UNL     1       6.889 -56.203 -30.026  1.00  0.00     0.100 C 
BRANCH   9  10
ATOM     10  C   UNL     1       5.461 -55.756 -29.930  1.00  0.00     0.220 C 
ATOM     11  O   UNL     1       4.864 -55.361 -30.967  1.00  0.00    -0.275 OA
ATOM     12  N   UNL     1       4.769 -55.827 -28.676  1.00  0.00    -0.352 N 
ATOM     13  H   UNL     1       5.270 -56.205 -27.840  1.00  0.00     0.163 HD
BRANCH  12  14
ATOM     14  C   UNL     1       3.377 -55.411 -28.523  1.00  0.00     0.151 C 
BRANCH  14  15
ATOM     15  C   UNL     1       2.911 -55.652 -27.112  1.00  0.00    -0.025 A 
ATOM     16  C   UNL     1       1.734 -55.046 -26.650  1.00  0.00     0.056 A 
ATOM     17  C   UNL     1       3.630 -56.503 -26.260  1.00  0.00     0.009 A 
ATOM     18  C   UNL     1       1.276 -55.279 -25.337  1.00  0.00     0.160 A 
ATOM     19  C   UNL     1       3.182 -56.737 -24.960  1.00  0.00     0.050 A 
ATOM     20  C   UNL     1       2.009 -56.128 -24.495  1.00  0.00     0.157 A 
BRANCH  18  21
ATOM     21  O   UNL     1       0.105 -54.688 -24.836  1.00  0.00    -0.493 OA
ATOM     22  C   UNL     1       0.056 -53.420 -24.188  1.00  0.00     0.278 C 
ENDBRANCH  18  21
BRANCH  20  23
ATOM     23  O   UNL     1       1.563 -56.362 -23.196  1.00  0.00    -0.504 OA
ATOM     24  H   UNL     1       1.381 -55.601 -22.552  1.00  0.00     0.293 HD
ENDBRANCH  20  23
ENDBRANCH  14  15
ENDBRANCH  12  14
ENDBRANCH   9  10
ENDBRANCH   1   9
TORSDOF 10
ENDMDL
MODEL 6
REMARK VINA RESULT:    -6.972      2.420      8.490
REMARK INTER + INTRA:         -11.800
REMARK INTER:                 -10.692
REMARK INTRA:                  -1.108
REMARK UNBOUND:                -0.956
REMARK SMILES COc1cc(CNC(=O)CCCCC=CC(C)C)ccc1O
REMARK SMILES IDX 11 1 12 2 13 3 14 4 15 5 16 6 17 7 18 8 10 9 8 10 9 11 7 12
REMARK SMILES IDX 6 14 5 15 4 16 19 17 3 18 20 19 21 20 2 21 1 22 22 23
REMARK H PARENT 7 13 22 24
REMARK Flexibility Score: inf
ROOT
ATOM      1  C   UNL     1       1.672 -55.224 -26.434  1.00  0.00     0.010 C 
ENDROOT
BRANCH   1   2
ATOM      2  C   UNL     1       1.951 -56.037 -25.162  1.00  0.00     0.005 C 
BRANCH   2   3
ATOM      3  C   UNL     1       3.270 -55.634 -24.483  1.00  0.00     0.027 C 
BRANCH   3   4
ATOM      4  C   UNL     1       3.038 -55.256 -23.043  1.00  0.00    -0.031 C 
ATOM      5  C   UNL     1       2.636 -54.041 -22.624  1.00  0.00    -0.028 C 
BRANCH   5   6
ATOM      6  C   UNL     1       2.436 -52.841 -23.526  1.00  0.00     0.005 C 
ATOM      7  C   UNL     1       1.307 -51.961 -22.982  1.00  0.00     0.012 C 
ATOM      8  C   UNL     1       3.739 -52.044 -23.626  1.00  0.00     0.012 C 
ENDBRANCH   5   6
ENDBRANCH   3   4
ENDBRANCH   2   3
ENDBRANCH   1   2
BRANCH   1   9
ATOM      9  C   UNL     1       2.932 -54.554 -26.995  1.00  0.00     0.100 C 
BRANCH   9  10
ATOM     10  C   UNL     1       3.611 -55.460 -27.977  1.00  0.00     0.220 C 
ATOM     11  O   UNL     1       2.989 -55.839 -29.005  1.00  0.00    -0.275 OA
ATOM     12  N   UNL     1       4.977 -55.847 -27.771  1.00  0.00    -0.352 N 
ATOM     13  H   UNL     1       5.489 -55.480 -26.937  1.00  0.00     0.163 HD
BRANCH  12  14
ATOM     14  C   UNL     1       5.692 -56.722 -28.697  1.00  0.00     0.151 C 
BRANCH  14  15
ATOM     15  C   UNL     1       6.515 -55.906 -29.657  1.00  0.00    -0.025 A 
ATOM     16  C   UNL     1       7.825 -55.535 -29.317  1.00  0.00     0.056 A 
ATOM     17  C   UNL     1       5.995 -55.534 -30.905  1.00  0.00     0.009 A 
ATOM     18  C   UNL     1       8.614 -54.787 -30.216  1.00  0.00     0.160 A 
ATOM     19  C   UNL     1       6.770 -54.794 -31.798  1.00  0.00     0.050 A 
ATOM     20  C   UNL     1       8.077 -54.419 -31.458  1.00  0.00     0.157 A 
BRANCH  18  21
ATOM     21  O   UNL     1       9.926 -54.394 -29.911  1.00  0.00    -0.493 OA
ATOM     22  C   UNL     1      10.395 -54.095 -28.599  1.00  0.00     0.278 C 
ENDBRANCH  18  21
BRANCH  20  23
ATOM     23  O   UNL     1       8.850 -53.679 -32.350  1.00  0.00    -0.504 OA
ATOM     24  H   UNL     1       9.470 -52.942 -32.031  1.00  0.00     0.293 HD
ENDBRANCH  20  23
ENDBRANCH  14  15
ENDBRANCH  12  14
ENDBRANCH   9  10
ENDBRANCH   1   9
TORSDOF 10
ENDMDL
MODEL 7
REMARK VINA RESULT:    -6.901      2.111      2.738
REMARK INTER + INTRA:         -11.690
REMARK INTER:                 -10.490
REMARK INTRA:                  -1.201
REMARK UNBOUND:                -0.956
REMARK SMILES COc1cc(CNC(=O)CCCCC=CC(C)C)ccc1O
REMARK SMILES IDX 11 1 12 2 13 3 14 4 15 5 16 6 17 7 18 8 10 9 8 10 9 11 7 12
REMARK SMILES IDX 6 14 5 15 4 16 19 17 3 18 20 19 21 20 2 21 1 22 22 23
REMARK H PARENT 7 13 22 24
REMARK Flexibility Score: inf
ROOT
ATOM      1  C   UNL     1       8.965 -56.826 -27.801  1.00  0.00     0.010 C 
ENDROOT
BRANCH   1   2
ATOM      2  C   UNL     1      10.156 -55.861 -27.872  1.00  0.00     0.005 C 
BRANCH   2   3
ATOM      3  C   UNL     1      10.471 -55.419 -29.310  1.00  0.00     0.027 C 
BRANCH   3   4
ATOM      4  C   UNL     1       9.702 -54.174 -29.669  1.00  0.00    -0.031 C 
ATOM      5  C   UNL     1       8.603 -54.149 -30.447  1.00  0.00    -0.028 C 
BRANCH   5   6
ATOM      6  C   UNL     1       8.019 -55.356 -31.152  1.00  0.00     0.005 C 
ATOM      7  C   UNL     1       6.700 -55.760 -30.489  1.00  0.00     0.012 C 
ATOM      8  C   UNL     1       7.801 -55.037 -32.633  1.00  0.00     0.012 C 
ENDBRANCH   5   6
ENDBRANCH   3   4
ENDBRANCH   2   3
ENDBRANCH   1   2
BRANCH   1   9
ATOM      9  C   UNL     1       9.108 -57.859 -26.676  1.00  0.00     0.100 C 
BRANCH   9  10
ATOM     10  C   UNL     1       7.796 -58.055 -25.978  1.00  0.00     0.220 C 
ATOM     11  O   UNL     1       7.783 -58.426 -24.773  1.00  0.00    -0.275 OA
ATOM     12  N   UNL     1       6.568 -57.773 -26.664  1.00  0.00    -0.352 N 
ATOM     13  H   UNL     1       6.605 -57.419 -27.647  1.00  0.00     0.163 HD
BRANCH  12  14
ATOM     14  C   UNL     1       5.261 -57.940 -26.034  1.00  0.00     0.151 C 
BRANCH  14  15
ATOM     15  C   UNL     1       4.400 -56.732 -26.289  1.00  0.00    -0.025 A 
ATOM     16  C   UNL     1       3.806 -56.055 -25.213  1.00  0.00     0.056 A 
ATOM     17  C   UNL     1       4.207 -56.257 -27.595  1.00  0.00     0.009 A 
ATOM     18  C   UNL     1       3.013 -54.911 -25.437  1.00  0.00     0.160 A 
ATOM     19  C   UNL     1       3.423 -55.125 -27.822  1.00  0.00     0.050 A 
ATOM     20  C   UNL     1       2.826 -54.451 -26.749  1.00  0.00     0.157 A 
BRANCH  18  21
ATOM     21  O   UNL     1       2.399 -54.209 -24.388  1.00  0.00    -0.493 OA
ATOM     22  C   UNL     1       2.232 -54.715 -23.067  1.00  0.00     0.278 C 
ENDBRANCH  18  21
BRANCH  20  23
ATOM     23  O   UNL     1       2.043 -53.321 -26.977  1.00  0.00    -0.504 OA
ATOM     24  H   UNL     1       1.033 -53.380 -27.042  1.00  0.00     0.293 HD
ENDBRANCH  20  23
ENDBRANCH  14  15
ENDBRANCH  12  14
ENDBRANCH   9  10
ENDBRANCH   1   9
TORSDOF 10
ENDMDL
MODEL 8
REMARK VINA RESULT:    -6.893      2.552      8.789
REMARK INTER + INTRA:         -11.677
REMARK INTER:                 -10.528
REMARK INTRA:                  -1.149
REMARK UNBOUND:                -0.956
REMARK SMILES COc1cc(CNC(=O)CCCCC=CC(C)C)ccc1O
REMARK SMILES IDX 11 1 12 2 13 3 14 4 15 5 16 6 17 7 18 8 10 9 8 10 9 11 7 12
REMARK SMILES IDX 6 14 5 15 4 16 19 17 3 18 20 19 21 20 2 21 1 22 22 23
REMARK H PARENT 7 13 22 24
REMARK Flexibility Score: inf
ROOT
ATOM      1  C   UNL     1       2.721 -54.551 -26.880  1.00  0.00     0.010 C 
ENDROOT
BRANCH   1   2
ATOM      2  C   UNL     1       2.255 -53.347 -26.048  1.00  0.00     0.005 C 
BRANCH   2   3
ATOM      3  C   UNL     1       0.747 -53.384 -25.753  1.00  0.00     0.027 C 
BRANCH   3   4
ATOM      4  C   UNL     1       0.493 -53.688 -24.299  1.00  0.00    -0.031 C 
ATOM      5  C   UNL     1       0.301 -54.923 -23.797  1.00  0.00    -0.028 C 
BRANCH   5   6
ATOM      6  C   UNL     1       0.226 -56.189 -24.625  1.00  0.00     0.005 C 
ATOM      7  C   UNL     1       1.370 -57.131 -24.243  1.00  0.00     0.012 C 
ATOM      8  C   UNL     1      -1.127 -56.871 -24.409  1.00  0.00     0.012 C 
ENDBRANCH   5   6
ENDBRANCH   3   4
ENDBRANCH   2   3
ENDBRANCH   1   2
BRANCH   1   9
ATOM      9  C   UNL     1       3.796 -55.380 -26.165  1.00  0.00     0.100 C 
BRANCH   9  10
ATOM     10  C   UNL     1       4.533 -56.238 -27.149  1.00  0.00     0.220 C 
ATOM     11  O   UNL     1       5.212 -57.215 -26.734  1.00  0.00    -0.275 OA
ATOM     12  N   UNL     1       4.420 -55.977 -28.555  1.00  0.00    -0.352 N 
ATOM     13  H   UNL     1       3.810 -55.191 -28.878  1.00  0.00     0.163 HD
BRANCH  12  14
ATOM     14  C   UNL     1       5.110 -56.782 -29.560  1.00  0.00     0.151 C 
BRANCH  14  15
ATOM     15  C   UNL     1       6.173 -55.965 -30.244  1.00  0.00    -0.025 A 
ATOM     16  C   UNL     1       7.455 -55.872 -29.681  1.00  0.00     0.056 A 
ATOM     17  C   UNL     1       5.903 -55.315 -31.457  1.00  0.00     0.009 A 
ATOM     18  C   UNL     1       8.466 -55.126 -30.321  1.00  0.00     0.160 A 
ATOM     19  C   UNL     1       6.900 -54.575 -32.095  1.00  0.00     0.050 A 
ATOM     20  C   UNL     1       8.179 -54.478 -31.532  1.00  0.00     0.157 A 
BRANCH  18  21
ATOM     21  O   UNL     1       9.760 -55.007 -29.789  1.00  0.00    -0.493 OA
ATOM     22  C   UNL     1      10.070 -54.344 -28.567  1.00  0.00     0.278 C 
ENDBRANCH  18  21
BRANCH  20  23
ATOM     23  O   UNL     1       9.173 -53.739 -32.169  1.00  0.00    -0.504 OA
ATOM     24  H   UNL     1       9.306 -53.783 -33.173  1.00  0.00     0.293 HD
ENDBRANCH  20  23
ENDBRANCH  14  15
ENDBRANCH  12  14
ENDBRANCH   9  10
ENDBRANCH   1   9
TORSDOF 10
ENDMDL
MODEL 9
REMARK VINA RESULT:    -6.818      1.078      2.262
REMARK INTER + INTRA:         -11.561
REMARK INTER:                 -10.742
REMARK INTRA:                  -0.819
REMARK UNBOUND:                -0.956
REMARK SMILES COc1cc(CNC(=O)CCCCC=CC(C)C)ccc1O
REMARK SMILES IDX 11 1 12 2 13 3 14 4 15 5 16 6 17 7 18 8 10 9 8 10 9 11 7 12
REMARK SMILES IDX 6 14 5 15 4 16 19 17 3 18 20 19 21 20 2 21 1 22 22 23
REMARK H PARENT 7 13 22 24
REMARK Flexibility Score: inf
ROOT
ATOM      1  C   UNL     1       5.792 -55.380 -30.949  1.00  0.00     0.010 C 
ENDROOT
BRANCH   1   2
ATOM      2  C   UNL     1       6.835 -55.084 -32.037  1.00  0.00     0.005 C 
BRANCH   2   3
ATOM      3  C   UNL     1       7.972 -54.181 -31.532  1.00  0.00     0.027 C 
BRANCH   3   4
ATOM      4  C   UNL     1       9.291 -54.910 -31.566  1.00  0.00    -0.031 C 
ATOM      5  C   UNL     1       9.994 -55.274 -30.476  1.00  0.00    -0.028 C 
BRANCH   5   6
ATOM      6  C   UNL     1       9.613 -54.933 -29.051  1.00  0.00     0.005 C 
ATOM      7  C   UNL     1      10.134 -56.012 -28.098  1.00  0.00     0.012 C 
ATOM      8  C   UNL     1      10.182 -53.563 -28.675  1.00  0.00     0.012 C 
ENDBRANCH   5   6
ENDBRANCH   3   4
ENDBRANCH   2   3
ENDBRANCH   1   2
BRANCH   1   9
ATOM      9  C   UNL     1       6.427 -55.858 -29.637  1.00  0.00     0.100 C 
BRANCH   9  10
ATOM     10  C   UNL     1       5.387 -56.469 -28.747  1.00  0.00     0.220 C 
ATOM     11  O   UNL     1       4.579 -57.311 -29.223  1.00  0.00    -0.275 OA
ATOM     12  N   UNL     1       5.349 -56.134 -27.353  1.00  0.00    -0.352 N 
ATOM     13  H   UNL     1       6.061 -55.471 -26.970  1.00  0.00     0.163 HD
BRANCH  12  14
ATOM     14  C   UNL     1       4.363 -56.702 -26.436  1.00  0.00     0.151 C 
BRANCH  14  15
ATOM     15  C   UNL     1       3.378 -55.647 -26.010  1.00  0.00    -0.025 A 
ATOM     16  C   UNL     1       3.062 -55.491 -24.652  1.00  0.00     0.056 A 
ATOM     17  C   UNL     1       2.790 -54.796 -26.958  1.00  0.00     0.009 A 
ATOM     18  C   UNL     1       2.155 -54.494 -24.237  1.00  0.00     0.160 A 
ATOM     19  C   UNL     1       1.892 -53.808 -26.553  1.00  0.00     0.050 A 
ATOM     20  C   UNL     1       1.572 -53.654 -25.198  1.00  0.00     0.157 A 
BRANCH  18  21
ATOM     21  O   UNL     1       1.811 -54.309 -22.889  1.00  0.00    -0.493 OA
ATOM     22  C   UNL     1       1.803 -55.343 -21.910  1.00  0.00     0.278 C 
ENDBRANCH  18  21
BRANCH  20  23
ATOM     23  O   UNL     1       0.675 -52.667 -24.795  1.00  0.00    -0.504 OA
ATOM     24  H   UNL     1       0.993 -51.773 -24.440  1.00  0.00     0.293 HD
ENDBRANCH  20  23
ENDBRANCH  14  15
ENDBRANCH  12  14
ENDBRANCH   9  10
ENDBRANCH   1   9
TORSDOF 10
ENDMDL
