MODEL 1
REMARK VINA RESULT:    -5.984      0.000      0.000
REMARK INTER + INTRA:          -9.305
REMARK INTER:                  -8.083
REMARK INTRA:                  -1.222
REMARK UNBOUND:                -1.222
REMARK SMILES CC(=O)CCC=C(C)CCC=C(C)C
REMARK SMILES IDX 7 1 6 2 8 3 9 4 10 5 11 6 13 7 12 8 14 9 5 10 4 11 2 12 3 13
REMARK SMILES IDX 1 14
REMARK H PARENT
REMARK Flexibility Score: inf
ROOT
ATOM      1  C   UNL     1      -2.954  13.321 -27.826  1.00  0.00    -0.077 C 
ATOM      2  C   UNL     1      -1.931  14.031 -28.352  1.00  0.00    -0.028 C 
ATOM      3  C   UNL     1      -2.795  11.873 -27.419  1.00  0.00     0.039 C 
ENDROOT
BRANCH   1   4
ATOM      4  C   UNL     1      -4.289  14.002 -27.615  1.00  0.00     0.034 C 
BRANCH   4   5
ATOM      5  C   UNL     1      -5.319  13.509 -28.637  1.00  0.00     0.032 C 
BRANCH   5   6
ATOM      6  C   UNL     1      -5.312  14.381 -29.868  1.00  0.00    -0.028 C 
ATOM      7  C   UNL     1      -3.937  12.765 -31.198  1.00  0.00     0.039 C 
ATOM      8  C   UNL     1      -4.720  14.044 -31.037  1.00  0.00    -0.080 C 
ATOM      9  C   UNL     1      -4.799  14.980 -32.215  1.00  0.00     0.039 C 
ENDBRANCH   5   6
ENDBRANCH   4   5
ENDBRANCH   1   4
BRANCH   2  10
ATOM     10  C   UNL     1      -0.566  13.465 -28.667  1.00  0.00     0.035 C 
BRANCH  10  11
ATOM     11  C   UNL     1      -0.215  13.622 -30.152  1.00  0.00     0.079 C 
BRANCH  11  12
ATOM     12  C   UNL     1       0.034  12.292 -30.813  1.00  0.00     0.130 C 
ATOM     13  O   UNL     1       0.927  12.182 -31.640  1.00  0.00    -0.300 OA
ATOM     14  C   UNL     1      -0.790  11.095 -30.443  1.00  0.00     0.087 C 
ENDBRANCH  11  12
ENDBRANCH  10  11
ENDBRANCH   2  10
TORSDOF 6
ENDMDL
MODEL 2
REMARK VINA RESULT:    -5.880      2.944      5.447
REMARK INTER + INTRA:          -9.165
REMARK INTER:                  -8.308
REMARK INTRA:                  -0.857
REMARK UNBOUND:                -1.222
REMARK SMILES CC(=O)CCC=C(C)CCC=C(C)C
REMARK SMILES IDX 7 1 6 2 8 3 9 4 10 5 11 6 13 7 12 8 14 9 5 10 4 11 2 12 3 13
REMARK SMILES IDX 1 14
REMARK H PARENT
REMARK Flexibility Score: inf
ROOT
ATOM      1  C   UNL     1      -3.628  12.254 -28.315  1.00  0.00    -0.077 C 
ATOM      2  C   UNL     1      -4.293  13.409 -28.089  1.00  0.00    -0.028 C 
ATOM      3  C   UNL     1      -4.260  11.104 -29.065  1.00  0.00     0.039 C 
ENDROOT
BRANCH   1   4
ATOM      4  C   UNL     1      -2.203  12.120 -27.827  1.00  0.00     0.034 C 
BRANCH   4   5
ATOM      5  C   UNL     1      -1.326  13.246 -28.386  1.00  0.00     0.032 C 
BRANCH   5   6
ATOM      6  C   UNL     1      -0.348  12.710 -29.402  1.00  0.00    -0.028 C 
ATOM      7  C   UNL     1      -1.798  13.317 -31.352  1.00  0.00     0.039 C 
ATOM      8  C   UNL     1      -0.535  12.765 -30.741  1.00  0.00    -0.080 C 
ATOM      9  C   UNL     1       0.523  12.223 -31.668  1.00  0.00     0.039 C 
ENDBRANCH   5   6
ENDBRANCH   4   5
ENDBRANCH   1   4
BRANCH   2  10
ATOM     10  C   UNL     1      -5.733  13.660 -28.471  1.00  0.00     0.035 C 
BRANCH  10  11
ATOM     11  C   UNL     1      -5.863  14.818 -29.468  1.00  0.00     0.079 C 
BRANCH  11  12
ATOM     12  C   UNL     1      -6.954  15.778 -29.073  1.00  0.00     0.130 C 
ATOM     13  O   UNL     1      -6.744  16.982 -29.100  1.00  0.00    -0.300 OA
ATOM     14  C   UNL     1      -8.305  15.269 -28.671  1.00  0.00     0.087 C 
ENDBRANCH  11  12
ENDBRANCH  10  11
ENDBRANCH   2  10
TORSDOF 6
ENDMDL
MODEL 3
REMARK VINA RESULT:    -5.741      1.629      2.558
REMARK INTER + INTRA:          -8.978
REMARK INTER:                  -7.982
REMARK INTRA:                  -0.996
REMARK UNBOUND:                -1.222
REMARK SMILES CC(=O)CCC=C(C)CCC=C(C)C
REMARK SMILES IDX 7 1 6 2 8 3 9 4 10 5 11 6 13 7 12 8 14 9 5 10 4 11 2 12 3 13
REMARK SMILES IDX 1 14
REMARK H PARENT
REMARK Flexibility Score: inf
ROOT
ATOM      1  C   UNL     1      -3.267  11.631 -28.246  1.00  0.00    -0.077 C 
ATOM      2  C   UNL     1      -2.034  11.490 -28.779  1.00  0.00    -0.028 C 
ATOM      3  C   UNL     1      -4.460  10.870 -28.778  1.00  0.00     0.039 C 
ENDROOT
BRANCH   1   4
ATOM      4  C   UNL     1      -3.454  12.558 -27.064  1.00  0.00     0.034 C 
BRANCH   4   5
ATOM      5  C   UNL     1      -3.625  14.008 -27.532  1.00  0.00     0.032 C 
BRANCH   5   6
ATOM      6  C   UNL     1      -5.084  14.391 -27.569  1.00  0.00    -0.028 C 
ATOM      7  C   UNL     1      -5.201  14.318 -30.070  1.00  0.00     0.039 C 
ATOM      8  C   UNL     1      -5.812  14.503 -28.704  1.00  0.00    -0.080 C 
ATOM      9  C   UNL     1      -7.273  14.865 -28.624  1.00  0.00     0.039 C 
ENDBRANCH   5   6
ENDBRANCH   4   5
ENDBRANCH   1   4
BRANCH   2  10
ATOM     10  C   UNL     1      -1.714  10.644 -29.990  1.00  0.00     0.035 C 
BRANCH  10  11
ATOM     11  C   UNL     1      -1.865  11.438 -31.294  1.00  0.00     0.079 C 
BRANCH  11  12
ATOM     12  C   UNL     1      -0.858  12.554 -31.390  1.00  0.00     0.130 C 
ATOM     13  O   UNL     1      -1.240  13.713 -31.454  1.00  0.00    -0.300 OA
ATOM     14  C   UNL     1       0.611  12.254 -31.383  1.00  0.00     0.087 C 
ENDBRANCH  11  12
ENDBRANCH  10  11
ENDBRANCH   2  10
TORSDOF 6
ENDMDL
MODEL 4
REMARK VINA RESULT:    -5.550      2.010      3.958
REMARK INTER + INTRA:          -8.719
REMARK INTER:                  -8.188
REMARK INTRA:                  -0.531
REMARK UNBOUND:                -1.222
REMARK SMILES CC(=O)CCC=C(C)CCC=C(C)C
REMARK SMILES IDX 7 1 6 2 8 3 9 4 10 5 11 6 13 7 12 8 14 9 5 10 4 11 2 12 3 13
REMARK SMILES IDX 1 14
REMARK H PARENT
REMARK Flexibility Score: inf
ROOT
ATOM      1  C   UNL     1      -3.136  13.001 -31.342  1.00  0.00    -0.077 C 
ATOM      2  C   UNL     1      -3.611  11.864 -30.788  1.00  0.00    -0.028 C 
ATOM      3  C   UNL     1      -1.662  13.338 -31.333  1.00  0.00     0.039 C 
ENDROOT
BRANCH   1   4
ATOM      4  C   UNL     1      -4.103  13.950 -32.015  1.00  0.00     0.034 C 
BRANCH   4   5
ATOM      5  C   UNL     1      -5.204  14.386 -31.042  1.00  0.00     0.032 C 
BRANCH   5   6
ATOM      6  C   UNL     1      -4.714  14.327 -29.617  1.00  0.00    -0.028 C 
ATOM      7  C   UNL     1      -6.980  14.785 -28.652  1.00  0.00     0.039 C 
ATOM      8  C   UNL     1      -5.509  14.474 -28.532  1.00  0.00    -0.080 C 
ATOM      9  C   UNL     1      -4.917  14.368 -27.149  1.00  0.00     0.039 C 
ENDBRANCH   5   6
ENDBRANCH   4   5
ENDBRANCH   1   4
BRANCH   2  10
ATOM     10  C   UNL     1      -2.770  10.858 -30.038  1.00  0.00     0.035 C 
BRANCH  10  11
ATOM     11  C   UNL     1      -3.287  10.634 -28.612  1.00  0.00     0.079 C 
BRANCH  11  12
ATOM     12  C   UNL     1      -2.577  11.511 -27.614  1.00  0.00     0.130 C 
ATOM     13  O   UNL     1      -1.764  12.337 -28.002  1.00  0.00    -0.300 OA
ATOM     14  C   UNL     1      -2.880  11.395 -26.151  1.00  0.00     0.087 C 
ENDBRANCH  11  12
ENDBRANCH  10  11
ENDBRANCH   2  10
TORSDOF 6
ENDMDL
MODEL 5
REMARK VINA RESULT:    -5.426      2.574      5.526
REMARK INTER + INTRA:          -8.551
REMARK INTER:                  -7.589
REMARK INTRA:                  -0.962
REMARK UNBOUND:                -1.222
REMARK SMILES CC(=O)CCC=C(C)CCC=C(C)C
REMARK SMILES IDX 7 1 6 2 8 3 9 4 10 5 11 6 13 7 12 8 14 9 5 10 4 11 2 12 3 13
REMARK SMILES IDX 1 14
REMARK H PARENT
REMARK Flexibility Score: inf
ROOT
ATOM      1  C   UNL     1      -3.906  12.229 -30.159  1.00  0.00    -0.077 C 
ATOM      2  C   UNL     1      -4.138  12.572 -28.873  1.00  0.00    -0.028 C 
ATOM      3  C   UNL     1      -3.832  13.261 -31.261  1.00  0.00     0.039 C 
ENDROOT
BRANCH   1   4
ATOM      4  C   UNL     1      -3.687  10.771 -30.502  1.00  0.00     0.034 C 
BRANCH   4   5
ATOM      5  C   UNL     1      -2.294  10.310 -30.059  1.00  0.00     0.032 C 
BRANCH   5   6
ATOM      6  C   UNL     1      -1.231  10.855 -30.979  1.00  0.00    -0.028 C 
ATOM      7  C   UNL     1      -0.376  12.488 -29.284  1.00  0.00     0.039 C 
ATOM      8  C   UNL     1      -0.341  11.813 -30.632  1.00  0.00    -0.080 C 
ATOM      9  C   UNL     1       0.700  12.265 -31.624  1.00  0.00     0.039 C 
ENDBRANCH   5   6
ENDBRANCH   4   5
ENDBRANCH   1   4
BRANCH   2  10
ATOM     10  C   UNL     1      -4.426  13.977 -28.398  1.00  0.00     0.035 C 
BRANCH  10  11
ATOM     11  C   UNL     1      -5.888  14.142 -27.964  1.00  0.00     0.079 C 
BRANCH  11  12
ATOM     12  C   UNL     1      -6.676  14.968 -28.947  1.00  0.00     0.130 C 
ATOM     13  O   UNL     1      -6.142  15.364 -29.973  1.00  0.00    -0.300 OA
ATOM     14  C   UNL     1      -8.118  15.285 -28.689  1.00  0.00     0.087 C 
ENDBRANCH  11  12
ENDBRANCH  10  11
ENDBRANCH   2  10
TORSDOF 6
ENDMDL
MODEL 6
REMARK VINA RESULT:    -5.142      1.048      1.759
REMARK INTER + INTRA:          -8.167
REMARK INTER:                  -7.581
REMARK INTRA:                  -0.586
REMARK UNBOUND:                -1.222
REMARK SMILES CC(=O)CCC=C(C)CCC=C(C)C
REMARK SMILES IDX 7 1 6 2 8 3 9 4 10 5 11 6 13 7 12 8 14 9 5 10 4 11 2 12 3 13
REMARK SMILES IDX 1 14
REMARK H PARENT
REMARK Flexibility Score: inf
ROOT
ATOM      1  C   UNL     1      -4.124  13.921 -27.287  1.00  0.00    -0.077 C 
ATOM      2  C   UNL     1      -3.286  13.325 -28.164  1.00  0.00    -0.028 C 
ATOM      3  C   UNL     1      -3.888  13.870 -25.795  1.00  0.00     0.039 C 
ENDROOT
BRANCH   1   4
ATOM      4  C   UNL     1      -5.320  14.683 -27.817  1.00  0.00     0.034 C 
BRANCH   4   5
ATOM      5  C   UNL     1      -5.934  13.962 -29.022  1.00  0.00     0.032 C 
BRANCH   5   6
ATOM      6  C   UNL     1      -5.737  14.765 -30.284  1.00  0.00    -0.028 C 
ATOM      7  C   UNL     1      -4.137  13.112 -31.274  1.00  0.00     0.039 C 
ATOM      8  C   UNL     1      -4.956  14.378 -31.318  1.00  0.00    -0.080 C 
ATOM      9  C   UNL     1      -4.853  15.246 -32.546  1.00  0.00     0.039 C 
ENDBRANCH   5   6
ENDBRANCH   4   5
ENDBRANCH   1   4
BRANCH   2  10
ATOM     10  C   UNL     1      -2.090  12.488 -27.774  1.00  0.00     0.035 C 
BRANCH  10  11
ATOM     11  C   UNL     1      -1.307  12.008 -29.003  1.00  0.00     0.079 C 
BRANCH  11  12
ATOM     12  C   UNL     1      -0.254  13.001 -29.420  1.00  0.00     0.130 C 
ATOM     13  O   UNL     1       0.211  12.954 -30.550  1.00  0.00    -0.300 OA
ATOM     14  C   UNL     1       0.207  14.063 -28.469  1.00  0.00     0.087 C 
ENDBRANCH  11  12
ENDBRANCH  10  11
ENDBRANCH   2  10
TORSDOF 6
ENDMDL
MODEL 7
REMARK VINA RESULT:    -5.114      1.788      2.581
REMARK INTER + INTRA:          -8.130
REMARK INTER:                  -7.623
REMARK INTRA:                  -0.507
REMARK UNBOUND:                -1.222
REMARK SMILES CC(=O)CCC=C(C)CCC=C(C)C
REMARK SMILES IDX 7 1 6 2 8 3 9 4 10 5 11 6 13 7 12 8 14 9 5 10 4 11 2 12 3 13
REMARK SMILES IDX 1 14
REMARK H PARENT
REMARK Flexibility Score: inf
ROOT
ATOM      1  C   UNL     1      -3.211  13.563 -28.873  1.00  0.00    -0.077 C 
ATOM      2  C   UNL     1      -1.990  13.831 -28.358  1.00  0.00    -0.028 C 
ATOM      3  C   UNL     1      -3.423  13.351 -30.355  1.00  0.00     0.039 C 
ENDROOT
BRANCH   1   4
ATOM      4  C   UNL     1      -4.393  13.446 -27.937  1.00  0.00     0.034 C 
BRANCH   4   5
ATOM      5  C   UNL     1      -5.707  13.708 -28.682  1.00  0.00     0.032 C 
BRANCH   5   6
ATOM      6  C   UNL     1      -5.870  15.178 -28.981  1.00  0.00    -0.028 C 
ATOM      7  C   UNL     1      -8.349  15.136 -28.629  1.00  0.00     0.039 C 
ATOM      8  C   UNL     1      -7.049  15.839 -28.930  1.00  0.00    -0.080 C 
ATOM      9  C   UNL     1      -7.093  17.317 -29.219  1.00  0.00     0.039 C 
ENDBRANCH   5   6
ENDBRANCH   4   5
ENDBRANCH   1   4
BRANCH   2  10
ATOM     10  C   UNL     1      -0.737  14.029 -29.179  1.00  0.00     0.035 C 
BRANCH  10  11
ATOM     11  C   UNL     1       0.137  12.769 -29.194  1.00  0.00     0.079 C 
BRANCH  11  12
ATOM     12  C   UNL     1      -0.192  11.873 -30.359  1.00  0.00     0.130 C 
ATOM     13  O   UNL     1      -0.857  10.863 -30.180  1.00  0.00    -0.300 OA
ATOM     14  C   UNL     1       0.269  12.225 -31.741  1.00  0.00     0.087 C 
ENDBRANCH  11  12
ENDBRANCH  10  11
ENDBRANCH   2  10
TORSDOF 6
ENDMDL
MODEL 8
REMARK VINA RESULT:    -5.023      2.122      4.779
REMARK INTER + INTRA:          -8.008
REMARK INTER:                  -7.041
REMARK INTRA:                  -0.966
REMARK UNBOUND:                -1.222
REMARK SMILES CC(=O)CCC=C(C)CCC=C(C)C
REMARK SMILES IDX 7 1 6 2 8 3 9 4 10 5 11 6 13 7 12 8 14 9 5 10 4 11 2 12 3 13
REMARK SMILES IDX 1 14
REMARK H PARENT
REMARK Flexibility Score: inf
ROOT
ATOM      1  C   UNL     1      -4.070  11.591 -29.915  1.00  0.00    -0.077 C 
ATOM      2  C   UNL     1      -4.456  12.873 -29.728  1.00  0.00    -0.028 C 
ATOM      3  C   UNL     1      -4.655  10.455 -29.107  1.00  0.00     0.039 C 
ENDROOT
BRANCH   1   4
ATOM      4  C   UNL     1      -3.041  11.282 -30.980  1.00  0.00     0.034 C 
BRANCH   4   5
ATOM      5  C   UNL     1      -1.775  10.681 -30.358  1.00  0.00     0.032 C 
BRANCH   5   6
ATOM      6  C   UNL     1      -1.091  11.683 -29.462  1.00  0.00    -0.028 C 
ATOM      7  C   UNL     1       0.472  12.459 -31.259  1.00  0.00     0.039 C 
ATOM      8  C   UNL     1      -0.099  12.511 -29.864  1.00  0.00    -0.080 C 
ATOM      9  C   UNL     1       0.496  13.496 -28.891  1.00  0.00     0.039 C 
ENDBRANCH   5   6
ENDBRANCH   4   5
ENDBRANCH   1   4
BRANCH   2  10
ATOM     10  C   UNL     1      -5.430  13.330 -28.667  1.00  0.00     0.035 C 
BRANCH  10  11
ATOM     11  C   UNL     1      -4.784  14.325 -27.694  1.00  0.00     0.079 C 
BRANCH  11  12
ATOM     12  C   UNL     1      -3.448  13.837 -27.198  1.00  0.00     0.130 C 
ATOM     13  O   UNL     1      -2.424  14.392 -27.566  1.00  0.00    -0.300 OA
ATOM     14  C   UNL     1      -3.369  12.691 -26.235  1.00  0.00     0.087 C 
ENDBRANCH  11  12
ENDBRANCH  10  11
ENDBRANCH   2  10
TORSDOF 6
ENDMDL
MODEL 9
REMARK VINA RESULT:    -4.928      0.993      3.536
REMARK INTER + INTRA:          -7.879
REMARK INTER:                  -7.100
REMARK INTRA:                  -0.780
REMARK UNBOUND:                -1.222
REMARK SMILES CC(=O)CCC=C(C)CCC=C(C)C
REMARK SMILES IDX 7 1 6 2 8 3 9 4 10 5 11 6 13 7 12 8 14 9 5 10 4 11 2 12 3 13
REMARK SMILES IDX 1 14
REMARK H PARENT
REMARK Flexibility Score: inf
ROOT
ATOM      1  C   UNL     1      -4.708  14.367 -31.042  1.00  0.00    -0.077 C 
ATOM      2  C   UNL     1      -3.647  13.626 -30.654  1.00  0.00    -0.028 C 
ATOM      3  C   UNL     1      -4.911  14.778 -32.483  1.00  0.00     0.039 C 
ENDROOT
BRANCH   1   4
ATOM      4  C   UNL     1      -5.736  14.775 -30.010  1.00  0.00     0.034 C 
BRANCH   4   5
ATOM      5  C   UNL     1      -5.789  13.759 -28.863  1.00  0.00     0.032 C 
BRANCH   5   6
ATOM      6  C   UNL     1      -5.140  14.318 -27.621  1.00  0.00    -0.028 C 
ATOM      7  C   UNL     1      -3.523  12.415 -27.420  1.00  0.00     0.039 C 
ATOM      8  C   UNL     1      -4.099  13.738 -26.981  1.00  0.00    -0.080 C 
ATOM      9  C   UNL     1      -3.507  14.398 -25.762  1.00  0.00     0.039 C 
ENDBRANCH   5   6
ENDBRANCH   4   5
ENDBRANCH   1   4
BRANCH   2  10
ATOM     10  C   UNL     1      -2.521  13.197 -31.565  1.00  0.00     0.035 C 
BRANCH  10  11
ATOM     11  C   UNL     1      -1.681  12.075 -30.941  1.00  0.00     0.079 C 
BRANCH  11  12
ATOM     12  C   UNL     1      -0.312  12.557 -30.537  1.00  0.00     0.130 C 
ATOM     13  O   UNL     1       0.637  12.390 -31.289  1.00  0.00    -0.300 OA
ATOM     14  C   UNL     1      -0.111  13.266 -29.232  1.00  0.00     0.087 C 
ENDBRANCH  11  12
ENDBRANCH  10  11
ENDBRANCH   2  10
TORSDOF 6
ENDMDL
