MODEL 1
REMARK VINA RESULT:    -4.850      0.000      0.000
REMARK INTER + INTRA:          -5.615
REMARK INTER:                  -5.559
REMARK INTRA:                  -0.056
REMARK UNBOUND:                -0.056
REMARK SMILES COc1cc(C=O)ccc1O
REMARK SMILES IDX 3 1 10 2 9 3 8 4 5 5 4 6 2 7 1 8 11 9 6 11 7 12
REMARK H PARENT 11 10
REMARK Flexibility Score: inf
ROOT
ATOM      1  C   UNL     1       6.747  -1.863   0.312  1.00  0.00     0.161 A 
ATOM      2  C   UNL     1       7.645  -2.013   1.379  1.00  0.00     0.157 A 
ATOM      3  C   UNL     1       8.715  -1.121   1.529  1.00  0.00     0.051 A 
ATOM      4  C   UNL     1       8.893  -0.077   0.619  1.00  0.00     0.015 A 
ATOM      5  C   UNL     1       8.006   0.088  -0.453  1.00  0.00     0.018 A 
ATOM      6  C   UNL     1       6.933  -0.808  -0.604  1.00  0.00     0.062 A 
ENDROOT
BRANCH   1   7
ATOM      7  O   UNL     1       5.690  -2.778   0.197  1.00  0.00    -0.493 OA
ATOM      8  C   UNL     1       4.408  -2.467  -0.343  1.00  0.00     0.278 C 
ENDBRANCH   1   7
BRANCH   2   9
ATOM      9  O   UNL     1       7.467  -3.054   2.289  1.00  0.00    -0.504 OA
ATOM     10  H   UNL     1       6.552  -3.453   2.466  1.00  0.00     0.293 HD
ENDBRANCH   2   9
BRANCH   5  11
ATOM     11  C   UNL     1       8.213   1.197  -1.404  1.00  0.00     0.260 C 
ATOM     12  O   UNL     1       7.915   2.382  -1.097  1.00  0.00    -0.298 OA
ENDBRANCH   5  11
TORSDOF 3
ENDMDL
MODEL 2
REMARK VINA RESULT:    -4.835      2.276      3.614
REMARK INTER + INTRA:          -5.597
REMARK INTER:                  -5.535
REMARK INTRA:                  -0.062
REMARK UNBOUND:                -0.056
REMARK SMILES COc1cc(C=O)ccc1O
REMARK SMILES IDX 3 1 10 2 9 3 8 4 5 5 4 6 2 7 1 8 11 9 6 11 7 12
REMARK H PARENT 11 10
REMARK Flexibility Score: inf
ROOT
ATOM      1  C   UNL     1       7.375  -0.118  -0.500  1.00  0.00     0.161 A 
ATOM      2  C   UNL     1       7.788   1.221  -0.469  1.00  0.00     0.157 A 
ATOM      3  C   UNL     1       8.291   1.830  -1.626  1.00  0.00     0.051 A 
ATOM      4  C   UNL     1       8.384   1.107  -2.817  1.00  0.00     0.015 A 
ATOM      5  C   UNL     1       7.975  -0.233  -2.868  1.00  0.00     0.018 A 
ATOM      6  C   UNL     1       7.471  -0.843  -1.705  1.00  0.00     0.062 A 
ENDROOT
BRANCH   1   7
ATOM      7  O   UNL     1       6.878  -0.691   0.681  1.00  0.00    -0.493 OA
ATOM      8  C   UNL     1       7.280  -1.957   1.195  1.00  0.00     0.278 C 
ENDBRANCH   1   7
BRANCH   2   9
ATOM      9  O   UNL     1       7.696   1.943   0.720  1.00  0.00    -0.504 OA
ATOM     10  H   UNL     1       8.485   2.463   1.088  1.00  0.00     0.293 HD
ENDBRANCH   2   9
BRANCH   5  11
ATOM     11  C   UNL     1       8.081  -0.978  -4.136  1.00  0.00     0.260 C 
ATOM     12  O   UNL     1       7.175  -1.771  -4.503  1.00  0.00    -0.298 OA
ENDBRANCH   5  11
TORSDOF 3
ENDMDL
MODEL 3
REMARK VINA RESULT:    -4.820      2.291      4.805
REMARK INTER + INTRA:          -5.580
REMARK INTER:                  -5.521
REMARK INTRA:                  -0.059
REMARK UNBOUND:                -0.056
REMARK SMILES COc1cc(C=O)ccc1O
REMARK SMILES IDX 3 1 10 2 9 3 8 4 5 5 4 6 2 7 1 8 11 9 6 11 7 12
REMARK H PARENT 11 10
REMARK Flexibility Score: inf
ROOT
ATOM      1  C   UNL     1       8.242   0.472  -3.149  1.00  0.00     0.161 A 
ATOM      2  C   UNL     1       8.493   1.726  -2.574  1.00  0.00     0.157 A 
ATOM      3  C   UNL     1       8.218   1.947  -1.218  1.00  0.00     0.051 A 
ATOM      4  C   UNL     1       7.693   0.921  -0.431  1.00  0.00     0.015 A 
ATOM      5  C   UNL     1       7.435  -0.340  -0.988  1.00  0.00     0.018 A 
ATOM      6  C   UNL     1       7.710  -0.560  -2.349  1.00  0.00     0.062 A 
ENDROOT
BRANCH   1   7
ATOM      7  O   UNL     1       8.530   0.291  -4.510  1.00  0.00    -0.493 OA
ATOM      8  C   UNL     1       8.313  -0.920  -5.228  1.00  0.00     0.278 C 
ENDBRANCH   1   7
BRANCH   2   9
ATOM      9  O   UNL     1       9.019   2.751  -3.360  1.00  0.00    -0.504 OA
ATOM     10  H   UNL     1       8.913   3.725  -3.101  1.00  0.00     0.293 HD
ENDBRANCH   2   9
BRANCH   5  11
ATOM     11  C   UNL     1       6.879  -1.410  -0.138  1.00  0.00     0.260 C 
ATOM     12  O   UNL     1       6.755  -1.255   1.105  1.00  0.00    -0.298 OA
ENDBRANCH   5  11
TORSDOF 3
ENDMDL
MODEL 4
REMARK VINA RESULT:    -4.806      1.547      2.903
REMARK INTER + INTRA:          -5.565
REMARK INTER:                  -5.491
REMARK INTRA:                  -0.073
REMARK UNBOUND:                -0.056
REMARK SMILES COc1cc(C=O)ccc1O
REMARK SMILES IDX 3 1 10 2 9 3 8 4 5 5 4 6 2 7 1 8 11 9 6 11 7 12
REMARK H PARENT 11 10
REMARK Flexibility Score: inf
ROOT
ATOM      1  C   UNL     1       7.671  -0.737  -0.034  1.00  0.00     0.161 A 
ATOM      2  C   UNL     1       7.093  -1.791  -0.756  1.00  0.00     0.157 A 
ATOM      3  C   UNL     1       7.047  -1.744  -2.155  1.00  0.00     0.051 A 
ATOM      4  C   UNL     1       7.577  -0.649  -2.840  1.00  0.00     0.015 A 
ATOM      5  C   UNL     1       8.159   0.414  -2.136  1.00  0.00     0.018 A 
ATOM      6  C   UNL     1       8.204   0.366  -0.731  1.00  0.00     0.062 A 
ENDROOT
BRANCH   1   7
ATOM      7  O   UNL     1       7.697  -0.822   1.366  1.00  0.00    -0.493 OA
ATOM      8  C   UNL     1       8.876  -1.023   2.141  1.00  0.00     0.278 C 
ENDBRANCH   1   7
BRANCH   2   9
ATOM      9  O   UNL     1       6.564  -2.886  -0.073  1.00  0.00    -0.504 OA
ATOM     10  H   UNL     1       5.614  -2.882   0.280  1.00  0.00     0.293 HD
ENDBRANCH   2   9
BRANCH   5  11
ATOM     11  C   UNL     1       8.713   1.561  -2.879  1.00  0.00     0.260 C 
ATOM     12  O   UNL     1       8.539   2.742  -2.477  1.00  0.00    -0.298 OA
ENDBRANCH   5  11
TORSDOF 3
ENDMDL
MODEL 5
REMARK VINA RESULT:    -4.669      1.965      4.054
REMARK INTER + INTRA:          -5.408
REMARK INTER:                  -5.351
REMARK INTRA:                  -0.057
REMARK UNBOUND:                -0.056
REMARK SMILES COc1cc(C=O)ccc1O
REMARK SMILES IDX 3 1 10 2 9 3 8 4 5 5 4 6 2 7 1 8 11 9 6 11 7 12
REMARK H PARENT 11 10
REMARK Flexibility Score: inf
ROOT
ATOM      1  C   UNL     1       7.918  -0.257  -1.786  1.00  0.00     0.161 A 
ATOM      2  C   UNL     1       6.852  -1.166  -1.841  1.00  0.00     0.157 A 
ATOM      3  C   UNL     1       6.512  -1.921  -0.711  1.00  0.00     0.051 A 
ATOM      4  C   UNL     1       7.231  -1.773   0.477  1.00  0.00     0.015 A 
ATOM      5  C   UNL     1       8.299  -0.868   0.551  1.00  0.00     0.018 A 
ATOM      6  C   UNL     1       8.640  -0.112  -0.584  1.00  0.00     0.062 A 
ENDROOT
BRANCH   1   7
ATOM      7  O   UNL     1       8.228   0.479  -2.940  1.00  0.00    -0.493 OA
ATOM      8  C   UNL     1       8.692   1.826  -2.937  1.00  0.00     0.278 C 
ENDBRANCH   1   7
BRANCH   2   9
ATOM      9  O   UNL     1       6.134  -1.315  -3.027  1.00  0.00    -0.504 OA
ATOM     10  H   UNL     1       5.135  -1.488  -3.024  1.00  0.00     0.293 HD
ENDBRANCH   2   9
BRANCH   5  11
ATOM     11  C   UNL     1       9.045  -0.727   1.815  1.00  0.00     0.260 C 
ATOM     12  O   UNL     1       8.615   0.004   2.747  1.00  0.00    -0.298 OA
ENDBRANCH   5  11
TORSDOF 3
ENDMDL
MODEL 6
REMARK VINA RESULT:    -4.543      1.734      2.921
REMARK INTER + INTRA:          -5.263
REMARK INTER:                  -5.203
REMARK INTRA:                  -0.060
REMARK UNBOUND:                -0.056
REMARK SMILES COc1cc(C=O)ccc1O
REMARK SMILES IDX 3 1 10 2 9 3 8 4 5 5 4 6 2 7 1 8 11 9 6 11 7 12
REMARK H PARENT 11 10
REMARK Flexibility Score: inf
ROOT
ATOM      1  C   UNL     1       7.382  -1.375  -0.962  1.00  0.00     0.161 A 
ATOM      2  C   UNL     1       7.702  -1.343  -2.327  1.00  0.00     0.157 A 
ATOM      3  C   UNL     1       8.111  -0.145  -2.926  1.00  0.00     0.051 A 
ATOM      4  C   UNL     1       8.204   1.024  -2.168  1.00  0.00     0.015 A 
ATOM      5  C   UNL     1       7.889   1.011  -0.803  1.00  0.00     0.018 A 
ATOM      6  C   UNL     1       7.477  -0.192  -0.203  1.00  0.00     0.062 A 
ENDROOT
BRANCH   1   7
ATOM      7  O   UNL     1       6.975  -2.595  -0.401  1.00  0.00    -0.493 OA
ATOM      8  C   UNL     1       7.132  -2.944   0.972  1.00  0.00     0.278 C 
ENDBRANCH   1   7
BRANCH   2   9
ATOM      9  O   UNL     1       7.610  -2.511  -3.084  1.00  0.00    -0.504 OA
ATOM     10  H   UNL     1       8.077  -2.600  -3.979  1.00  0.00     0.293 HD
ENDBRANCH   2   9
BRANCH   5  11
ATOM     11  C   UNL     1       7.994   2.258  -0.021  1.00  0.00     0.260 C 
ATOM     12  O   UNL     1       7.898   3.384  -0.576  1.00  0.00    -0.298 OA
ENDBRANCH   5  11
TORSDOF 3
ENDMDL
MODEL 7
REMARK VINA RESULT:    -4.489      1.336      2.927
REMARK INTER + INTRA:          -5.201
REMARK INTER:                  -5.147
REMARK INTRA:                  -0.054
REMARK UNBOUND:                -0.056
REMARK SMILES COc1cc(C=O)ccc1O
REMARK SMILES IDX 3 1 10 2 9 3 8 4 5 5 4 6 2 7 1 8 11 9 6 11 7 12
REMARK H PARENT 11 10
REMARK Flexibility Score: inf
ROOT
ATOM      1  C   UNL     1       8.672  -2.004   1.523  1.00  0.00     0.161 A 
ATOM      2  C   UNL     1       7.566  -2.769   1.124  1.00  0.00     0.157 A 
ATOM      3  C   UNL     1       6.580  -2.205   0.305  1.00  0.00     0.051 A 
ATOM      4  C   UNL     1       6.691  -0.880  -0.121  1.00  0.00     0.015 A 
ATOM      5  C   UNL     1       7.790  -0.101   0.267  1.00  0.00     0.018 A 
ATOM      6  C   UNL     1       8.779  -0.667   1.090  1.00  0.00     0.062 A 
ENDROOT
BRANCH   1   7
ATOM      7  O   UNL     1       9.638  -2.605   2.344  1.00  0.00    -0.493 OA
ATOM      8  C   UNL     1       9.621  -2.571   3.768  1.00  0.00     0.278 C 
ENDBRANCH   1   7
BRANCH   2   9
ATOM      9  O   UNL     1       7.455  -4.092   1.549  1.00  0.00    -0.504 OA
ATOM     10  H   UNL     1       7.757  -4.380   2.472  1.00  0.00     0.293 HD
ENDBRANCH   2   9
BRANCH   5  11
ATOM     11  C   UNL     1       7.888   1.297  -0.194  1.00  0.00     0.260 C 
ATOM     12  O   UNL     1       7.854   1.582  -1.420  1.00  0.00    -0.298 OA
ENDBRANCH   5  11
TORSDOF 3
ENDMDL
MODEL 8
REMARK VINA RESULT:    -4.484     10.626     12.005
REMARK INTER + INTRA:          -5.196
REMARK INTER:                  -5.130
REMARK INTRA:                  -0.066
REMARK UNBOUND:                -0.056
REMARK SMILES COc1cc(C=O)ccc1O
REMARK SMILES IDX 3 1 10 2 9 3 8 4 5 5 4 6 2 7 1 8 11 9 6 11 7 12
REMARK H PARENT 11 10
REMARK Flexibility Score: inf
ROOT
ATOM      1  C   UNL     1      -3.191  -1.558   5.599  1.00  0.00     0.161 A 
ATOM      2  C   UNL     1      -4.402  -1.315   6.264  1.00  0.00     0.157 A 
ATOM      3  C   UNL     1      -4.771  -0.005   6.598  1.00  0.00     0.051 A 
ATOM      4  C   UNL     1      -3.937   1.066   6.271  1.00  0.00     0.015 A 
ATOM      5  C   UNL     1      -2.723   0.842   5.606  1.00  0.00     0.018 A 
ATOM      6  C   UNL     1      -2.353  -0.472   5.272  1.00  0.00     0.062 A 
ENDROOT
BRANCH   1   7
ATOM      7  O   UNL     1      -2.858  -2.883   5.283  1.00  0.00    -0.493 OA
ATOM      8  C   UNL     1      -1.629  -3.512   5.633  1.00  0.00     0.278 C 
ENDBRANCH   1   7
BRANCH   2   9
ATOM      9  O   UNL     1      -5.235  -2.384   6.590  1.00  0.00    -0.504 OA
ATOM     10  H   UNL     1      -5.890  -2.330   7.362  1.00  0.00     0.293 HD
ENDBRANCH   2   9
BRANCH   5  11
ATOM     11  C   UNL     1      -1.857   1.988   5.271  1.00  0.00     0.260 C 
ATOM     12  O   UNL     1      -0.660   1.818   4.918  1.00  0.00    -0.298 OA
ENDBRANCH   5  11
TORSDOF 3
ENDMDL
MODEL 9
REMARK VINA RESULT:    -4.476      2.122      2.743
REMARK INTER + INTRA:          -5.187
REMARK INTER:                  -5.134
REMARK INTRA:                  -0.053
REMARK UNBOUND:                -0.056
REMARK SMILES COc1cc(C=O)ccc1O
REMARK SMILES IDX 3 1 10 2 9 3 8 4 5 5 4 6 2 7 1 8 11 9 6 11 7 12
REMARK H PARENT 11 10
REMARK Flexibility Score: inf
ROOT
ATOM      1  C   UNL     1       8.285  -1.831   1.453  1.00  0.00     0.161 A 
ATOM      2  C   UNL     1       8.609  -0.546   1.912  1.00  0.00     0.157 A 
ATOM      3  C   UNL     1       8.614   0.538   1.024  1.00  0.00     0.051 A 
ATOM      4  C   UNL     1       8.296   0.345  -0.322  1.00  0.00     0.015 A 
ATOM      5  C   UNL     1       7.969  -0.932  -0.798  1.00  0.00     0.018 A 
ATOM      6  C   UNL     1       7.966  -2.019   0.093  1.00  0.00     0.062 A 
ENDROOT
BRANCH   1   7
ATOM      7  O   UNL     1       8.292  -2.890   2.375  1.00  0.00    -0.493 OA
ATOM      8  C   UNL     1       7.601  -4.122   2.193  1.00  0.00     0.278 C 
ENDBRANCH   1   7
BRANCH   2   9
ATOM      9  O   UNL     1       8.926  -0.353   3.256  1.00  0.00    -0.504 OA
ATOM     10  H   UNL     1       9.678   0.264   3.540  1.00  0.00     0.293 HD
ENDBRANCH   2   9
BRANCH   5  11
ATOM     11  C   UNL     1       7.637  -1.113  -2.224  1.00  0.00     0.260 C 
ATOM     12  O   UNL     1       6.505  -1.534  -2.580  1.00  0.00    -0.298 OA
ENDBRANCH   5  11
TORSDOF 3
ENDMDL
