MODEL 1
REMARK VINA RESULT:    -3.585      0.000      0.000
REMARK INTER + INTRA:          -5.592
REMARK INTER:                  -4.843
REMARK INTRA:                  -0.750
REMARK UNBOUND:                -0.750
REMARK SMILES C=C[C@](C)(CCC=C(C)C)OC(C)=O
REMARK SMILES IDX 3 1 4 2 5 3 6 4 7 5 9 6 8 7 10 8 2 9 1 10 11 11 12 12 14 13
REMARK SMILES IDX 13 14
REMARK H PARENT
REMARK Flexibility Score: inf
ROOT
ATOM      1  C   UNL     1     108.533  94.625  24.354  1.00  0.00     0.127 C 
ATOM      2  C   UNL     1     107.785  95.187  23.124  1.00  0.00     0.061 C 
ENDROOT
BRANCH   1   3
ATOM      3  C   UNL     1     109.139  95.773  25.207  1.00  0.00     0.057 C 
BRANCH   3   4
ATOM      4  C   UNL     1     109.199  97.143  24.495  1.00  0.00     0.032 C 
BRANCH   4   5
ATOM      5  C   UNL     1     110.588  97.737  24.508  1.00  0.00    -0.028 C 
ATOM      6  C   UNL     1     112.827  98.276  23.654  1.00  0.00     0.039 C 
ATOM      7  C   UNL     1     111.485  97.607  23.506  1.00  0.00    -0.080 C 
ATOM      8  C   UNL     1     111.194  96.789  22.269  1.00  0.00     0.039 C 
ENDBRANCH   4   5
ENDBRANCH   3   4
ENDBRANCH   1   3
BRANCH   1   9
ATOM      9  C   UNL     1     109.660  93.700  23.915  1.00  0.00     0.013 C 
ATOM     10  C   UNL     1     110.387  92.974  24.775  1.00  0.00     0.008 C 
ENDBRANCH   1   9
BRANCH   1  11
ATOM     11  O   UNL     1     107.619  93.895  25.187  1.00  0.00    -0.455 OA
BRANCH  11  12
ATOM     12  C   UNL     1     106.321  94.305  25.530  1.00  0.00     0.303 C 
ATOM     13  O   UNL     1     105.310  93.822  24.953  1.00  0.00    -0.253 OA
ATOM     14  C   UNL     1     106.136  95.286  26.637  1.00  0.00     0.139 C 
ENDBRANCH  11  12
ENDBRANCH   1  11
TORSDOF 6
ENDMDL
MODEL 2
REMARK VINA RESULT:    -3.546      2.104      3.700
REMARK INTER + INTRA:          -5.540
REMARK INTER:                  -4.943
REMARK INTRA:                  -0.597
REMARK UNBOUND:                -0.750
REMARK SMILES C=C[C@](C)(CCC=C(C)C)OC(C)=O
REMARK SMILES IDX 3 1 4 2 5 3 6 4 7 5 9 6 8 7 10 8 2 9 1 10 11 11 12 12 14 13
REMARK SMILES IDX 13 14
REMARK H PARENT
REMARK Flexibility Score: inf
ROOT
ATOM      1  C   UNL     1     106.306  95.154  25.687  1.00  0.00     0.127 C 
ATOM      2  C   UNL     1     106.701  93.660  25.708  1.00  0.00     0.061 C 
ENDROOT
BRANCH   1   3
ATOM      3  C   UNL     1     107.381  96.002  24.954  1.00  0.00     0.057 C 
BRANCH   3   4
ATOM      4  C   UNL     1     108.839  95.570  25.227  1.00  0.00     0.032 C 
BRANCH   4   5
ATOM      5  C   UNL     1     109.640  95.413  23.956  1.00  0.00    -0.028 C 
ATOM      6  C   UNL     1     110.965  94.252  22.244  1.00  0.00     0.039 C 
ATOM      7  C   UNL     1     110.213  94.259  23.550  1.00  0.00    -0.080 C 
ATOM      8  C   UNL     1     110.149  92.996  24.377  1.00  0.00     0.039 C 
ENDBRANCH   4   5
ENDBRANCH   3   4
ENDBRANCH   1   3
BRANCH   1   9
ATOM      9  C   UNL     1     106.154  95.685  27.106  1.00  0.00     0.013 C 
ATOM     10  C   UNL     1     105.538  96.840  27.393  1.00  0.00     0.008 C 
ENDBRANCH   1   9
BRANCH   1  11
ATOM     11  O   UNL     1     105.064  95.318  24.985  1.00  0.00    -0.455 OA
BRANCH  11  12
ATOM     12  C   UNL     1     104.644  94.560  23.881  1.00  0.00     0.303 C 
ATOM     13  O   UNL     1     103.827  93.609  24.016  1.00  0.00    -0.253 OA
ATOM     14  C   UNL     1     105.128  94.924  22.520  1.00  0.00     0.139 C 
ENDBRANCH  11  12
ENDBRANCH   1  11
TORSDOF 6
ENDMDL
MODEL 3
REMARK VINA RESULT:    -3.436      2.594      5.140
REMARK INTER + INTRA:          -5.391
REMARK INTER:                  -4.558
REMARK INTRA:                  -0.833
REMARK UNBOUND:                -0.750
REMARK SMILES C=C[C@](C)(CCC=C(C)C)OC(C)=O
REMARK SMILES IDX 3 1 4 2 5 3 6 4 7 5 9 6 8 7 10 8 2 9 1 10 11 11 12 12 14 13
REMARK SMILES IDX 13 14
REMARK H PARENT
REMARK Flexibility Score: inf
ROOT
ATOM      1  C   UNL     1     109.706  95.385  23.458  1.00  0.00     0.127 C 
ATOM      2  C   UNL     1     109.975  96.097  24.803  1.00  0.00     0.061 C 
ENDROOT
BRANCH   1   3
ATOM      3  C   UNL     1     108.377  95.881  22.824  1.00  0.00     0.057 C 
BRANCH   3   4
ATOM      4  C   UNL     1     107.106  95.197  23.375  1.00  0.00     0.032 C 
BRANCH   4   5
ATOM      5  C   UNL     1     106.632  95.820  24.667  1.00  0.00    -0.028 C 
ATOM      6  C   UNL     1     105.926  95.894  27.018  1.00  0.00     0.039 C 
ATOM      7  C   UNL     1     106.370  95.129  25.799  1.00  0.00    -0.080 C 
ATOM      8  C   UNL     1     106.480  93.624  25.864  1.00  0.00     0.039 C 
ENDBRANCH   4   5
ENDBRANCH   3   4
ENDBRANCH   1   3
BRANCH   1   9
ATOM      9  C   UNL     1     109.614  93.879  23.662  1.00  0.00     0.013 C 
ATOM     10  C   UNL     1     110.090  93.258  24.750  1.00  0.00     0.008 C 
ENDBRANCH   1   9
BRANCH   1  11
ATOM     11  O   UNL     1     110.767  95.674  22.535  1.00  0.00    -0.455 OA
BRANCH  11  12
ATOM     12  C   UNL     1     111.293  94.780  21.590  1.00  0.00     0.303 C 
ATOM     13  O   UNL     1     110.649  94.476  20.549  1.00  0.00    -0.253 OA
ATOM     14  C   UNL     1     112.661  94.226  21.794  1.00  0.00     0.139 C 
ENDBRANCH  11  12
ENDBRANCH   1  11
TORSDOF 6
ENDMDL
MODEL 4
REMARK VINA RESULT:    -3.435      2.213      5.382
REMARK INTER + INTRA:          -5.390
REMARK INTER:                  -4.577
REMARK INTRA:                  -0.813
REMARK UNBOUND:                -0.750
REMARK SMILES C=C[C@](C)(CCC=C(C)C)OC(C)=O
REMARK SMILES IDX 3 1 4 2 5 3 6 4 7 5 9 6 8 7 10 8 2 9 1 10 11 11 12 12 14 13
REMARK SMILES IDX 13 14
REMARK H PARENT
REMARK Flexibility Score: inf
ROOT
ATOM      1  C   UNL     1     108.126  95.641  24.736  1.00  0.00     0.127 C 
ATOM      2  C   UNL     1     109.462  96.361  25.026  1.00  0.00     0.061 C 
ENDROOT
BRANCH   1   3
ATOM      3  C   UNL     1     107.468  96.192  23.441  1.00  0.00     0.057 C 
BRANCH   3   4
ATOM      4  C   UNL     1     106.441  95.242  22.785  1.00  0.00     0.032 C 
BRANCH   4   5
ATOM      5  C   UNL     1     105.044  95.816  22.786  1.00  0.00    -0.028 C 
ATOM      6  C   UNL     1     102.626  95.887  23.214  1.00  0.00     0.039 C 
ATOM      7  C   UNL     1     103.953  95.175  23.260  1.00  0.00    -0.080 C 
ATOM      8  C   UNL     1     104.022  93.766  23.801  1.00  0.00     0.039 C 
ENDBRANCH   4   5
ENDBRANCH   3   4
ENDBRANCH   1   3
BRANCH   1   9
ATOM      9  C   UNL     1     107.155  95.834  25.893  1.00  0.00     0.013 C 
ATOM     10  C   UNL     1     106.389  94.846  26.377  1.00  0.00     0.008 C 
ENDBRANCH   1   9
BRANCH   1  11
ATOM     11  O   UNL     1     108.362  94.238  24.545  1.00  0.00    -0.455 OA
BRANCH  11  12
ATOM     12  C   UNL     1     109.550  93.667  24.063  1.00  0.00     0.303 C 
ATOM     13  O   UNL     1     109.912  93.827  22.866  1.00  0.00    -0.253 OA
ATOM     14  C   UNL     1     110.428  92.910  24.999  1.00  0.00     0.139 C 
ENDBRANCH  11  12
ENDBRANCH   1  11
TORSDOF 6
ENDMDL
MODEL 5
REMARK VINA RESULT:    -3.408      2.597      5.576
REMARK INTER + INTRA:          -5.353
REMARK INTER:                  -4.552
REMARK INTRA:                  -0.801
REMARK UNBOUND:                -0.750
REMARK SMILES C=C[C@](C)(CCC=C(C)C)OC(C)=O
REMARK SMILES IDX 3 1 4 2 5 3 6 4 7 5 9 6 8 7 10 8 2 9 1 10 11 11 12 12 14 13
REMARK SMILES IDX 13 14
REMARK H PARENT
REMARK Flexibility Score: inf
ROOT
ATOM      1  C   UNL     1     108.158  95.204  24.301  1.00  0.00     0.127 C 
ATOM      2  C   UNL     1     107.774  95.133  22.806  1.00  0.00     0.061 C 
ENDROOT
BRANCH   1   3
ATOM      3  C   UNL     1     107.409  94.117  25.119  1.00  0.00     0.057 C 
BRANCH   3   4
ATOM      4  C   UNL     1     105.999  94.528  25.599  1.00  0.00     0.032 C 
BRANCH   4   5
ATOM      5  C   UNL     1     104.904  93.870  24.793  1.00  0.00    -0.028 C 
ATOM      6  C   UNL     1     103.072  93.718  23.164  1.00  0.00     0.039 C 
ATOM      7  C   UNL     1     104.110  94.515  23.910  1.00  0.00    -0.080 C 
ATOM      8  C   UNL     1     104.213  96.005  23.677  1.00  0.00     0.039 C 
ENDBRANCH   4   5
ENDBRANCH   3   4
ENDBRANCH   1   3
BRANCH   1   9
ATOM      9  C   UNL     1     107.809  96.570  24.876  1.00  0.00     0.013 C 
ATOM     10  C   UNL     1     107.579  97.648  24.114  1.00  0.00     0.008 C 
ENDBRANCH   1   9
BRANCH   1  11
ATOM     11  O   UNL     1     109.568  94.973  24.452  1.00  0.00    -0.455 OA
BRANCH  11  12
ATOM     12  C   UNL     1     110.286  93.909  23.885  1.00  0.00     0.303 C 
ATOM     13  O   UNL     1     110.822  94.016  22.749  1.00  0.00    -0.253 OA
ATOM     14  C   UNL     1     110.466  92.653  24.666  1.00  0.00     0.139 C 
ENDBRANCH  11  12
ENDBRANCH   1  11
TORSDOF 6
ENDMDL
MODEL 6
REMARK VINA RESULT:    -3.390      1.649      2.292
REMARK INTER + INTRA:          -5.328
REMARK INTER:                  -4.348
REMARK INTRA:                  -0.980
REMARK UNBOUND:                -0.750
REMARK SMILES C=C[C@](C)(CCC=C(C)C)OC(C)=O
REMARK SMILES IDX 3 1 4 2 5 3 6 4 7 5 9 6 8 7 10 8 2 9 1 10 11 11 12 12 14 13
REMARK SMILES IDX 13 14
REMARK H PARENT
REMARK Flexibility Score: inf
ROOT
ATOM      1  C   UNL     1     108.644  94.988  24.401  1.00  0.00     0.127 C 
ATOM      2  C   UNL     1     107.566  95.235  23.322  1.00  0.00     0.061 C 
ENDROOT
BRANCH   1   3
ATOM      3  C   UNL     1     109.861  95.931  24.196  1.00  0.00     0.057 C 
BRANCH   3   4
ATOM      4  C   UNL     1     110.130  96.326  22.727  1.00  0.00     0.032 C 
BRANCH   4   5
ATOM      5  C   UNL     1     111.379  95.677  22.177  1.00  0.00    -0.028 C 
ATOM      6  C   UNL     1     112.711  94.113  20.830  1.00  0.00     0.039 C 
ATOM      7  C   UNL     1     111.383  94.642  21.308  1.00  0.00    -0.080 C 
ATOM      8  C   UNL     1     110.108  93.987  20.832  1.00  0.00     0.039 C 
ENDBRANCH   4   5
ENDBRANCH   3   4
ENDBRANCH   1   3
BRANCH   1   9
ATOM      9  C   UNL     1     109.133  93.547  24.346  1.00  0.00     0.013 C 
ATOM     10  C   UNL     1     110.325  93.160  24.818  1.00  0.00     0.008 C 
ENDBRANCH   1   9
BRANCH   1  11
ATOM     11  O   UNL     1     108.099  95.253  25.703  1.00  0.00    -0.455 OA
BRANCH  11  12
ATOM     12  C   UNL     1     106.782  94.983  26.107  1.00  0.00     0.303 C 
ATOM     13  O   UNL     1     106.306  93.817  26.046  1.00  0.00    -0.253 OA
ATOM     14  C   UNL     1     105.952  96.085  26.671  1.00  0.00     0.139 C 
ENDBRANCH  11  12
ENDBRANCH   1  11
TORSDOF 6
ENDMDL
MODEL 7
REMARK VINA RESULT:    -3.343      2.366      5.173
REMARK INTER + INTRA:          -5.265
REMARK INTER:                  -4.507
REMARK INTRA:                  -0.757
REMARK UNBOUND:                -0.750
REMARK SMILES C=C[C@](C)(CCC=C(C)C)OC(C)=O
REMARK SMILES IDX 3 1 4 2 5 3 6 4 7 5 9 6 8 7 10 8 2 9 1 10 11 11 12 12 14 13
REMARK SMILES IDX 13 14
REMARK H PARENT
REMARK Flexibility Score: inf
ROOT
ATOM      1  C   UNL     1     108.716  94.560  24.458  1.00  0.00     0.127 C 
ATOM      2  C   UNL     1     108.771  95.917  25.196  1.00  0.00     0.061 C 
ENDROOT
BRANCH   1   3
ATOM      3  C   UNL     1     107.744  93.580  25.170  1.00  0.00     0.057 C 
BRANCH   3   4
ATOM      4  C   UNL     1     106.493  94.246  25.785  1.00  0.00     0.032 C 
BRANCH   4   5
ATOM      5  C   UNL     1     105.252  94.017  24.953  1.00  0.00    -0.028 C 
ATOM      6  C   UNL     1     103.399  94.590  23.447  1.00  0.00     0.039 C 
ATOM      7  C   UNL     1     104.615  94.977  24.247  1.00  0.00    -0.080 C 
ATOM      8  C   UNL     1     105.066  96.419  24.265  1.00  0.00     0.039 C 
ENDBRANCH   4   5
ENDBRANCH   3   4
ENDBRANCH   1   3
BRANCH   1   9
ATOM      9  C   UNL     1     110.099  93.923  24.410  1.00  0.00     0.013 C 
ATOM     10  C   UNL     1     110.324  92.641  24.726  1.00  0.00     0.008 C 
ENDBRANCH   1   9
BRANCH   1  11
ATOM     11  O   UNL     1     108.239  94.755  23.118  1.00  0.00    -0.455 OA
BRANCH  11  12
ATOM     12  C   UNL     1     109.036  95.055  22.002  1.00  0.00     0.303 C 
ATOM     13  O   UNL     1     109.576  96.187  21.872  1.00  0.00    -0.253 OA
ATOM     14  C   UNL     1     109.294  93.998  20.984  1.00  0.00     0.139 C 
ENDBRANCH  11  12
ENDBRANCH   1  11
TORSDOF 6
ENDMDL
MODEL 8
REMARK VINA RESULT:    -3.312      1.290      2.571
REMARK INTER + INTRA:          -5.224
REMARK INTER:                  -4.367
REMARK INTRA:                  -0.856
REMARK UNBOUND:                -0.750
REMARK SMILES C=C[C@](C)(CCC=C(C)C)OC(C)=O
REMARK SMILES IDX 3 1 4 2 5 3 6 4 7 5 9 6 8 7 10 8 2 9 1 10 11 11 12 12 14 13
REMARK SMILES IDX 13 14
REMARK H PARENT
REMARK Flexibility Score: inf
ROOT
ATOM      1  C   UNL     1     108.504  94.778  24.396  1.00  0.00     0.127 C 
ATOM      2  C   UNL     1     109.119  96.005  25.106  1.00  0.00     0.061 C 
ENDROOT
BRANCH   1   3
ATOM      3  C   UNL     1     109.613  93.823  23.876  1.00  0.00     0.057 C 
BRANCH   3   4
ATOM      4  C   UNL     1     109.965  93.996  22.381  1.00  0.00     0.032 C 
BRANCH   4   5
ATOM      5  C   UNL     1     111.406  94.398  22.173  1.00  0.00    -0.028 C 
ATOM      6  C   UNL     1     113.298  95.912  21.767  1.00  0.00     0.039 C 
ATOM      7  C   UNL     1     111.821  95.662  21.933  1.00  0.00    -0.080 C 
ATOM      8  C   UNL     1     110.852  96.813  21.795  1.00  0.00     0.039 C 
ENDBRANCH   4   5
ENDBRANCH   3   4
ENDBRANCH   1   3
BRANCH   1   9
ATOM      9  C   UNL     1     107.650  95.219  23.214  1.00  0.00     0.013 C 
ATOM     10  C   UNL     1     107.326  96.498  22.984  1.00  0.00     0.008 C 
ENDBRANCH   1   9
BRANCH   1  11
ATOM     11  O   UNL     1     107.688  94.041  25.320  1.00  0.00    -0.455 OA
BRANCH  11  12
ATOM     12  C   UNL     1     106.376  94.370  25.693  1.00  0.00     0.303 C 
ATOM     13  O   UNL     1     105.386  93.769  25.195  1.00  0.00    -0.253 OA
ATOM     14  C   UNL     1     106.154  95.407  26.740  1.00  0.00     0.139 C 
ENDBRANCH  11  12
ENDBRANCH   1  11
TORSDOF 6
ENDMDL
MODEL 9
REMARK VINA RESULT:    -3.312     13.234     14.236
REMARK INTER + INTRA:          -5.224
REMARK INTER:                  -4.534
REMARK INTRA:                  -0.689
REMARK UNBOUND:                -0.750
REMARK SMILES C=C[C@](C)(CCC=C(C)C)OC(C)=O
REMARK SMILES IDX 3 1 4 2 5 3 6 4 7 5 9 6 8 7 10 8 2 9 1 10 11 11 12 12 14 13
REMARK SMILES IDX 13 14
REMARK H PARENT
REMARK Flexibility Score: inf
ROOT
ATOM      1  C   UNL     1     103.806  82.143  25.491  1.00  0.00     0.127 C 
ATOM      2  C   UNL     1     104.268  80.687  25.253  1.00  0.00     0.061 C 
ENDROOT
BRANCH   1   3
ATOM      3  C   UNL     1     103.582  82.881  24.143  1.00  0.00     0.057 C 
BRANCH   3   4
ATOM      4  C   UNL     1     104.840  83.569  23.568  1.00  0.00     0.032 C 
BRANCH   4   5
ATOM      5  C   UNL     1     104.895  83.499  22.060  1.00  0.00    -0.028 C 
ATOM      6  C   UNL     1     105.481  82.586  19.856  1.00  0.00     0.039 C 
ATOM      7  C   UNL     1     105.533  82.534  21.361  1.00  0.00    -0.080 C 
ATOM      8  C   UNL     1     106.316  81.435  22.041  1.00  0.00     0.039 C 
ENDBRANCH   4   5
ENDBRANCH   3   4
ENDBRANCH   1   3
BRANCH   1   9
ATOM      9  C   UNL     1     104.848  82.907  26.296  1.00  0.00     0.013 C 
ATOM     10  C   UNL     1     104.652  83.296  27.564  1.00  0.00     0.008 C 
ENDBRANCH   1   9
BRANCH   1  11
ATOM     11  O   UNL     1     102.560  82.146  26.205  1.00  0.00    -0.455 OA
BRANCH  11  12
ATOM     12  C   UNL     1     101.301  82.425  25.651  1.00  0.00     0.303 C 
ATOM     13  O   UNL     1     100.665  81.551  25.003  1.00  0.00    -0.253 OA
ATOM     14  C   UNL     1     100.683  83.761  25.882  1.00  0.00     0.139 C 
ENDBRANCH  11  12
ENDBRANCH   1  11
TORSDOF 6
ENDMDL
