MODEL 1
REMARK VINA RESULT:    -3.303      0.000      0.000
REMARK INTER + INTRA:          -3.982
REMARK INTER:                  -3.979
REMARK INTRA:                  -0.003
REMARK UNBOUND:                -0.003
REMARK SMILES OCC(O)CO
REMARK SMILES IDX 3 1 5 2 6 3 2 5 1 6 4 8
REMARK H PARENT 6 4 1 7 4 9
REMARK Flexibility Score: inf
ROOT
ATOM      1  C   UNL     1      19.719 201.260  14.739  1.00  0.00     0.165 C 
ENDROOT
BRANCH   1   2
ATOM      2  C   UNL     1      19.277 202.644  15.240  1.00  0.00     0.190 C 
BRANCH   2   3
ATOM      3  O   UNL     1      18.172 203.122  14.519  1.00  0.00    -0.394 OA
ATOM      4  H   UNL     1      17.782 203.864  15.051  1.00  0.00     0.210 HD
ENDBRANCH   2   3
ENDBRANCH   1   2
BRANCH   1   5
ATOM      5  C   UNL     1      19.672 200.200  15.851  1.00  0.00     0.190 C 
BRANCH   5   6
ATOM      6  O   UNL     1      20.418 199.070  15.488  1.00  0.00    -0.394 OA
ATOM      7  H   UNL     1      21.266 199.123  15.999  1.00  0.00     0.210 HD
ENDBRANCH   5   6
ENDBRANCH   1   5
BRANCH   1   8
ATOM      8  O   UNL     1      18.916 200.869  13.655  1.00  0.00    -0.388 OA
ATOM      9  H   UNL     1      19.244 201.366  12.861  1.00  0.00     0.211 HD
ENDBRANCH   1   8
TORSDOF 5
ENDMDL
MODEL 2
REMARK VINA RESULT:    -3.257      6.900      8.526
REMARK INTER + INTRA:          -3.926
REMARK INTER:                  -3.723
REMARK INTRA:                  -0.203
REMARK UNBOUND:                -0.003
REMARK SMILES OCC(O)CO
REMARK SMILES IDX 3 1 5 2 6 3 2 5 1 6 4 8
REMARK H PARENT 6 4 1 7 4 9
REMARK Flexibility Score: inf
ROOT
ATOM      1  C   UNL     1      18.158 208.324  11.290  1.00  0.00     0.165 C 
ENDROOT
BRANCH   1   2
ATOM      2  C   UNL     1      18.246 206.803  11.495  1.00  0.00     0.190 C 
BRANCH   2   3
ATOM      3  O   UNL     1      17.282 206.125  10.732  1.00  0.00    -0.394 OA
ATOM      4  H   UNL     1      16.570 206.783  10.520  1.00  0.00     0.210 HD
ENDBRANCH   2   3
ENDBRANCH   1   2
BRANCH   1   5
ATOM      5  C   UNL     1      18.929 208.784  10.042  1.00  0.00     0.190 C 
BRANCH   5   6
ATOM      6  O   UNL     1      18.252 208.401   8.875  1.00  0.00    -0.394 OA
ATOM      7  H   UNL     1      17.828 207.527   9.077  1.00  0.00     0.210 HD
ENDBRANCH   5   6
ENDBRANCH   1   5
BRANCH   1   8
ATOM      8  O   UNL     1      16.811 208.714  11.206  1.00  0.00    -0.388 OA
ATOM      9  H   UNL     1      16.776 209.491  10.589  1.00  0.00     0.211 HD
ENDBRANCH   1   8
TORSDOF 5
ENDMDL
MODEL 3
REMARK VINA RESULT:    -3.147      1.276      3.076
REMARK INTER + INTRA:          -3.793
REMARK INTER:                  -3.589
REMARK INTRA:                  -0.204
REMARK UNBOUND:                -0.003
REMARK SMILES OCC(O)CO
REMARK SMILES IDX 3 1 5 2 6 3 2 5 1 6 4 8
REMARK H PARENT 6 4 1 7 4 9
REMARK Flexibility Score: inf
ROOT
ATOM      1  C   UNL     1      20.208 201.475  15.350  1.00  0.00     0.165 C 
ENDROOT
BRANCH   1   2
ATOM      2  C   UNL     1      19.699 200.165  15.974  1.00  0.00     0.190 C 
BRANCH   2   3
ATOM      3  O   UNL     1      20.432 199.060  15.516  1.00  0.00    -0.394 OA
ATOM      4  H   UNL     1      21.241 199.418  15.067  1.00  0.00     0.210 HD
ENDBRANCH   2   3
ENDBRANCH   1   2
BRANCH   1   5
ATOM      5  C   UNL     1      19.380 201.892  14.124  1.00  0.00     0.190 C 
BRANCH   5   6
ATOM      6  O   UNL     1      18.889 200.763  13.454  1.00  0.00    -0.394 OA
ATOM      7  H   UNL     1      19.677 200.189  13.268  1.00  0.00     0.210 HD
ENDBRANCH   5   6
ENDBRANCH   1   5
BRANCH   1   8
ATOM      8  O   UNL     1      20.201 202.494  16.317  1.00  0.00    -0.388 OA
ATOM      9  H   UNL     1      20.302 202.052  17.200  1.00  0.00     0.211 HD
ENDBRANCH   1   8
TORSDOF 5
ENDMDL
MODEL 4
REMARK VINA RESULT:    -3.026      1.465      2.198
REMARK INTER + INTRA:          -3.648
REMARK INTER:                  -3.646
REMARK INTRA:                  -0.002
REMARK UNBOUND:                -0.003
REMARK SMILES OCC(O)CO
REMARK SMILES IDX 3 1 5 2 6 3 2 5 1 6 4 8
REMARK H PARENT 6 4 1 7 4 9
REMARK Flexibility Score: inf
ROOT
ATOM      1  C   UNL     1      19.436 202.573  14.872  1.00  0.00     0.165 C 
ENDROOT
BRANCH   1   2
ATOM      2  C   UNL     1      19.806 202.890  16.330  1.00  0.00     0.190 C 
BRANCH   2   3
ATOM      3  O   UNL     1      18.759 203.549  16.993  1.00  0.00    -0.394 OA
ATOM      4  H   UNL     1      19.124 203.867  17.860  1.00  0.00     0.210 HD
ENDBRANCH   2   3
ENDBRANCH   1   2
BRANCH   1   5
ATOM      5  C   UNL     1      19.396 201.060  14.602  1.00  0.00     0.190 C 
BRANCH   5   6
ATOM      6  O   UNL     1      18.869 200.800  13.329  1.00  0.00    -0.394 OA
ATOM      7  H   UNL     1      18.728 201.685  12.904  1.00  0.00     0.210 HD
ENDBRANCH   5   6
ENDBRANCH   1   5
BRANCH   1   8
ATOM      8  O   UNL     1      18.199 203.160  14.558  1.00  0.00    -0.388 OA
ATOM      9  H   UNL     1      18.204 204.069  14.958  1.00  0.00     0.211 HD
ENDBRANCH   1   8
TORSDOF 5
ENDMDL
MODEL 5
REMARK VINA RESULT:    -3.008      2.099      3.556
REMARK INTER + INTRA:          -3.626
REMARK INTER:                  -3.424
REMARK INTRA:                  -0.203
REMARK UNBOUND:                -0.003
REMARK SMILES OCC(O)CO
REMARK SMILES IDX 3 1 5 2 6 3 2 5 1 6 4 8
REMARK H PARENT 6 4 1 7 4 9
REMARK Flexibility Score: inf
ROOT
ATOM      1  C   UNL     1      19.849 203.184  16.053  1.00  0.00     0.165 C 
ENDROOT
BRANCH   1   2
ATOM      2  C   UNL     1      19.369 202.521  14.752  1.00  0.00     0.190 C 
BRANCH   2   3
ATOM      3  O   UNL     1      18.143 203.054  14.326  1.00  0.00    -0.394 OA
ATOM      4  H   UNL     1      18.273 203.361  13.391  1.00  0.00     0.210 HD
ENDBRANCH   2   3
ENDBRANCH   1   2
BRANCH   1   5
ATOM      5  C   UNL     1      18.688 203.802  16.849  1.00  0.00     0.190 C 
BRANCH   5   6
ATOM      6  O   UNL     1      18.287 205.016  16.273  1.00  0.00    -0.394 OA
ATOM      7  H   UNL     1      17.315 204.928  16.097  1.00  0.00     0.210 HD
ENDBRANCH   5   6
ENDBRANCH   1   5
BRANCH   1   8
ATOM      8  O   UNL     1      20.537 202.244  16.839  1.00  0.00    -0.388 OA
ATOM      9  H   UNL     1      20.535 201.391  16.331  1.00  0.00     0.211 HD
ENDBRANCH   1   8
TORSDOF 5
ENDMDL
MODEL 6
REMARK VINA RESULT:    -2.959      1.417      2.551
REMARK INTER + INTRA:          -3.567
REMARK INTER:                  -3.361
REMARK INTRA:                  -0.205
REMARK UNBOUND:                -0.003
REMARK SMILES OCC(O)CO
REMARK SMILES IDX 3 1 5 2 6 3 2 5 1 6 4 8
REMARK H PARENT 6 4 1 7 4 9
REMARK Flexibility Score: inf
ROOT
ATOM      1  C   UNL     1      19.742 200.854  15.593  1.00  0.00     0.165 C 
ENDROOT
BRANCH   1   2
ATOM      2  C   UNL     1      20.454 201.963  16.385  1.00  0.00     0.190 C 
BRANCH   2   3
ATOM      3  O   UNL     1      19.575 203.009  16.706  1.00  0.00    -0.394 OA
ATOM      4  H   UNL     1      20.034 203.571  17.384  1.00  0.00     0.210 HD
ENDBRANCH   2   3
ENDBRANCH   1   2
BRANCH   1   5
ATOM      5  C   UNL     1      19.413 201.290  14.156  1.00  0.00     0.190 C 
BRANCH   5   6
ATOM      6  O   UNL     1      18.606 202.437  14.161  1.00  0.00    -0.394 OA
ATOM      7  H   UNL     1      19.182 203.176  14.485  1.00  0.00     0.210 HD
ENDBRANCH   5   6
ENDBRANCH   1   5
BRANCH   1   8
ATOM      8  O   UNL     1      20.534 199.695  15.585  1.00  0.00    -0.388 OA
ATOM      9  H   UNL     1      21.025 199.689  14.722  1.00  0.00     0.211 HD
ENDBRANCH   1   8
TORSDOF 5
ENDMDL
MODEL 7
REMARK VINA RESULT:    -2.950      1.809      2.218
REMARK INTER + INTRA:          -3.556
REMARK INTER:                  -3.333
REMARK INTRA:                  -0.223
REMARK UNBOUND:                -0.003
REMARK SMILES OCC(O)CO
REMARK SMILES IDX 3 1 5 2 6 3 2 5 1 6 4 8
REMARK H PARENT 6 4 1 7 4 9
REMARK Flexibility Score: inf
ROOT
ATOM      1  C   UNL     1      19.437 202.531  14.227  1.00  0.00     0.165 C 
ENDROOT
BRANCH   1   2
ATOM      2  C   UNL     1      20.556 203.267  14.983  1.00  0.00     0.190 C 
BRANCH   2   3
ATOM      3  O   UNL     1      21.824 202.794  14.609  1.00  0.00    -0.394 OA
ATOM      4  H   UNL     1      22.478 203.206  15.232  1.00  0.00     0.210 HD
ENDBRANCH   2   3
ENDBRANCH   1   2
BRANCH   1   5
ATOM      5  C   UNL     1      19.412 201.029  14.550  1.00  0.00     0.190 C 
BRANCH   5   6
ATOM      6  O   UNL     1      19.989 200.785  15.805  1.00  0.00    -0.394 OA
ATOM      7  H   UNL     1      20.649 201.511  15.950  1.00  0.00     0.210 HD
ENDBRANCH   5   6
ENDBRANCH   1   5
BRANCH   1   8
ATOM      8  O   UNL     1      18.197 203.119  14.527  1.00  0.00    -0.388 OA
ATOM      9  H   UNL     1      17.845 202.651  15.329  1.00  0.00     0.211 HD
ENDBRANCH   1   8
TORSDOF 5
ENDMDL
MODEL 8
REMARK VINA RESULT:    -2.936      1.640      2.934
REMARK INTER + INTRA:          -3.539
REMARK INTER:                  -3.536
REMARK INTRA:                  -0.003
REMARK UNBOUND:                -0.003
REMARK SMILES OCC(O)CO
REMARK SMILES IDX 3 1 5 2 6 3 2 5 1 6 4 8
REMARK H PARENT 6 4 1 7 4 9
REMARK Flexibility Score: inf
ROOT
ATOM      1  C   UNL     1      19.364 202.693  15.218  1.00  0.00     0.165 C 
ENDROOT
BRANCH   1   2
ATOM      2  C   UNL     1      19.642 201.244  14.787  1.00  0.00     0.190 C 
BRANCH   2   3
ATOM      3  O   UNL     1      18.900 200.896  13.647  1.00  0.00    -0.394 OA
ATOM      4  H   UNL     1      18.597 199.960  13.777  1.00  0.00     0.210 HD
ENDBRANCH   2   3
ENDBRANCH   1   2
BRANCH   1   5
ATOM      5  C   UNL     1      20.548 203.624  14.912  1.00  0.00     0.190 C 
BRANCH   5   6
ATOM      6  O   UNL     1      21.566 203.456  15.861  1.00  0.00    -0.394 OA
ATOM      7  H   UNL     1      22.408 203.359  15.346  1.00  0.00     0.210 HD
ENDBRANCH   5   6
ENDBRANCH   1   5
BRANCH   1   8
ATOM      8  O   UNL     1      18.198 203.159  14.590  1.00  0.00    -0.388 OA
ATOM      9  H   UNL     1      18.325 204.132  14.434  1.00  0.00     0.211 HD
ENDBRANCH   1   8
TORSDOF 5
ENDMDL
MODEL 9
REMARK VINA RESULT:    -2.908      1.924      3.430
REMARK INTER + INTRA:          -3.506
REMARK INTER:                  -3.282
REMARK INTRA:                  -0.223
REMARK UNBOUND:                -0.003
REMARK SMILES OCC(O)CO
REMARK SMILES IDX 3 1 5 2 6 3 2 5 1 6 4 8
REMARK H PARENT 6 4 1 7 4 9
REMARK Flexibility Score: inf
ROOT
ATOM      1  C   UNL     1      20.599 202.914  15.089  1.00  0.00     0.165 C 
ENDROOT
BRANCH   1   2
ATOM      2  C   UNL     1      20.171 201.740  15.985  1.00  0.00     0.190 C 
BRANCH   2   3
ATOM      3  O   UNL     1      19.742 200.643  15.222  1.00  0.00    -0.394 OA
ATOM      4  H   UNL     1      19.466 200.999  14.338  1.00  0.00     0.210 HD
ENDBRANCH   2   3
ENDBRANCH   1   2
BRANCH   1   5
ATOM      5  C   UNL     1      19.423 203.847  14.759  1.00  0.00     0.190 C 
BRANCH   5   6
ATOM      6  O   UNL     1      18.255 203.106  14.529  1.00  0.00    -0.394 OA
ATOM      7  H   UNL     1      17.506 203.665  14.860  1.00  0.00     0.210 HD
ENDBRANCH   5   6
ENDBRANCH   1   5
BRANCH   1   8
ATOM      8  O   UNL     1      21.635 203.631  15.711  1.00  0.00    -0.388 OA
ATOM      9  H   UNL     1      22.388 203.665  15.065  1.00  0.00     0.211 HD
ENDBRANCH   1   8
TORSDOF 5
ENDMDL
