MODEL 1
REMARK VINA RESULT:     5.926      0.000      0.000
REMARK INTER + INTRA:           7.433
REMARK INTER:                   7.832
REMARK INTRA:                  -0.399
REMARK UNBOUND:                -0.399
REMARK SMILES CC[C@@H](C=C[C@@H](C)[C@@H]1CC[C@@H]2[C@@H]3CC=C4C[C@@H](O)CC[C@]4(C)[C@H]3CC[C@]21C)C(C)C
REMARK SMILES IDX 6 1 7 2 5 3 4 4 3 5 2 6 1 7 28 8 29 9 30 10 8 11 9 12 26 13
REMARK SMILES IDX 10 14 11 15 25 16 27 17 12 18 24 19 23 20 13 21 21 22 14 23
REMARK SMILES IDX 15 24 20 25 22 26 16 27 19 28 17 29 18 30
REMARK H PARENT 18 31
REMARK Flexibility Score: inf
ROOT
ATOM      1  C   UNL     1      77.956  35.629  50.541  1.00  0.00     0.012 C 
ATOM      2  C   UNL     1      78.254  36.125  49.115  1.00  0.00     0.012 C 
ENDROOT
BRANCH   1   3
ATOM      3  C   UNL     1      78.952  34.560  50.939  1.00  0.00    -0.028 C 
ATOM      4  C   UNL     1      80.213  34.529  50.472  1.00  0.00    -0.027 C 
BRANCH   4   5
ATOM      5  C   UNL     1      81.176  33.422  50.869  1.00  0.00     0.014 C 
BRANCH   5   6
ATOM      6  C   UNL     1      80.922  32.167  49.995  1.00  0.00     0.004 C 
ATOM      7  C   UNL     1      81.057  32.435  48.496  1.00  0.00     0.004 C 
ENDBRANCH   5   6
BRANCH   5   8
ATOM      8  C   UNL     1      81.153  33.134  52.406  1.00  0.00    -0.011 C 
ATOM      9  C   UNL     1      80.225  31.974  52.805  1.00  0.00     0.008 C 
ATOM     10  C   UNL     1      80.811  34.394  53.218  1.00  0.00     0.008 C 
ENDBRANCH   5   8
ENDBRANCH   4   5
ENDBRANCH   1   3
BRANCH   1  11
ATOM     11  C   UNL     1      76.482  35.133  50.688  1.00  0.00     0.002 C 
ATOM     12  C   UNL     1      75.447  36.125  50.091  1.00  0.00     0.005 C 
ATOM     13  C   UNL     1      75.962  34.867  52.137  1.00  0.00    -0.026 C 
ATOM     14  C   UNL     1      74.167  36.005  50.936  1.00  0.00     0.005 C 
ATOM     15  C   UNL     1      74.449  34.832  51.865  1.00  0.00    -0.001 C 
ATOM     16  C   UNL     1      76.394  33.490  52.747  1.00  0.00     0.007 C 
ATOM     17  C   UNL     1      76.386  36.047  53.071  1.00  0.00     0.012 C 
ATOM     18  C   UNL     1      73.534  34.563  53.092  1.00  0.00     0.000 C 
ATOM     19  C   UNL     1      75.273  32.744  53.532  1.00  0.00     0.005 C 
ATOM     20  C   UNL     1      74.259  33.723  54.184  1.00  0.00     0.003 C 
ATOM     21  C   UNL     1      72.882  35.789  53.737  1.00  0.00     0.031 C 
ATOM     22  C   UNL     1      73.210  33.126  55.191  1.00  0.00    -0.008 C 
ATOM     23  C   UNL     1      72.157  35.436  55.018  1.00  0.00    -0.027 C 
ATOM     24  C   UNL     1      72.348  34.288  55.724  1.00  0.00    -0.065 C 
ATOM     25  C   UNL     1      73.950  32.482  56.400  1.00  0.00     0.014 C 
ATOM     26  C   UNL     1      72.308  32.062  54.506  1.00  0.00     0.016 C 
ATOM     27  C   UNL     1      71.855  34.279  57.159  1.00  0.00     0.063 C 
ATOM     28  C   UNL     1      73.026  32.012  57.546  1.00  0.00     0.033 C 
ATOM     29  C   UNL     1      71.764  32.876  57.778  1.00  0.00     0.118 C 
BRANCH  29  30
ATOM     30  O   UNL     1      70.629  32.208  57.287  1.00  0.00    -0.393 OA
ATOM     31  H   UNL     1      70.247  31.687  58.041  1.00  0.00     0.210 HD
ENDBRANCH  29  30
ENDBRANCH   1  11
TORSDOF 6
ENDMDL
MODEL 2
REMARK VINA RESULT:     6.908      0.641      1.717
REMARK INTER + INTRA:           8.730
REMARK INTER:                   8.856
REMARK INTRA:                  -0.126
REMARK UNBOUND:                -0.399
REMARK SMILES CC[C@@H](C=C[C@@H](C)[C@@H]1CC[C@@H]2[C@@H]3CC=C4C[C@@H](O)CC[C@]4(C)[C@H]3CC[C@]21C)C(C)C
REMARK SMILES IDX 6 1 7 2 5 3 4 4 3 5 2 6 1 7 28 8 29 9 30 10 8 11 9 12 26 13
REMARK SMILES IDX 10 14 11 15 25 16 27 17 12 18 24 19 23 20 13 21 21 22 14 23
REMARK SMILES IDX 15 24 20 25 22 26 16 27 19 28 17 29 18 30
REMARK H PARENT 18 31
REMARK Flexibility Score: inf
ROOT
ATOM      1  C   UNL     1      77.722  35.514  50.675  1.00  0.00     0.012 C 
ATOM      2  C   UNL     1      78.124  35.636  49.194  1.00  0.00     0.012 C 
ENDROOT
BRANCH   1   3
ATOM      3  C   UNL     1      78.665  34.571  51.393  1.00  0.00    -0.028 C 
ATOM      4  C   UNL     1      79.794  34.986  51.994  1.00  0.00    -0.027 C 
BRANCH   4   5
ATOM      5  C   UNL     1      80.732  34.005  52.678  1.00  0.00     0.014 C 
BRANCH   5   6
ATOM      6  C   UNL     1      82.050  34.723  53.068  1.00  0.00     0.004 C 
ATOM      7  C   UNL     1      81.885  35.704  54.229  1.00  0.00     0.004 C 
ENDBRANCH   5   6
BRANCH   5   8
ATOM      8  C   UNL     1      80.948  32.703  51.840  1.00  0.00    -0.011 C 
ATOM      9  C   UNL     1      81.043  32.950  50.325  1.00  0.00     0.008 C 
ATOM     10  C   UNL     1      79.874  31.645  52.142  1.00  0.00     0.008 C 
ENDBRANCH   5   8
ENDBRANCH   4   5
ENDBRANCH   1   3
BRANCH   1  11
ATOM     11  C   UNL     1      76.231  35.080  50.839  1.00  0.00     0.002 C 
ATOM     12  C   UNL     1      75.231  36.125  50.274  1.00  0.00     0.005 C 
ATOM     13  C   UNL     1      75.722  34.816  52.293  1.00  0.00    -0.026 C 
ATOM     14  C   UNL     1      73.961  36.048  51.138  1.00  0.00     0.005 C 
ATOM     15  C   UNL     1      74.205  34.851  52.045  1.00  0.00    -0.001 C 
ATOM     16  C   UNL     1      76.104  33.413  52.877  1.00  0.00     0.007 C 
ATOM     17  C   UNL     1      76.213  35.963  53.237  1.00  0.00     0.012 C 
ATOM     18  C   UNL     1      73.300  34.605  53.284  1.00  0.00     0.000 C 
ATOM     19  C   UNL     1      74.964  32.705  53.670  1.00  0.00     0.005 C 
ATOM     20  C   UNL     1      74.004  33.718  54.352  1.00  0.00     0.003 C 
ATOM     21  C   UNL     1      72.712  35.848  53.957  1.00  0.00     0.031 C 
ATOM     22  C   UNL     1      72.946  33.153  55.368  1.00  0.00    -0.008 C 
ATOM     23  C   UNL     1      71.992  35.508  55.244  1.00  0.00    -0.027 C 
ATOM     24  C   UNL     1      72.144  34.343  55.931  1.00  0.00    -0.065 C 
ATOM     25  C   UNL     1      73.676  32.459  56.555  1.00  0.00     0.014 C 
ATOM     26  C   UNL     1      71.988  32.139  54.683  1.00  0.00     0.016 C 
ATOM     27  C   UNL     1      71.674  34.335  57.374  1.00  0.00     0.063 C 
ATOM     28  C   UNL     1      72.751  32.014  57.710  1.00  0.00     0.033 C 
ATOM     29  C   UNL     1      71.531  32.928  57.974  1.00  0.00     0.118 C 
BRANCH  29  30
ATOM     30  O   UNL     1      70.361  32.317  57.493  1.00  0.00    -0.393 OA
ATOM     31  H   UNL     1      69.769  33.041  57.158  1.00  0.00     0.210 HD
ENDBRANCH  29  30
ENDBRANCH   1  11
TORSDOF 6
ENDMDL
MODEL 3
REMARK VINA RESULT:     8.464      2.861      8.496
REMARK INTER + INTRA:          10.787
REMARK INTER:                  11.637
REMARK INTRA:                  -0.850
REMARK UNBOUND:                -0.399
REMARK SMILES CC[C@@H](C=C[C@@H](C)[C@@H]1CC[C@@H]2[C@@H]3CC=C4C[C@@H](O)CC[C@]4(C)[C@H]3CC[C@]21C)C(C)C
REMARK SMILES IDX 6 1 7 2 5 3 4 4 3 5 2 6 1 7 28 8 29 9 30 10 8 11 9 12 26 13
REMARK SMILES IDX 10 14 11 15 25 16 27 17 12 18 24 19 23 20 13 21 21 22 14 23
REMARK SMILES IDX 15 24 20 25 22 26 16 27 19 28 17 29 18 30
REMARK H PARENT 18 31
REMARK Flexibility Score: inf
ROOT
ATOM      1  C   UNL     1      72.692  33.736  53.357  1.00  0.00     0.012 C 
ATOM      2  C   UNL     1      71.784  34.893  52.902  1.00  0.00     0.012 C 
ENDROOT
BRANCH   1   3
ATOM      3  C   UNL     1      72.089  33.045  54.562  1.00  0.00    -0.028 C 
ATOM      4  C   UNL     1      71.930  33.656  55.750  1.00  0.00    -0.027 C 
BRANCH   4   5
ATOM      5  C   UNL     1      71.350  32.920  56.946  1.00  0.00     0.014 C 
BRANCH   5   6
ATOM      6  C   UNL     1      70.359  33.843  57.700  1.00  0.00     0.004 C 
ATOM      7  C   UNL     1      69.235  34.380  56.813  1.00  0.00     0.004 C 
ENDBRANCH   5   6
BRANCH   5   8
ATOM      8  C   UNL     1      72.457  32.303  57.862  1.00  0.00    -0.011 C 
ATOM      9  C   UNL     1      72.669  33.069  59.179  1.00  0.00     0.008 C 
ATOM     10  C   UNL     1      73.792  32.146  57.116  1.00  0.00     0.008 C 
ENDBRANCH   5   8
ENDBRANCH   4   5
ENDBRANCH   1   3
BRANCH   1  11
ATOM     11  C   UNL     1      74.151  34.219  53.636  1.00  0.00     0.002 C 
ATOM     12  C   UNL     1      74.277  35.766  53.691  1.00  0.00     0.005 C 
ATOM     13  C   UNL     1      75.251  33.786  52.613  1.00  0.00    -0.026 C 
ATOM     14  C   UNL     1      75.677  36.125  53.164  1.00  0.00     0.005 C 
ATOM     15  C   UNL     1      76.363  34.777  52.996  1.00  0.00    -0.001 C 
ATOM     16  C   UNL     1      75.790  32.327  52.809  1.00  0.00     0.007 C 
ATOM     17  C   UNL     1      74.724  33.994  51.156  1.00  0.00     0.012 C 
ATOM     18  C   UNL     1      77.691  34.664  52.197  1.00  0.00     0.000 C 
ATOM     19  C   UNL     1      77.334  32.177  52.655  1.00  0.00     0.005 C 
ATOM     20  C   UNL     1      77.933  33.219  51.673  1.00  0.00     0.003 C 
ATOM     21  C   UNL     1      77.885  35.663  51.053  1.00  0.00     0.031 C 
ATOM     22  C   UNL     1      79.436  33.043  51.246  1.00  0.00    -0.008 C 
ATOM     23  C   UNL     1      79.123  35.358  50.237  1.00  0.00    -0.027 C 
ATOM     24  C   UNL     1      79.783  34.167  50.250  1.00  0.00    -0.065 C 
ATOM     25  C   UNL     1      79.619  31.680  50.517  1.00  0.00     0.014 C 
ATOM     26  C   UNL     1      80.385  33.107  52.476  1.00  0.00     0.016 C 
ATOM     27  C   UNL     1      80.735  33.902  49.099  1.00  0.00     0.063 C 
ATOM     28  C   UNL     1      81.017  31.464  49.895  1.00  0.00     0.033 C 
ATOM     29  C   UNL     1      81.704  32.738  49.348  1.00  0.00     0.118 C 
BRANCH  29  30
ATOM     30  O   UNL     1      82.728  33.143  50.222  1.00  0.00    -0.393 OA
ATOM     31  H   UNL     1      83.314  33.765  49.717  1.00  0.00     0.210 HD
ENDBRANCH  29  30
ENDBRANCH   1  11
TORSDOF 6
ENDMDL
