MODEL 1
REMARK VINA RESULT:    -3.243      0.000      0.000
REMARK INTER + INTRA:          -4.782
REMARK INTER:                  -4.380
REMARK INTRA:                  -0.402
REMARK UNBOUND:                -0.402
REMARK SMILES CCCCCCCC(=O)[O-]
REMARK SMILES IDX 5 1 6 2 7 3 8 4 9 5 10 6 4 7 3 8 2 9 1 10
REMARK H PARENT
REMARK Flexibility Score: inf
ROOT
ATOM      1  C   UNL     1      -0.805   0.813   7.961  1.00  0.00     0.000 C 
ENDROOT
BRANCH   1   2
ATOM      2  C   UNL     1      -1.985   0.718   8.939  1.00  0.00     0.006 C 
BRANCH   2   3
ATOM      3  C   UNL     1      -2.528  -0.712   9.005  1.00  0.00     0.053 C 
BRANCH   3   4
ATOM      4  C   UNL     1      -3.992  -0.733   8.694  1.00  0.00     0.041 C 
ATOM      5  O   UNL     1      -4.576   0.320   8.327  1.00  0.00    -0.550 OA
ATOM      6  O   UNL     1      -4.721  -1.904   8.858  1.00  0.00    -0.550 OA
ENDBRANCH   3   4
ENDBRANCH   2   3
ENDBRANCH   1   2
BRANCH   1   7
ATOM      7  C   UNL     1      -0.079  -0.529   7.773  1.00  0.00     0.000 C 
BRANCH   7   8
ATOM      8  C   UNL     1       1.170  -0.655   8.664  1.00  0.00    -0.000 C 
BRANCH   8   9
ATOM      9  C   UNL     1       1.558  -2.117   8.928  1.00  0.00    -0.003 C 
ATOM     10  C   UNL     1       0.522  -3.111   8.402  1.00  0.00     0.004 C 
ENDBRANCH   8   9
ENDBRANCH   7   8
ENDBRANCH   1   7
TORSDOF 6
ENDMDL
MODEL 2
REMARK VINA RESULT:    -3.227     10.873     11.657
REMARK INTER + INTRA:          -4.761
REMARK INTER:                  -4.531
REMARK INTRA:                  -0.230
REMARK UNBOUND:                -0.402
REMARK SMILES CCCCCCCC(=O)[O-]
REMARK SMILES IDX 5 1 6 2 7 3 8 4 9 5 10 6 4 7 3 8 2 9 1 10
REMARK H PARENT
REMARK Flexibility Score: inf
ROOT
ATOM      1  C   UNL     1       1.231  -2.116  -2.227  1.00  0.00     0.000 C 
ENDROOT
BRANCH   1   2
ATOM      2  C   UNL     1       0.429  -3.393  -2.519  1.00  0.00     0.006 C 
BRANCH   2   3
ATOM      3  C   UNL     1       0.835  -4.524  -1.570  1.00  0.00     0.053 C 
BRANCH   3   4
ATOM      4  C   UNL     1      -0.330  -4.950  -0.733  1.00  0.00     0.041 C 
ATOM      5  O   UNL     1      -0.273  -4.864   0.522  1.00  0.00    -0.550 OA
ATOM      6  O   UNL     1      -1.459  -5.491  -1.335  1.00  0.00    -0.550 OA
ENDBRANCH   3   4
ENDBRANCH   2   3
ENDBRANCH   1   2
BRANCH   1   7
ATOM      7  C   UNL     1       1.244  -1.138  -3.413  1.00  0.00     0.000 C 
BRANCH   7   8
ATOM      8  C   UNL     1       2.666  -0.853  -3.928  1.00  0.00    -0.000 C 
BRANCH   8   9
ATOM      9  C   UNL     1       3.736  -1.068  -2.847  1.00  0.00    -0.003 C 
ATOM     10  C   UNL     1       5.129  -0.621  -3.293  1.00  0.00     0.004 C 
ENDBRANCH   8   9
ENDBRANCH   7   8
ENDBRANCH   1   7
TORSDOF 6
ENDMDL
MODEL 3
REMARK VINA RESULT:    -3.162      4.807      6.321
REMARK INTER + INTRA:          -4.673
REMARK INTER:                  -4.347
REMARK INTRA:                  -0.326
REMARK UNBOUND:                -0.402
REMARK SMILES CCCCCCCC(=O)[O-]
REMARK SMILES IDX 5 1 6 2 7 3 8 4 9 5 10 6 4 7 3 8 2 9 1 10
REMARK H PARENT
REMARK Flexibility Score: inf
ROOT
ATOM      1  C   UNL     1       1.849   0.423   9.490  1.00  0.00     0.000 C 
ENDROOT
BRANCH   1   2
ATOM      2  C   UNL     1       3.163   1.058   9.013  1.00  0.00     0.006 C 
BRANCH   2   3
ATOM      3  C   UNL     1       2.934   2.490   8.523  1.00  0.00     0.053 C 
BRANCH   3   4
ATOM      4  C   UNL     1       4.006   2.895   7.561  1.00  0.00     0.041 C 
ATOM      5  O   UNL     1       5.097   2.267   7.528  1.00  0.00    -0.550 OA
ATOM      6  O   UNL     1       3.821   3.997   6.736  1.00  0.00    -0.550 OA
ENDBRANCH   3   4
ENDBRANCH   2   3
ENDBRANCH   1   2
BRANCH   1   7
ATOM      7  C   UNL     1       1.623  -0.983   8.911  1.00  0.00     0.000 C 
BRANCH   7   8
ATOM      8  C   UNL     1       0.270  -1.114   8.189  1.00  0.00    -0.000 C 
BRANCH   8   9
ATOM      9  C   UNL     1      -0.251   0.234   7.668  1.00  0.00    -0.003 C 
ATOM     10  C   UNL     1      -1.638   0.583   8.207  1.00  0.00     0.004 C 
ENDBRANCH   8   9
ENDBRANCH   7   8
ENDBRANCH   1   7
TORSDOF 6
ENDMDL
MODEL 4
REMARK VINA RESULT:    -3.160      8.637     10.319
REMARK INTER + INTRA:          -4.670
REMARK INTER:                  -4.246
REMARK INTRA:                  -0.424
REMARK UNBOUND:                -0.402
REMARK SMILES CCCCCCCC(=O)[O-]
REMARK SMILES IDX 5 1 6 2 7 3 8 4 9 5 10 6 4 7 3 8 2 9 1 10
REMARK H PARENT
REMARK Flexibility Score: inf
ROOT
ATOM      1  C   UNL     1      -9.126  -6.790   5.213  1.00  0.00     0.000 C 
ENDROOT
BRANCH   1   2
ATOM      2  C   UNL     1      -9.474  -6.542   3.737  1.00  0.00     0.006 C 
BRANCH   2   3
ATOM      3  C   UNL     1      -9.361  -7.834   2.923  1.00  0.00     0.053 C 
BRANCH   3   4
ATOM      4  C   UNL     1      -8.014  -7.934   2.280  1.00  0.00     0.041 C 
ATOM      5  O   UNL     1      -7.014  -8.288   2.959  1.00  0.00    -0.550 OA
ATOM      6  O   UNL     1      -7.852  -7.586   0.945  1.00  0.00    -0.550 OA
ENDBRANCH   3   4
ENDBRANCH   2   3
ENDBRANCH   1   2
BRANCH   1   7
ATOM      7  C   UNL     1      -8.244  -5.683   5.810  1.00  0.00     0.000 C 
BRANCH   7   8
ATOM      8  C   UNL     1      -7.415  -4.947   4.742  1.00  0.00    -0.000 C 
BRANCH   8   9
ATOM      9  C   UNL     1      -5.921  -4.885   5.097  1.00  0.00    -0.003 C 
ATOM     10  C   UNL     1      -5.245  -6.256   5.065  1.00  0.00     0.004 C 
ENDBRANCH   8   9
ENDBRANCH   7   8
ENDBRANCH   1   7
TORSDOF 6
ENDMDL
MODEL 5
REMARK VINA RESULT:    -3.157      3.500      4.439
REMARK INTER + INTRA:          -4.667
REMARK INTER:                  -4.273
REMARK INTRA:                  -0.393
REMARK UNBOUND:                -0.402
REMARK SMILES CCCCCCCC(=O)[O-]
REMARK SMILES IDX 5 1 6 2 7 3 8 4 9 5 10 6 4 7 3 8 2 9 1 10
REMARK H PARENT
REMARK Flexibility Score: inf
ROOT
ATOM      1  C   UNL     1      -1.144   0.453   8.165  1.00  0.00     0.000 C 
ENDROOT
BRANCH   1   2
ATOM      2  C   UNL     1      -0.736   1.895   8.503  1.00  0.00     0.006 C 
BRANCH   2   3
ATOM      3  C   UNL     1       0.719   2.160   8.104  1.00  0.00     0.053 C 
BRANCH   3   4
ATOM      4  C   UNL     1       0.866   3.538   7.541  1.00  0.00     0.041 C 
ATOM      5  O   UNL     1       1.812   3.803   6.754  1.00  0.00    -0.550 OA
ATOM      6  O   UNL     1      -0.012   4.544   7.924  1.00  0.00    -0.550 OA
ENDBRANCH   3   4
ENDBRANCH   2   3
ENDBRANCH   1   2
BRANCH   1   7
ATOM      7  C   UNL     1       0.043  -0.410   7.711  1.00  0.00     0.000 C 
BRANCH   7   8
ATOM      8  C   UNL     1       0.026  -1.815   8.338  1.00  0.00    -0.000 C 
BRANCH   8   9
ATOM      9  C   UNL     1       1.414  -2.258   8.826  1.00  0.00    -0.003 C 
ATOM     10  C   UNL     1       2.281  -1.088   9.292  1.00  0.00     0.004 C 
ENDBRANCH   8   9
ENDBRANCH   7   8
ENDBRANCH   1   7
TORSDOF 6
ENDMDL
MODEL 6
REMARK VINA RESULT:    -3.090      1.348      2.111
REMARK INTER + INTRA:          -4.576
REMARK INTER:                  -4.256
REMARK INTRA:                  -0.320
REMARK UNBOUND:                -0.402
REMARK SMILES CCCCCCCC(=O)[O-]
REMARK SMILES IDX 5 1 6 2 7 3 8 4 9 5 10 6 4 7 3 8 2 9 1 10
REMARK H PARENT
REMARK Flexibility Score: inf
ROOT
ATOM      1  C   UNL     1      -1.544   0.716   8.376  1.00  0.00     0.000 C 
ENDROOT
BRANCH   1   2
ATOM      2  C   UNL     1      -2.513  -0.389   8.821  1.00  0.00     0.006 C 
BRANCH   2   3
ATOM      3  C   UNL     1      -3.945  -0.072   8.382  1.00  0.00     0.053 C 
BRANCH   3   4
ATOM      4  C   UNL     1      -4.659   0.707   9.441  1.00  0.00     0.041 C 
ATOM      5  O   UNL     1      -5.111   0.123  10.460  1.00  0.00    -0.550 OA
ATOM      6  O   UNL     1      -4.869   2.071   9.279  1.00  0.00    -0.550 OA
ENDBRANCH   3   4
ENDBRANCH   2   3
ENDBRANCH   1   2
BRANCH   1   7
ATOM      7  C   UNL     1      -0.274   0.161   7.711  1.00  0.00     0.000 C 
BRANCH   7   8
ATOM      8  C   UNL     1       0.060  -1.267   8.177  1.00  0.00    -0.000 C 
BRANCH   8   9
ATOM      9  C   UNL     1       1.445  -1.362   8.835  1.00  0.00    -0.003 C 
ATOM     10  C   UNL     1       2.070   0.007   9.103  1.00  0.00     0.004 C 
ENDBRANCH   8   9
ENDBRANCH   7   8
ENDBRANCH   1   7
TORSDOF 6
ENDMDL
MODEL 7
REMARK VINA RESULT:    -3.088      3.153      4.717
REMARK INTER + INTRA:          -4.573
REMARK INTER:                  -4.198
REMARK INTRA:                  -0.375
REMARK UNBOUND:                -0.402
REMARK SMILES CCCCCCCC(=O)[O-]
REMARK SMILES IDX 5 1 6 2 7 3 8 4 9 5 10 6 4 7 3 8 2 9 1 10
REMARK H PARENT
REMARK Flexibility Score: inf
ROOT
ATOM      1  C   UNL     1      -1.354   0.913   8.510  1.00  0.00     0.000 C 
ENDROOT
BRANCH   1   2
ATOM      2  C   UNL     1      -0.284   0.226   7.648  1.00  0.00     0.006 C 
BRANCH   2   3
ATOM      3  C   UNL     1       0.063  -1.158   8.204  1.00  0.00     0.053 C 
BRANCH   3   4
ATOM      4  C   UNL     1       1.449  -1.165   8.767  1.00  0.00     0.041 C 
ATOM      5  O   UNL     1       2.049  -0.081   8.986  1.00  0.00    -0.550 OA
ATOM      6  O   UNL     1       2.098  -2.371   9.001  1.00  0.00    -0.550 OA
ENDBRANCH   3   4
ENDBRANCH   2   3
ENDBRANCH   1   2
BRANCH   1   7
ATOM      7  C   UNL     1      -2.341  -0.084   9.139  1.00  0.00     0.000 C 
BRANCH   7   8
ATOM      8  C   UNL     1      -3.701  -0.101   8.419  1.00  0.00    -0.000 C 
BRANCH   8   9
ATOM      9  C   UNL     1      -4.529  -1.350   8.756  1.00  0.00    -0.003 C 
ATOM     10  C   UNL     1      -3.714  -2.426   9.474  1.00  0.00     0.004 C 
ENDBRANCH   8   9
ENDBRANCH   7   8
ENDBRANCH   1   7
TORSDOF 6
ENDMDL
MODEL 8
REMARK VINA RESULT:    -3.075      3.859      5.587
REMARK INTER + INTRA:          -4.556
REMARK INTER:                  -4.073
REMARK INTRA:                  -0.482
REMARK UNBOUND:                -0.402
REMARK SMILES CCCCCCCC(=O)[O-]
REMARK SMILES IDX 5 1 6 2 7 3 8 4 9 5 10 6 4 7 3 8 2 9 1 10
REMARK H PARENT
REMARK Flexibility Score: inf
ROOT
ATOM      1  C   UNL     1       1.509  -1.471   8.832  1.00  0.00     0.000 C 
ENDROOT
BRANCH   1   2
ATOM      2  C   UNL     1       1.843  -0.258   9.713  1.00  0.00     0.006 C 
BRANCH   2   3
ATOM      3  C   UNL     1       3.232   0.294   9.381  1.00  0.00     0.053 C 
BRANCH   3   4
ATOM      4  C   UNL     1       3.126   1.673   8.810  1.00  0.00     0.041 C 
ATOM      5  O   UNL     1       2.113   2.381   9.049  1.00  0.00    -0.550 OA
ATOM      6  O   UNL     1       4.122   2.157   7.971  1.00  0.00    -0.550 OA
ENDBRANCH   3   4
ENDBRANCH   2   3
ENDBRANCH   1   2
BRANCH   1   7
ATOM      7  C   UNL     1       0.138  -1.347   8.147  1.00  0.00     0.000 C 
BRANCH   7   8
ATOM      8  C   UNL     1      -0.145   0.079   7.645  1.00  0.00    -0.000 C 
BRANCH   8   9
ATOM      9  C   UNL     1      -1.506   0.611   8.120  1.00  0.00    -0.003 C 
ATOM     10  C   UNL     1      -1.380   1.680   9.206  1.00  0.00     0.004 C 
ENDBRANCH   8   9
ENDBRANCH   7   8
ENDBRANCH   1   7
TORSDOF 6
ENDMDL
MODEL 9
REMARK VINA RESULT:    -3.048      4.023      5.638
REMARK INTER + INTRA:          -4.519
REMARK INTER:                  -4.205
REMARK INTRA:                  -0.314
REMARK UNBOUND:                -0.402
REMARK SMILES CCCCCCCC(=O)[O-]
REMARK SMILES IDX 5 1 6 2 7 3 8 4 9 5 10 6 4 7 3 8 2 9 1 10
REMARK H PARENT
REMARK Flexibility Score: inf
ROOT
ATOM      1  C   UNL     1      -0.097  -1.386   8.140  1.00  0.00     0.000 C 
ENDROOT
BRANCH   1   2
ATOM      2  C   UNL     1       1.254  -1.728   8.784  1.00  0.00     0.006 C 
BRANCH   2   3
ATOM      3  C   UNL     1       2.013  -0.456   9.175  1.00  0.00     0.053 C 
BRANCH   3   4
ATOM      4  C   UNL     1       3.342  -0.799   9.770  1.00  0.00     0.041 C 
ATOM      5  O   UNL     1       3.483  -1.859  10.434  1.00  0.00    -0.550 OA
ATOM      6  O   UNL     1       4.411   0.076   9.635  1.00  0.00    -0.550 OA
ENDBRANCH   3   4
ENDBRANCH   2   3
ENDBRANCH   1   2
BRANCH   1   7
ATOM      7  C   UNL     1      -0.193   0.085   7.705  1.00  0.00     0.000 C 
BRANCH   7   8
ATOM      8  C   UNL     1      -1.509   0.748   8.150  1.00  0.00    -0.000 C 
BRANCH   8   9
ATOM      9  C   UNL     1      -2.454  -0.237   8.855  1.00  0.00    -0.003 C 
ATOM     10  C   UNL     1      -3.912  -0.074   8.423  1.00  0.00     0.004 C 
ENDBRANCH   8   9
ENDBRANCH   7   8
ENDBRANCH   1   7
TORSDOF 6
ENDMDL
