MODEL 1
REMARK VINA RESULT:    -3.134      0.000      0.000
REMARK INTER + INTRA:          -5.301
REMARK INTER:                  -4.784
REMARK INTRA:                  -0.518
REMARK UNBOUND:                -0.518
REMARK SMILES O=C([O-])CCCCCCCCC(=O)[O-]
REMARK SMILES IDX 7 1 6 2 5 3 4 4 2 5 1 6 3 7 8 8 9 9 10 10 11 11 12 12 13 13
REMARK SMILES IDX 14 14
REMARK H PARENT
REMARK Flexibility Score: inf
ROOT
ATOM      1  C   UNL     1     -16.454  15.810  -7.147  1.00  0.00     0.000 C 
ENDROOT
BRANCH   1   2
ATOM      2  C   UNL     1     -17.022  16.638  -8.318  1.00  0.00     0.000 C 
BRANCH   2   3
ATOM      3  C   UNL     1     -15.922  17.351  -9.118  1.00  0.00     0.006 C 
BRANCH   3   4
ATOM      4  C   UNL     1     -16.410  18.705  -9.641  1.00  0.00     0.053 C 
BRANCH   4   5
ATOM      5  C   UNL     1     -15.909  18.941 -11.031  1.00  0.00     0.041 C 
ATOM      6  O   UNL     1     -16.216  18.147 -11.958  1.00  0.00    -0.550 OA
ATOM      7  O   UNL     1     -15.062  20.011 -11.292  1.00  0.00    -0.550 OA
ENDBRANCH   4   5
ENDBRANCH   3   4
ENDBRANCH   2   3
ENDBRANCH   1   2
BRANCH   1   8
ATOM      8  C   UNL     1     -16.585  14.287  -7.341  1.00  0.00     0.000 C 
BRANCH   8   9
ATOM      9  C   UNL     1     -15.332  13.477  -6.965  1.00  0.00     0.000 C 
BRANCH   9  10
ATOM     10  C   UNL     1     -14.464  13.123  -8.182  1.00  0.00     0.006 C 
BRANCH  10  11
ATOM     11  C   UNL     1     -15.260  13.273  -9.482  1.00  0.00     0.053 C 
BRANCH  11  12
ATOM     12  C   UNL     1     -14.585  12.540 -10.597  1.00  0.00     0.041 C 
ATOM     13  O   UNL     1     -14.251  11.334 -10.453  1.00  0.00    -0.550 OA
ATOM     14  O   UNL     1     -14.278  13.203 -11.779  1.00  0.00    -0.550 OA
ENDBRANCH  11  12
ENDBRANCH  10  11
ENDBRANCH   9  10
ENDBRANCH   8   9
ENDBRANCH   1   8
TORSDOF 9
ENDMDL
MODEL 2
REMARK VINA RESULT:    -3.008      2.209      3.283
REMARK INTER + INTRA:          -5.109
REMARK INTER:                  -4.768
REMARK INTRA:                  -0.341
REMARK UNBOUND:                -0.518
REMARK SMILES O=C([O-])CCCCCCCCC(=O)[O-]
REMARK SMILES IDX 7 1 6 2 5 3 4 4 2 5 1 6 3 7 8 8 9 9 10 10 11 11 12 12 13 13
REMARK SMILES IDX 14 14
REMARK H PARENT
REMARK Flexibility Score: inf
ROOT
ATOM      1  C   UNL     1     -16.475  17.717  -9.872  1.00  0.00     0.000 C 
ENDROOT
BRANCH   1   2
ATOM      2  C   UNL     1     -16.763  19.230  -9.772  1.00  0.00     0.000 C 
BRANCH   2   3
ATOM      3  C   UNL     1     -16.415  19.978 -11.067  1.00  0.00     0.006 C 
BRANCH   3   4
ATOM      4  C   UNL     1     -15.035  19.567 -11.587  1.00  0.00     0.053 C 
BRANCH   4   5
ATOM      5  C   UNL     1     -14.278  20.764 -12.069  1.00  0.00     0.041 C 
ATOM      6  O   UNL     1     -14.805  21.907 -12.022  1.00  0.00    -0.550 OA
ATOM      7  O   UNL     1     -13.010  20.611 -12.615  1.00  0.00    -0.550 OA
ENDBRANCH   4   5
ENDBRANCH   3   4
ENDBRANCH   2   3
ENDBRANCH   1   2
BRANCH   1   8
ATOM      8  C   UNL     1     -15.652  17.160  -8.695  1.00  0.00     0.000 C 
BRANCH   8   9
ATOM      9  C   UNL     1     -16.426  16.230  -7.746  1.00  0.00     0.000 C 
BRANCH   9  10
ATOM     10  C   UNL     1     -16.751  14.869  -8.379  1.00  0.00     0.006 C 
BRANCH  10  11
ATOM     11  C   UNL     1     -15.473  14.059  -8.617  1.00  0.00     0.053 C 
BRANCH  11  12
ATOM     12  C   UNL     1     -15.112  13.279  -7.393  1.00  0.00     0.041 C 
ATOM     13  O   UNL     1     -15.952  13.130  -6.465  1.00  0.00    -0.550 OA
ATOM     14  O   UNL     1     -13.832  12.757  -7.252  1.00  0.00    -0.550 OA
ENDBRANCH  11  12
ENDBRANCH  10  11
ENDBRANCH   9  10
ENDBRANCH   8   9
ENDBRANCH   1   8
TORSDOF 9
ENDMDL
MODEL 3
REMARK VINA RESULT:    -2.961      1.717      6.481
REMARK INTER + INTRA:          -5.036
REMARK INTER:                  -4.626
REMARK INTRA:                  -0.410
REMARK UNBOUND:                -0.518
REMARK SMILES O=C([O-])CCCCCCCCC(=O)[O-]
REMARK SMILES IDX 7 1 6 2 5 3 4 4 2 5 1 6 3 7 8 8 9 9 10 10 11 11 12 12 13 13
REMARK SMILES IDX 14 14
REMARK H PARENT
REMARK Flexibility Score: inf
ROOT
ATOM      1  C   UNL     1     -15.696  16.940  -8.573  1.00  0.00     0.000 C 
ENDROOT
BRANCH   1   2
ATOM      2  C   UNL     1     -16.407  16.089  -7.500  1.00  0.00     0.000 C 
BRANCH   2   3
ATOM      3  C   UNL     1     -16.669  14.651  -7.974  1.00  0.00     0.006 C 
BRANCH   3   4
ATOM      4  C   UNL     1     -15.924  14.357  -9.279  1.00  0.00     0.053 C 
BRANCH   4   5
ATOM      5  C   UNL     1     -14.889  13.298  -9.063  1.00  0.00     0.041 C 
ATOM      6  O   UNL     1     -14.535  12.556 -10.016  1.00  0.00    -0.550 OA
ATOM      7  O   UNL     1     -14.352  13.099  -7.798  1.00  0.00    -0.550 OA
ENDBRANCH   4   5
ENDBRANCH   3   4
ENDBRANCH   2   3
ENDBRANCH   1   2
BRANCH   1   8
ATOM      8  C   UNL     1     -16.518  18.152  -9.052  1.00  0.00     0.000 C 
BRANCH   8   9
ATOM      9  C   UNL     1     -16.478  18.403 -10.569  1.00  0.00     0.000 C 
BRANCH   9  10
ATOM     10  C   UNL     1     -15.975  19.810 -10.927  1.00  0.00     0.006 C 
BRANCH  10  11
ATOM     11  C   UNL     1     -14.753  19.735 -11.847  1.00  0.00     0.053 C 
BRANCH  11  12
ATOM     12  C   UNL     1     -14.214  21.104 -12.115  1.00  0.00     0.041 C 
ATOM     13  O   UNL     1     -12.990  21.349 -11.942  1.00  0.00    -0.550 OA
ATOM     14  O   UNL     1     -15.071  22.125 -12.506  1.00  0.00    -0.550 OA
ENDBRANCH  11  12
ENDBRANCH  10  11
ENDBRANCH   9  10
ENDBRANCH   8   9
ENDBRANCH   1   8
TORSDOF 9
ENDMDL
MODEL 4
REMARK VINA RESULT:    -2.945      1.229      2.079
REMARK INTER + INTRA:          -5.012
REMARK INTER:                  -4.617
REMARK INTRA:                  -0.394
REMARK UNBOUND:                -0.518
REMARK SMILES O=C([O-])CCCCCCCCC(=O)[O-]
REMARK SMILES IDX 7 1 6 2 5 3 4 4 2 5 1 6 3 7 8 8 9 9 10 10 11 11 12 12 13 13
REMARK SMILES IDX 14 14
REMARK H PARENT
REMARK Flexibility Score: inf
ROOT
ATOM      1  C   UNL     1     -15.789  17.218  -8.931  1.00  0.00     0.000 C 
ENDROOT
BRANCH   1   2
ATOM      2  C   UNL     1     -16.399  18.486  -9.564  1.00  0.00     0.000 C 
BRANCH   2   3
ATOM      3  C   UNL     1     -15.862  18.750 -10.978  1.00  0.00     0.006 C 
BRANCH   3   4
ATOM      4  C   UNL     1     -15.779  20.251 -11.265  1.00  0.00     0.053 C 
BRANCH   4   5
ATOM      5  C   UNL     1     -14.488  20.585 -11.943  1.00  0.00     0.041 C 
ATOM      6  O   UNL     1     -13.788  19.673 -12.456  1.00  0.00    -0.550 OA
ATOM      7  O   UNL     1     -14.033  21.897 -11.964  1.00  0.00    -0.550 OA
ENDBRANCH   4   5
ENDBRANCH   3   4
ENDBRANCH   2   3
ENDBRANCH   1   2
BRANCH   1   8
ATOM      8  C   UNL     1     -16.836  16.228  -8.386  1.00  0.00     0.000 C 
BRANCH   8   9
ATOM      9  C   UNL     1     -16.318  15.270  -7.300  1.00  0.00     0.000 C 
BRANCH   9  10
ATOM     10  C   UNL     1     -16.262  13.809  -7.772  1.00  0.00     0.006 C 
BRANCH  10  11
ATOM     11  C   UNL     1     -14.875  13.465  -8.321  1.00  0.00     0.053 C 
BRANCH  11  12
ATOM     12  C   UNL     1     -14.969  13.041  -9.752  1.00  0.00     0.041 C 
ATOM     13  O   UNL     1     -14.443  11.960 -10.129  1.00  0.00    -0.550 OA
ATOM     14  O   UNL     1     -15.593  13.863 -10.683  1.00  0.00    -0.550 OA
ENDBRANCH  11  12
ENDBRANCH  10  11
ENDBRANCH   9  10
ENDBRANCH   8   9
ENDBRANCH   1   8
TORSDOF 9
ENDMDL
MODEL 5
REMARK VINA RESULT:    -2.918      0.633      5.534
REMARK INTER + INTRA:          -4.970
REMARK INTER:                  -4.409
REMARK INTRA:                  -0.561
REMARK UNBOUND:                -0.518
REMARK SMILES O=C([O-])CCCCCCCCC(=O)[O-]
REMARK SMILES IDX 7 1 6 2 5 3 4 4 2 5 1 6 3 7 8 8 9 9 10 10 11 11 12 12 13 13
REMARK SMILES IDX 14 14
REMARK H PARENT
REMARK Flexibility Score: inf
ROOT
ATOM      1  C   UNL     1     -16.362  14.230  -7.112  1.00  0.00     0.000 C 
ENDROOT
BRANCH   1   2
ATOM      2  C   UNL     1     -16.374  13.620  -8.530  1.00  0.00     0.000 C 
BRANCH   2   3
ATOM      3  C   UNL     1     -14.962  13.483  -9.120  1.00  0.00     0.006 C 
BRANCH   3   4
ATOM      4  C   UNL     1     -15.002  13.481 -10.650  1.00  0.00     0.053 C 
BRANCH   4   5
ATOM      5  C   UNL     1     -14.251  12.307 -11.193  1.00  0.00     0.041 C 
ATOM      6  O   UNL     1     -14.222  11.224 -10.552  1.00  0.00    -0.550 OA
ATOM      7  O   UNL     1     -13.543  12.424 -12.382  1.00  0.00    -0.550 OA
ENDBRANCH   4   5
ENDBRANCH   3   4
ENDBRANCH   2   3
ENDBRANCH   1   2
BRANCH   1   8
ATOM      8  C   UNL     1     -16.415  15.770  -7.096  1.00  0.00     0.000 C 
BRANCH   8   9
ATOM      9  C   UNL     1     -16.870  16.415  -8.416  1.00  0.00     0.000 C 
BRANCH   9  10
ATOM     10  C   UNL     1     -15.779  17.282  -9.062  1.00  0.00     0.006 C 
BRANCH  10  11
ATOM     11  C   UNL     1     -16.345  18.636  -9.499  1.00  0.00     0.053 C 
BRANCH  11  12
ATOM     12  C   UNL     1     -15.952  18.938 -10.910  1.00  0.00     0.041 C 
ATOM     13  O   UNL     1     -16.246  18.135 -11.836  1.00  0.00    -0.550 OA
ATOM     14  O   UNL     1     -15.217  20.081 -11.199  1.00  0.00    -0.550 OA
ENDBRANCH  11  12
ENDBRANCH  10  11
ENDBRANCH   9  10
ENDBRANCH   8   9
ENDBRANCH   1   8
TORSDOF 9
ENDMDL
MODEL 6
REMARK VINA RESULT:    -2.907      1.281      1.993
REMARK INTER + INTRA:          -4.953
REMARK INTER:                  -4.359
REMARK INTRA:                  -0.594
REMARK UNBOUND:                -0.518
REMARK SMILES O=C([O-])CCCCCCCCC(=O)[O-]
REMARK SMILES IDX 7 1 6 2 5 3 4 4 2 5 1 6 3 7 8 8 9 9 10 10 11 11 12 12 13 13
REMARK SMILES IDX 14 14
REMARK H PARENT
REMARK Flexibility Score: inf
ROOT
ATOM      1  C   UNL     1     -16.007  14.380  -7.644  1.00  0.00     0.000 C 
ENDROOT
BRANCH   1   2
ATOM      2  C   UNL     1     -16.530  15.753  -7.170  1.00  0.00     0.000 C 
BRANCH   2   3
ATOM      3  C   UNL     1     -16.991  16.638  -8.337  1.00  0.00     0.006 C 
BRANCH   3   4
ATOM      4  C   UNL     1     -15.798  17.307  -9.026  1.00  0.00     0.053 C 
BRANCH   4   5
ATOM      5  C   UNL     1     -16.268  18.340 -10.000  1.00  0.00     0.041 C 
ATOM      6  O   UNL     1     -16.736  19.434  -9.588  1.00  0.00    -0.550 OA
ATOM      7  O   UNL     1     -16.234  18.076 -11.363  1.00  0.00    -0.550 OA
ENDBRANCH   4   5
ENDBRANCH   3   4
ENDBRANCH   2   3
ENDBRANCH   1   2
BRANCH   1   8
ATOM      8  C   UNL     1     -16.966  13.645  -8.600  1.00  0.00     0.000 C 
BRANCH   8   9
ATOM      9  C   UNL     1     -16.372  13.304  -9.977  1.00  0.00     0.000 C 
BRANCH   9  10
ATOM     10  C   UNL     1     -14.855  13.064  -9.928  1.00  0.00     0.006 C 
BRANCH  10  11
ATOM     11  C   UNL     1     -14.490  11.745 -10.615  1.00  0.00     0.053 C 
BRANCH  11  12
ATOM     12  C   UNL     1     -14.369  11.940 -12.093  1.00  0.00     0.041 C 
ATOM     13  O   UNL     1     -15.280  11.532 -12.863  1.00  0.00    -0.550 OA
ATOM     14  O   UNL     1     -13.229  12.526 -12.627  1.00  0.00    -0.550 OA
ENDBRANCH  11  12
ENDBRANCH  10  11
ENDBRANCH   9  10
ENDBRANCH   8   9
ENDBRANCH   1   8
TORSDOF 9
ENDMDL
MODEL 7
REMARK VINA RESULT:    -2.859      1.071      5.945
REMARK INTER + INTRA:          -4.881
REMARK INTER:                  -4.465
REMARK INTRA:                  -0.415
REMARK UNBOUND:                -0.518
REMARK SMILES O=C([O-])CCCCCCCCC(=O)[O-]
REMARK SMILES IDX 7 1 6 2 5 3 4 4 2 5 1 6 3 7 8 8 9 9 10 10 11 11 12 12 13 13
REMARK SMILES IDX 14 14
REMARK H PARENT
REMARK Flexibility Score: inf
ROOT
ATOM      1  C   UNL     1     -16.431  16.052  -7.616  1.00  0.00     0.000 C 
ENDROOT
BRANCH   1   2
ATOM      2  C   UNL     1     -16.602  14.596  -8.096  1.00  0.00     0.000 C 
BRANCH   2   3
ATOM      3  C   UNL     1     -15.821  14.311  -9.388  1.00  0.00     0.006 C 
BRANCH   3   4
ATOM      4  C   UNL     1     -14.834  13.157  -9.193  1.00  0.00     0.053 C 
BRANCH   4   5
ATOM      5  C   UNL     1     -14.539  12.492 -10.500  1.00  0.00     0.041 C 
ATOM      6  O   UNL     1     -14.161  11.291 -10.528  1.00  0.00    -0.550 OA
ATOM      7  O   UNL     1     -14.633  13.213 -11.683  1.00  0.00    -0.550 OA
ENDBRANCH   4   5
ENDBRANCH   3   4
ENDBRANCH   2   3
ENDBRANCH   1   2
BRANCH   1   8
ATOM      8  C   UNL     1     -15.653  16.945  -8.601  1.00  0.00     0.000 C 
BRANCH   8   9
ATOM      9  C   UNL     1     -16.438  18.154  -9.137  1.00  0.00     0.000 C 
BRANCH   9  10
ATOM     10  C   UNL     1     -16.253  18.362 -10.648  1.00  0.00     0.006 C 
BRANCH  10  11
ATOM     11  C   UNL     1     -15.978  19.834 -10.967  1.00  0.00     0.053 C 
BRANCH  11  12
ATOM     12  C   UNL     1     -14.848  19.958 -11.938  1.00  0.00     0.041 C 
ATOM     13  O   UNL     1     -14.704  19.106 -12.856  1.00  0.00    -0.550 OA
ATOM     14  O   UNL     1     -13.921  20.984 -11.801  1.00  0.00    -0.550 OA
ENDBRANCH  11  12
ENDBRANCH  10  11
ENDBRANCH   9  10
ENDBRANCH   8   9
ENDBRANCH   1   8
TORSDOF 9
ENDMDL
MODEL 8
REMARK VINA RESULT:    -2.852      3.095      4.726
REMARK INTER + INTRA:          -4.871
REMARK INTER:                  -4.148
REMARK INTRA:                  -0.723
REMARK UNBOUND:                -0.518
REMARK SMILES O=C([O-])CCCCCCCCC(=O)[O-]
REMARK SMILES IDX 7 1 6 2 5 3 4 4 2 5 1 6 3 7 8 8 9 9 10 10 11 11 12 12 13 13
REMARK SMILES IDX 14 14
REMARK H PARENT
REMARK Flexibility Score: inf
ROOT
ATOM      1  C   UNL     1     -16.072  15.623  -9.435  1.00  0.00     0.000 C 
ENDROOT
BRANCH   1   2
ATOM      2  C   UNL     1     -16.334  16.305  -8.075  1.00  0.00     0.000 C 
BRANCH   2   3
ATOM      3  C   UNL     1     -17.121  15.403  -7.112  1.00  0.00     0.006 C 
BRANCH   3   4
ATOM      4  C   UNL     1     -17.044  13.936  -7.543  1.00  0.00     0.053 C 
BRANCH   4   5
ATOM      5  C   UNL     1     -16.224  13.148  -6.572  1.00  0.00     0.041 C 
ATOM      6  O   UNL     1     -16.781  12.525  -5.631  1.00  0.00    -0.550 OA
ATOM      7  O   UNL     1     -14.839  13.140  -6.678  1.00  0.00    -0.550 OA
ENDBRANCH   4   5
ENDBRANCH   3   4
ENDBRANCH   2   3
ENDBRANCH   1   2
BRANCH   1   8
ATOM      8  C   UNL     1     -17.085  16.008 -10.530  1.00  0.00     0.000 C 
BRANCH   8   9
ATOM      9  C   UNL     1     -17.035  15.133 -11.794  1.00  0.00     0.000 C 
BRANCH   9  10
ATOM     10  C   UNL     1     -16.680  13.669 -11.491  1.00  0.00     0.006 C 
BRANCH  10  11
ATOM     11  C   UNL     1     -15.534  13.189 -12.386  1.00  0.00     0.053 C 
BRANCH  11  12
ATOM     12  C   UNL     1     -14.399  12.680 -11.556  1.00  0.00     0.041 C 
ATOM     13  O   UNL     1     -13.311  12.354 -12.102  1.00  0.00    -0.550 OA
ATOM     14  O   UNL     1     -14.557  12.517 -10.185  1.00  0.00    -0.550 OA
ENDBRANCH  11  12
ENDBRANCH  10  11
ENDBRANCH   9  10
ENDBRANCH   8   9
ENDBRANCH   1   8
TORSDOF 9
ENDMDL
MODEL 9
REMARK VINA RESULT:    -1.792      2.790      5.779
REMARK INTER + INTRA:          -3.253
REMARK INTER:                  -2.460
REMARK INTRA:                  -0.793
REMARK UNBOUND:                -0.518
REMARK SMILES O=C([O-])CCCCCCCCC(=O)[O-]
REMARK SMILES IDX 7 1 6 2 5 3 4 4 2 5 1 6 3 7 8 8 9 9 10 10 11 11 12 12 13 13
REMARK SMILES IDX 14 14
REMARK H PARENT
REMARK Flexibility Score: inf
ROOT
ATOM      1  C   UNL     1     -14.023  12.263 -11.699  1.00  0.00     0.000 C 
ENDROOT
BRANCH   1   2
ATOM      2  C   UNL     1     -15.121  12.160 -10.619  1.00  0.00     0.000 C 
BRANCH   2   3
ATOM      3  C   UNL     1     -14.961  13.223  -9.521  1.00  0.00     0.006 C 
BRANCH   3   4
ATOM      4  C   UNL     1     -16.267  13.412  -8.744  1.00  0.00     0.053 C 
BRANCH   4   5
ATOM      5  C   UNL     1     -15.991  13.968  -7.383  1.00  0.00     0.041 C 
ATOM      6  O   UNL     1     -16.286  15.163  -7.116  1.00  0.00    -0.550 OA
ATOM      7  O   UNL     1     -15.363  13.183  -6.426  1.00  0.00    -0.550 OA
ENDBRANCH   4   5
ENDBRANCH   3   4
ENDBRANCH   2   3
ENDBRANCH   1   2
BRANCH   1   8
ATOM      8  C   UNL     1     -14.416  13.138 -12.905  1.00  0.00     0.000 C 
BRANCH   8   9
ATOM      9  C   UNL     1     -15.930  13.320 -13.106  1.00  0.00     0.000 C 
BRANCH   9  10
ATOM     10  C   UNL     1     -16.354  14.796 -13.125  1.00  0.00     0.006 C 
BRANCH  10  11
ATOM     11  C   UNL     1     -17.125  15.159 -11.853  1.00  0.00     0.053 C 
BRANCH  11  12
ATOM     12  C   UNL     1     -16.894  16.591 -11.490  1.00  0.00     0.041 C 
ATOM     13  O   UNL     1     -16.691  17.449 -12.391  1.00  0.00    -0.550 OA
ATOM     14  O   UNL     1     -16.852  16.974 -10.155  1.00  0.00    -0.550 OA
ENDBRANCH  11  12
ENDBRANCH  10  11
ENDBRANCH   9  10
ENDBRANCH   8   9
ENDBRANCH   1   8
TORSDOF 9
ENDMDL
