MODEL 1
REMARK VINA RESULT:    -3.146      0.000      0.000
REMARK INTER + INTRA:          -4.197
REMARK INTER:                  -4.066
REMARK INTRA:                  -0.131
REMARK UNBOUND:                -0.131
REMARK SMILES CCO[C@@H]1O[C@@H](CO)[C@H](O)[C@H](O)[C@H]1O
REMARK SMILES IDX 4 1 13 2 11 3 9 4 6 5 5 6 3 7 2 8 1 9 14 10 12 12 7 14 8 15
REMARK SMILES IDX 10 17
REMARK H PARENT 14 11 12 13 8 16 10 18
REMARK Flexibility Score: inf
ROOT
ATOM      1  C   UNL     1      11.436  -9.943 -14.474  1.00  0.00     0.281 C 
ATOM      2  C   UNL     1      10.045  -9.308 -14.198  1.00  0.00     0.202 C 
ATOM      3  C   UNL     1      10.119  -7.761 -14.218  1.00  0.00     0.179 C 
ATOM      4  C   UNL     1      11.426  -7.272 -13.567  1.00  0.00     0.177 C 
ATOM      5  C   UNL     1      12.654  -7.931 -14.275  1.00  0.00     0.178 C 
ATOM      6  O   UNL     1      12.293  -9.015 -15.125  1.00  0.00    -0.341 OA
ENDROOT
BRANCH   1   7
ATOM      7  O   UNL     1      12.005 -10.407 -13.257  1.00  0.00    -0.350 OA
BRANCH   7   8
ATOM      8  C   UNL     1      12.078 -11.821 -13.232  1.00  0.00     0.160 C 
ATOM      9  C   UNL     1      13.354 -12.269 -12.529  1.00  0.00     0.035 C 
ENDBRANCH   7   8
ENDBRANCH   1   7
BRANCH   2  10
ATOM     10  O   UNL     1       9.087  -9.758 -15.125  1.00  0.00    -0.385 OA
ATOM     11  H   UNL     1       9.161  -9.190 -15.935  1.00  0.00     0.211 HD
ENDBRANCH   2  10
BRANCH   3  12
ATOM     12  O   UNL     1       8.989  -7.179 -13.614  1.00  0.00    -0.387 OA
ATOM     13  H   UNL     1       9.304  -6.522 -12.939  1.00  0.00     0.211 HD
ENDBRANCH   3  12
BRANCH   5  14
ATOM     14  C   UNL     1      13.417  -6.907 -15.125  1.00  0.00     0.191 C 
BRANCH  14  15
ATOM     15  O   UNL     1      14.793  -6.992 -14.869  1.00  0.00    -0.394 OA
ATOM     16  H   UNL     1      14.881  -7.178 -13.898  1.00  0.00     0.210 HD
ENDBRANCH  14  15
ENDBRANCH   5  14
BRANCH   4  17
ATOM     17  O   UNL     1      11.448  -7.613 -12.202  1.00  0.00    -0.387 OA
ATOM     18  H   UNL     1      11.683  -8.576 -12.142  1.00  0.00     0.211 HD
ENDBRANCH   4  17
TORSDOF 7
ENDMDL
MODEL 2
REMARK VINA RESULT:    -0.742      1.433      4.037
REMARK INTER + INTRA:          -1.090
REMARK INTER:                  -0.906
REMARK INTRA:                  -0.184
REMARK UNBOUND:                -0.131
REMARK SMILES CCO[C@@H]1O[C@@H](CO)[C@H](O)[C@H](O)[C@H]1O
REMARK SMILES IDX 4 1 13 2 11 3 9 4 6 5 5 6 3 7 2 8 1 9 14 10 12 12 7 14 8 15
REMARK SMILES IDX 10 17
REMARK H PARENT 14 11 12 13 8 16 10 18
REMARK Flexibility Score: inf
ROOT
ATOM      1  C   UNL     1      11.846  -8.431 -13.556  1.00  0.00     0.281 C 
ATOM      2  C   UNL     1      10.416  -8.951 -13.868  1.00  0.00     0.202 C 
ATOM      3  C   UNL     1      10.249 -10.430 -13.442  1.00  0.00     0.179 C 
ATOM      4  C   UNL     1      11.533 -11.228 -13.738  1.00  0.00     0.177 C 
ATOM      5  C   UNL     1      12.757 -10.548 -13.044  1.00  0.00     0.178 C 
ATOM      6  O   UNL     1      12.470  -9.237 -12.566  1.00  0.00    -0.341 OA
ENDROOT
BRANCH   1   7
ATOM      7  O   UNL     1      12.616  -8.389 -14.749  1.00  0.00    -0.350 OA
BRANCH   7   8
ATOM      8  C   UNL     1      12.958  -7.057 -15.091  1.00  0.00     0.160 C 
ATOM      9  C   UNL     1      14.474  -6.891 -15.102  1.00  0.00     0.035 C 
ENDBRANCH   7   8
ENDBRANCH   1   7
BRANCH   2  10
ATOM     10  O   UNL     1       9.437  -8.155 -13.245  1.00  0.00    -0.385 OA
ATOM     11  H   UNL     1       8.941  -8.732 -12.607  1.00  0.00     0.211 HD
ENDBRANCH   2  10
BRANCH   3  12
ATOM     12  O   UNL     1       9.122 -11.020 -14.041  1.00  0.00    -0.387 OA
ATOM     13  H   UNL     1       9.399 -11.397 -14.917  1.00  0.00     0.211 HD
ENDBRANCH   3  12
BRANCH   5  14
ATOM     14  C   UNL     1      13.251 -11.380 -11.854  1.00  0.00     0.191 C 
BRANCH  14  15
ATOM     15  O   UNL     1      13.407 -12.721 -12.232  1.00  0.00    -0.394 OA
ATOM     16  H   UNL     1      12.682 -13.222 -11.777  1.00  0.00     0.210 HD
ENDBRANCH  14  15
ENDBRANCH   5  14
BRANCH   4  17
ATOM     17  O   UNL     1      11.764 -11.280 -15.125  1.00  0.00    -0.387 OA
ATOM     18  H   UNL     1      11.231 -10.553 -15.542  1.00  0.00     0.211 HD
ENDBRANCH   4  17
TORSDOF 7
ENDMDL
