MODEL 1
REMARK VINA RESULT:    -5.313      0.000      0.000
REMARK INTER + INTRA:          -7.776
REMARK INTER:                  -6.710
REMARK INTRA:                  -1.065
REMARK UNBOUND:                -1.065
REMARK SMILES CC(C)[C@H](C)C=C[C@H](C)[C@H]1CC[C@H]2C3=CC=C4C[C@H](O)CC[C@]4(C)[C@@H]3CC[C@@]12C
REMARK SMILES IDX 8 1 9 2 7 3 6 4 4 5 5 6 2 7 1 8 3 9 10 10 11 11 28 12 12 13
REMARK SMILES IDX 13 14 27 15 29 16 14 17 26 18 25 19 15 20 23 21 16 22 17 23
REMARK SMILES IDX 22 24 24 25 18 26 21 27 19 28 20 29
REMARK H PARENT 20 30
REMARK Flexibility Score: inf
ROOT
ATOM      1  C   UNL     1       4.126   3.523  -4.139  1.00  0.00     0.012 C 
ATOM      2  C   UNL     1       5.161   4.548  -4.648  1.00  0.00     0.012 C 
ENDROOT
BRANCH   1   3
ATOM      3  C   UNL     1       2.762   3.851  -4.695  1.00  0.00    -0.028 C 
ATOM      4  C   UNL     1       2.078   2.999  -5.488  1.00  0.00    -0.028 C 
BRANCH   4   5
ATOM      5  C   UNL     1       0.801   3.378  -6.216  1.00  0.00     0.011 C 
ATOM      6  C   UNL     1       0.706   2.757  -7.620  1.00  0.00     0.012 C 
BRANCH   5   7
ATOM      7  C   UNL     1      -0.485   3.137  -5.370  1.00  0.00    -0.011 C 
ATOM      8  C   UNL     1      -0.898   4.414  -4.620  1.00  0.00     0.008 C 
ATOM      9  C   UNL     1      -0.386   1.956  -4.393  1.00  0.00     0.008 C 
ENDBRANCH   5   7
ENDBRANCH   4   5
ENDBRANCH   1   3
BRANCH   1  10
ATOM     10  C   UNL     1       4.550   2.058  -4.451  1.00  0.00     0.002 C 
ATOM     11  C   UNL     1       6.041   1.945  -4.810  1.00  0.00     0.005 C 
ATOM     12  C   UNL     1       4.320   1.000  -3.330  1.00  0.00    -0.023 C 
ATOM     13  C   UNL     1       6.544   0.613  -4.256  1.00  0.00     0.009 C 
ATOM     14  C   UNL     1       5.317  -0.112  -3.721  1.00  0.00     0.021 C 
ATOM     15  C   UNL     1       4.656   1.568  -1.914  1.00  0.00     0.008 C 
ATOM     16  C   UNL     1       2.871   0.443  -3.368  1.00  0.00     0.012 C 
ATOM     17  C   UNL     1       5.685  -1.067  -2.602  1.00  0.00    -0.063 C 
ATOM     18  C   UNL     1       4.781   0.475  -0.854  1.00  0.00     0.009 C 
ATOM     19  C   UNL     1       5.907  -0.525  -1.204  1.00  0.00     0.025 C 
ATOM     20  C   UNL     1       6.138  -2.280  -2.931  1.00  0.00    -0.000 C 
ATOM     21  C   UNL     1       6.152  -1.620  -0.081  1.00  0.00    -0.005 C 
ATOM     22  C   UNL     1       6.735  -3.183  -1.946  1.00  0.00    -0.000 C 
ATOM     23  C   UNL     1       6.793  -2.886  -0.642  1.00  0.00    -0.061 C 
ATOM     24  C   UNL     1       4.837  -2.079   0.618  1.00  0.00     0.014 C 
ATOM     25  C   UNL     1       7.105  -0.985   0.970  1.00  0.00     0.017 C 
ATOM     26  C   UNL     1       7.100  -4.005   0.326  1.00  0.00     0.063 C 
ATOM     27  C   UNL     1       5.043  -3.236   1.620  1.00  0.00     0.033 C 
ATOM     28  C   UNL     1       5.788  -4.439   1.013  1.00  0.00     0.118 C 
BRANCH  28  29
ATOM     29  O   UNL     1       4.946  -5.085   0.089  1.00  0.00    -0.393 OA
ATOM     30  H   UNL     1       4.074  -4.609   0.117  1.00  0.00     0.210 HD
ENDBRANCH  28  29
ENDBRANCH   1  10
TORSDOF 5
ENDMDL
MODEL 2
REMARK VINA RESULT:    -4.899      5.369      8.294
REMARK INTER + INTRA:          -7.253
REMARK INTER:                  -6.360
REMARK INTRA:                  -0.892
REMARK UNBOUND:                -1.065
REMARK SMILES CC(C)[C@H](C)C=C[C@H](C)[C@H]1CC[C@H]2C3=CC=C4C[C@H](O)CC[C@]4(C)[C@@H]3CC[C@@]12C
REMARK SMILES IDX 8 1 9 2 7 3 6 4 4 5 5 6 2 7 1 8 3 9 10 10 11 11 28 12 12 13
REMARK SMILES IDX 13 14 27 15 29 16 14 17 26 18 25 19 15 20 23 21 16 22 17 23
REMARK SMILES IDX 22 24 24 25 18 26 21 27 19 28 20 29
REMARK H PARENT 20 30
REMARK Flexibility Score: inf
ROOT
ATOM      1  C   UNL     1      -2.573   4.425  -5.299  1.00  0.00     0.012 C 
ATOM      2  C   UNL     1      -3.215   3.339  -6.187  1.00  0.00     0.012 C 
ENDROOT
BRANCH   1   3
ATOM      3  C   UNL     1      -3.603   4.986  -4.350  1.00  0.00    -0.028 C 
ATOM      4  C   UNL     1      -4.369   6.055  -4.658  1.00  0.00    -0.028 C 
BRANCH   4   5
ATOM      5  C   UNL     1      -5.269   6.755  -3.656  1.00  0.00     0.011 C 
ATOM      6  C   UNL     1      -6.662   6.112  -3.552  1.00  0.00     0.012 C 
BRANCH   5   7
ATOM      7  C   UNL     1      -4.600   6.956  -2.263  1.00  0.00    -0.011 C 
ATOM      8  C   UNL     1      -5.660   7.055  -1.153  1.00  0.00     0.008 C 
ATOM      9  C   UNL     1      -3.641   8.153  -2.190  1.00  0.00     0.008 C 
ENDBRANCH   5   7
ENDBRANCH   4   5
ENDBRANCH   1   3
BRANCH   1  10
ATOM     10  C   UNL     1      -1.312   3.901  -4.552  1.00  0.00     0.002 C 
ATOM     11  C   UNL     1      -1.081   2.397  -4.778  1.00  0.00     0.005 C 
ATOM     12  C   UNL     1       0.049   4.579  -4.899  1.00  0.00    -0.023 C 
ATOM     13  C   UNL     1       0.429   2.169  -4.823  1.00  0.00     0.009 C 
ATOM     14  C   UNL     1       1.068   3.504  -4.465  1.00  0.00     0.021 C 
ATOM     15  C   UNL     1       0.180   4.876  -6.427  1.00  0.00     0.008 C 
ATOM     16  C   UNL     1       0.264   5.872  -4.068  1.00  0.00     0.012 C 
ATOM     17  C   UNL     1       2.447   3.639  -5.083  1.00  0.00    -0.063 C 
ATOM     18  C   UNL     1       1.612   5.205  -6.844  1.00  0.00     0.009 C 
ATOM     19  C   UNL     1       2.572   4.032  -6.542  1.00  0.00     0.025 C 
ATOM     20  C   UNL     1       3.481   3.082  -4.447  1.00  0.00    -0.000 C 
ATOM     21  C   UNL     1       4.054   4.279  -7.055  1.00  0.00    -0.005 C 
ATOM     22  C   UNL     1       4.800   2.954  -5.067  1.00  0.00    -0.000 C 
ATOM     23  C   UNL     1       5.076   3.454  -6.278  1.00  0.00    -0.061 C 
ATOM     24  C   UNL     1       4.506   5.765  -6.915  1.00  0.00     0.014 C 
ATOM     25  C   UNL     1       4.090   3.863  -8.552  1.00  0.00     0.017 C 
ATOM     26  C   UNL     1       6.528   3.580  -6.678  1.00  0.00     0.063 C 
ATOM     27  C   UNL     1       5.986   5.996  -7.287  1.00  0.00     0.033 C 
ATOM     28  C   UNL     1       6.954   5.057  -6.541  1.00  0.00     0.118 C 
BRANCH  28  29
ATOM     29  O   UNL     1       6.999   5.426  -5.184  1.00  0.00    -0.393 OA
ATOM     30  H   UNL     1       7.672   6.153  -5.107  1.00  0.00     0.210 HD
ENDBRANCH  28  29
ENDBRANCH   1  10
TORSDOF 5
ENDMDL
MODEL 3
REMARK VINA RESULT:    -4.863      4.792      9.725
REMARK INTER + INTRA:          -7.208
REMARK INTER:                  -5.838
REMARK INTRA:                  -1.370
REMARK UNBOUND:                -1.065
REMARK SMILES CC(C)[C@H](C)C=C[C@H](C)[C@H]1CC[C@H]2C3=CC=C4C[C@H](O)CC[C@]4(C)[C@@H]3CC[C@@]12C
REMARK SMILES IDX 8 1 9 2 7 3 6 4 4 5 5 6 2 7 1 8 3 9 10 10 11 11 28 12 12 13
REMARK SMILES IDX 13 14 27 15 29 16 14 17 26 18 25 19 15 20 23 21 16 22 17 23
REMARK SMILES IDX 22 24 24 25 18 26 21 27 19 28 20 29
REMARK H PARENT 20 30
REMARK Flexibility Score: inf
ROOT
ATOM      1  C   UNL     1       3.664   2.736  -4.113  1.00  0.00     0.012 C 
ATOM      2  C   UNL     1       4.294   1.705  -3.153  1.00  0.00     0.012 C 
ENDROOT
BRANCH   1   3
ATOM      3  C   UNL     1       4.678   3.164  -5.145  1.00  0.00    -0.028 C 
ATOM      4  C   UNL     1       5.103   4.440  -5.260  1.00  0.00    -0.028 C 
BRANCH   4   5
ATOM      5  C   UNL     1       5.968   4.932  -6.406  1.00  0.00     0.011 C 
ATOM      6  C   UNL     1       6.621   3.786  -7.197  1.00  0.00     0.012 C 
BRANCH   5   7
ATOM      7  C   UNL     1       5.243   5.955  -7.331  1.00  0.00    -0.011 C 
ATOM      8  C   UNL     1       4.006   6.546  -6.634  1.00  0.00     0.008 C 
ATOM      9  C   UNL     1       4.859   5.398  -8.710  1.00  0.00     0.008 C 
ENDBRANCH   5   7
ENDBRANCH   4   5
ENDBRANCH   1   3
BRANCH   1  10
ATOM     10  C   UNL     1       2.353   2.205  -4.763  1.00  0.00     0.002 C 
ATOM     11  C   UNL     1       1.433   1.513  -3.743  1.00  0.00     0.005 C 
ATOM     12  C   UNL     1       1.448   3.249  -5.486  1.00  0.00    -0.023 C 
ATOM     13  C   UNL     1      -0.008   1.818  -4.149  1.00  0.00     0.009 C 
ATOM     14  C   UNL     1       0.074   2.546  -5.484  1.00  0.00     0.021 C 
ATOM     15  C   UNL     1       1.377   4.599  -4.704  1.00  0.00     0.008 C 
ATOM     16  C   UNL     1       1.915   3.485  -6.947  1.00  0.00     0.012 C 
ATOM     17  C   UNL     1      -1.117   3.462  -5.687  1.00  0.00    -0.063 C 
ATOM     18  C   UNL     1       0.241   5.501  -5.186  1.00  0.00     0.009 C 
ATOM     19  C   UNL     1      -1.135   4.819  -5.010  1.00  0.00     0.025 C 
ATOM     20  C   UNL     1      -2.250   2.931  -6.156  1.00  0.00    -0.000 C 
ATOM     21  C   UNL     1      -2.358   5.754  -5.395  1.00  0.00    -0.005 C 
ATOM     22  C   UNL     1      -3.511   3.672  -6.167  1.00  0.00    -0.000 C 
ATOM     23  C   UNL     1      -3.597   4.952  -5.782  1.00  0.00    -0.061 C 
ATOM     24  C   UNL     1      -2.054   6.685  -6.608  1.00  0.00     0.014 C 
ATOM     25  C   UNL     1      -2.678   6.618  -4.143  1.00  0.00     0.017 C 
ATOM     26  C   UNL     1      -4.843   5.721  -6.153  1.00  0.00     0.063 C 
ATOM     27  C   UNL     1      -3.275   7.507  -7.076  1.00  0.00     0.033 C 
ATOM     28  C   UNL     1      -4.520   6.642  -7.348  1.00  0.00     0.118 C 
BRANCH  28  29
ATOM     29  O   UNL     1      -4.303   5.874  -8.508  1.00  0.00    -0.393 OA
ATOM     30  H   UNL     1      -4.932   5.106  -8.465  1.00  0.00     0.210 HD
ENDBRANCH  28  29
ENDBRANCH   1  10
TORSDOF 5
ENDMDL
MODEL 4
REMARK VINA RESULT:    -4.801      3.156      6.336
REMARK INTER + INTRA:          -7.130
REMARK INTER:                  -5.956
REMARK INTRA:                  -1.174
REMARK UNBOUND:                -1.065
REMARK SMILES CC(C)[C@H](C)C=C[C@H](C)[C@H]1CC[C@H]2C3=CC=C4C[C@H](O)CC[C@]4(C)[C@@H]3CC[C@@]12C
REMARK SMILES IDX 8 1 9 2 7 3 6 4 4 5 5 6 2 7 1 8 3 9 10 10 11 11 28 12 12 13
REMARK SMILES IDX 13 14 27 15 29 16 14 17 26 18 25 19 15 20 23 21 16 22 17 23
REMARK SMILES IDX 22 24 24 25 18 26 21 27 19 28 20 29
REMARK H PARENT 20 30
REMARK Flexibility Score: inf
ROOT
ATOM      1  C   UNL     1      -0.752   5.898  -7.352  1.00  0.00     0.012 C 
ATOM      2  C   UNL     1      -0.588   5.488  -8.831  1.00  0.00     0.012 C 
ENDROOT
BRANCH   1   3
ATOM      3  C   UNL     1      -2.006   6.720  -7.184  1.00  0.00    -0.028 C 
ATOM      4  C   UNL     1      -2.694   6.764  -6.023  1.00  0.00    -0.028 C 
BRANCH   4   5
ATOM      5  C   UNL     1      -4.055   7.422  -5.884  1.00  0.00     0.011 C 
ATOM      6  C   UNL     1      -4.804   7.535  -7.222  1.00  0.00     0.012 C 
BRANCH   5   7
ATOM      7  C   UNL     1      -4.933   6.790  -4.762  1.00  0.00    -0.011 C 
ATOM      8  C   UNL     1      -4.263   5.534  -4.181  1.00  0.00     0.008 C 
ATOM      9  C   UNL     1      -6.373   6.473  -5.191  1.00  0.00     0.008 C 
ENDBRANCH   5   7
ENDBRANCH   4   5
ENDBRANCH   1   3
BRANCH   1  10
ATOM     10  C   UNL     1      -0.724   4.668  -6.398  1.00  0.00     0.002 C 
ATOM     11  C   UNL     1      -0.681   3.335  -7.163  1.00  0.00     0.005 C 
ATOM     12  C   UNL     1       0.453   4.591  -5.378  1.00  0.00    -0.023 C 
ATOM     13  C   UNL     1       0.176   2.368  -6.347  1.00  0.00     0.009 C 
ATOM     14  C   UNL     1       0.494   3.084  -5.042  1.00  0.00     0.021 C 
ATOM     15  C   UNL     1       1.805   5.051  -6.010  1.00  0.00     0.008 C 
ATOM     16  C   UNL     1       0.142   5.406  -4.094  1.00  0.00     0.012 C 
ATOM     17  C   UNL     1       1.800   2.594  -4.448  1.00  0.00    -0.063 C 
ATOM     18  C   UNL     1       3.015   4.657  -5.166  1.00  0.00     0.009 C 
ATOM     19  C   UNL     1       3.111   3.124  -4.995  1.00  0.00     0.025 C 
ATOM     20  C   UNL     1       1.781   1.476  -3.717  1.00  0.00    -0.000 C 
ATOM     21  C   UNL     1       4.412   2.654  -4.216  1.00  0.00    -0.005 C 
ATOM     22  C   UNL     1       3.008   0.797  -3.300  1.00  0.00    -0.000 C 
ATOM     23  C   UNL     1       4.226   1.293  -3.553  1.00  0.00    -0.061 C 
ATOM     24  C   UNL     1       4.825   3.634  -3.075  1.00  0.00     0.014 C 
ATOM     25  C   UNL     1       5.557   2.563  -5.263  1.00  0.00     0.017 C 
ATOM     26  C   UNL     1       5.398   0.717  -2.793  1.00  0.00     0.063 C 
ATOM     27  C   UNL     1       6.010   3.125  -2.226  1.00  0.00     0.033 C 
ATOM     28  C   UNL     1       5.796   1.703  -1.675  1.00  0.00     0.118 C 
BRANCH  28  29
ATOM     29  O   UNL     1       4.801   1.739  -0.681  1.00  0.00    -0.393 OA
ATOM     30  H   UNL     1       3.926   1.761  -1.153  1.00  0.00     0.210 HD
ENDBRANCH  28  29
ENDBRANCH   1  10
TORSDOF 5
ENDMDL
MODEL 5
REMARK VINA RESULT:    -4.777      5.032      8.668
REMARK INTER + INTRA:          -7.099
REMARK INTER:                  -5.959
REMARK INTRA:                  -1.140
REMARK UNBOUND:                -1.065
REMARK SMILES CC(C)[C@H](C)C=C[C@H](C)[C@H]1CC[C@H]2C3=CC=C4C[C@H](O)CC[C@]4(C)[C@@H]3CC[C@@]12C
REMARK SMILES IDX 8 1 9 2 7 3 6 4 4 5 5 6 2 7 1 8 3 9 10 10 11 11 28 12 12 13
REMARK SMILES IDX 13 14 27 15 29 16 14 17 26 18 25 19 15 20 23 21 16 22 17 23
REMARK SMILES IDX 22 24 24 25 18 26 21 27 19 28 20 29
REMARK H PARENT 20 30
REMARK Flexibility Score: inf
ROOT
ATOM      1  C   UNL     1      -4.114   5.460  -6.576  1.00  0.00     0.012 C 
ATOM      2  C   UNL     1      -4.815   4.700  -7.722  1.00  0.00     0.012 C 
ENDROOT
BRANCH   1   3
ATOM      3  C   UNL     1      -5.117   6.312  -5.837  1.00  0.00    -0.028 C 
ATOM      4  C   UNL     1      -5.426   6.107  -4.538  1.00  0.00    -0.028 C 
BRANCH   4   5
ATOM      5  C   UNL     1      -6.565   6.817  -3.829  1.00  0.00     0.011 C 
ATOM      6  C   UNL     1      -7.938   6.196  -4.133  1.00  0.00     0.012 C 
BRANCH   5   7
ATOM      7  C   UNL     1      -6.319   7.001  -2.301  1.00  0.00    -0.011 C 
ATOM      8  C   UNL     1      -7.165   8.158  -1.743  1.00  0.00     0.008 C 
ATOM      9  C   UNL     1      -4.844   7.188  -1.917  1.00  0.00     0.008 C 
ENDBRANCH   5   7
ENDBRANCH   4   5
ENDBRANCH   1   3
BRANCH   1  10
ATOM     10  C   UNL     1      -3.344   4.500  -5.623  1.00  0.00     0.002 C 
ATOM     11  C   UNL     1      -3.266   3.067  -6.174  1.00  0.00     0.005 C 
ATOM     12  C   UNL     1      -1.873   4.882  -5.272  1.00  0.00    -0.023 C 
ATOM     13  C   UNL     1      -1.913   2.491  -5.758  1.00  0.00     0.009 C 
ATOM     14  C   UNL     1      -1.279   3.525  -4.838  1.00  0.00     0.021 C 
ATOM     15  C   UNL     1      -1.106   5.449  -6.509  1.00  0.00     0.008 C 
ATOM     16  C   UNL     1      -1.817   5.883  -4.086  1.00  0.00     0.012 C 
ATOM     17  C   UNL     1       0.235   3.444  -4.878  1.00  0.00    -0.063 C 
ATOM     18  C   UNL     1       0.405   5.497  -6.295  1.00  0.00     0.009 C 
ATOM     19  C   UNL     1       0.984   4.088  -6.028  1.00  0.00     0.025 C 
ATOM     20  C   UNL     1       0.839   2.532  -4.111  1.00  0.00    -0.000 C 
ATOM     21  C   UNL     1       2.566   4.067  -5.906  1.00  0.00    -0.005 C 
ATOM     22  C   UNL     1       2.261   2.217  -4.248  1.00  0.00    -0.000 C 
ATOM     23  C   UNL     1       3.064   2.875  -5.094  1.00  0.00    -0.061 C 
ATOM     24  C   UNL     1       3.139   5.334  -5.202  1.00  0.00     0.014 C 
ATOM     25  C   UNL     1       3.130   3.974  -7.351  1.00  0.00     0.017 C 
ATOM     26  C   UNL     1       4.557   2.722  -4.916  1.00  0.00     0.063 C 
ATOM     27  C   UNL     1       4.663   5.269  -4.959  1.00  0.00     0.033 C 
ATOM     28  C   UNL     1       5.106   3.989  -4.226  1.00  0.00     0.118 C 
BRANCH  28  29
ATOM     29  O   UNL     1       4.664   4.046  -2.891  1.00  0.00    -0.393 OA
ATOM     30  H   UNL     1       5.432   3.771  -2.323  1.00  0.00     0.210 HD
ENDBRANCH  28  29
ENDBRANCH   1  10
TORSDOF 5
ENDMDL
MODEL 6
REMARK VINA RESULT:    -4.766      6.284      8.697
REMARK INTER + INTRA:          -7.085
REMARK INTER:                  -6.010
REMARK INTRA:                  -1.075
REMARK UNBOUND:                -1.065
REMARK SMILES CC(C)[C@H](C)C=C[C@H](C)[C@H]1CC[C@H]2C3=CC=C4C[C@H](O)CC[C@]4(C)[C@@H]3CC[C@@]12C
REMARK SMILES IDX 8 1 9 2 7 3 6 4 4 5 5 6 2 7 1 8 3 9 10 10 11 11 28 12 12 13
REMARK SMILES IDX 13 14 27 15 29 16 14 17 26 18 25 19 15 20 23 21 16 22 17 23
REMARK SMILES IDX 22 24 24 25 18 26 21 27 19 28 20 29
REMARK H PARENT 20 30
REMARK Flexibility Score: inf
ROOT
ATOM      1  C   UNL     1       6.783   2.657  -1.271  1.00  0.00     0.012 C 
ATOM      2  C   UNL     1       8.151   2.581  -1.981  1.00  0.00     0.012 C 
ENDROOT
BRANCH   1   3
ATOM      3  C   UNL     1       5.848   1.622  -1.848  1.00  0.00    -0.028 C 
ATOM      4  C   UNL     1       5.891   0.322  -1.487  1.00  0.00    -0.028 C 
BRANCH   4   5
ATOM      5  C   UNL     1       5.100  -0.767  -2.188  1.00  0.00     0.011 C 
ATOM      6  C   UNL     1       3.999  -0.209  -3.105  1.00  0.00     0.012 C 
BRANCH   5   7
ATOM      7  C   UNL     1       6.000  -1.815  -2.909  1.00  0.00    -0.011 C 
ATOM      8  C   UNL     1       7.250  -2.135  -2.072  1.00  0.00     0.008 C 
ATOM      9  C   UNL     1       6.403  -1.425  -4.338  1.00  0.00     0.008 C 
ENDBRANCH   5   7
ENDBRANCH   4   5
ENDBRANCH   1   3
BRANCH   1  10
ATOM     10  C   UNL     1       6.918   2.528   0.274  1.00  0.00     0.002 C 
ATOM     11  C   UNL     1       8.347   2.818   0.762  1.00  0.00     0.005 C 
ATOM     12  C   UNL     1       5.998   3.439   1.143  1.00  0.00    -0.023 C 
ATOM     13  C   UNL     1       8.234   3.513   2.118  1.00  0.00     0.009 C 
ATOM     14  C   UNL     1       6.757   3.481   2.487  1.00  0.00     0.021 C 
ATOM     15  C   UNL     1       5.862   4.874   0.542  1.00  0.00     0.008 C 
ATOM     16  C   UNL     1       4.600   2.797   1.350  1.00  0.00     0.012 C 
ATOM     17  C   UNL     1       6.391   4.639   3.395  1.00  0.00    -0.063 C 
ATOM     18  C   UNL     1       5.272   5.876   1.533  1.00  0.00     0.009 C 
ATOM     19  C   UNL     1       6.155   6.011   2.794  1.00  0.00     0.025 C 
ATOM     20  C   UNL     1       6.621   4.511   4.705  1.00  0.00    -0.000 C 
ATOM     21  C   UNL     1       5.644   7.119   3.809  1.00  0.00    -0.005 C 
ATOM     22  C   UNL     1       6.522   5.642   5.627  1.00  0.00    -0.000 C 
ATOM     23  C   UNL     1       6.120   6.857   5.235  1.00  0.00    -0.061 C 
ATOM     24  C   UNL     1       4.089   7.204   3.884  1.00  0.00     0.014 C 
ATOM     25  C   UNL     1       6.216   8.479   3.319  1.00  0.00     0.017 C 
ATOM     26  C   UNL     1       5.720   7.851   6.301  1.00  0.00     0.063 C 
ATOM     27  C   UNL     1       3.577   8.186   4.961  1.00  0.00     0.033 C 
ATOM     28  C   UNL     1       4.180   7.926   6.355  1.00  0.00     0.118 C 
BRANCH  28  29
ATOM     29  O   UNL     1       3.652   6.727   6.868  1.00  0.00    -0.393 OA
ATOM     30  H   UNL     1       4.309   6.387   7.532  1.00  0.00     0.210 HD
ENDBRANCH  28  29
ENDBRANCH   1  10
TORSDOF 5
ENDMDL
MODEL 7
REMARK VINA RESULT:    -4.724      6.442      8.315
REMARK INTER + INTRA:          -7.032
REMARK INTER:                  -6.231
REMARK INTRA:                  -0.801
REMARK UNBOUND:                -1.065
REMARK SMILES CC(C)[C@H](C)C=C[C@H](C)[C@H]1CC[C@H]2C3=CC=C4C[C@H](O)CC[C@]4(C)[C@@H]3CC[C@@]12C
REMARK SMILES IDX 8 1 9 2 7 3 6 4 4 5 5 6 2 7 1 8 3 9 10 10 11 11 28 12 12 13
REMARK SMILES IDX 13 14 27 15 29 16 14 17 26 18 25 19 15 20 23 21 16 22 17 23
REMARK SMILES IDX 22 24 24 25 18 26 21 27 19 28 20 29
REMARK H PARENT 20 30
REMARK Flexibility Score: inf
ROOT
ATOM      1  C   UNL     1       7.077   3.204  -1.409  1.00  0.00     0.012 C 
ATOM      2  C   UNL     1       8.456   3.184  -2.102  1.00  0.00     0.012 C 
ENDROOT
BRANCH   1   3
ATOM      3  C   UNL     1       6.164   2.190  -2.053  1.00  0.00    -0.028 C 
ATOM      4  C   UNL     1       5.744   2.300  -3.332  1.00  0.00    -0.028 C 
BRANCH   4   5
ATOM      5  C   UNL     1       4.678   1.407  -3.940  1.00  0.00     0.011 C 
ATOM      6  C   UNL     1       4.869  -0.078  -3.587  1.00  0.00     0.012 C 
BRANCH   5   7
ATOM      7  C   UNL     1       3.227   1.902  -3.664  1.00  0.00    -0.011 C 
ATOM      8  C   UNL     1       2.298   0.724  -3.328  1.00  0.00     0.008 C 
ATOM      9  C   UNL     1       2.624   2.749  -4.794  1.00  0.00     0.008 C 
ENDBRANCH   5   7
ENDBRANCH   4   5
ENDBRANCH   1   3
BRANCH   1  10
ATOM     10  C   UNL     1       7.192   2.996   0.130  1.00  0.00     0.002 C 
ATOM     11  C   UNL     1       8.600   3.316   0.659  1.00  0.00     0.005 C 
ATOM     12  C   UNL     1       6.221   3.820   1.029  1.00  0.00    -0.023 C 
ATOM     13  C   UNL     1       8.436   3.930   2.048  1.00  0.00     0.009 C 
ATOM     14  C   UNL     1       6.956   3.819   2.387  1.00  0.00     0.021 C 
ATOM     15  C   UNL     1       6.036   5.280   0.505  1.00  0.00     0.008 C 
ATOM     16  C   UNL     1       4.848   3.111   1.175  1.00  0.00     0.012 C 
ATOM     17  C   UNL     1       6.527   4.909   3.351  1.00  0.00    -0.063 C 
ATOM     18  C   UNL     1       5.389   6.200   1.538  1.00  0.00     0.009 C 
ATOM     19  C   UNL     1       6.245   6.301   2.821  1.00  0.00     0.025 C 
ATOM     20  C   UNL     1       6.741   4.718   4.655  1.00  0.00    -0.000 C 
ATOM     21  C   UNL     1       5.673   7.330   3.885  1.00  0.00    -0.005 C 
ATOM     22  C   UNL     1       6.581   5.791   5.636  1.00  0.00    -0.000 C 
ATOM     23  C   UNL     1       6.136   7.009   5.303  1.00  0.00    -0.061 C 
ATOM     24  C   UNL     1       4.114   7.348   3.936  1.00  0.00     0.014 C 
ATOM     25  C   UNL     1       6.196   8.737   3.480  1.00  0.00     0.017 C 
ATOM     26  C   UNL     1       5.677   7.925   6.414  1.00  0.00     0.063 C 
ATOM     27  C   UNL     1       3.545   8.247   5.055  1.00  0.00     0.033 C 
ATOM     28  C   UNL     1       4.135   7.936   6.443  1.00  0.00     0.118 C 
BRANCH  28  29
ATOM     29  O   UNL     1       3.648   6.690   6.881  1.00  0.00    -0.393 OA
ATOM     30  H   UNL     1       3.208   6.847   7.758  1.00  0.00     0.210 HD
ENDBRANCH  28  29
ENDBRANCH   1  10
TORSDOF 5
ENDMDL
MODEL 8
REMARK VINA RESULT:    -4.636      3.723      6.499
REMARK INTER + INTRA:          -6.920
REMARK INTER:                  -5.766
REMARK INTRA:                  -1.155
REMARK UNBOUND:                -1.065
REMARK SMILES CC(C)[C@H](C)C=C[C@H](C)[C@H]1CC[C@H]2C3=CC=C4C[C@H](O)CC[C@]4(C)[C@@H]3CC[C@@]12C
REMARK SMILES IDX 8 1 9 2 7 3 6 4 4 5 5 6 2 7 1 8 3 9 10 10 11 11 28 12 12 13
REMARK SMILES IDX 13 14 27 15 29 16 14 17 26 18 25 19 15 20 23 21 16 22 17 23
REMARK SMILES IDX 22 24 24 25 18 26 21 27 19 28 20 29
REMARK H PARENT 20 30
REMARK Flexibility Score: inf
ROOT
ATOM      1  C   UNL     1       6.663  -0.325   2.216  1.00  0.00     0.012 C 
ATOM      2  C   UNL     1       7.779  -0.356   3.282  1.00  0.00     0.012 C 
ENDROOT
BRANCH   1   3
ATOM      3  C   UNL     1       6.527   1.070   1.656  1.00  0.00    -0.028 C 
ATOM      4  C   UNL     1       5.332   1.682   1.513  1.00  0.00    -0.028 C 
BRANCH   4   5
ATOM      5  C   UNL     1       5.150   2.997   0.778  1.00  0.00     0.011 C 
ATOM      6  C   UNL     1       5.498   4.219   1.645  1.00  0.00     0.012 C 
BRANCH   5   7
ATOM      7  C   UNL     1       5.857   3.030  -0.609  1.00  0.00    -0.011 C 
ATOM      8  C   UNL     1       6.018   4.476  -1.110  1.00  0.00     0.008 C 
ATOM      9  C   UNL     1       5.179   2.169  -1.685  1.00  0.00     0.008 C 
ENDBRANCH   5   7
ENDBRANCH   4   5
ENDBRANCH   1   3
BRANCH   1  10
ATOM     10  C   UNL     1       6.891  -1.385   1.099  1.00  0.00     0.002 C 
ATOM     11  C   UNL     1       7.893  -2.473   1.521  1.00  0.00     0.005 C 
ATOM     12  C   UNL     1       5.637  -2.160   0.592  1.00  0.00    -0.023 C 
ATOM     13  C   UNL     1       7.432  -3.787   0.891  1.00  0.00     0.009 C 
ATOM     14  C   UNL     1       6.264  -3.431  -0.020  1.00  0.00     0.021 C 
ATOM     15  C   UNL     1       4.669  -2.532   1.760  1.00  0.00     0.008 C 
ATOM     16  C   UNL     1       4.887  -1.363  -0.509  1.00  0.00     0.012 C 
ATOM     17  C   UNL     1       5.315  -4.603  -0.182  1.00  0.00    -0.063 C 
ATOM     18  C   UNL     1       3.632  -3.578   1.358  1.00  0.00     0.009 C 
ATOM     19  C   UNL     1       4.303  -4.896   0.909  1.00  0.00     0.025 C 
ATOM     20  C   UNL     1       5.613  -5.536  -1.089  1.00  0.00    -0.000 C 
ATOM     21  C   UNL     1       3.268  -6.054   0.582  1.00  0.00    -0.005 C 
ATOM     22  C   UNL     1       4.896  -6.809  -1.162  1.00  0.00    -0.000 C 
ATOM     23  C   UNL     1       3.847  -7.090  -0.378  1.00  0.00    -0.061 C 
ATOM     24  C   UNL     1       1.962  -5.531  -0.088  1.00  0.00     0.014 C 
ATOM     25  C   UNL     1       2.921  -6.744   1.931  1.00  0.00     0.017 C 
ATOM     26  C   UNL     1       2.971  -8.260  -0.758  1.00  0.00     0.063 C 
ATOM     27  C   UNL     1       1.002  -6.657  -0.530  1.00  0.00     0.033 C 
ATOM     28  C   UNL     1       1.681  -7.722  -1.412  1.00  0.00     0.118 C 
BRANCH  28  29
ATOM     29  O   UNL     1       1.971  -7.162  -2.670  1.00  0.00    -0.393 OA
ATOM     30  H   UNL     1       1.677  -6.213  -2.634  1.00  0.00     0.210 HD
ENDBRANCH  28  29
ENDBRANCH   1  10
TORSDOF 5
ENDMDL
MODEL 9
REMARK VINA RESULT:    -4.581      2.582      8.464
REMARK INTER + INTRA:          -6.851
REMARK INTER:                  -5.784
REMARK INTRA:                  -1.067
REMARK UNBOUND:                -1.065
REMARK SMILES CC(C)[C@H](C)C=C[C@H](C)[C@H]1CC[C@H]2C3=CC=C4C[C@H](O)CC[C@]4(C)[C@@H]3CC[C@@]12C
REMARK SMILES IDX 8 1 9 2 7 3 6 4 4 5 5 6 2 7 1 8 3 9 10 10 11 11 28 12 12 13
REMARK SMILES IDX 13 14 27 15 29 16 14 17 26 18 25 19 15 20 23 21 16 22 17 23
REMARK SMILES IDX 22 24 24 25 18 26 21 27 19 28 20 29
REMARK H PARENT 20 30
REMARK Flexibility Score: inf
ROOT
ATOM      1  C   UNL     1       7.844  -0.330  -1.956  1.00  0.00     0.012 C 
ATOM      2  C   UNL     1       8.254   0.696  -0.879  1.00  0.00     0.012 C 
ENDROOT
BRANCH   1   3
ATOM      3  C   UNL     1       8.599  -1.620  -1.750  1.00  0.00    -0.028 C 
ATOM      4  C   UNL     1       7.977  -2.812  -1.621  1.00  0.00    -0.028 C 
BRANCH   4   5
ATOM      5  C   UNL     1       8.694  -4.088  -1.220  1.00  0.00     0.011 C 
ATOM      6  C   UNL     1       9.789  -3.853  -0.167  1.00  0.00     0.012 C 
BRANCH   5   7
ATOM      7  C   UNL     1       7.723  -5.241  -0.824  1.00  0.00    -0.011 C 
ATOM      8  C   UNL     1       6.258  -4.819  -1.021  1.00  0.00     0.008 C 
ATOM      9  C   UNL     1       7.933  -5.781   0.598  1.00  0.00     0.008 C 
ENDBRANCH   5   7
ENDBRANCH   4   5
ENDBRANCH   1   3
BRANCH   1  10
ATOM     10  C   UNL     1       6.303  -0.551  -1.997  1.00  0.00     0.002 C 
ATOM     11  C   UNL     1       5.597   0.024  -0.758  1.00  0.00     0.005 C 
ATOM     12  C   UNL     1       5.535   0.043  -3.217  1.00  0.00    -0.023 C 
ATOM     13  C   UNL     1       4.240   0.558  -1.214  1.00  0.00     0.009 C 
ATOM     14  C   UNL     1       4.095   0.150  -2.674  1.00  0.00     0.021 C 
ATOM     15  C   UNL     1       6.079   1.451  -3.619  1.00  0.00     0.008 C 
ATOM     16  C   UNL     1       5.568  -0.925  -4.431  1.00  0.00     0.012 C 
ATOM     17  C   UNL     1       3.193   1.110  -3.427  1.00  0.00    -0.063 C 
ATOM     18  C   UNL     1       5.137   2.200  -4.560  1.00  0.00     0.009 C 
ATOM     19  C   UNL     1       3.754   2.433  -3.909  1.00  0.00     0.025 C 
ATOM     20  C   UNL     1       1.872   0.931  -3.346  1.00  0.00    -0.000 C 
ATOM     21  C   UNL     1       2.772   3.302  -4.804  1.00  0.00    -0.005 C 
ATOM     22  C   UNL     1       0.920   1.926  -3.837  1.00  0.00    -0.000 C 
ATOM     23  C   UNL     1       1.307   3.042  -4.469  1.00  0.00    -0.061 C 
ATOM     24  C   UNL     1       2.922   3.013  -6.328  1.00  0.00     0.014 C 
ATOM     25  C   UNL     1       3.105   4.794  -4.522  1.00  0.00     0.017 C 
ATOM     26  C   UNL     1       0.263   3.821  -5.235  1.00  0.00     0.063 C 
ATOM     27  C   UNL     1       1.885   3.754  -7.201  1.00  0.00     0.033 C 
ATOM     28  C   UNL     1       0.433   3.528  -6.741  1.00  0.00     0.118 C 
BRANCH  28  29
ATOM     29  O   UNL     1       0.062   2.200  -7.023  1.00  0.00    -0.393 OA
ATOM     30  H   UNL     1      -0.783   2.244  -7.546  1.00  0.00     0.210 HD
ENDBRANCH  28  29
ENDBRANCH   1  10
TORSDOF 5
ENDMDL
