MODEL 1
REMARK VINA RESULT:    -5.950      0.000      0.000
REMARK INTER + INTRA:          -9.849
REMARK INTER:                  -7.863
REMARK INTRA:                  -1.986
REMARK UNBOUND:                -1.986
REMARK SMILES CC(C)=CCC[C@H](C(=O)[O-])[C@@H]1CC[C@@]2(C)C3=C(CC[C@@]12C)[C@@]1(C)CC[C@H](O)C(C)(C)[C@H]1CC3
REMARK SMILES IDX 6 1 7 2 8 3 9 4 10 5 11 6 12 7 20 8 13 9 14 10 19 11 21 12
REMARK SMILES IDX 15 13 16 14 18 15 17 16 33 17 22 18 32 19 31 20 24 21 23 22
REMARK SMILES IDX 28 23 25 24 26 25 29 26 30 27 27 28 5 30 4 31 2 32 1 33 3 34
REMARK H PARENT 27 29
REMARK Flexibility Score: inf
ROOT
ATOM      1  C   UNL     1      23.206 -15.522  44.779  1.00  0.00     0.014 C 
ENDROOT
BRANCH   1   2
ATOM      2  C   UNL     1      21.680 -15.443  44.495  1.00  0.00     0.039 C 
BRANCH   2   3
ATOM      3  C   UNL     1      21.073 -16.792  44.168  1.00  0.00     0.045 C 
ATOM      4  O   UNL     1      19.852 -16.877  43.874  1.00  0.00    -0.550 OA
ATOM      5  O   UNL     1      21.835 -17.954  44.222  1.00  0.00    -0.550 OA
ENDBRANCH   2   3
BRANCH   2   6
ATOM      6  C   UNL     1      21.301 -14.282  43.506  1.00  0.00     0.004 C 
ATOM      7  C   UNL     1      22.519 -13.488  43.048  1.00  0.00     0.006 C 
ATOM      8  C   UNL     1      20.175 -13.213  43.817  1.00  0.00    -0.020 C 
ATOM      9  C   UNL     1      21.947 -12.290  42.323  1.00  0.00     0.012 C 
ATOM     10  C   UNL     1      20.713 -11.853  43.141  1.00  0.00    -0.006 C 
ATOM     11  C   UNL     1      18.826 -13.682  43.189  1.00  0.00     0.012 C 
ATOM     12  C   UNL     1      19.886 -13.058  45.335  1.00  0.00     0.012 C 
ATOM     13  C   UNL     1      21.219 -10.824  44.204  1.00  0.00     0.017 C 
ATOM     14  C   UNL     1      19.714 -11.154  42.168  1.00  0.00    -0.064 C 
ATOM     15  C   UNL     1      18.748 -13.370  41.706  1.00  0.00     0.032 C 
ATOM     16  C   UNL     1      18.738 -11.871  41.531  1.00  0.00    -0.064 C 
ATOM     17  C   UNL     1      19.958  -9.686  41.835  1.00  0.00     0.032 C 
ATOM     18  C   UNL     1      17.692 -11.243  40.584  1.00  0.00    -0.008 C 
ATOM     19  C   UNL     1      19.109  -9.113  40.708  1.00  0.00     0.009 C 
ATOM     20  C   UNL     1      17.672  -9.670  40.672  1.00  0.00     0.007 C 
ATOM     21  C   UNL     1      16.269 -11.820  40.903  1.00  0.00     0.014 C 
ATOM     22  C   UNL     1      18.074 -11.671  39.140  1.00  0.00     0.016 C 
ATOM     23  C   UNL     1      16.645  -9.080  41.728  1.00  0.00    -0.006 C 
ATOM     24  C   UNL     1      15.143 -10.862  40.526  1.00  0.00     0.033 C 
ATOM     25  C   UNL     1      15.183  -9.554  41.342  1.00  0.00     0.120 C 
ATOM     26  C   UNL     1      16.955  -9.517  43.189  1.00  0.00     0.014 C 
ATOM     27  C   UNL     1      16.696  -7.526  41.720  1.00  0.00     0.014 C 
BRANCH  25  28
ATOM     28  O   UNL     1      14.514  -8.574  40.579  1.00  0.00    -0.393 OA
ATOM     29  H   UNL     1      14.710  -7.685  40.978  1.00  0.00     0.210 HD
ENDBRANCH  25  28
ENDBRANCH   2   6
ENDBRANCH   1   2
BRANCH   1  30
ATOM     30  C   UNL     1      23.572 -15.330  46.263  1.00  0.00     0.028 C 
BRANCH  30  31
ATOM     31  C   UNL     1      22.974 -14.067  46.839  1.00  0.00    -0.028 C 
ATOM     32  C   UNL     1      23.485 -12.825  46.670  1.00  0.00    -0.080 C 
ATOM     33  C   UNL     1      24.770 -12.578  45.920  1.00  0.00     0.039 C 
ATOM     34  C   UNL     1      22.765 -11.634  47.250  1.00  0.00     0.039 C 
ENDBRANCH  30  31
ENDBRANCH   1  30
TORSDOF 6
ENDMDL
MODEL 2
REMARK VINA RESULT:    -5.329      3.743      5.108
REMARK INTER + INTRA:          -9.029
REMARK INTER:                  -7.073
REMARK INTRA:                  -1.956
REMARK UNBOUND:                -1.986
REMARK SMILES CC(C)=CCC[C@H](C(=O)[O-])[C@@H]1CC[C@@]2(C)C3=C(CC[C@@]12C)[C@@]1(C)CC[C@H](O)C(C)(C)[C@H]1CC3
REMARK SMILES IDX 6 1 7 2 8 3 9 4 10 5 11 6 12 7 20 8 13 9 14 10 19 11 21 12
REMARK SMILES IDX 15 13 16 14 18 15 17 16 33 17 22 18 32 19 31 20 24 21 23 22
REMARK SMILES IDX 28 23 25 24 26 25 29 26 30 27 27 28 5 30 4 31 2 32 1 33 3 34
REMARK H PARENT 27 29
REMARK Flexibility Score: inf
ROOT
ATOM      1  C   UNL     1      25.125 -13.980  46.482  1.00  0.00     0.014 C 
ENDROOT
BRANCH   1   2
ATOM      2  C   UNL     1      24.073 -15.102  46.258  1.00  0.00     0.039 C 
BRANCH   2   3
ATOM      3  C   UNL     1      24.524 -16.445  46.796  1.00  0.00     0.045 C 
ATOM      4  O   UNL     1      25.125 -16.510  47.900  1.00  0.00    -0.550 OA
ATOM      5  O   UNL     1      24.321 -17.614  46.071  1.00  0.00    -0.550 OA
ENDBRANCH   2   3
BRANCH   2   6
ATOM      6  C   UNL     1      23.505 -15.126  44.793  1.00  0.00     0.004 C 
ATOM      7  C   UNL     1      24.107 -14.031  43.919  1.00  0.00     0.006 C 
ATOM      8  C   UNL     1      21.956 -15.145  44.465  1.00  0.00    -0.020 C 
ATOM      9  C   UNL     1      23.277 -14.051  42.654  1.00  0.00     0.012 C 
ATOM     10  C   UNL     1      21.822 -14.285  43.109  1.00  0.00    -0.006 C 
ATOM     11  C   UNL     1      21.484 -16.619  44.271  1.00  0.00     0.012 C 
ATOM     12  C   UNL     1      21.083 -14.586  45.622  1.00  0.00     0.012 C 
ATOM     13  C   UNL     1      21.196 -12.875  43.362  1.00  0.00     0.017 C 
ATOM     14  C   UNL     1      21.062 -14.995  41.945  1.00  0.00    -0.064 C 
ATOM     15  C   UNL     1      21.809 -17.144  42.885  1.00  0.00     0.032 C 
ATOM     16  C   UNL     1      21.007 -16.361  41.875  1.00  0.00    -0.064 C 
ATOM     17  C   UNL     1      20.523 -14.125  40.816  1.00  0.00     0.032 C 
ATOM     18  C   UNL     1      20.246 -17.133  40.775  1.00  0.00    -0.008 C 
ATOM     19  C   UNL     1      20.004 -14.873  39.594  1.00  0.00     0.009 C 
ATOM     20  C   UNL     1      19.294 -16.197  39.936  1.00  0.00     0.007 C 
ATOM     21  C   UNL     1      19.423 -18.303  41.416  1.00  0.00     0.014 C 
ATOM     22  C   UNL     1      21.315 -17.753  39.833  1.00  0.00     0.016 C 
ATOM     23  C   UNL     1      17.810 -16.097  40.489  1.00  0.00    -0.006 C 
ATOM     24  C   UNL     1      18.198 -18.688  40.593  1.00  0.00     0.033 C 
ATOM     25  C   UNL     1      17.168 -17.545  40.498  1.00  0.00     0.120 C 
ATOM     26  C   UNL     1      17.734 -15.494  41.922  1.00  0.00     0.014 C 
ATOM     27  C   UNL     1      16.958 -15.167  39.581  1.00  0.00     0.014 C 
BRANCH  25  28
ATOM     28  O   UNL     1      16.408 -17.773  39.332  1.00  0.00    -0.393 OA
ATOM     29  H   UNL     1      15.451 -17.620  39.552  1.00  0.00     0.210 HD
ENDBRANCH  25  28
ENDBRANCH   2   6
ENDBRANCH   1   2
BRANCH   1  30
ATOM     30  C   UNL     1      24.695 -12.926  47.521  1.00  0.00     0.028 C 
BRANCH  30  31
ATOM     31  C   UNL     1      23.313 -12.381  47.242  1.00  0.00    -0.028 C 
ATOM     32  C   UNL     1      23.048 -11.319  46.446  1.00  0.00    -0.080 C 
ATOM     33  C   UNL     1      24.141 -10.515  45.786  1.00  0.00     0.039 C 
ATOM     34  C   UNL     1      21.620 -10.904  46.202  1.00  0.00     0.039 C 
ENDBRANCH  30  31
ENDBRANCH   1  30
TORSDOF 6
ENDMDL
MODEL 3
REMARK VINA RESULT:    -5.295      2.466      7.923
REMARK INTER + INTRA:          -8.984
REMARK INTER:                  -6.873
REMARK INTRA:                  -2.111
REMARK UNBOUND:                -1.986
REMARK SMILES CC(C)=CCC[C@H](C(=O)[O-])[C@@H]1CC[C@@]2(C)C3=C(CC[C@@]12C)[C@@]1(C)CC[C@H](O)C(C)(C)[C@H]1CC3
REMARK SMILES IDX 6 1 7 2 8 3 9 4 10 5 11 6 12 7 20 8 13 9 14 10 19 11 21 12
REMARK SMILES IDX 15 13 16 14 18 15 17 16 33 17 22 18 32 19 31 20 24 21 23 22
REMARK SMILES IDX 28 23 25 24 26 25 29 26 30 27 27 28 5 30 4 31 2 32 1 33 3 34
REMARK H PARENT 27 29
REMARK Flexibility Score: inf
ROOT
ATOM      1  C   UNL     1      16.642 -10.870  38.262  1.00  0.00     0.014 C 
ENDROOT
BRANCH   1   2
ATOM      2  C   UNL     1      18.121 -10.622  38.672  1.00  0.00     0.039 C 
BRANCH   2   3
ATOM      3  C   UNL     1      19.082 -10.748  37.507  1.00  0.00     0.045 C 
ATOM      4  O   UNL     1      20.246 -10.279  37.599  1.00  0.00    -0.550 OA
ATOM      5  O   UNL     1      18.689 -11.344  36.314  1.00  0.00    -0.550 OA
ENDBRANCH   2   3
BRANCH   2   6
ATOM      6  C   UNL     1      18.537 -11.407  39.969  1.00  0.00     0.004 C 
ATOM      7  C   UNL     1      17.337 -12.008  40.692  1.00  0.00     0.006 C 
ATOM      8  C   UNL     1      19.462 -10.789  41.095  1.00  0.00    -0.020 C 
ATOM      9  C   UNL     1      17.891 -12.495  42.014  1.00  0.00     0.012 C 
ATOM     10  C   UNL     1      18.902 -11.421  42.467  1.00  0.00    -0.006 C 
ATOM     11  C   UNL     1      20.945 -11.194  40.829  1.00  0.00     0.012 C 
ATOM     12  C   UNL     1      19.458  -9.236  41.102  1.00  0.00     0.012 C 
ATOM     13  C   UNL     1      18.103 -10.380  43.317  1.00  0.00     0.017 C 
ATOM     14  C   UNL     1      19.973 -12.117  43.364  1.00  0.00    -0.064 C 
ATOM     15  C   UNL     1      21.249 -12.598  41.314  1.00  0.00     0.032 C 
ATOM     16  C   UNL     1      21.121 -12.625  42.818  1.00  0.00    -0.064 C 
ATOM     17  C   UNL     1      19.628 -12.350  44.830  1.00  0.00     0.032 C 
ATOM     18  C   UNL     1      22.241 -13.294  43.644  1.00  0.00    -0.008 C 
ATOM     19  C   UNL     1      20.594 -13.237  45.605  1.00  0.00     0.009 C 
ATOM     20  C   UNL     1      22.068 -13.054  45.193  1.00  0.00     0.007 C 
ATOM     21  C   UNL     1      23.641 -12.769  43.171  1.00  0.00     0.014 C 
ATOM     22  C   UNL     1      22.172 -14.818  43.351  1.00  0.00     0.016 C 
ATOM     23  C   UNL     1      22.818 -11.772  45.751  1.00  0.00    -0.006 C 
ATOM     24  C   UNL     1      24.701 -12.833  44.266  1.00  0.00     0.033 C 
ATOM     25  C   UNL     1      24.369 -11.920  45.462  1.00  0.00     0.120 C 
ATOM     26  C   UNL     1      22.305 -10.444  45.122  1.00  0.00     0.014 C 
ATOM     27  C   UNL     1      22.594 -11.642  47.284  1.00  0.00     0.014 C 
BRANCH  25  28
ATOM     28  O   UNL     1      25.048 -12.446  46.581  1.00  0.00    -0.393 OA
ATOM     29  H   UNL     1      24.976 -11.788  47.323  1.00  0.00     0.210 HD
ENDBRANCH  25  28
ENDBRANCH   2   6
ENDBRANCH   1   2
BRANCH   1  30
ATOM     30  C   UNL     1      15.778  -9.594  38.261  1.00  0.00     0.028 C 
BRANCH  30  31
ATOM     31  C   UNL     1      16.188  -8.625  39.346  1.00  0.00    -0.028 C 
ATOM     32  C   UNL     1      15.697  -8.626  40.607  1.00  0.00    -0.080 C 
ATOM     33  C   UNL     1      14.617  -9.582  41.050  1.00  0.00     0.039 C 
ATOM     34  C   UNL     1      16.227  -7.641  41.618  1.00  0.00     0.039 C 
ENDBRANCH  30  31
ENDBRANCH   1  30
TORSDOF 6
ENDMDL
MODEL 4
REMARK VINA RESULT:    -5.258      2.558      4.276
REMARK INTER + INTRA:          -8.935
REMARK INTER:                  -7.218
REMARK INTRA:                  -1.717
REMARK UNBOUND:                -1.986
REMARK SMILES CC(C)=CCC[C@H](C(=O)[O-])[C@@H]1CC[C@@]2(C)C3=C(CC[C@@]12C)[C@@]1(C)CC[C@H](O)C(C)(C)[C@H]1CC3
REMARK SMILES IDX 6 1 7 2 8 3 9 4 10 5 11 6 12 7 20 8 13 9 14 10 19 11 21 12
REMARK SMILES IDX 15 13 16 14 18 15 17 16 33 17 22 18 32 19 31 20 24 21 23 22
REMARK SMILES IDX 28 23 25 24 26 25 29 26 30 27 27 28 5 30 4 31 2 32 1 33 3 34
REMARK H PARENT 27 29
REMARK Flexibility Score: inf
ROOT
ATOM      1  C   UNL     1      24.100 -13.899  47.250  1.00  0.00     0.014 C 
ENDROOT
BRANCH   1   2
ATOM      2  C   UNL     1      23.996 -12.892  46.070  1.00  0.00     0.039 C 
BRANCH   2   3
ATOM      3  C   UNL     1      24.594 -11.539  46.398  1.00  0.00     0.045 C 
ATOM      4  O   UNL     1      24.598 -11.125  47.586  1.00  0.00    -0.550 OA
ATOM      5  O   UNL     1      25.111 -10.722  45.399  1.00  0.00    -0.550 OA
ENDBRANCH   2   3
BRANCH   2   6
ATOM      6  C   UNL     1      22.563 -12.850  45.425  1.00  0.00     0.004 C 
ATOM      7  C   UNL     1      21.704 -14.038  45.844  1.00  0.00     0.006 C 
ATOM      8  C   UNL     1      22.318 -12.659  43.873  1.00  0.00    -0.020 C 
ATOM      9  C   UNL     1      20.485 -13.963  44.951  1.00  0.00     0.012 C 
ATOM     10  C   UNL     1      21.007 -13.542  43.561  1.00  0.00    -0.006 C 
ATOM     11  C   UNL     1      22.089 -11.147  43.566  1.00  0.00     0.012 C 
ATOM     12  C   UNL     1      23.541 -13.070  43.008  1.00  0.00     0.012 C 
ATOM     13  C   UNL     1      21.349 -14.858  42.790  1.00  0.00     0.017 C 
ATOM     14  C   UNL     1      19.857 -12.786  42.824  1.00  0.00    -0.064 C 
ATOM     15  C   UNL     1      20.668 -10.711  43.870  1.00  0.00     0.032 C 
ATOM     16  C   UNL     1      19.735 -11.427  42.925  1.00  0.00    -0.064 C 
ATOM     17  C   UNL     1      18.794 -13.624  42.123  1.00  0.00     0.032 C 
ATOM     18  C   UNL     1      18.646 -10.607  42.197  1.00  0.00    -0.008 C 
ATOM     19  C   UNL     1      17.573 -12.861  41.625  1.00  0.00     0.009 C 
ATOM     20  C   UNL     1      17.898 -11.451  41.096  1.00  0.00     0.007 C 
ATOM     21  C   UNL     1      19.283  -9.326  41.555  1.00  0.00     0.014 C 
ATOM     22  C   UNL     1      17.625 -10.151  43.275  1.00  0.00     0.016 C 
ATOM     23  C   UNL     1      18.533 -11.355  39.645  1.00  0.00    -0.006 C 
ATOM     24  C   UNL     1      18.511  -8.826  40.338  1.00  0.00     0.033 C 
ATOM     25  C   UNL     1      18.518  -9.841  39.177  1.00  0.00     0.120 C 
ATOM     26  C   UNL     1      19.991 -11.896  39.581  1.00  0.00     0.014 C 
ATOM     27  C   UNL     1      17.710 -12.208  38.639  1.00  0.00     0.014 C 
BRANCH  25  28
ATOM     28  O   UNL     1      17.385  -9.564  38.383  1.00  0.00    -0.393 OA
ATOM     29  H   UNL     1      16.583  -9.905  38.860  1.00  0.00     0.210 HD
ENDBRANCH  25  28
ENDBRANCH   2   6
ENDBRANCH   1   2
BRANCH   1  30
ATOM     30  C   UNL     1      25.125 -15.025  47.015  1.00  0.00     0.028 C 
BRANCH  30  31
ATOM     31  C   UNL     1      24.459 -16.353  46.735  1.00  0.00    -0.028 C 
ATOM     32  C   UNL     1      24.309 -16.896  45.504  1.00  0.00    -0.080 C 
ATOM     33  C   UNL     1      24.750 -16.183  44.250  1.00  0.00     0.039 C 
ATOM     34  C   UNL     1      23.676 -18.256  45.358  1.00  0.00     0.039 C 
ENDBRANCH  30  31
ENDBRANCH   1  30
TORSDOF 6
ENDMDL
MODEL 5
REMARK VINA RESULT:    -5.238      2.772      4.687
REMARK INTER + INTRA:          -8.908
REMARK INTER:                  -7.017
REMARK INTRA:                  -1.891
REMARK UNBOUND:                -1.986
REMARK SMILES CC(C)=CCC[C@H](C(=O)[O-])[C@@H]1CC[C@@]2(C)C3=C(CC[C@@]12C)[C@@]1(C)CC[C@H](O)C(C)(C)[C@H]1CC3
REMARK SMILES IDX 6 1 7 2 8 3 9 4 10 5 11 6 12 7 20 8 13 9 14 10 19 11 21 12
REMARK SMILES IDX 15 13 16 14 18 15 17 16 33 17 22 18 32 19 31 20 24 21 23 22
REMARK SMILES IDX 28 23 25 24 26 25 29 26 30 27 27 28 5 30 4 31 2 32 1 33 3 34
REMARK H PARENT 27 29
REMARK Flexibility Score: inf
ROOT
ATOM      1  C   UNL     1      23.819 -12.712  47.194  1.00  0.00     0.014 C 
ENDROOT
BRANCH   1   2
ATOM      2  C   UNL     1      23.571 -12.068  45.801  1.00  0.00     0.039 C 
BRANCH   2   3
ATOM      3  C   UNL     1      23.885 -10.586  45.775  1.00  0.00     0.045 C 
ATOM      4  O   UNL     1      24.854 -10.137  46.440  1.00  0.00    -0.550 OA
ATOM      5  O   UNL     1      23.094  -9.698  45.054  1.00  0.00    -0.550 OA
ENDBRANCH   2   3
BRANCH   2   6
ATOM      6  C   UNL     1      22.184 -12.468  45.179  1.00  0.00     0.004 C 
ATOM      7  C   UNL     1      21.449 -13.505  46.022  1.00  0.00     0.006 C 
ATOM      8  C   UNL     1      22.010 -12.925  43.673  1.00  0.00    -0.020 C 
ATOM      9  C   UNL     1      20.284 -13.942  45.160  1.00  0.00     0.012 C 
ATOM     10  C   UNL     1      20.834 -14.025  43.720  1.00  0.00    -0.006 C 
ATOM     11  C   UNL     1      21.622 -11.693  42.799  1.00  0.00     0.012 C 
ATOM     12  C   UNL     1      23.322 -13.473  43.048  1.00  0.00     0.012 C 
ATOM     13  C   UNL     1      21.374 -15.479  43.527  1.00  0.00     0.017 C 
ATOM     14  C   UNL     1      19.648 -13.772  42.738  1.00  0.00    -0.064 C 
ATOM     15  C   UNL     1      20.144 -11.367  42.896  1.00  0.00     0.032 C 
ATOM     16  C   UNL     1      19.360 -12.508  42.299  1.00  0.00    -0.064 C 
ATOM     17  C   UNL     1      18.735 -14.948  42.411  1.00  0.00     0.032 C 
ATOM     18  C   UNL     1      18.227 -12.185  41.300  1.00  0.00    -0.008 C 
ATOM     19  C   UNL     1      17.464 -14.606  41.644  1.00  0.00     0.009 C 
ATOM     20  C   UNL     1      17.650 -13.479  40.609  1.00  0.00     0.007 C 
ATOM     21  C   UNL     1      18.744 -11.179  40.214  1.00  0.00     0.014 C 
ATOM     22  C   UNL     1      17.096 -11.488  42.106  1.00  0.00     0.016 C 
ATOM     23  C   UNL     1      18.353 -13.868  39.241  1.00  0.00    -0.006 C 
ATOM     24  C   UNL     1      17.991 -11.295  38.892  1.00  0.00     0.033 C 
ATOM     25  C   UNL     1      18.187 -12.669  38.220  1.00  0.00     0.120 C 
ATOM     26  C   UNL     1      19.867 -14.193  39.405  1.00  0.00     0.014 C 
ATOM     27  C   UNL     1      17.698 -15.144  38.641  1.00  0.00     0.014 C 
BRANCH  25  28
ATOM     28  O   UNL     1      17.078 -12.872  37.371  1.00  0.00    -0.393 OA
ATOM     29  H   UNL     1      17.069 -12.143  36.696  1.00  0.00     0.210 HD
ENDBRANCH  25  28
ENDBRANCH   2   6
ENDBRANCH   1   2
BRANCH   1  30
ATOM     30  C   UNL     1      25.020 -13.677  47.226  1.00  0.00     0.028 C 
BRANCH  30  31
ATOM     31  C   UNL     1      25.125 -14.500  45.963  1.00  0.00    -0.028 C 
ATOM     32  C   UNL     1      24.747 -15.795  45.852  1.00  0.00    -0.080 C 
ATOM     33  C   UNL     1      24.226 -16.585  47.027  1.00  0.00     0.039 C 
ATOM     34  C   UNL     1      24.850 -16.494  44.521  1.00  0.00     0.039 C 
ENDBRANCH  30  31
ENDBRANCH   1  30
TORSDOF 6
ENDMDL
MODEL 6
REMARK VINA RESULT:    -5.236      1.885      8.119
REMARK INTER + INTRA:          -8.906
REMARK INTER:                  -7.622
REMARK INTRA:                  -1.284
REMARK UNBOUND:                -1.986
REMARK SMILES CC(C)=CCC[C@H](C(=O)[O-])[C@@H]1CC[C@@]2(C)C3=C(CC[C@@]12C)[C@@]1(C)CC[C@H](O)C(C)(C)[C@H]1CC3
REMARK SMILES IDX 6 1 7 2 8 3 9 4 10 5 11 6 12 7 20 8 13 9 14 10 19 11 21 12
REMARK SMILES IDX 15 13 16 14 18 15 17 16 33 17 22 18 32 19 31 20 24 21 23 22
REMARK SMILES IDX 28 23 25 24 26 25 29 26 30 27 27 28 5 30 4 31 2 32 1 33 3 34
REMARK H PARENT 27 29
REMARK Flexibility Score: inf
ROOT
ATOM      1  C   UNL     1      17.565  -8.626  41.642  1.00  0.00     0.014 C 
ENDROOT
BRANCH   1   2
ATOM      2  C   UNL     1      18.778  -9.524  41.267  1.00  0.00     0.039 C 
BRANCH   2   3
ATOM      3  C   UNL     1      18.723 -10.016  39.835  1.00  0.00     0.045 C 
ATOM      4  O   UNL     1      18.555 -11.240  39.598  1.00  0.00    -0.550 OA
ATOM      5  O   UNL     1      18.893  -9.141  38.768  1.00  0.00    -0.550 OA
ENDBRANCH   2   3
BRANCH   2   6
ATOM      6  C   UNL     1      19.076 -10.630  42.343  1.00  0.00     0.004 C 
ATOM      7  C   UNL     1      18.393 -10.343  43.675  1.00  0.00     0.006 C 
ATOM      8  C   UNL     1      20.540 -11.119  42.698  1.00  0.00    -0.020 C 
ATOM      9  C   UNL     1      18.985 -11.353  44.635  1.00  0.00     0.012 C 
ATOM     10  C   UNL     1      20.482 -11.449  44.274  1.00  0.00    -0.006 C 
ATOM     11  C   UNL     1      20.886 -12.382  41.851  1.00  0.00     0.012 C 
ATOM     12  C   UNL     1      21.634 -10.075  42.341  1.00  0.00     0.012 C 
ATOM     13  C   UNL     1      21.222 -10.371  45.132  1.00  0.00     0.017 C 
ATOM     14  C   UNL     1      20.983 -12.872  44.674  1.00  0.00    -0.064 C 
ATOM     15  C   UNL     1      20.293 -13.646  42.442  1.00  0.00     0.032 C 
ATOM     16  C   UNL     1      20.947 -13.904  43.777  1.00  0.00    -0.064 C 
ATOM     17  C   UNL     1      21.363 -13.106  46.132  1.00  0.00     0.032 C 
ATOM     18  C   UNL     1      21.458 -15.329  44.088  1.00  0.00    -0.008 C 
ATOM     19  C   UNL     1      21.616 -14.556  46.525  1.00  0.00     0.009 C 
ATOM     20  C   UNL     1      22.299 -15.386  45.420  1.00  0.00     0.007 C 
ATOM     21  C   UNL     1      22.313 -15.863  42.887  1.00  0.00     0.014 C 
ATOM     22  C   UNL     1      20.207 -16.238  44.233  1.00  0.00     0.016 C 
ATOM     23  C   UNL     1      23.860 -15.180  45.226  1.00  0.00    -0.006 C 
ATOM     24  C   UNL     1      23.350 -16.898  43.312  1.00  0.00     0.033 C 
ATOM     25  C   UNL     1      24.411 -16.314  44.266  1.00  0.00     0.120 C 
ATOM     26  C   UNL     1      24.222 -13.787  44.633  1.00  0.00     0.014 C 
ATOM     27  C   UNL     1      24.590 -15.272  46.595  1.00  0.00     0.014 C 
BRANCH  25  28
ATOM     28  O   UNL     1      24.940 -17.394  45.003  1.00  0.00    -0.393 OA
ATOM     29  H   UNL     1      25.928 -17.380  44.905  1.00  0.00     0.210 HD
ENDBRANCH  25  28
ENDBRANCH   2   6
ENDBRANCH   1   2
BRANCH   1  30
ATOM     30  C   UNL     1      16.261  -9.013  40.918  1.00  0.00     0.028 C 
BRANCH  30  31
ATOM     31  C   UNL     1      15.489 -10.078  41.661  1.00  0.00    -0.028 C 
ATOM     32  C   UNL     1      15.006 -11.213  41.103  1.00  0.00    -0.080 C 
ATOM     33  C   UNL     1      15.142 -11.506  39.629  1.00  0.00     0.039 C 
ATOM     34  C   UNL     1      14.297 -12.228  41.963  1.00  0.00     0.039 C 
ENDBRANCH  30  31
ENDBRANCH   1  30
TORSDOF 6
ENDMDL
MODEL 7
REMARK VINA RESULT:    -5.023      1.948      8.165
REMARK INTER + INTRA:          -8.623
REMARK INTER:                  -6.574
REMARK INTRA:                  -2.049
REMARK UNBOUND:                -1.986
REMARK SMILES CC(C)=CCC[C@H](C(=O)[O-])[C@@H]1CC[C@@]2(C)C3=C(CC[C@@]12C)[C@@]1(C)CC[C@H](O)C(C)(C)[C@H]1CC3
REMARK SMILES IDX 6 1 7 2 8 3 9 4 10 5 11 6 12 7 20 8 13 9 14 10 19 11 21 12
REMARK SMILES IDX 15 13 16 14 18 15 17 16 33 17 22 18 32 19 31 20 24 21 23 22
REMARK SMILES IDX 28 23 25 24 26 25 29 26 30 27 27 28 5 30 4 31 2 32 1 33 3 34
REMARK H PARENT 27 29
REMARK Flexibility Score: inf
ROOT
ATOM      1  C   UNL     1      17.519  -9.326  39.865  1.00  0.00     0.014 C 
ENDROOT
BRANCH   1   2
ATOM      2  C   UNL     1      17.699  -9.864  41.312  1.00  0.00     0.039 C 
BRANCH   2   3
ATOM      3  C   UNL     1      17.014  -8.999  42.350  1.00  0.00     0.045 C 
ATOM      4  O   UNL     1      16.863  -9.425  43.524  1.00  0.00    -0.550 OA
ATOM      5  O   UNL     1      16.509  -7.745  42.020  1.00  0.00    -0.550 OA
ENDBRANCH   2   3
BRANCH   2   6
ATOM      6  C   UNL     1      19.187 -10.249  41.642  1.00  0.00     0.004 C 
ATOM      7  C   UNL     1      20.113 -10.066  40.444  1.00  0.00     0.006 C 
ATOM      8  C   UNL     1      19.598 -11.627  42.305  1.00  0.00    -0.020 C 
ATOM      9  C   UNL     1      21.416 -10.708  40.865  1.00  0.00     0.012 C 
ATOM     10  C   UNL     1      21.025 -11.980  41.647  1.00  0.00    -0.006 C 
ATOM     11  C   UNL     1      19.697 -11.449  43.852  1.00  0.00     0.012 C 
ATOM     12  C   UNL     1      18.542 -12.745  42.089  1.00  0.00     0.012 C 
ATOM     13  C   UNL     1      20.925 -13.139  40.601  1.00  0.00     0.017 C 
ATOM     14  C   UNL     1      22.168 -12.290  42.664  1.00  0.00    -0.064 C 
ATOM     15  C   UNL     1      21.015 -10.826  44.271  1.00  0.00     0.032 C 
ATOM     16  C   UNL     1      22.129 -11.786  43.935  1.00  0.00    -0.064 C 
ATOM     17  C   UNL     1      23.393 -13.036  42.148  1.00  0.00     0.032 C 
ATOM     18  C   UNL     1      23.203 -12.078  45.006  1.00  0.00    -0.008 C 
ATOM     19  C   UNL     1      24.576 -13.107  43.105  1.00  0.00     0.009 C 
ATOM     20  C   UNL     1      24.167 -13.251  44.584  1.00  0.00     0.007 C 
ATOM     21  C   UNL     1      22.515 -12.413  46.375  1.00  0.00     0.014 C 
ATOM     22  C   UNL     1      24.030 -10.775  45.187  1.00  0.00     0.016 C 
ATOM     23  C   UNL     1      23.708 -14.691  45.066  1.00  0.00    -0.006 C 
ATOM     24  C   UNL     1      23.371 -13.307  47.267  1.00  0.00     0.033 C 
ATOM     25  C   UNL     1      23.616 -14.697  46.648  1.00  0.00     0.120 C 
ATOM     26  C   UNL     1      22.335 -15.123  44.472  1.00  0.00     0.014 C 
ATOM     27  C   UNL     1      24.735 -15.765  44.611  1.00  0.00     0.014 C 
BRANCH  25  28
ATOM     28  O   UNL     1      24.800 -15.200  47.226  1.00  0.00    -0.393 OA
ATOM     29  H   UNL     1      24.547 -15.794  47.981  1.00  0.00     0.210 HD
ENDBRANCH  25  28
ENDBRANCH   2   6
ENDBRANCH   1   2
BRANCH   1  30
ATOM     30  C   UNL     1      16.500 -10.125  39.030  1.00  0.00     0.028 C 
BRANCH  30  31
ATOM     31  C   UNL     1      16.745 -11.615  39.103  1.00  0.00    -0.028 C 
ATOM     32  C   UNL     1      17.685 -12.278  38.390  1.00  0.00    -0.080 C 
ATOM     33  C   UNL     1      18.566 -11.586  37.379  1.00  0.00     0.039 C 
ATOM     34  C   UNL     1      17.870 -13.760  38.591  1.00  0.00     0.039 C 
ENDBRANCH  30  31
ENDBRANCH   1  30
TORSDOF 6
ENDMDL
MODEL 8
REMARK VINA RESULT:    -5.023      2.095      7.682
REMARK INTER + INTRA:          -8.623
REMARK INTER:                  -6.541
REMARK INTRA:                  -2.082
REMARK UNBOUND:                -1.986
REMARK SMILES CC(C)=CCC[C@H](C(=O)[O-])[C@@H]1CC[C@@]2(C)C3=C(CC[C@@]12C)[C@@]1(C)CC[C@H](O)C(C)(C)[C@H]1CC3
REMARK SMILES IDX 6 1 7 2 8 3 9 4 10 5 11 6 12 7 20 8 13 9 14 10 19 11 21 12
REMARK SMILES IDX 15 13 16 14 18 15 17 16 33 17 22 18 32 19 31 20 24 21 23 22
REMARK SMILES IDX 28 23 25 24 26 25 29 26 30 27 27 28 5 30 4 31 2 32 1 33 3 34
REMARK H PARENT 27 29
REMARK Flexibility Score: inf
ROOT
ATOM      1  C   UNL     1      15.722 -11.040  40.050  1.00  0.00     0.014 C 
ENDROOT
BRANCH   1   2
ATOM      2  C   UNL     1      16.893 -12.058  40.141  1.00  0.00     0.039 C 
BRANCH   2   3
ATOM      3  C   UNL     1      16.507 -13.441  39.658  1.00  0.00     0.045 C 
ATOM      4  O   UNL     1      16.662 -13.752  38.449  1.00  0.00    -0.550 OA
ATOM      5  O   UNL     1      15.944 -14.373  40.525  1.00  0.00    -0.550 OA
ENDBRANCH   2   3
BRANCH   2   6
ATOM      6  C   UNL     1      17.634 -12.016  41.526  1.00  0.00     0.004 C 
ATOM      7  C   UNL     1      17.258 -10.789  42.348  1.00  0.00     0.006 C 
ATOM      8  C   UNL     1      19.202 -12.178  41.673  1.00  0.00    -0.020 C 
ATOM      9  C   UNL     1      18.233 -10.789  43.505  1.00  0.00     0.012 C 
ATOM     10  C   UNL     1      19.590 -11.223  42.912  1.00  0.00    -0.006 C 
ATOM     11  C   UNL     1      19.545 -13.672  41.960  1.00  0.00     0.012 C 
ATOM     12  C   UNL     1      19.976 -11.823  40.374  1.00  0.00     0.012 C 
ATOM     13  C   UNL     1      20.317  -9.919  42.449  1.00  0.00     0.017 C 
ATOM     14  C   UNL     1      20.414 -11.908  44.046  1.00  0.00    -0.064 C 
ATOM     15  C   UNL     1      19.346 -14.034  43.419  1.00  0.00     0.032 C 
ATOM     16  C   UNL     1      20.341 -13.260  44.247  1.00  0.00    -0.064 C 
ATOM     17  C   UNL     1      21.174 -11.007  45.013  1.00  0.00     0.032 C 
ATOM     18  C   UNL     1      21.154 -14.012  45.324  1.00  0.00    -0.008 C 
ATOM     19  C   UNL     1      21.765 -11.698  46.235  1.00  0.00     0.009 C 
ATOM     20  C   UNL     1      22.291 -13.118  45.949  1.00  0.00     0.007 C 
ATOM     21  C   UNL     1      21.769 -15.318  44.713  1.00  0.00     0.014 C 
ATOM     22  C   UNL     1      20.155 -14.424  46.440  1.00  0.00     0.016 C 
ATOM     23  C   UNL     1      23.697 -13.232  45.222  1.00  0.00    -0.006 C 
ATOM     24  C   UNL     1      23.043 -15.763  45.424  1.00  0.00     0.033 C 
ATOM     25  C   UNL     1      24.186 -14.738  45.284  1.00  0.00     0.120 C 
ATOM     26  C   UNL     1      23.653 -12.770  43.736  1.00  0.00     0.014 C 
ATOM     27  C   UNL     1      24.744 -12.326  45.928  1.00  0.00     0.014 C 
BRANCH  25  28
ATOM     28  O   UNL     1      25.059 -14.946  46.372  1.00  0.00    -0.393 OA
ATOM     29  H   UNL     1      25.466 -15.847  46.274  1.00  0.00     0.210 HD
ENDBRANCH  25  28
ENDBRANCH   2   6
ENDBRANCH   1   2
BRANCH   1  30
ATOM     30  C   UNL     1      15.928  -9.953  38.977  1.00  0.00     0.028 C 
BRANCH  30  31
ATOM     31  C   UNL     1      17.386  -9.600  38.795  1.00  0.00    -0.028 C 
ATOM     32  C   UNL     1      18.020  -8.588  39.433  1.00  0.00    -0.080 C 
ATOM     33  C   UNL     1      17.300  -7.650  40.370  1.00  0.00     0.039 C 
ATOM     34  C   UNL     1      19.495  -8.369  39.209  1.00  0.00     0.039 C 
ENDBRANCH  30  31
ENDBRANCH   1  30
TORSDOF 6
ENDMDL
MODEL 9
REMARK VINA RESULT:    -5.015      2.302      3.662
REMARK INTER + INTRA:          -8.613
REMARK INTER:                  -7.102
REMARK INTRA:                  -1.511
REMARK UNBOUND:                -1.986
REMARK SMILES CC(C)=CCC[C@H](C(=O)[O-])[C@@H]1CC[C@@]2(C)C3=C(CC[C@@]12C)[C@@]1(C)CC[C@H](O)C(C)(C)[C@H]1CC3
REMARK SMILES IDX 6 1 7 2 8 3 9 4 10 5 11 6 12 7 20 8 13 9 14 10 19 11 21 12
REMARK SMILES IDX 15 13 16 14 18 15 17 16 33 17 22 18 32 19 31 20 24 21 23 22
REMARK SMILES IDX 28 23 25 24 26 25 29 26 30 27 27 28 5 30 4 31 2 32 1 33 3 34
REMARK H PARENT 27 29
REMARK Flexibility Score: inf
ROOT
ATOM      1  C   UNL     1      25.026 -13.433  45.669  1.00  0.00     0.014 C 
ENDROOT
BRANCH   1   2
ATOM      2  C   UNL     1      24.307 -12.067  45.491  1.00  0.00     0.039 C 
BRANCH   2   3
ATOM      3  C   UNL     1      23.808 -11.491  46.801  1.00  0.00     0.045 C 
ATOM      4  O   UNL     1      24.607 -10.898  47.572  1.00  0.00    -0.550 OA
ATOM      5  O   UNL     1      22.482 -11.638  47.191  1.00  0.00    -0.550 OA
ENDBRANCH   2   3
BRANCH   2   6
ATOM      6  C   UNL     1      23.255 -12.075  44.323  1.00  0.00     0.004 C 
ATOM      7  C   UNL     1      23.727 -12.891  43.124  1.00  0.00     0.006 C 
ATOM      8  C   UNL     1      22.612 -10.756  43.728  1.00  0.00    -0.020 C 
ATOM      9  C   UNL     1      22.726 -12.582  42.032  1.00  0.00     0.012 C 
ATOM     10  C   UNL     1      22.412 -11.077  42.162  1.00  0.00    -0.006 C 
ATOM     11  C   UNL     1      21.254 -10.474  44.443  1.00  0.00     0.012 C 
ATOM     12  C   UNL     1      23.476  -9.491  43.979  1.00  0.00     0.012 C 
ATOM     13  C   UNL     1      23.448 -10.322  41.266  1.00  0.00     0.017 C 
ATOM     14  C   UNL     1      20.971 -10.837  41.613  1.00  0.00    -0.064 C 
ATOM     15  C   UNL     1      20.125 -11.311  43.875  1.00  0.00     0.032 C 
ATOM     16  C   UNL     1      19.886 -10.890  42.446  1.00  0.00    -0.064 C 
ATOM     17  C   UNL     1      20.801 -10.698  40.105  1.00  0.00     0.032 C 
ATOM     18  C   UNL     1      18.436 -10.628  41.983  1.00  0.00    -0.008 C 
ATOM     19  C   UNL     1      19.364 -10.704  39.597  1.00  0.00     0.009 C 
ATOM     20  C   UNL     1      18.373  -9.996  40.541  1.00  0.00     0.007 C 
ATOM     21  C   UNL     1      17.707  -9.697  43.013  1.00  0.00     0.014 C 
ATOM     22  C   UNL     1      17.708 -12.001  41.974  1.00  0.00     0.016 C 
ATOM     23  C   UNL     1      18.361  -8.410  40.514  1.00  0.00    -0.006 C 
ATOM     24  C   UNL     1      16.583  -8.881  42.382  1.00  0.00     0.033 C 
ATOM     25  C   UNL     1      17.097  -7.893  41.317  1.00  0.00     0.120 C 
ATOM     26  C   UNL     1      19.648  -7.781  41.125  1.00  0.00     0.014 C 
ATOM     27  C   UNL     1      18.281  -7.896  39.049  1.00  0.00     0.014 C 
BRANCH  25  28
ATOM     28  O   UNL     1      16.017  -7.625  40.450  1.00  0.00    -0.393 OA
ATOM     29  H   UNL     1      16.383  -7.234  39.613  1.00  0.00     0.210 HD
ENDBRANCH  25  28
ENDBRANCH   2   6
ENDBRANCH   1   2
BRANCH   1  30
ATOM     30  C   UNL     1      24.202 -14.469  46.458  1.00  0.00     0.028 C 
BRANCH  30  31
ATOM     31  C   UNL     1      23.617 -15.536  45.562  1.00  0.00    -0.028 C 
ATOM     32  C   UNL     1      22.321 -15.591  45.173  1.00  0.00    -0.080 C 
ATOM     33  C   UNL     1      21.292 -14.601  45.659  1.00  0.00     0.039 C 
ATOM     34  C   UNL     1      21.868 -16.676  44.231  1.00  0.00     0.039 C 
ENDBRANCH  30  31
ENDBRANCH   1  30
TORSDOF 6
ENDMDL
