MODEL 1
REMARK VINA RESULT:    -5.646      0.000      0.000
REMARK INTER + INTRA:          -6.173
REMARK INTER:                  -6.141
REMARK INTRA:                  -0.032
REMARK UNBOUND:                -0.032
REMARK SMILES O=C([O-])c1ccc(O)cc1
REMARK SMILES IDX 4 1 5 2 10 3 6 4 9 5 7 6 2 7 1 8 3 9 8 10
REMARK H PARENT 8 11
REMARK Flexibility Score: inf
ROOT
ATOM      1  C   UNL     1     -30.024  57.774   4.604  1.00  0.00    -0.003 A 
ATOM      2  C   UNL     1     -30.808  56.790   3.973  1.00  0.00     0.014 A 
ATOM      3  C   UNL     1     -28.938  58.332   3.906  1.00  0.00     0.014 A 
ATOM      4  C   UNL     1     -30.509  56.374   2.671  1.00  0.00     0.047 A 
ATOM      5  C   UNL     1     -28.643  57.914   2.604  1.00  0.00     0.047 A 
ATOM      6  C   UNL     1     -29.428  56.933   1.984  1.00  0.00     0.115 A 
ENDROOT
BRANCH   1   7
ATOM      7  C   UNL     1     -30.334  58.218   5.981  1.00  0.00     0.071 C 
ATOM      8  O   UNL     1     -29.408  58.447   6.804  1.00  0.00    -0.545 OA
ATOM      9  O   UNL     1     -31.653  58.387   6.386  1.00  0.00    -0.545 OA
ENDBRANCH   1   7
BRANCH   6  10
ATOM     10  O   UNL     1     -29.143  56.510   0.687  1.00  0.00    -0.508 OA
ATOM     11  H   UNL     1     -28.456  55.789   0.506  1.00  0.00     0.293 HD
ENDBRANCH   6  10
TORSDOF 2
ENDMDL
MODEL 2
REMARK VINA RESULT:    -5.591     12.400     14.469
REMARK INTER + INTRA:          -6.113
REMARK INTER:                  -6.086
REMARK INTRA:                  -0.027
REMARK UNBOUND:                -0.032
REMARK SMILES O=C([O-])c1ccc(O)cc1
REMARK SMILES IDX 4 1 5 2 10 3 6 4 9 5 7 6 2 7 1 8 3 9 8 10
REMARK H PARENT 8 11
REMARK Flexibility Score: inf
ROOT
ATOM      1  C   UNL     1     -20.029  58.100  -5.439  1.00  0.00    -0.003 A 
ATOM      2  C   UNL     1     -19.624  58.100  -6.786  1.00  0.00     0.014 A 
ATOM      3  C   UNL     1     -19.080  58.379  -4.440  1.00  0.00     0.014 A 
ATOM      4  C   UNL     1     -18.294  58.374  -7.125  1.00  0.00     0.047 A 
ATOM      5  C   UNL     1     -17.752  58.653  -4.783  1.00  0.00     0.047 A 
ATOM      6  C   UNL     1     -17.356  58.650  -6.127  1.00  0.00     0.115 A 
ENDROOT
BRANCH   1   7
ATOM      7  C   UNL     1     -21.434  57.811  -5.074  1.00  0.00     0.071 C 
ATOM      8  O   UNL     1     -22.249  58.750  -4.870  1.00  0.00    -0.545 OA
ATOM      9  O   UNL     1     -21.874  56.498  -4.950  1.00  0.00    -0.545 OA
ENDBRANCH   1   7
BRANCH   6  10
ATOM     10  O   UNL     1     -16.035  58.922  -6.479  1.00  0.00    -0.508 OA
ATOM     11  H   UNL     1     -15.733  59.859  -6.714  1.00  0.00     0.293 HD
ENDBRANCH   6  10
TORSDOF 2
ENDMDL
MODEL 3
REMARK VINA RESULT:    -5.504      3.411      5.217
REMARK INTER + INTRA:          -6.019
REMARK INTER:                  -5.987
REMARK INTRA:                  -0.031
REMARK UNBOUND:                -0.032
REMARK SMILES O=C([O-])c1ccc(O)cc1
REMARK SMILES IDX 4 1 5 2 10 3 6 4 9 5 7 6 2 7 1 8 3 9 8 10
REMARK H PARENT 8 11
REMARK Flexibility Score: inf
ROOT
ATOM      1  C   UNL     1     -28.255  57.042   0.344  1.00  0.00    -0.003 A 
ATOM      2  C   UNL     1     -28.740  56.156   1.323  1.00  0.00     0.014 A 
ATOM      3  C   UNL     1     -29.085  58.083  -0.107  1.00  0.00     0.014 A 
ATOM      4  C   UNL     1     -30.032  56.310   1.838  1.00  0.00     0.047 A 
ATOM      5  C   UNL     1     -30.376  58.233   0.410  1.00  0.00     0.047 A 
ATOM      6  C   UNL     1     -30.852  57.346   1.384  1.00  0.00     0.115 A 
ENDROOT
BRANCH   1   7
ATOM      7  C   UNL     1     -26.889  56.885  -0.205  1.00  0.00     0.071 C 
ATOM      8  O   UNL     1     -26.683  56.978  -1.445  1.00  0.00    -0.545 OA
ATOM      9  O   UNL     1     -25.815  56.631   0.640  1.00  0.00    -0.545 OA
ENDBRANCH   1   7
BRANCH   6  10
ATOM     10  O   UNL     1     -32.136  57.487   1.907  1.00  0.00    -0.508 OA
ATOM     11  H   UNL     1     -32.759  58.220   1.589  1.00  0.00     0.293 HD
ENDBRANCH   6  10
TORSDOF 2
ENDMDL
MODEL 4
REMARK VINA RESULT:    -5.489      3.216      5.381
REMARK INTER + INTRA:          -6.003
REMARK INTER:                  -5.971
REMARK INTRA:                  -0.031
REMARK UNBOUND:                -0.032
REMARK SMILES O=C([O-])c1ccc(O)cc1
REMARK SMILES IDX 4 1 5 2 10 3 6 4 9 5 7 6 2 7 1 8 3 9 8 10
REMARK H PARENT 8 11
REMARK Flexibility Score: inf
ROOT
ATOM      1  C   UNL     1     -28.388  57.128   0.162  1.00  0.00    -0.003 A 
ATOM      2  C   UNL     1     -29.322  58.157  -0.060  1.00  0.00     0.014 A 
ATOM      3  C   UNL     1     -28.651  56.171   1.157  1.00  0.00     0.014 A 
ATOM      4  C   UNL     1     -30.495  58.224   0.701  1.00  0.00     0.047 A 
ATOM      5  C   UNL     1     -29.824  56.240   1.915  1.00  0.00     0.047 A 
ATOM      6  C   UNL     1     -30.749  57.269   1.689  1.00  0.00     0.115 A 
ENDROOT
BRANCH   1   7
ATOM      7  C   UNL     1     -27.146  57.052  -0.639  1.00  0.00     0.071 C 
ATOM      8  O   UNL     1     -26.038  56.830  -0.082  1.00  0.00    -0.545 OA
ATOM      9  O   UNL     1     -27.185  57.225  -2.018  1.00  0.00    -0.545 OA
ENDBRANCH   1   7
BRANCH   6  10
ATOM     10  O   UNL     1     -31.921  57.348   2.438  1.00  0.00    -0.508 OA
ATOM     11  H   UNL     1     -32.621  56.616   2.404  1.00  0.00     0.293 HD
ENDBRANCH   6  10
TORSDOF 2
ENDMDL
MODEL 5
REMARK VINA RESULT:    -5.407      1.882      2.574
REMARK INTER + INTRA:          -5.913
REMARK INTER:                  -5.883
REMARK INTRA:                  -0.030
REMARK UNBOUND:                -0.032
REMARK SMILES O=C([O-])c1ccc(O)cc1
REMARK SMILES IDX 4 1 5 2 10 3 6 4 9 5 7 6 2 7 1 8 3 9 8 10
REMARK H PARENT 8 11
REMARK Flexibility Score: inf
ROOT
ATOM      1  C   UNL     1     -29.283  58.003   2.618  1.00  0.00    -0.003 A 
ATOM      2  C   UNL     1     -29.771  56.706   2.371  1.00  0.00     0.014 A 
ATOM      3  C   UNL     1     -29.258  58.934   1.566  1.00  0.00     0.014 A 
ATOM      4  C   UNL     1     -30.224  56.351   1.096  1.00  0.00     0.047 A 
ATOM      5  C   UNL     1     -29.713  58.576   0.292  1.00  0.00     0.047 A 
ATOM      6  C   UNL     1     -30.196  57.283   0.054  1.00  0.00     0.115 A 
ENDROOT
BRANCH   1   7
ATOM      7  C   UNL     1     -28.802  58.384   3.964  1.00  0.00     0.071 C 
ATOM      8  O   UNL     1     -29.529  58.207   4.978  1.00  0.00    -0.545 OA
ATOM      9  O   UNL     1     -27.540  58.943   4.130  1.00  0.00    -0.545 OA
ENDBRANCH   1   7
BRANCH   6  10
ATOM     10  O   UNL     1     -30.652  56.916  -1.210  1.00  0.00    -0.508 OA
ATOM     11  H   UNL     1     -30.616  57.558  -1.992  1.00  0.00     0.293 HD
ENDBRANCH   6  10
TORSDOF 2
ENDMDL
MODEL 6
REMARK VINA RESULT:    -5.399      3.713      6.797
REMARK INTER + INTRA:          -5.904
REMARK INTER:                  -5.871
REMARK INTRA:                  -0.033
REMARK UNBOUND:                -0.032
REMARK SMILES O=C([O-])c1ccc(O)cc1
REMARK SMILES IDX 4 1 5 2 10 3 6 4 9 5 7 6 2 7 1 8 3 9 8 10
REMARK H PARENT 8 11
REMARK Flexibility Score: inf
ROOT
ATOM      1  C   UNL     1     -27.824  57.312  -1.631  1.00  0.00    -0.003 A 
ATOM      2  C   UNL     1     -27.335  56.929  -0.369  1.00  0.00     0.014 A 
ATOM      3  C   UNL     1     -29.024  58.042  -1.705  1.00  0.00     0.014 A 
ATOM      4  C   UNL     1     -28.033  57.270   0.794  1.00  0.00     0.047 A 
ATOM      5  C   UNL     1     -29.719  58.381  -0.540  1.00  0.00     0.047 A 
ATOM      6  C   UNL     1     -29.225  57.995   0.713  1.00  0.00     0.115 A 
ENDROOT
BRANCH   1   7
ATOM      7  C   UNL     1     -27.090  56.954  -2.865  1.00  0.00     0.071 C 
ATOM      8  O   UNL     1     -25.830  56.946  -2.881  1.00  0.00    -0.545 OA
ATOM      9  O   UNL     1     -27.781  56.624  -4.025  1.00  0.00    -0.545 OA
ENDBRANCH   1   7
BRANCH   6  10
ATOM     10  O   UNL     1     -29.910  58.329   1.880  1.00  0.00    -0.508 OA
ATOM     11  H   UNL     1     -30.359  59.229   1.990  1.00  0.00     0.293 HD
ENDBRANCH   6  10
TORSDOF 2
ENDMDL
MODEL 7
REMARK VINA RESULT:    -5.379     13.454     15.172
REMARK INTER + INTRA:          -5.882
REMARK INTER:                  -5.848
REMARK INTRA:                  -0.034
REMARK UNBOUND:                -0.032
REMARK SMILES O=C([O-])c1ccc(O)cc1
REMARK SMILES IDX 4 1 5 2 10 3 6 4 9 5 7 6 2 7 1 8 3 9 8 10
REMARK H PARENT 8 11
REMARK Flexibility Score: inf
ROOT
ATOM      1  C   UNL     1     -17.668  59.154  -5.105  1.00  0.00    -0.003 A 
ATOM      2  C   UNL     1     -18.575  58.706  -4.126  1.00  0.00     0.014 A 
ATOM      3  C   UNL     1     -17.982  58.966  -6.462  1.00  0.00     0.014 A 
ATOM      4  C   UNL     1     -19.770  58.082  -4.500  1.00  0.00     0.047 A 
ATOM      5  C   UNL     1     -19.178  58.342  -6.832  1.00  0.00     0.047 A 
ATOM      6  C   UNL     1     -20.075  57.898  -5.851  1.00  0.00     0.115 A 
ENDROOT
BRANCH   1   7
ATOM      7  C   UNL     1     -16.402  59.813  -4.715  1.00  0.00     0.071 C 
ATOM      8  O   UNL     1     -15.413  59.813  -5.496  1.00  0.00    -0.545 OA
ATOM      9  O   UNL     1     -16.287  60.443  -3.481  1.00  0.00    -0.545 OA
ENDBRANCH   1   7
BRANCH   6  10
ATOM     10  O   UNL     1     -21.269  57.276  -6.209  1.00  0.00    -0.508 OA
ATOM     11  H   UNL     1     -21.328  56.272  -6.329  1.00  0.00     0.293 HD
ENDBRANCH   6  10
TORSDOF 2
ENDMDL
MODEL 8
REMARK VINA RESULT:    -5.214      1.537      4.410
REMARK INTER + INTRA:          -5.704
REMARK INTER:                  -5.668
REMARK INTRA:                  -0.036
REMARK UNBOUND:                -0.032
REMARK SMILES O=C([O-])c1ccc(O)cc1
REMARK SMILES IDX 4 1 5 2 10 3 6 4 9 5 7 6 2 7 1 8 3 9 8 10
REMARK H PARENT 8 11
REMARK Flexibility Score: inf
ROOT
ATOM      1  C   UNL     1     -30.181  57.744   1.627  1.00  0.00    -0.003 A 
ATOM      2  C   UNL     1     -30.959  57.160   2.644  1.00  0.00     0.014 A 
ATOM      3  C   UNL     1     -29.008  58.434   1.976  1.00  0.00     0.014 A 
ATOM      4  C   UNL     1     -30.567  57.266   3.983  1.00  0.00     0.047 A 
ATOM      5  C   UNL     1     -28.619  58.538   3.316  1.00  0.00     0.047 A 
ATOM      6  C   UNL     1     -29.399  57.954   4.323  1.00  0.00     0.115 A 
ENDROOT
BRANCH   1   7
ATOM      7  C   UNL     1     -30.590  57.636   0.208  1.00  0.00     0.071 C 
ATOM      8  O   UNL     1     -31.508  56.844  -0.135  1.00  0.00    -0.545 OA
ATOM      9  O   UNL     1     -29.966  58.406  -0.766  1.00  0.00    -0.545 OA
ENDBRANCH   1   7
BRANCH   6  10
ATOM     10  O   UNL     1     -29.022  58.051   5.660  1.00  0.00    -0.508 OA
ATOM     11  H   UNL     1     -28.048  58.112   5.932  1.00  0.00     0.293 HD
ENDBRANCH   6  10
TORSDOF 2
ENDMDL
MODEL 9
REMARK VINA RESULT:    -5.213      1.588      4.603
REMARK INTER + INTRA:          -5.702
REMARK INTER:                  -5.666
REMARK INTRA:                  -0.036
REMARK UNBOUND:                -0.032
REMARK SMILES O=C([O-])c1ccc(O)cc1
REMARK SMILES IDX 4 1 5 2 10 3 6 4 9 5 7 6 2 7 1 8 3 9 8 10
REMARK H PARENT 8 11
REMARK Flexibility Score: inf
ROOT
ATOM      1  C   UNL     1     -30.398  57.630   1.738  1.00  0.00    -0.003 A 
ATOM      2  C   UNL     1     -29.179  58.295   1.965  1.00  0.00     0.014 A 
ATOM      3  C   UNL     1     -31.116  57.128   2.837  1.00  0.00     0.014 A 
ATOM      4  C   UNL     1     -28.690  58.452   3.266  1.00  0.00     0.047 A 
ATOM      5  C   UNL     1     -30.625  57.287   4.137  1.00  0.00     0.047 A 
ATOM      6  C   UNL     1     -29.410  57.950   4.354  1.00  0.00     0.115 A 
ENDROOT
BRANCH   1   7
ATOM      7  C   UNL     1     -30.920  57.460   0.364  1.00  0.00     0.071 C 
ATOM      8  O   UNL     1     -32.024  56.884   0.164  1.00  0.00    -0.545 OA
ATOM      9  O   UNL     1     -30.200  57.932  -0.727  1.00  0.00    -0.545 OA
ENDBRANCH   1   7
BRANCH   6  10
ATOM     10  O   UNL     1     -28.911  58.115   5.645  1.00  0.00    -0.508 OA
ATOM     11  H   UNL     1     -28.958  57.370   6.329  1.00  0.00     0.293 HD
ENDBRANCH   6  10
TORSDOF 2
ENDMDL
