MODEL 1
REMARK VINA RESULT:    -5.451      0.000      0.000
REMARK INTER + INTRA:          -6.297
REMARK INTER:                  -6.248
REMARK INTRA:                  -0.049
REMARK UNBOUND:                -0.049
REMARK SMILES O=C([O-])c1cc(O)c(O)c(O)c1
REMARK SMILES IDX 4 1 5 2 12 3 6 4 10 5 8 6 2 7 1 8 3 9 7 10 11 12 9 14
REMARK H PARENT 7 11 11 13 9 15
REMARK Flexibility Score: inf
ROOT
ATOM      1  C   UNL     1      30.702 -91.404  37.280  1.00  0.00     0.005 A 
ATOM      2  C   UNL     1      31.683 -90.560  36.735  1.00  0.00     0.060 A 
ATOM      3  C   UNL     1      29.480 -90.850  37.691  1.00  0.00     0.060 A 
ATOM      4  C   UNL     1      31.456 -89.186  36.600  1.00  0.00     0.162 A 
ATOM      5  C   UNL     1      29.240 -89.476  37.562  1.00  0.00     0.162 A 
ATOM      6  C   UNL     1      30.221 -88.635  37.018  1.00  0.00     0.200 A 
ENDROOT
BRANCH   1   7
ATOM      7  C   UNL     1      30.956 -92.856  37.416  1.00  0.00     0.072 C 
ATOM      8  O   UNL     1      30.050 -93.692  37.162  1.00  0.00    -0.545 OA
ATOM      9  O   UNL     1      32.202 -93.317  37.829  1.00  0.00    -0.545 OA
ENDBRANCH   1   7
BRANCH   4  10
ATOM     10  O   UNL     1      32.479 -88.410  36.048  1.00  0.00    -0.504 OA
ATOM     11  H   UNL     1      32.445 -87.405  35.965  1.00  0.00     0.293 HD
ENDBRANCH   4  10
BRANCH   5  12
ATOM     12  O   UNL     1      28.024 -88.935  37.973  1.00  0.00    -0.504 OA
ATOM     13  H   UNL     1      27.894 -88.568  38.909  1.00  0.00     0.293 HD
ENDBRANCH   5  12
BRANCH   6  14
ATOM     14  O   UNL     1      29.932 -87.273  36.910  1.00  0.00    -0.502 OA
ATOM     15  H   UNL     1      30.472 -86.621  36.359  1.00  0.00     0.293 HD
ENDBRANCH   6  14
TORSDOF 4
ENDMDL
MODEL 2
REMARK VINA RESULT:    -5.415      0.081      2.436
REMARK INTER + INTRA:          -6.256
REMARK INTER:                  -6.207
REMARK INTRA:                  -0.049
REMARK UNBOUND:                -0.049
REMARK SMILES O=C([O-])c1cc(O)c(O)c(O)c1
REMARK SMILES IDX 4 1 5 2 12 3 6 4 10 5 8 6 2 7 1 8 3 9 7 10 11 12 9 14
REMARK H PARENT 7 11 11 13 9 15
REMARK Flexibility Score: inf
ROOT
ATOM      1  C   UNL     1      30.702 -91.390  37.296  1.00  0.00     0.005 A 
ATOM      2  C   UNL     1      29.465 -90.861  37.696  1.00  0.00     0.060 A 
ATOM      3  C   UNL     1      31.680 -90.522  36.785  1.00  0.00     0.060 A 
ATOM      4  C   UNL     1      29.199 -89.491  37.592  1.00  0.00     0.162 A 
ATOM      5  C   UNL     1      31.427 -89.149  36.675  1.00  0.00     0.162 A 
ATOM      6  C   UNL     1      30.190 -88.623  37.075  1.00  0.00     0.200 A 
ENDROOT
BRANCH   1   7
ATOM      7  C   UNL     1      30.968 -92.841  37.413  1.00  0.00     0.072 C 
ATOM      8  O   UNL     1      30.071 -93.681  37.140  1.00  0.00    -0.545 OA
ATOM      9  O   UNL     1      32.215 -93.297  37.829  1.00  0.00    -0.545 OA
ENDBRANCH   1   7
BRANCH   4  10
ATOM     10  O   UNL     1      27.945 -89.039  38.011  1.00  0.00    -0.504 OA
ATOM     11  H   UNL     1      27.287 -88.560  37.413  1.00  0.00     0.293 HD
ENDBRANCH   4  10
BRANCH   5  12
ATOM     12  O   UNL     1      32.403 -88.294  36.166  1.00  0.00    -0.504 OA
ATOM     13  H   UNL     1      32.431 -87.312  36.414  1.00  0.00     0.293 HD
ENDBRANCH   5  12
BRANCH   6  14
ATOM     14  O   UNL     1      29.989 -87.247  36.945  1.00  0.00    -0.502 OA
ATOM     15  H   UNL     1      29.894 -86.769  36.060  1.00  0.00     0.293 HD
ENDBRANCH   6  14
TORSDOF 4
ENDMDL
MODEL 3
REMARK VINA RESULT:    -4.674     11.643     13.697
REMARK INTER + INTRA:          -5.406
REMARK INTER:                  -5.361
REMARK INTRA:                  -0.045
REMARK UNBOUND:                -0.049
REMARK SMILES O=C([O-])c1cc(O)c(O)c(O)c1
REMARK SMILES IDX 4 1 5 2 12 3 6 4 10 5 8 6 2 7 1 8 3 9 7 10 11 12 9 14
REMARK H PARENT 7 11 11 13 9 15
REMARK Flexibility Score: inf
ROOT
ATOM      1  C   UNL     1      26.128 -79.595  42.023  1.00  0.00     0.005 A 
ATOM      2  C   UNL     1      25.280 -78.476  41.997  1.00  0.00     0.060 A 
ATOM      3  C   UNL     1      26.095 -80.448  43.138  1.00  0.00     0.060 A 
ATOM      4  C   UNL     1      24.412 -78.205  43.061  1.00  0.00     0.162 A 
ATOM      5  C   UNL     1      25.231 -80.188  44.209  1.00  0.00     0.162 A 
ATOM      6  C   UNL     1      24.386 -79.070  44.181  1.00  0.00     0.200 A 
ENDROOT
BRANCH   1   7
ATOM      7  C   UNL     1      27.040 -79.868  40.890  1.00  0.00     0.072 C 
ATOM      8  O   UNL     1      26.813 -80.822  40.100  1.00  0.00    -0.545 OA
ATOM      9  O   UNL     1      28.164 -79.075  40.684  1.00  0.00    -0.545 OA
ENDBRANCH   1   7
BRANCH   4  10
ATOM     10  O   UNL     1      23.598 -77.073  42.963  1.00  0.00    -0.504 OA
ATOM     11  H   UNL     1      23.572 -76.463  42.159  1.00  0.00     0.293 HD
ENDBRANCH   4  10
BRANCH   5  12
ATOM     12  O   UNL     1      25.206 -81.040  45.312  1.00  0.00    -0.504 OA
ATOM     13  H   UNL     1      25.421 -82.027  45.226  1.00  0.00     0.293 HD
ENDBRANCH   5  12
BRANCH   6  14
ATOM     14  O   UNL     1      23.543 -78.856  45.274  1.00  0.00    -0.502 OA
ATOM     15  H   UNL     1      22.719 -79.405  45.470  1.00  0.00     0.293 HD
ENDBRANCH   6  14
TORSDOF 4
ENDMDL
MODEL 4
REMARK VINA RESULT:    -4.658     13.701     15.952
REMARK INTER + INTRA:          -5.387
REMARK INTER:                  -5.335
REMARK INTRA:                  -0.053
REMARK UNBOUND:                -0.049
REMARK SMILES O=C([O-])c1cc(O)c(O)c(O)c1
REMARK SMILES IDX 4 1 5 2 12 3 6 4 10 5 8 6 2 7 1 8 3 9 7 10 11 12 9 14
REMARK H PARENT 7 11 11 13 9 15
REMARK Flexibility Score: inf
ROOT
ATOM      1  C   UNL     1      41.520 -78.740  39.926  1.00  0.00     0.005 A 
ATOM      2  C   UNL     1      40.526 -79.528  40.529  1.00  0.00     0.060 A 
ATOM      3  C   UNL     1      42.009 -79.112  38.664  1.00  0.00     0.060 A 
ATOM      4  C   UNL     1      40.024 -80.668  39.892  1.00  0.00     0.162 A 
ATOM      5  C   UNL     1      41.516 -80.251  38.015  1.00  0.00     0.162 A 
ATOM      6  C   UNL     1      40.524 -81.035  38.620  1.00  0.00     0.200 A 
ENDROOT
BRANCH   1   7
ATOM      7  C   UNL     1      42.041 -77.537  40.613  1.00  0.00     0.072 C 
ATOM      8  O   UNL     1      43.001 -76.885  40.124  1.00  0.00    -0.545 OA
ATOM      9  O   UNL     1      41.477 -77.110  41.811  1.00  0.00    -0.545 OA
ENDBRANCH   1   7
BRANCH   4  10
ATOM     10  O   UNL     1      39.036 -81.400  40.554  1.00  0.00    -0.504 OA
ATOM     11  H   UNL     1      38.721 -81.205  41.493  1.00  0.00     0.293 HD
ENDBRANCH   4  10
BRANCH   5  12
ATOM     12  O   UNL     1      42.008 -80.612  36.762  1.00  0.00    -0.504 OA
ATOM     13  H   UNL     1      42.119 -81.584  36.494  1.00  0.00     0.293 HD
ENDBRANCH   5  12
BRANCH   6  14
ATOM     14  O   UNL     1      40.066 -82.160  37.930  1.00  0.00    -0.502 OA
ATOM     15  H   UNL     1      39.974 -83.079  38.341  1.00  0.00     0.293 HD
ENDBRANCH   6  14
TORSDOF 4
ENDMDL
MODEL 5
REMARK VINA RESULT:    -4.622     13.662     15.748
REMARK INTER + INTRA:          -5.346
REMARK INTER:                  -5.293
REMARK INTRA:                  -0.053
REMARK UNBOUND:                -0.049
REMARK SMILES O=C([O-])c1cc(O)c(O)c(O)c1
REMARK SMILES IDX 4 1 5 2 12 3 6 4 10 5 8 6 2 7 1 8 3 9 7 10 11 12 9 14
REMARK H PARENT 7 11 11 13 9 15
REMARK Flexibility Score: inf
ROOT
ATOM      1  C   UNL     1      41.511 -78.785  39.901  1.00  0.00     0.005 A 
ATOM      2  C   UNL     1      42.029 -79.167  38.654  1.00  0.00     0.060 A 
ATOM      3  C   UNL     1      40.495 -79.560  40.483  1.00  0.00     0.060 A 
ATOM      4  C   UNL     1      41.547 -80.302  37.990  1.00  0.00     0.162 A 
ATOM      5  C   UNL     1      40.004 -80.697  39.830  1.00  0.00     0.162 A 
ATOM      6  C   UNL     1      40.523 -81.077  38.584  1.00  0.00     0.200 A 
ENDROOT
BRANCH   1   7
ATOM      7  C   UNL     1      42.031 -77.582  40.590  1.00  0.00     0.072 C 
ATOM      8  O   UNL     1      42.926 -76.875  40.057  1.00  0.00    -0.545 OA
ATOM      9  O   UNL     1      41.538 -77.217  41.838  1.00  0.00    -0.545 OA
ENDBRANCH   1   7
BRANCH   4  10
ATOM     10  O   UNL     1      42.113 -80.620  36.753  1.00  0.00    -0.504 OA
ATOM     11  H   UNL     1      43.101 -80.753  36.600  1.00  0.00     0.293 HD
ENDBRANCH   4  10
BRANCH   5  12
ATOM     12  O   UNL     1      38.995 -81.460  40.415  1.00  0.00    -0.504 OA
ATOM     13  H   UNL     1      38.652 -81.262  41.348  1.00  0.00     0.293 HD
ENDBRANCH   5  12
BRANCH   6  14
ATOM     14  O   UNL     1      39.999 -82.220  37.975  1.00  0.00    -0.502 OA
ATOM     15  H   UNL     1      39.018 -82.358  37.778  1.00  0.00     0.293 HD
ENDBRANCH   6  14
TORSDOF 4
ENDMDL
MODEL 6
REMARK VINA RESULT:    -4.592     13.248     15.134
REMARK INTER + INTRA:          -5.313
REMARK INTER:                  -5.260
REMARK INTRA:                  -0.053
REMARK UNBOUND:                -0.049
REMARK SMILES O=C([O-])c1cc(O)c(O)c(O)c1
REMARK SMILES IDX 4 1 5 2 12 3 6 4 10 5 8 6 2 7 1 8 3 9 7 10 11 12 9 14
REMARK H PARENT 7 11 11 13 9 15
REMARK Flexibility Score: inf
ROOT
ATOM      1  C   UNL     1      40.438 -79.755  40.211  1.00  0.00     0.005 A 
ATOM      2  C   UNL     1      41.472 -79.030  39.599  1.00  0.00     0.060 A 
ATOM      3  C   UNL     1      39.948 -80.907  39.576  1.00  0.00     0.060 A 
ATOM      4  C   UNL     1      42.014 -79.438  38.375  1.00  0.00     0.162 A 
ATOM      5  C   UNL     1      40.480 -81.328  38.351  1.00  0.00     0.162 A 
ATOM      6  C   UNL     1      41.513 -80.601  37.742  1.00  0.00     0.200 A 
ENDROOT
BRANCH   1   7
ATOM      7  C   UNL     1      39.876 -79.310  41.505  1.00  0.00     0.072 C 
ATOM      8  O   UNL     1      40.193 -78.192  41.991  1.00  0.00    -0.545 OA
ATOM      9  O   UNL     1      38.990 -80.122  42.206  1.00  0.00    -0.545 OA
ENDBRANCH   1   7
BRANCH   4  10
ATOM     10  O   UNL     1      43.041 -78.666  37.829  1.00  0.00    -0.504 OA
ATOM     11  H   UNL     1      42.900 -77.773  37.378  1.00  0.00     0.293 HD
ENDBRANCH   4  10
BRANCH   5  12
ATOM     12  O   UNL     1      39.987 -82.473  37.728  1.00  0.00    -0.504 OA
ATOM     13  H   UNL     1      39.265 -82.422  37.017  1.00  0.00     0.293 HD
ENDBRANCH   5  12
BRANCH   6  14
ATOM     14  O   UNL     1      42.009 -81.063  36.521  1.00  0.00    -0.502 OA
ATOM     15  H   UNL     1      41.882 -80.586  35.640  1.00  0.00     0.293 HD
ENDBRANCH   6  14
TORSDOF 4
ENDMDL
MODEL 7
REMARK VINA RESULT:    -4.559     11.292     13.252
REMARK INTER + INTRA:          -5.274
REMARK INTER:                  -5.223
REMARK INTRA:                  -0.052
REMARK UNBOUND:                -0.049
REMARK SMILES O=C([O-])c1cc(O)c(O)c(O)c1
REMARK SMILES IDX 4 1 5 2 12 3 6 4 10 5 8 6 2 7 1 8 3 9 7 10 11 12 9 14
REMARK H PARENT 7 11 11 13 9 15
REMARK Flexibility Score: inf
ROOT
ATOM      1  C   UNL     1      26.521 -80.221  42.189  1.00  0.00     0.005 A 
ATOM      2  C   UNL     1      25.817 -80.622  43.336  1.00  0.00     0.060 A 
ATOM      3  C   UNL     1      26.246 -78.964  41.628  1.00  0.00     0.060 A 
ATOM      4  C   UNL     1      24.855 -79.790  43.919  1.00  0.00     0.162 A 
ATOM      5  C   UNL     1      25.285 -78.121  42.201  1.00  0.00     0.162 A 
ATOM      6  C   UNL     1      24.584 -78.524  43.346  1.00  0.00     0.200 A 
ENDROOT
BRANCH   1   7
ATOM      7  C   UNL     1      27.535 -81.112  41.584  1.00  0.00     0.072 C 
ATOM      8  O   UNL     1      27.880 -80.967  40.381  1.00  0.00    -0.545 OA
ATOM      9  O   UNL     1      28.122 -82.125  42.336  1.00  0.00    -0.545 OA
ENDBRANCH   1   7
BRANCH   4  10
ATOM     10  O   UNL     1      24.197 -80.258  45.059  1.00  0.00    -0.504 OA
ATOM     11  H   UNL     1      23.620 -81.086  45.080  1.00  0.00     0.293 HD
ENDBRANCH   4  10
BRANCH   5  12
ATOM     12  O   UNL     1      25.020 -76.875  41.637  1.00  0.00    -0.504 OA
ATOM     13  H   UNL     1      24.468 -76.178  42.124  1.00  0.00     0.293 HD
ENDBRANCH   5  12
BRANCH   6  14
ATOM     14  O   UNL     1      23.637 -77.647  43.879  1.00  0.00    -0.502 OA
ATOM     15  H   UNL     1      23.414 -76.745  43.482  1.00  0.00     0.293 HD
ENDBRANCH   6  14
TORSDOF 4
ENDMDL
MODEL 8
REMARK VINA RESULT:    -4.549      1.295      4.158
REMARK INTER + INTRA:          -5.263
REMARK INTER:                  -5.215
REMARK INTRA:                  -0.047
REMARK UNBOUND:                -0.049
REMARK SMILES O=C([O-])c1cc(O)c(O)c(O)c1
REMARK SMILES IDX 4 1 5 2 12 3 6 4 10 5 8 6 2 7 1 8 3 9 7 10 11 12 9 14
REMARK H PARENT 7 11 11 13 9 15
REMARK Flexibility Score: inf
ROOT
ATOM      1  C   UNL     1      31.204 -89.775  36.800  1.00  0.00     0.005 A 
ATOM      2  C   UNL     1      32.143 -90.789  37.046  1.00  0.00     0.060 A 
ATOM      3  C   UNL     1      29.851 -90.120  36.655  1.00  0.00     0.060 A 
ATOM      4  C   UNL     1      31.747 -92.128  37.148  1.00  0.00     0.162 A 
ATOM      5  C   UNL     1      29.442 -91.456  36.753  1.00  0.00     0.162 A 
ATOM      6  C   UNL     1      30.381 -92.467  37.000  1.00  0.00     0.200 A 
ENDROOT
BRANCH   1   7
ATOM      7  C   UNL     1      31.638 -88.363  36.695  1.00  0.00     0.072 C 
ATOM      8  O   UNL     1      32.555 -88.032  35.898  1.00  0.00    -0.545 OA
ATOM      9  O   UNL     1      31.040 -87.382  37.478  1.00  0.00    -0.545 OA
ENDBRANCH   1   7
BRANCH   4  10
ATOM     10  O   UNL     1      32.738 -93.081  37.396  1.00  0.00    -0.504 OA
ATOM     11  H   UNL     1      33.672 -93.038  37.015  1.00  0.00     0.293 HD
ENDBRANCH   4  10
BRANCH   5  12
ATOM     12  O   UNL     1      28.097 -91.789  36.608  1.00  0.00    -0.504 OA
ATOM     13  H   UNL     1      27.424 -91.130  36.232  1.00  0.00     0.293 HD
ENDBRANCH   5  12
BRANCH   6  14
ATOM     14  O   UNL     1      29.921 -93.782  37.090  1.00  0.00    -0.502 OA
ATOM     15  H   UNL     1      28.983 -94.072  36.852  1.00  0.00     0.293 HD
ENDBRANCH   6  14
TORSDOF 4
ENDMDL
MODEL 9
REMARK VINA RESULT:    -4.548      1.279      4.656
REMARK INTER + INTRA:          -5.261
REMARK INTER:                  -5.215
REMARK INTRA:                  -0.046
REMARK UNBOUND:                -0.049
REMARK SMILES O=C([O-])c1cc(O)c(O)c(O)c1
REMARK SMILES IDX 4 1 5 2 12 3 6 4 10 5 8 6 2 7 1 8 3 9 7 10 11 12 9 14
REMARK H PARENT 7 11 11 13 9 15
REMARK Flexibility Score: inf
ROOT
ATOM      1  C   UNL     1      31.307 -89.736  36.815  1.00  0.00     0.005 A 
ATOM      2  C   UNL     1      29.945 -90.042  36.675  1.00  0.00     0.060 A 
ATOM      3  C   UNL     1      32.218 -90.776  37.060  1.00  0.00     0.060 A 
ATOM      4  C   UNL     1      29.489 -91.362  36.776  1.00  0.00     0.162 A 
ATOM      5  C   UNL     1      31.775 -92.101  37.163  1.00  0.00     0.162 A 
ATOM      6  C   UNL     1      30.413 -92.405  37.023  1.00  0.00     0.200 A 
ENDROOT
BRANCH   1   7
ATOM      7  C   UNL     1      31.774 -88.335  36.705  1.00  0.00     0.072 C 
ATOM      8  O   UNL     1      32.553 -87.990  35.778  1.00  0.00    -0.545 OA
ATOM      9  O   UNL     1      31.360 -87.381  37.628  1.00  0.00    -0.545 OA
ENDBRANCH   1   7
BRANCH   4  10
ATOM     10  O   UNL     1      28.119 -91.589  36.624  1.00  0.00    -0.504 OA
ATOM     11  H   UNL     1      27.691 -91.921  35.772  1.00  0.00     0.293 HD
ENDBRANCH   4  10
BRANCH   5  12
ATOM     12  O   UNL     1      32.685 -93.127  37.406  1.00  0.00    -0.504 OA
ATOM     13  H   UNL     1      33.681 -93.001  37.261  1.00  0.00     0.293 HD
ENDBRANCH   5  12
BRANCH   6  14
ATOM     14  O   UNL     1      30.024 -93.741  37.134  1.00  0.00    -0.502 OA
ATOM     15  H   UNL     1      29.064 -94.054  37.131  1.00  0.00     0.293 HD
ENDBRANCH   6  14
TORSDOF 4
ENDMDL
