MODEL 1
REMARK VINA RESULT:    -5.575      0.000      0.000
REMARK INTER + INTRA:          -7.024
REMARK INTER:                  -6.715
REMARK INTRA:                  -0.309
REMARK UNBOUND:                -0.309
REMARK SMILES O=c1c(O)c(-c2ccc(O)c(O)c2)oc2cc(O)cc(O)c12
REMARK SMILES IDX 5 1 3 2 2 3 1 4 22 5 20 6 19 7 17 8 16 9 15 10 14 11 6 12
REMARK SMILES IDX 7 13 8 14 9 15 13 16 11 17 10 18 12 20 4 22 21 24 18 26
REMARK H PARENT 10 19 12 21 4 23 21 25 18 27
REMARK Flexibility Score: inf
ROOT
ATOM      1  C   UNL     1       3.165  -8.193   7.312  1.00  0.00     0.180 A 
ATOM      2  C   UNL     1       3.097  -8.509   5.944  1.00  0.00     0.208 A 
ATOM      3  C   UNL     1       4.222  -9.067   5.319  1.00  0.00     0.238 A 
ATOM      4  O   UNL     1       4.138  -9.399   4.107  1.00  0.00    -0.285 OA
ATOM      5  C   UNL     1       5.406  -9.288   6.063  1.00  0.00     0.111 A 
ATOM      6  C   UNL     1       6.619  -9.810   5.521  1.00  0.00     0.134 A 
ATOM      7  C   UNL     1       7.686 -10.108   6.378  1.00  0.00     0.093 A 
ATOM      8  C   UNL     1       7.607  -9.841   7.747  1.00  0.00     0.123 A 
ATOM      9  C   UNL     1       6.449  -9.275   8.275  1.00  0.00     0.094 A 
ATOM     10  C   UNL     1       5.355  -9.001   7.452  1.00  0.00     0.146 A 
ATOM     11  O   UNL     1       4.266  -8.471   7.998  1.00  0.00    -0.452 OA
ENDROOT
BRANCH   1  12
ATOM     12  C   UNL     1       2.028  -7.579   8.035  1.00  0.00     0.025 A 
ATOM     13  C   UNL     1       1.824  -6.192   7.954  1.00  0.00     0.016 A 
ATOM     14  C   UNL     1       0.746  -5.594   8.611  1.00  0.00     0.051 A 
ATOM     15  C   UNL     1      -0.155  -6.376   9.346  1.00  0.00     0.157 A 
ATOM     16  C   UNL     1       1.108  -8.363   8.756  1.00  0.00     0.062 A 
ATOM     17  C   UNL     1       0.025  -7.768   9.414  1.00  0.00     0.158 A 
BRANCH  15  18
ATOM     18  O   UNL     1      -1.229  -5.777  10.002  1.00  0.00    -0.504 OA
ATOM     19  H   UNL     1      -1.870  -6.316  10.573  1.00  0.00     0.293 HD
ENDBRANCH  15  18
BRANCH  17  20
ATOM     20  O   UNL     1      -0.862  -8.576  10.125  1.00  0.00    -0.504 OA
ATOM     21  H   UNL     1      -0.562  -9.425  10.589  1.00  0.00     0.293 HD
ENDBRANCH  17  20
ENDBRANCH   1  12
BRANCH   2  22
ATOM     22  O   UNL     1       1.911  -8.304   5.234  1.00  0.00    -0.502 OA
ATOM     23  H   UNL     1       1.031  -8.093   5.692  1.00  0.00     0.293 HD
ENDBRANCH   2  22
BRANCH   6  24
ATOM     24  O   UNL     1       6.834 -10.028   4.157  1.00  0.00    -0.507 OA
ATOM     25  H   UNL     1       6.465 -10.808   3.635  1.00  0.00     0.293 HD
ENDBRANCH   6  24
BRANCH   8  26
ATOM     26  O   UNL     1       8.679 -10.125   8.589  1.00  0.00    -0.508 OA
ATOM     27  H   UNL     1       9.425 -10.749   8.306  1.00  0.00     0.293 HD
ENDBRANCH   8  26
TORSDOF 6
ENDMDL
MODEL 2
REMARK VINA RESULT:    -5.534      1.236      2.887
REMARK INTER + INTRA:          -6.975
REMARK INTER:                  -6.648
REMARK INTRA:                  -0.327
REMARK UNBOUND:                -0.309
REMARK SMILES O=c1c(O)c(-c2ccc(O)c(O)c2)oc2cc(O)cc(O)c12
REMARK SMILES IDX 5 1 3 2 2 3 1 4 22 5 20 6 19 7 17 8 16 9 15 10 14 11 6 12
REMARK SMILES IDX 7 13 8 14 9 15 13 16 11 17 10 18 12 20 4 22 21 24 18 26
REMARK H PARENT 10 19 12 21 4 23 21 25 18 27
REMARK Flexibility Score: inf
ROOT
ATOM      1  C   UNL     1       3.390  -8.173   7.846  1.00  0.00     0.180 A 
ATOM      2  C   UNL     1       4.540  -8.408   8.619  1.00  0.00     0.208 A 
ATOM      3  C   UNL     1       5.699  -8.884   7.986  1.00  0.00     0.238 A 
ATOM      4  O   UNL     1       6.743  -9.040   8.674  1.00  0.00    -0.285 OA
ATOM      5  C   UNL     1       5.690  -9.134   6.593  1.00  0.00     0.111 A 
ATOM      6  C   UNL     1       6.795  -9.656   5.856  1.00  0.00     0.134 A 
ATOM      7  C   UNL     1       6.716  -9.741   4.460  1.00  0.00     0.093 A 
ATOM      8  C   UNL     1       5.547  -9.385   3.782  1.00  0.00     0.123 A 
ATOM      9  C   UNL     1       4.442  -8.932   4.499  1.00  0.00     0.094 A 
ATOM     10  C   UNL     1       4.504  -8.801   5.888  1.00  0.00     0.146 A 
ATOM     11  O   UNL     1       3.432  -8.355   6.532  1.00  0.00    -0.452 OA
ENDROOT
BRANCH   1  12
ATOM     12  C   UNL     1       2.123  -7.695   8.445  1.00  0.00     0.025 A 
ATOM     13  C   UNL     1       1.804  -6.328   8.389  1.00  0.00     0.016 A 
ATOM     14  C   UNL     1       0.605  -5.858   8.930  1.00  0.00     0.051 A 
ATOM     15  C   UNL     1      -0.302  -6.749   9.519  1.00  0.00     0.157 A 
ATOM     16  C   UNL     1       1.200  -8.589   9.019  1.00  0.00     0.062 A 
ATOM     17  C   UNL     1      -0.004  -8.122   9.558  1.00  0.00     0.158 A 
BRANCH  15  18
ATOM     18  O   UNL     1      -1.497  -6.277  10.059  1.00  0.00    -0.504 OA
ATOM     19  H   UNL     1      -1.605  -6.119  11.054  1.00  0.00     0.293 HD
ENDBRANCH  15  18
BRANCH  17  20
ATOM     20  O   UNL     1      -0.891  -9.036  10.125  1.00  0.00    -0.504 OA
ATOM     21  H   UNL     1      -1.895  -8.899  10.099  1.00  0.00     0.293 HD
ENDBRANCH  17  20
ENDBRANCH   1  12
BRANCH   2  22
ATOM     22  O   UNL     1       4.535  -8.132   9.989  1.00  0.00    -0.502 OA
ATOM     23  H   UNL     1       4.019  -8.695  10.656  1.00  0.00     0.293 HD
ENDBRANCH   2  22
BRANCH   6  24
ATOM     24  O   UNL     1       7.973 -10.125   6.443  1.00  0.00    -0.507 OA
ATOM     25  H   UNL     1       8.577 -10.826   6.041  1.00  0.00     0.293 HD
ENDBRANCH   6  24
BRANCH   8  26
ATOM     26  O   UNL     1       5.471  -9.488   2.395  1.00  0.00    -0.508 OA
ATOM     27  H   UNL     1       4.847  -8.902   1.853  1.00  0.00     0.293 HD
ENDBRANCH   8  26
TORSDOF 6
ENDMDL
MODEL 3
REMARK VINA RESULT:    -4.873     21.849     23.824
REMARK INTER + INTRA:          -6.180
REMARK INTER:                  -6.021
REMARK INTRA:                  -0.159
REMARK UNBOUND:                -0.309
REMARK SMILES O=c1c(O)c(-c2ccc(O)c(O)c2)oc2cc(O)cc(O)c12
REMARK SMILES IDX 5 1 3 2 2 3 1 4 22 5 20 6 19 7 17 8 16 9 15 10 14 11 6 12
REMARK SMILES IDX 7 13 8 14 9 15 13 16 11 17 10 18 12 20 4 22 21 24 18 26
REMARK H PARENT 10 19 12 21 4 23 21 25 18 27
REMARK Flexibility Score: inf
ROOT
ATOM      1  C   UNL     1       1.544   7.703  -9.000  1.00  0.00     0.180 A 
ATOM      2  C   UNL     1       0.757   8.868  -8.990  1.00  0.00     0.208 A 
ATOM      3  C   UNL     1      -0.640   8.745  -9.033  1.00  0.00     0.238 A 
ATOM      4  O   UNL     1      -1.341   9.790  -8.969  1.00  0.00    -0.285 OA
ATOM      5  C   UNL     1      -1.234   7.462  -9.101  1.00  0.00     0.111 A 
ATOM      6  C   UNL     1      -2.638   7.222  -9.189  1.00  0.00     0.134 A 
ATOM      7  C   UNL     1      -3.120   5.908  -9.120  1.00  0.00     0.093 A 
ATOM      8  C   UNL     1      -2.244   4.824  -9.031  1.00  0.00     0.123 A 
ATOM      9  C   UNL     1      -0.869   5.045  -9.005  1.00  0.00     0.094 A 
ATOM     10  C   UNL     1      -0.360   6.345  -9.036  1.00  0.00     0.146 A 
ATOM     11  O   UNL     1       0.957   6.513  -8.998  1.00  0.00    -0.452 OA
ENDROOT
BRANCH   1  12
ATOM     12  C   UNL     1       3.023   7.752  -8.982  1.00  0.00     0.025 A 
ATOM     13  C   UNL     1       3.743   7.329 -10.111  1.00  0.00     0.016 A 
ATOM     14  C   UNL     1       5.139   7.386 -10.124  1.00  0.00     0.051 A 
ATOM     15  C   UNL     1       5.836   7.884  -9.015  1.00  0.00     0.157 A 
ATOM     16  C   UNL     1       3.726   8.271  -7.879  1.00  0.00     0.062 A 
ATOM     17  C   UNL     1       5.125   8.333  -7.890  1.00  0.00     0.158 A 
BRANCH  15  18
ATOM     18  O   UNL     1       7.229   7.939  -9.030  1.00  0.00    -0.504 OA
ATOM     19  H   UNL     1       7.792   7.103  -9.139  1.00  0.00     0.293 HD
ENDBRANCH  15  18
BRANCH  17  20
ATOM     20  O   UNL     1       5.788   8.847  -6.776  1.00  0.00    -0.504 OA
ATOM     21  H   UNL     1       5.598   8.516  -5.837  1.00  0.00     0.293 HD
ENDBRANCH  17  20
ENDBRANCH   1  12
BRANCH   2  22
ATOM     22  O   UNL     1       1.363  10.124  -8.900  1.00  0.00    -0.502 OA
ATOM     23  H   UNL     1       0.837  10.969  -8.710  1.00  0.00     0.293 HD
ENDBRANCH   2  22
BRANCH   6  24
ATOM     24  O   UNL     1      -3.592   8.227  -9.371  1.00  0.00    -0.507 OA
ATOM     25  H   UNL     1      -4.561   8.156  -9.101  1.00  0.00     0.293 HD
ENDBRANCH   6  24
BRANCH   8  26
ATOM     26  O   UNL     1      -2.731   3.520  -8.979  1.00  0.00    -0.508 OA
ATOM     27  H   UNL     1      -2.159   2.729  -9.250  1.00  0.00     0.293 HD
ENDBRANCH   8  26
TORSDOF 6
ENDMDL
MODEL 4
REMARK VINA RESULT:    -4.481      1.763      6.941
REMARK INTER + INTRA:          -5.707
REMARK INTER:                  -5.412
REMARK INTRA:                  -0.295
REMARK UNBOUND:                -0.309
REMARK SMILES O=c1c(O)c(-c2ccc(O)c(O)c2)oc2cc(O)cc(O)c12
REMARK SMILES IDX 5 1 3 2 2 3 1 4 22 5 20 6 19 7 17 8 16 9 15 10 14 11 6 12
REMARK SMILES IDX 7 13 8 14 9 15 13 16 11 17 10 18 12 20 4 22 21 24 18 26
REMARK H PARENT 10 19 12 21 4 23 21 25 18 27
REMARK Flexibility Score: inf
ROOT
ATOM      1  C   UNL     1       3.330  -8.146   6.669  1.00  0.00     0.180 A 
ATOM      2  C   UNL     1       3.471  -6.838   7.163  1.00  0.00     0.208 A 
ATOM      3  C   UNL     1       2.593  -6.390   8.163  1.00  0.00     0.238 A 
ATOM      4  O   UNL     1       2.759  -5.236   8.640  1.00  0.00    -0.285 OA
ATOM      5  C   UNL     1       1.576  -7.248   8.645  1.00  0.00     0.111 A 
ATOM      6  C   UNL     1       0.606  -6.884   9.626  1.00  0.00     0.134 A 
ATOM      7  C   UNL     1      -0.273  -7.856  10.123  1.00  0.00     0.093 A 
ATOM      8  C   UNL     1      -0.259  -9.161   9.624  1.00  0.00     0.123 A 
ATOM      9  C   UNL     1       0.644  -9.509   8.622  1.00  0.00     0.094 A 
ATOM     10  C   UNL     1       1.557  -8.572   8.134  1.00  0.00     0.146 A 
ATOM     11  O   UNL     1       2.408  -8.949   7.187  1.00  0.00    -0.452 OA
ENDROOT
BRANCH   1  12
ATOM     12  C   UNL     1       4.201  -8.681   5.598  1.00  0.00     0.025 A 
ATOM     13  C   UNL     1       3.757  -8.652   4.266  1.00  0.00     0.016 A 
ATOM     14  C   UNL     1       4.571  -9.133   3.238  1.00  0.00     0.051 A 
ATOM     15  C   UNL     1       5.848  -9.634   3.523  1.00  0.00     0.157 A 
ATOM     16  C   UNL     1       5.492  -9.166   5.878  1.00  0.00     0.062 A 
ATOM     17  C   UNL     1       6.311  -9.646   4.849  1.00  0.00     0.158 A 
BRANCH  15  18
ATOM     18  O   UNL     1       6.657 -10.114   2.495  1.00  0.00    -0.504 OA
ATOM     19  H   UNL     1       7.346  -9.525   2.042  1.00  0.00     0.293 HD
ENDBRANCH  15  18
BRANCH  17  20
ATOM     20  O   UNL     1       7.583 -10.125   5.164  1.00  0.00    -0.504 OA
ATOM     21  H   UNL     1       8.149 -10.629   4.492  1.00  0.00     0.293 HD
ENDBRANCH  17  20
ENDBRANCH   1  12
BRANCH   2  22
ATOM     22  O   UNL     1       4.497  -6.015   6.690  1.00  0.00    -0.502 OA
ATOM     23  H   UNL     1       4.570  -5.742   5.717  1.00  0.00     0.293 HD
ENDBRANCH   2  22
BRANCH   6  24
ATOM     24  O   UNL     1       0.448  -5.587  10.124  1.00  0.00    -0.507 OA
ATOM     25  H   UNL     1       1.207  -4.959  10.341  1.00  0.00     0.293 HD
ENDBRANCH   6  24
BRANCH   8  26
ATOM     26  O   UNL     1      -1.148 -10.116  10.111  1.00  0.00    -0.508 OA
ATOM     27  H   UNL     1      -1.151 -11.066   9.758  1.00  0.00     0.293 HD
ENDBRANCH   8  26
TORSDOF 6
ENDMDL
MODEL 5
REMARK VINA RESULT:    -4.462     22.341     23.021
REMARK INTER + INTRA:          -5.684
REMARK INTER:                  -5.372
REMARK INTRA:                  -0.312
REMARK UNBOUND:                -0.309
REMARK SMILES O=c1c(O)c(-c2ccc(O)c(O)c2)oc2cc(O)cc(O)c12
REMARK SMILES IDX 5 1 3 2 2 3 1 4 22 5 20 6 19 7 17 8 16 9 15 10 14 11 6 12
REMARK SMILES IDX 7 13 8 14 9 15 13 16 11 17 10 18 12 20 4 22 21 24 18 26
REMARK H PARENT 10 19 12 21 4 23 21 25 18 27
REMARK Flexibility Score: inf
ROOT
ATOM      1  C   UNL     1       4.207   8.300  -8.449  1.00  0.00     0.180 A 
ATOM      2  C   UNL     1       4.874   7.265  -9.127  1.00  0.00     0.208 A 
ATOM      3  C   UNL     1       6.222   7.014  -8.828  1.00  0.00     0.238 A 
ATOM      4  O   UNL     1       6.799   6.051  -9.399  1.00  0.00    -0.285 OA
ATOM      5  C   UNL     1       6.892   7.811  -7.868  1.00  0.00     0.111 A 
ATOM      6  C   UNL     1       8.268   7.672  -7.518  1.00  0.00     0.134 A 
ATOM      7  C   UNL     1       8.791   8.428  -6.461  1.00  0.00     0.093 A 
ATOM      8  C   UNL     1       8.004   9.365  -5.787  1.00  0.00     0.123 A 
ATOM      9  C   UNL     1       6.676   9.551  -6.163  1.00  0.00     0.094 A 
ATOM     10  C   UNL     1       6.115   8.785  -7.188  1.00  0.00     0.146 A 
ATOM     11  O   UNL     1       4.842   8.986  -7.507  1.00  0.00    -0.452 OA
ENDROOT
BRANCH   1  12
ATOM     12  C   UNL     1       2.793   8.640  -8.727  1.00  0.00     0.025 A 
ATOM     13  C   UNL     1       2.482   9.468  -9.817  1.00  0.00     0.016 A 
ATOM     14  C   UNL     1       1.153   9.784 -10.111  1.00  0.00     0.051 A 
ATOM     15  C   UNL     1       0.114   9.264  -9.328  1.00  0.00     0.157 A 
ATOM     16  C   UNL     1       1.744   8.102  -7.957  1.00  0.00     0.062 A 
ATOM     17  C   UNL     1       0.412   8.415  -8.250  1.00  0.00     0.158 A 
BRANCH  15  18
ATOM     18  O   UNL     1      -1.211   9.583  -9.622  1.00  0.00    -0.504 OA
ATOM     19  H   UNL     1      -1.453  10.178 -10.407  1.00  0.00     0.293 HD
ENDBRANCH  15  18
BRANCH  17  20
ATOM     20  O   UNL     1      -0.600   7.870  -7.460  1.00  0.00    -0.504 OA
ATOM     21  H   UNL     1      -1.506   8.314  -7.365  1.00  0.00     0.293 HD
ENDBRANCH  17  20
ENDBRANCH   1  12
BRANCH   2  22
ATOM     22  O   UNL     1       4.187   6.476 -10.054  1.00  0.00    -0.502 OA
ATOM     23  H   UNL     1       3.505   5.779  -9.777  1.00  0.00     0.293 HD
ENDBRANCH   2  22
BRANCH   6  24
ATOM     24  O   UNL     1       9.163   6.832  -8.186  1.00  0.00    -0.507 OA
ATOM     25  H   UNL     1       9.837   7.139  -8.871  1.00  0.00     0.293 HD
ENDBRANCH   6  24
BRANCH   8  26
ATOM     26  O   UNL     1       8.537  10.125  -4.749  1.00  0.00    -0.508 OA
ATOM     27  H   UNL     1       9.472   9.958  -4.395  1.00  0.00     0.293 HD
ENDBRANCH   8  26
TORSDOF 6
ENDMDL
MODEL 6
REMARK VINA RESULT:    -4.053     21.853     22.973
REMARK INTER + INTRA:          -5.191
REMARK INTER:                  -5.110
REMARK INTRA:                  -0.081
REMARK UNBOUND:                -0.309
REMARK SMILES O=c1c(O)c(-c2ccc(O)c(O)c2)oc2cc(O)cc(O)c12
REMARK SMILES IDX 5 1 3 2 2 3 1 4 22 5 20 6 19 7 17 8 16 9 15 10 14 11 6 12
REMARK SMILES IDX 7 13 8 14 9 15 13 16 11 17 10 18 12 20 4 22 21 24 18 26
REMARK H PARENT 10 19 12 21 4 23 21 25 18 27
REMARK Flexibility Score: inf
ROOT
ATOM      1  C   UNL     1       4.975   7.566  -9.218  1.00  0.00     0.180 A 
ATOM      2  C   UNL     1       5.860   8.597  -9.577  1.00  0.00     0.208 A 
ATOM      3  C   UNL     1       7.240   8.395  -9.418  1.00  0.00     0.238 A 
ATOM      4  O   UNL     1       8.031   9.302  -9.792  1.00  0.00    -0.285 OA
ATOM      5  C   UNL     1       7.718   7.173  -8.888  1.00  0.00     0.111 A 
ATOM      6  C   UNL     1       9.093   6.877  -8.646  1.00  0.00     0.134 A 
ATOM      7  C   UNL     1       9.461   5.587  -8.240  1.00  0.00     0.093 A 
ATOM      8  C   UNL     1       8.496   4.604  -8.006  1.00  0.00     0.123 A 
ATOM      9  C   UNL     1       7.147   4.902  -8.182  1.00  0.00     0.094 A 
ATOM     10  C   UNL     1       6.752   6.168  -8.620  1.00  0.00     0.146 A 
ATOM     11  O   UNL     1       5.457   6.407  -8.786  1.00  0.00    -0.452 OA
ENDROOT
BRANCH   1  12
ATOM     12  C   UNL     1       3.507   7.713  -9.334  1.00  0.00     0.025 A 
ATOM     13  C   UNL     1       2.766   6.738 -10.022  1.00  0.00     0.016 A 
ATOM     14  C   UNL     1       1.377   6.846 -10.125  1.00  0.00     0.051 A 
ATOM     15  C   UNL     1       0.705   7.921  -9.528  1.00  0.00     0.157 A 
ATOM     16  C   UNL     1       2.826   8.779  -8.718  1.00  0.00     0.062 A 
ATOM     17  C   UNL     1       1.434   8.889  -8.817  1.00  0.00     0.158 A 
BRANCH  15  18
ATOM     18  O   UNL     1      -0.680   8.027  -9.634  1.00  0.00    -0.504 OA
ATOM     19  H   UNL     1      -1.239   8.444  -8.899  1.00  0.00     0.293 HD
ENDBRANCH  15  18
BRANCH  17  20
ATOM     20  O   UNL     1       0.794   9.963  -8.200  1.00  0.00    -0.504 OA
ATOM     21  H   UNL     1       1.098  10.328  -7.305  1.00  0.00     0.293 HD
ENDBRANCH  17  20
ENDBRANCH   1  12
BRANCH   2  22
ATOM     22  O   UNL     1       5.369   9.787 -10.120  1.00  0.00    -0.502 OA
ATOM     23  H   UNL     1       5.583  10.696  -9.725  1.00  0.00     0.293 HD
ENDBRANCH   2  22
BRANCH   6  24
ATOM     24  O   UNL     1      10.125   7.812  -8.762  1.00  0.00    -0.507 OA
ATOM     25  H   UNL     1      10.748   7.886  -9.552  1.00  0.00     0.293 HD
ENDBRANCH   6  24
BRANCH   8  26
ATOM     26  O   UNL     1       8.870   3.329  -7.587  1.00  0.00    -0.508 OA
ATOM     27  H   UNL     1       8.184   2.650  -7.279  1.00  0.00     0.293 HD
ENDBRANCH   8  26
TORSDOF 6
ENDMDL
MODEL 7
REMARK VINA RESULT:    -3.602      1.410      6.606
REMARK INTER + INTRA:          -4.648
REMARK INTER:                  -5.069
REMARK INTRA:                   0.421
REMARK UNBOUND:                -0.309
REMARK SMILES O=c1c(O)c(-c2ccc(O)c(O)c2)oc2cc(O)cc(O)c12
REMARK SMILES IDX 5 1 3 2 2 3 1 4 22 5 20 6 19 7 17 8 16 9 15 10 14 11 6 12
REMARK SMILES IDX 7 13 8 14 9 15 13 16 11 17 10 18 12 20 4 22 21 24 18 26
REMARK H PARENT 10 19 12 21 4 23 21 25 18 27
REMARK Flexibility Score: inf
ROOT
ATOM      1  C   UNL     1       5.360  -8.776   7.267  1.00  0.00     0.180 A 
ATOM      2  C   UNL     1       5.164  -9.092   5.911  1.00  0.00     0.208 A 
ATOM      3  C   UNL     1       3.940  -8.767   5.307  1.00  0.00     0.238 A 
ATOM      4  O   UNL     1       3.790  -9.003   4.079  1.00  0.00    -0.285 OA
ATOM      5  C   UNL     1       2.920  -8.146   6.068  1.00  0.00     0.111 A 
ATOM      6  C   UNL     1       1.626  -7.810   5.569  1.00  0.00     0.134 A 
ATOM      7  C   UNL     1       0.743  -7.081   6.375  1.00  0.00     0.093 A 
ATOM      8  C   UNL     1       1.083  -6.733   7.685  1.00  0.00     0.123 A 
ATOM      9  C   UNL     1       2.321  -7.110   8.201  1.00  0.00     0.094 A 
ATOM     10  C   UNL     1       3.237  -7.805   7.409  1.00  0.00     0.146 A 
ATOM     11  O   UNL     1       4.410  -8.135   7.937  1.00  0.00    -0.452 OA
ENDROOT
BRANCH   1  12
ATOM     12  C   UNL     1       6.614  -9.109   7.979  1.00  0.00     0.025 A 
ATOM     13  C   UNL     1       6.624  -9.142   9.383  1.00  0.00     0.016 A 
ATOM     14  C   UNL     1       7.792  -9.474  10.075  1.00  0.00     0.051 A 
ATOM     15  C   UNL     1       8.962  -9.795   9.375  1.00  0.00     0.157 A 
ATOM     16  C   UNL     1       7.786  -9.454   7.280  1.00  0.00     0.062 A 
ATOM     17  C   UNL     1       8.956  -9.790   7.970  1.00  0.00     0.158 A 
BRANCH  15  18
ATOM     18  O   UNL     1      10.125 -10.125  10.069  1.00  0.00    -0.504 OA
ATOM     19  H   UNL     1      10.486 -11.072  10.080  1.00  0.00     0.293 HD
ENDBRANCH  15  18
BRANCH  17  20
ATOM     20  O   UNL     1      10.100 -10.118   7.243  1.00  0.00    -0.504 OA
ATOM     21  H   UNL     1      10.553 -11.020   7.333  1.00  0.00     0.293 HD
ENDBRANCH  17  20
ENDBRANCH   1  12
BRANCH   2  22
ATOM     22  O   UNL     1       6.192  -9.684   5.172  1.00  0.00    -0.502 OA
ATOM     23  H   UNL     1       6.289  -9.552   4.172  1.00  0.00     0.293 HD
ENDBRANCH   2  22
BRANCH   6  24
ATOM     24  O   UNL     1       1.154  -8.189   4.309  1.00  0.00    -0.507 OA
ATOM     25  H   UNL     1       1.625  -7.999   3.438  1.00  0.00     0.293 HD
ENDBRANCH   6  24
BRANCH   8  26
ATOM     26  O   UNL     1       0.192  -6.022   8.485  1.00  0.00    -0.508 OA
ATOM     27  H   UNL     1      -0.780  -6.295   8.569  1.00  0.00     0.293 HD
ENDBRANCH   8  26
TORSDOF 6
ENDMDL
