MODEL 1
REMARK VINA RESULT:    -6.675      0.000      0.000
REMARK INTER + INTRA:          -8.250
REMARK INTER:                  -8.236
REMARK INTRA:                  -0.014
REMARK UNBOUND:                -0.014
REMARK SMILES O=c1c(O)c(-c2cc(O)c(O)c(O)c2)oc2cc(O)cc(O)c12
REMARK SMILES IDX 5 1 3 2 2 3 1 4 23 5 21 6 20 7 18 8 17 9 16 10 15 11 6 12
REMARK SMILES IDX 7 13 8 14 14 15 10 16 12 17 9 18 11 20 13 22 4 24 22 26
REMARK SMILES IDX 19 28
REMARK H PARENT 9 19 11 21 13 23 4 25 22 27 19 29
REMARK Flexibility Score: inf
ROOT
ATOM      1  C   UNL     1      38.824  -7.686  10.224  1.00  0.00     0.180 A 
ATOM      2  C   UNL     1      38.112  -8.362   9.218  1.00  0.00     0.208 A 
ATOM      3  C   UNL     1      36.708  -8.312   9.227  1.00  0.00     0.238 A 
ATOM      4  O   UNL     1      36.078  -8.873   8.293  1.00  0.00    -0.285 OA
ATOM      5  C   UNL     1      36.035  -7.604  10.252  1.00  0.00     0.111 A 
ATOM      6  C   UNL     1      34.616  -7.522  10.382  1.00  0.00     0.134 A 
ATOM      7  C   UNL     1      34.059  -6.686  11.357  1.00  0.00     0.093 A 
ATOM      8  C   UNL     1      34.870  -5.979  12.249  1.00  0.00     0.123 A 
ATOM      9  C   UNL     1      36.255  -6.099  12.167  1.00  0.00     0.094 A 
ATOM     10  C   UNL     1      36.841  -6.897  11.182  1.00  0.00     0.146 A 
ATOM     11  O   UNL     1      38.166  -6.976  11.133  1.00  0.00    -0.452 OA
ENDROOT
BRANCH   1  12
ATOM     12  C   UNL     1      40.303  -7.713  10.295  1.00  0.00     0.029 A 
ATOM     13  C   UNL     1      41.020  -8.915  10.174  1.00  0.00     0.062 A 
ATOM     14  C   UNL     1      42.418  -8.923  10.267  1.00  0.00     0.162 A 
ATOM     15  C   UNL     1      41.003  -6.522  10.545  1.00  0.00     0.062 A 
ATOM     16  C   UNL     1      43.112  -7.723  10.496  1.00  0.00     0.200 A 
ATOM     17  C   UNL     1      42.398  -6.521  10.639  1.00  0.00     0.162 A 
BRANCH  14  18
ATOM     18  O   UNL     1      43.119 -10.122  10.139  1.00  0.00    -0.504 OA
ATOM     19  H   UNL     1      44.092 -10.141   9.857  1.00  0.00     0.293 HD
ENDBRANCH  14  18
BRANCH  16  20
ATOM     20  O   UNL     1      44.505  -7.713  10.587  1.00  0.00    -0.502 OA
ATOM     21  H   UNL     1      45.019  -8.427  11.088  1.00  0.00     0.293 HD
ENDBRANCH  16  20
BRANCH  17  22
ATOM     22  O   UNL     1      43.058  -5.315  10.873  1.00  0.00    -0.504 OA
ATOM     23  H   UNL     1      43.066  -4.873  11.785  1.00  0.00     0.293 HD
ENDBRANCH  17  22
ENDBRANCH   1  12
BRANCH   2  24
ATOM     24  O   UNL     1      38.797  -9.037   8.205  1.00  0.00    -0.502 OA
ATOM     25  H   UNL     1      38.326  -9.429   7.398  1.00  0.00     0.293 HD
ENDBRANCH   2  24
BRANCH   6  26
ATOM     26  O   UNL     1      33.717  -8.257   9.603  1.00  0.00    -0.507 OA
ATOM     27  H   UNL     1      33.982  -8.949   8.920  1.00  0.00     0.293 HD
ENDBRANCH   6  26
BRANCH   8  28
ATOM     28  O   UNL     1      34.308  -5.161  13.226  1.00  0.00    -0.508 OA
ATOM     29  H   UNL     1      33.348  -5.279  13.528  1.00  0.00     0.293 HD
ENDBRANCH   8  28
TORSDOF 7
ENDMDL
MODEL 2
REMARK VINA RESULT:    -6.533      1.572      6.815
REMARK INTER + INTRA:          -8.075
REMARK INTER:                  -8.313
REMARK INTRA:                   0.238
REMARK UNBOUND:                -0.014
REMARK SMILES O=c1c(O)c(-c2cc(O)c(O)c(O)c2)oc2cc(O)cc(O)c12
REMARK SMILES IDX 5 1 3 2 2 3 1 4 23 5 21 6 20 7 18 8 17 9 16 10 15 11 6 12
REMARK SMILES IDX 7 13 8 14 14 15 10 16 12 17 9 18 11 20 13 22 4 24 22 26
REMARK SMILES IDX 19 28
REMARK H PARENT 9 19 11 21 13 23 4 25 22 27 19 29
REMARK Flexibility Score: inf
ROOT
ATOM      1  C   UNL     1      37.020  -7.401  10.649  1.00  0.00     0.180 A 
ATOM      2  C   UNL     1      36.977  -8.314   9.581  1.00  0.00     0.208 A 
ATOM      3  C   UNL     1      38.143  -8.535   8.828  1.00  0.00     0.238 A 
ATOM      4  O   UNL     1      38.114  -9.394   7.909  1.00  0.00    -0.285 OA
ATOM      5  C   UNL     1      39.328  -7.827   9.141  1.00  0.00     0.111 A 
ATOM      6  C   UNL     1      40.555  -7.943   8.420  1.00  0.00     0.134 A 
ATOM      7  C   UNL     1      41.700  -7.295   8.898  1.00  0.00     0.093 A 
ATOM      8  C   UNL     1      41.648  -6.483  10.033  1.00  0.00     0.123 A 
ATOM      9  C   UNL     1      40.442  -6.318  10.710  1.00  0.00     0.094 A 
ATOM     10  C   UNL     1      39.290  -6.980  10.279  1.00  0.00     0.146 A 
ATOM     11  O   UNL     1      38.163  -6.802  10.959  1.00  0.00    -0.452 OA
ENDROOT
BRANCH   1  12
ATOM     12  C   UNL     1      35.826  -7.097  11.472  1.00  0.00     0.029 A 
ATOM     13  C   UNL     1      34.528  -7.202  10.945  1.00  0.00     0.062 A 
ATOM     14  C   UNL     1      33.412  -6.888  11.733  1.00  0.00     0.162 A 
ATOM     15  C   UNL     1      35.994  -6.638  12.787  1.00  0.00     0.062 A 
ATOM     16  C   UNL     1      33.589  -6.451  13.056  1.00  0.00     0.200 A 
ATOM     17  C   UNL     1      34.887  -6.323  13.581  1.00  0.00     0.162 A 
BRANCH  14  18
ATOM     18  O   UNL     1      32.128  -7.003  11.201  1.00  0.00    -0.504 OA
ATOM     19  H   UNL     1      31.955  -6.918  10.206  1.00  0.00     0.293 HD
ENDBRANCH  14  18
BRANCH  16  20
ATOM     20  O   UNL     1      32.488  -6.138  13.855  1.00  0.00    -0.502 OA
ATOM     21  H   UNL     1      31.912  -6.851  14.286  1.00  0.00     0.293 HD
ENDBRANCH  16  20
BRANCH  17  22
ATOM     22  O   UNL     1      35.095  -5.885  14.888  1.00  0.00    -0.504 OA
ATOM     23  H   UNL     1      35.548  -5.003  15.095  1.00  0.00     0.293 HD
ENDBRANCH  17  22
ENDBRANCH   1  12
BRANCH   2  24
ATOM     24  O   UNL     1      35.803  -9.017   9.303  1.00  0.00    -0.502 OA
ATOM     25  H   UNL     1      35.731 -10.022   9.413  1.00  0.00     0.293 HD
ENDBRANCH   2  24
BRANCH   6  26
ATOM     26  O   UNL     1      40.693  -8.653   7.223  1.00  0.00    -0.507 OA
ATOM     27  H   UNL     1      39.972  -8.745   6.524  1.00  0.00     0.293 HD
ENDBRANCH   6  26
BRANCH   8  28
ATOM     28  O   UNL     1      42.789  -5.829  10.494  1.00  0.00    -0.508 OA
ATOM     29  H   UNL     1      42.892  -5.564  11.466  1.00  0.00     0.293 HD
ENDBRANCH   8  28
TORSDOF 7
ENDMDL
MODEL 3
REMARK VINA RESULT:    -6.480     12.031     14.260
REMARK INTER + INTRA:          -8.009
REMARK INTER:                  -8.271
REMARK INTRA:                   0.261
REMARK UNBOUND:                -0.014
REMARK SMILES O=c1c(O)c(-c2cc(O)c(O)c(O)c2)oc2cc(O)cc(O)c12
REMARK SMILES IDX 5 1 3 2 2 3 1 4 23 5 21 6 20 7 18 8 17 9 16 10 15 11 6 12
REMARK SMILES IDX 7 13 8 14 14 15 10 16 12 17 9 18 11 20 13 22 4 24 22 26
REMARK SMILES IDX 19 28
REMARK H PARENT 9 19 11 21 13 23 4 25 22 27 19 29
REMARK Flexibility Score: inf
ROOT
ATOM      1  C   UNL     1      43.224   1.447  19.695  1.00  0.00     0.180 A 
ATOM      2  C   UNL     1      42.616   2.396  18.856  1.00  0.00     0.208 A 
ATOM      3  C   UNL     1      42.100   1.979  17.618  1.00  0.00     0.238 A 
ATOM      4  O   UNL     1      41.508   2.823  16.894  1.00  0.00    -0.285 OA
ATOM      5  C   UNL     1      42.215   0.623  17.227  1.00  0.00     0.111 A 
ATOM      6  C   UNL     1      41.764   0.098  15.979  1.00  0.00     0.134 A 
ATOM      7  C   UNL     1      41.810  -1.283  15.754  1.00  0.00     0.093 A 
ATOM      8  C   UNL     1      42.350  -2.151  16.706  1.00  0.00     0.123 A 
ATOM      9  C   UNL     1      42.846  -1.641  17.903  1.00  0.00     0.094 A 
ATOM     10  C   UNL     1      42.781  -0.272  18.172  1.00  0.00     0.146 A 
ATOM     11  O   UNL     1      43.257   0.170  19.330  1.00  0.00    -0.452 OA
ENDROOT
BRANCH   1  12
ATOM     12  C   UNL     1      43.812   1.815  21.003  1.00  0.00     0.029 A 
ATOM     13  C   UNL     1      44.283   3.115  21.254  1.00  0.00     0.062 A 
ATOM     14  C   UNL     1      44.858   3.438  22.491  1.00  0.00     0.162 A 
ATOM     15  C   UNL     1      43.958   0.833  21.996  1.00  0.00     0.062 A 
ATOM     16  C   UNL     1      44.978   2.454  23.486  1.00  0.00     0.200 A 
ATOM     17  C   UNL     1      44.529   1.147  23.232  1.00  0.00     0.162 A 
BRANCH  14  18
ATOM     18  O   UNL     1      45.315   4.734  22.730  1.00  0.00    -0.504 OA
ATOM     19  H   UNL     1      45.293   5.143  23.657  1.00  0.00     0.293 HD
ENDBRANCH  14  18
BRANCH  16  20
ATOM     20  O   UNL     1      45.545   2.761  24.724  1.00  0.00    -0.502 OA
ATOM     21  H   UNL     1      46.353   3.365  24.815  1.00  0.00     0.293 HD
ENDBRANCH  16  20
BRANCH  17  22
ATOM     22  O   UNL     1      44.642   0.147  24.198  1.00  0.00    -0.504 OA
ATOM     23  H   UNL     1      45.165  -0.705  24.032  1.00  0.00     0.293 HD
ENDBRANCH  17  22
ENDBRANCH   1  12
BRANCH   2  24
ATOM     24  O   UNL     1      42.495   3.725  19.269  1.00  0.00    -0.502 OA
ATOM     25  H   UNL     1      42.825   4.501  18.709  1.00  0.00     0.293 HD
ENDBRANCH   2  24
BRANCH   6  26
ATOM     26  O   UNL     1      41.292   0.887  14.925  1.00  0.00    -0.507 OA
ATOM     27  H   UNL     1      40.330   1.160  14.798  1.00  0.00     0.293 HD
ENDBRANCH   6  26
BRANCH   8  28
ATOM     28  O   UNL     1      42.406  -3.523  16.467  1.00  0.00    -0.508 OA
ATOM     29  H   UNL     1      43.032  -4.126  16.988  1.00  0.00     0.293 HD
ENDBRANCH   8  28
TORSDOF 7
ENDMDL
MODEL 4
REMARK VINA RESULT:    -6.332     15.879     18.680
REMARK INTER + INTRA:          -7.827
REMARK INTER:                  -7.638
REMARK INTRA:                  -0.189
REMARK UNBOUND:                -0.014
REMARK SMILES O=c1c(O)c(-c2cc(O)c(O)c(O)c2)oc2cc(O)cc(O)c12
REMARK SMILES IDX 5 1 3 2 2 3 1 4 23 5 21 6 20 7 18 8 17 9 16 10 15 11 6 12
REMARK SMILES IDX 7 13 8 14 14 15 10 16 12 17 9 18 11 20 13 22 4 24 22 26
REMARK SMILES IDX 19 28
REMARK H PARENT 9 19 11 21 13 23 4 25 22 27 19 29
REMARK Flexibility Score: inf
ROOT
ATOM      1  C   UNL     1      44.955   5.338  20.710  1.00  0.00     0.180 A 
ATOM      2  C   UNL     1      43.900   6.219  20.413  1.00  0.00     0.208 A 
ATOM      3  C   UNL     1      44.184   7.413  19.728  1.00  0.00     0.238 A 
ATOM      4  O   UNL     1      43.228   8.172  19.417  1.00  0.00    -0.285 OA
ATOM      5  C   UNL     1      45.518   7.718  19.366  1.00  0.00     0.111 A 
ATOM      6  C   UNL     1      45.924   8.916  18.706  1.00  0.00     0.134 A 
ATOM      7  C   UNL     1      47.250   9.054  18.278  1.00  0.00     0.093 A 
ATOM      8  C   UNL     1      48.199   8.063  18.544  1.00  0.00     0.123 A 
ATOM      9  C   UNL     1      47.824   6.916  19.239  1.00  0.00     0.094 A 
ATOM     10  C   UNL     1      46.501   6.734  19.647  1.00  0.00     0.146 A 
ATOM     11  O   UNL     1      46.185   5.621  20.299  1.00  0.00    -0.452 OA
ENDROOT
BRANCH   1  12
ATOM     12  C   UNL     1      44.739   4.074  21.450  1.00  0.00     0.029 A 
ATOM     13  C   UNL     1      45.316   3.857  22.713  1.00  0.00     0.062 A 
ATOM     14  C   UNL     1      45.119   2.644  23.387  1.00  0.00     0.162 A 
ATOM     15  C   UNL     1      43.990   3.046  20.856  1.00  0.00     0.062 A 
ATOM     16  C   UNL     1      44.349   1.629  22.794  1.00  0.00     0.200 A 
ATOM     17  C   UNL     1      43.788   1.833  21.522  1.00  0.00     0.162 A 
BRANCH  14  18
ATOM     18  O   UNL     1      45.691   2.444  24.643  1.00  0.00    -0.504 OA
ATOM     19  H   UNL     1      46.137   1.568  24.891  1.00  0.00     0.293 HD
ENDBRANCH  14  18
BRANCH  16  20
ATOM     20  O   UNL     1      44.140   0.418  23.455  1.00  0.00    -0.502 OA
ATOM     21  H   UNL     1      44.883  -0.067  23.943  1.00  0.00     0.293 HD
ENDBRANCH  16  20
BRANCH  17  22
ATOM     22  O   UNL     1      43.025   0.842  20.904  1.00  0.00    -0.504 OA
ATOM     23  H   UNL     1      43.381  -0.093  20.748  1.00  0.00     0.293 HD
ENDBRANCH  17  22
ENDBRANCH   1  12
BRANCH   2  24
ATOM     24  O   UNL     1      42.589   5.889  20.762  1.00  0.00    -0.502 OA
ATOM     25  H   UNL     1      41.798   6.473  20.519  1.00  0.00     0.293 HD
ENDBRANCH   2  24
BRANCH   6  26
ATOM     26  O   UNL     1      45.077  10.005  18.473  1.00  0.00    -0.507 OA
ATOM     27  H   UNL     1      45.385  10.960  18.376  1.00  0.00     0.293 HD
ENDBRANCH   6  26
BRANCH   8  28
ATOM     28  O   UNL     1      49.520   8.215  18.129  1.00  0.00    -0.508 OA
ATOM     29  H   UNL     1      50.081   7.419  17.846  1.00  0.00     0.293 HD
ENDBRANCH   8  28
TORSDOF 7
ENDMDL
MODEL 5
REMARK VINA RESULT:    -6.321     15.893     18.517
REMARK INTER + INTRA:          -7.813
REMARK INTER:                  -7.534
REMARK INTRA:                  -0.279
REMARK UNBOUND:                -0.014
REMARK SMILES O=c1c(O)c(-c2cc(O)c(O)c(O)c2)oc2cc(O)cc(O)c12
REMARK SMILES IDX 5 1 3 2 2 3 1 4 23 5 21 6 20 7 18 8 17 9 16 10 15 11 6 12
REMARK SMILES IDX 7 13 8 14 14 15 10 16 12 17 9 18 11 20 13 22 4 24 22 26
REMARK SMILES IDX 19 28
REMARK H PARENT 9 19 11 21 13 23 4 25 22 27 19 29
REMARK Flexibility Score: inf
ROOT
ATOM      1  C   UNL     1      45.443   5.147  21.377  1.00  0.00     0.180 A 
ATOM      2  C   UNL     1      45.922   5.168  22.698  1.00  0.00     0.208 A 
ATOM      3  C   UNL     1      45.699   4.051  23.520  1.00  0.00     0.238 A 
ATOM      4  O   UNL     1      46.178   4.053  24.685  1.00  0.00    -0.285 OA
ATOM      5  C   UNL     1      44.986   2.936  23.017  1.00  0.00     0.111 A 
ATOM      6  C   UNL     1      44.669   1.768  23.774  1.00  0.00     0.134 A 
ATOM      7  C   UNL     1      44.074   0.673  23.136  1.00  0.00     0.093 A 
ATOM      8  C   UNL     1      43.727   0.728  21.784  1.00  0.00     0.123 A 
ATOM      9  C   UNL     1      43.979   1.885  21.052  1.00  0.00     0.094 A 
ATOM     10  C   UNL     1      44.605   2.981  21.651  1.00  0.00     0.146 A 
ATOM     11  O   UNL     1      44.836   4.061  20.913  1.00  0.00    -0.452 OA
ENDROOT
BRANCH   1  12
ATOM     12  C   UNL     1      45.617   6.296  20.458  1.00  0.00     0.029 A 
ATOM     13  C   UNL     1      44.534   7.115  20.097  1.00  0.00     0.062 A 
ATOM     14  C   UNL     1      44.715   8.184  19.208  1.00  0.00     0.162 A 
ATOM     15  C   UNL     1      46.877   6.540  19.889  1.00  0.00     0.062 A 
ATOM     16  C   UNL     1      45.984   8.434  18.661  1.00  0.00     0.200 A 
ATOM     17  C   UNL     1      47.066   7.604  19.003  1.00  0.00     0.162 A 
BRANCH  14  18
ATOM     18  O   UNL     1      43.634   8.993  18.863  1.00  0.00    -0.504 OA
ATOM     19  H   UNL     1      42.963   8.713  18.156  1.00  0.00     0.293 HD
ENDBRANCH  14  18
BRANCH  16  20
ATOM     20  O   UNL     1      46.182   9.496  17.778  1.00  0.00    -0.502 OA
ATOM     21  H   UNL     1      47.081   9.687  17.354  1.00  0.00     0.293 HD
ENDBRANCH  16  20
BRANCH  17  22
ATOM     22  O   UNL     1      48.337   7.822  18.471  1.00  0.00    -0.504 OA
ATOM     23  H   UNL     1      49.090   7.154  18.583  1.00  0.00     0.293 HD
ENDBRANCH  17  22
ENDBRANCH   1  12
BRANCH   2  24
ATOM     24  O   UNL     1      46.641   6.269  23.168  1.00  0.00    -0.502 OA
ATOM     25  H   UNL     1      46.647   6.539  24.144  1.00  0.00     0.293 HD
ENDBRANCH   2  24
BRANCH   6  26
ATOM     26  O   UNL     1      44.889   1.646  25.149  1.00  0.00    -0.507 OA
ATOM     27  H   UNL     1      44.228   1.914  25.862  1.00  0.00     0.293 HD
ENDBRANCH   6  26
BRANCH   8  28
ATOM     28  O   UNL     1      43.121  -0.362  21.160  1.00  0.00    -0.508 OA
ATOM     29  H   UNL     1      42.468  -0.238  20.396  1.00  0.00     0.293 HD
ENDBRANCH   8  28
TORSDOF 7
ENDMDL
MODEL 6
REMARK VINA RESULT:    -6.310     15.786     19.103
REMARK INTER + INTRA:          -7.799
REMARK INTER:                  -8.241
REMARK INTRA:                   0.442
REMARK UNBOUND:                -0.014
REMARK SMILES O=c1c(O)c(-c2cc(O)c(O)c(O)c2)oc2cc(O)cc(O)c12
REMARK SMILES IDX 5 1 3 2 2 3 1 4 23 5 21 6 20 7 18 8 17 9 16 10 15 11 6 12
REMARK SMILES IDX 7 13 8 14 14 15 10 16 12 17 9 18 11 20 13 22 4 24 22 26
REMARK SMILES IDX 19 28
REMARK H PARENT 9 19 11 21 13 23 4 25 22 27 19 29
REMARK Flexibility Score: inf
ROOT
ATOM      1  C   UNL     1      46.896   3.847  21.610  1.00  0.00     0.180 A 
ATOM      2  C   UNL     1      47.968   3.891  22.517  1.00  0.00     0.208 A 
ATOM      3  C   UNL     1      49.004   4.816  22.302  1.00  0.00     0.238 A 
ATOM      4  O   UNL     1      49.934   4.888  23.147  1.00  0.00    -0.285 OA
ATOM      5  C   UNL     1      48.963   5.670  21.174  1.00  0.00     0.111 A 
ATOM      6  C   UNL     1      49.977   6.616  20.837  1.00  0.00     0.134 A 
ATOM      7  C   UNL     1      49.769   7.500  19.772  1.00  0.00     0.093 A 
ATOM      8  C   UNL     1      48.612   7.430  18.991  1.00  0.00     0.123 A 
ATOM      9  C   UNL     1      47.643   6.471  19.277  1.00  0.00     0.094 A 
ATOM     10  C   UNL     1      47.805   5.599  20.356  1.00  0.00     0.146 A 
ATOM     11  O   UNL     1      46.852   4.706  20.598  1.00  0.00    -0.452 OA
ENDROOT
BRANCH   1  12
ATOM     12  C   UNL     1      45.780   2.884  21.757  1.00  0.00     0.029 A 
ATOM     13  C   UNL     1      45.769   1.928  22.787  1.00  0.00     0.062 A 
ATOM     14  C   UNL     1      44.716   1.010  22.895  1.00  0.00     0.162 A 
ATOM     15  C   UNL     1      44.740   2.883  20.814  1.00  0.00     0.062 A 
ATOM     16  C   UNL     1      43.668   1.032  21.961  1.00  0.00     0.200 A 
ATOM     17  C   UNL     1      43.685   1.971  20.915  1.00  0.00     0.162 A 
BRANCH  14  18
ATOM     18  O   UNL     1      44.713   0.071  23.926  1.00  0.00    -0.504 OA
ATOM     19  H   UNL     1      45.400   0.096  24.671  1.00  0.00     0.293 HD
ENDBRANCH  14  18
BRANCH  16  20
ATOM     20  O   UNL     1      42.610   0.127  22.057  1.00  0.00    -0.502 OA
ATOM     21  H   UNL     1      42.557  -0.706  21.482  1.00  0.00     0.293 HD
ENDBRANCH  16  20
BRANCH  17  22
ATOM     22  O   UNL     1      42.663   2.014  19.968  1.00  0.00    -0.504 OA
ATOM     23  H   UNL     1      42.850   2.116  18.978  1.00  0.00     0.293 HD
ENDBRANCH  17  22
ENDBRANCH   1  12
BRANCH   2  24
ATOM     24  O   UNL     1      47.979   3.053  23.634  1.00  0.00    -0.502 OA
ATOM     25  H   UNL     1      47.182   2.963  24.254  1.00  0.00     0.293 HD
ENDBRANCH   2  24
BRANCH   6  26
ATOM     26  O   UNL     1      51.208   6.708  21.493  1.00  0.00    -0.507 OA
ATOM     27  H   UNL     1      51.390   7.294  22.293  1.00  0.00     0.293 HD
ENDBRANCH   6  26
BRANCH   8  28
ATOM     28  O   UNL     1      48.420   8.304  17.923  1.00  0.00    -0.508 OA
ATOM     29  H   UNL     1      47.708   8.136  17.223  1.00  0.00     0.293 HD
ENDBRANCH   8  28
TORSDOF 7
ENDMDL
MODEL 7
REMARK VINA RESULT:    -6.284     15.886     18.494
REMARK INTER + INTRA:          -7.767
REMARK INTER:                  -7.492
REMARK INTRA:                  -0.276
REMARK UNBOUND:                -0.014
REMARK SMILES O=c1c(O)c(-c2cc(O)c(O)c(O)c2)oc2cc(O)cc(O)c12
REMARK SMILES IDX 5 1 3 2 2 3 1 4 23 5 21 6 20 7 18 8 17 9 16 10 15 11 6 12
REMARK SMILES IDX 7 13 8 14 14 15 10 16 12 17 9 18 11 20 13 22 4 24 22 26
REMARK SMILES IDX 19 28
REMARK H PARENT 9 19 11 21 13 23 4 25 22 27 19 29
REMARK Flexibility Score: inf
ROOT
ATOM      1  C   UNL     1      45.506   5.111  21.328  1.00  0.00     0.180 A 
ATOM      2  C   UNL     1      45.955   5.156  22.659  1.00  0.00     0.208 A 
ATOM      3  C   UNL     1      45.707   4.056  23.498  1.00  0.00     0.238 A 
ATOM      4  O   UNL     1      46.159   4.079  24.672  1.00  0.00    -0.285 OA
ATOM      5  C   UNL     1      44.998   2.936  23.001  1.00  0.00     0.111 A 
ATOM      6  C   UNL     1      44.657   1.786  23.773  1.00  0.00     0.134 A 
ATOM      7  C   UNL     1      44.070   0.682  23.144  1.00  0.00     0.093 A 
ATOM      8  C   UNL     1      43.753   0.711  21.783  1.00  0.00     0.123 A 
ATOM      9  C   UNL     1      44.030   1.852  21.034  1.00  0.00     0.094 A 
ATOM     10  C   UNL     1      44.648   2.956  21.625  1.00  0.00     0.146 A 
ATOM     11  O   UNL     1      44.902   4.020  20.872  1.00  0.00    -0.452 OA
ENDROOT
BRANCH   1  12
ATOM     12  C   UNL     1      45.708   6.241  20.391  1.00  0.00     0.029 A 
ATOM     13  C   UNL     1      46.975   6.530  19.856  1.00  0.00     0.062 A 
ATOM     14  C   UNL     1      47.151   7.617  18.989  1.00  0.00     0.162 A 
ATOM     15  C   UNL     1      44.627   7.078  20.075  1.00  0.00     0.062 A 
ATOM     16  C   UNL     1      46.057   8.436  18.661  1.00  0.00     0.200 A 
ATOM     17  C   UNL     1      44.793   8.164  19.211  1.00  0.00     0.162 A 
BRANCH  14  18
ATOM     18  O   UNL     1      48.411   7.890  18.459  1.00  0.00    -0.504 OA
ATOM     19  H   UNL     1      49.216   8.048  19.055  1.00  0.00     0.293 HD
ENDBRANCH  14  18
BRANCH  16  20
ATOM     20  O   UNL     1      46.215   9.520  17.796  1.00  0.00    -0.502 OA
ATOM     21  H   UNL     1      46.936  10.218  17.931  1.00  0.00     0.293 HD
ENDBRANCH  16  20
BRANCH  17  22
ATOM     22  O   UNL     1      43.690   8.962  18.910  1.00  0.00    -0.504 OA
ATOM     23  H   UNL     1      43.774   9.958  18.744  1.00  0.00     0.293 HD
ENDBRANCH  17  22
ENDBRANCH   1  12
BRANCH   2  24
ATOM     24  O   UNL     1      46.671   6.262  23.123  1.00  0.00    -0.502 OA
ATOM     25  H   UNL     1      46.985   6.343  24.082  1.00  0.00     0.293 HD
ENDBRANCH   2  24
BRANCH   6  26
ATOM     26  O   UNL     1      44.845   1.689  25.155  1.00  0.00    -0.507 OA
ATOM     27  H   UNL     1      44.394   2.278  25.838  1.00  0.00     0.293 HD
ENDBRANCH   6  26
BRANCH   8  28
ATOM     28  O   UNL     1      43.155  -0.387  21.168  1.00  0.00    -0.508 OA
ATOM     29  H   UNL     1      42.414  -0.908  21.621  1.00  0.00     0.293 HD
ENDBRANCH   8  28
TORSDOF 7
ENDMDL
MODEL 8
REMARK VINA RESULT:    -6.237     16.085     18.607
REMARK INTER + INTRA:          -7.709
REMARK INTER:                  -7.344
REMARK INTRA:                  -0.365
REMARK UNBOUND:                -0.014
REMARK SMILES O=c1c(O)c(-c2cc(O)c(O)c(O)c2)oc2cc(O)cc(O)c12
REMARK SMILES IDX 5 1 3 2 2 3 1 4 23 5 21 6 20 7 18 8 17 9 16 10 15 11 6 12
REMARK SMILES IDX 7 13 8 14 14 15 10 16 12 17 9 18 11 20 13 22 4 24 22 26
REMARK SMILES IDX 19 28
REMARK H PARENT 9 19 11 21 13 23 4 25 22 27 19 29
REMARK Flexibility Score: inf
ROOT
ATOM      1  C   UNL     1      45.526   5.027  21.094  1.00  0.00     0.180 A 
ATOM      2  C   UNL     1      46.722   5.265  20.393  1.00  0.00     0.208 A 
ATOM      3  C   UNL     1      46.859   6.461  19.669  1.00  0.00     0.238 A 
ATOM      4  O   UNL     1      47.952   6.694  19.089  1.00  0.00    -0.285 OA
ATOM      5  C   UNL     1      45.794   7.393  19.639  1.00  0.00     0.111 A 
ATOM      6  C   UNL     1      45.809   8.617  18.906  1.00  0.00     0.134 A 
ATOM      7  C   UNL     1      44.753   9.524  19.054  1.00  0.00     0.093 A 
ATOM      8  C   UNL     1      43.652   9.222  19.859  1.00  0.00     0.123 A 
ATOM      9  C   UNL     1      43.601   8.005  20.533  1.00  0.00     0.094 A 
ATOM     10  C   UNL     1      44.656   7.095  20.434  1.00  0.00     0.146 A 
ATOM     11  O   UNL     1      44.572   5.949  21.101  1.00  0.00    -0.452 OA
ENDROOT
BRANCH   1  12
ATOM     12  C   UNL     1      45.298   3.779  21.859  1.00  0.00     0.029 A 
ATOM     13  C   UNL     1      44.717   2.649  21.260  1.00  0.00     0.062 A 
ATOM     14  C   UNL     1      44.488   1.485  22.007  1.00  0.00     0.162 A 
ATOM     15  C   UNL     1      45.614   3.741  23.226  1.00  0.00     0.062 A 
ATOM     16  C   UNL     1      44.828   1.449  23.369  1.00  0.00     0.200 A 
ATOM     17  C   UNL     1      45.389   2.584  23.979  1.00  0.00     0.162 A 
BRANCH  14  18
ATOM     18  O   UNL     1      43.917   0.368  21.399  1.00  0.00    -0.504 OA
ATOM     19  H   UNL     1      43.366  -0.301  21.925  1.00  0.00     0.293 HD
ENDBRANCH  14  18
BRANCH  16  20
ATOM     20  O   UNL     1      44.610   0.297  24.126  1.00  0.00    -0.502 OA
ATOM     21  H   UNL     1      45.106  -0.568  23.950  1.00  0.00     0.293 HD
ENDBRANCH  16  20
BRANCH  17  22
ATOM     22  O   UNL     1      45.731   2.582  25.331  1.00  0.00    -0.504 OA
ATOM     23  H   UNL     1      45.928   1.726  25.835  1.00  0.00     0.293 HD
ENDBRANCH  17  22
ENDBRANCH   1  12
BRANCH   2  24
ATOM     24  O   UNL     1      47.768   4.342  20.453  1.00  0.00    -0.502 OA
ATOM     25  H   UNL     1      48.443   4.235  19.705  1.00  0.00     0.293 HD
ENDBRANCH   2  24
BRANCH   6  26
ATOM     26  O   UNL     1      46.816   8.974  18.004  1.00  0.00    -0.507 OA
ATOM     27  H   UNL     1      47.496   9.702  18.161  1.00  0.00     0.293 HD
ENDBRANCH   6  26
BRANCH   8  28
ATOM     28  O   UNL     1      42.598  10.124  19.990  1.00  0.00    -0.508 OA
ATOM     29  H   UNL     1      41.923  10.045  20.742  1.00  0.00     0.293 HD
ENDBRANCH   8  28
TORSDOF 7
ENDMDL
MODEL 9
REMARK VINA RESULT:    -6.195     16.694     20.030
REMARK INTER + INTRA:          -7.658
REMARK INTER:                  -7.731
REMARK INTRA:                   0.073
REMARK UNBOUND:                -0.014
REMARK SMILES O=c1c(O)c(-c2cc(O)c(O)c(O)c2)oc2cc(O)cc(O)c12
REMARK SMILES IDX 5 1 3 2 2 3 1 4 23 5 21 6 20 7 18 8 17 9 16 10 15 11 6 12
REMARK SMILES IDX 7 13 8 14 14 15 10 16 12 17 9 18 11 20 13 22 4 24 22 26
REMARK SMILES IDX 19 28
REMARK H PARENT 9 19 11 21 13 23 4 25 22 27 19 29
REMARK Flexibility Score: inf
ROOT
ATOM      1  C   UNL     1      47.528   3.941  22.101  1.00  0.00     0.180 A 
ATOM      2  C   UNL     1      48.093   4.668  21.039  1.00  0.00     0.208 A 
ATOM      3  C   UNL     1      49.249   5.432  21.277  1.00  0.00     0.238 A 
ATOM      4  O   UNL     1      49.782   6.037  20.310  1.00  0.00    -0.285 OA
ATOM      5  C   UNL     1      49.812   5.473  22.575  1.00  0.00     0.111 A 
ATOM      6  C   UNL     1      50.957   6.244  22.937  1.00  0.00     0.134 A 
ATOM      7  C   UNL     1      51.505   6.106  24.218  1.00  0.00     0.093 A 
ATOM      8  C   UNL     1      50.911   5.273  25.170  1.00  0.00     0.123 A 
ATOM      9  C   UNL     1      49.760   4.561  24.843  1.00  0.00     0.094 A 
ATOM     10  C   UNL     1      49.210   4.650  23.563  1.00  0.00     0.146 A 
ATOM     11  O   UNL     1      48.117   3.946  23.291  1.00  0.00    -0.452 OA
ENDROOT
BRANCH   1  12
ATOM     12  C   UNL     1      46.298   3.133  21.934  1.00  0.00     0.029 A 
ATOM     13  C   UNL     1      45.215   3.599  21.169  1.00  0.00     0.062 A 
ATOM     14  C   UNL     1      44.049   2.830  21.043  1.00  0.00     0.162 A 
ATOM     15  C   UNL     1      46.184   1.902  22.599  1.00  0.00     0.062 A 
ATOM     16  C   UNL     1      43.954   1.589  21.694  1.00  0.00     0.200 A 
ATOM     17  C   UNL     1      45.026   1.129  22.477  1.00  0.00     0.162 A 
BRANCH  14  18
ATOM     18  O   UNL     1      42.984   3.301  20.276  1.00  0.00    -0.504 OA
ATOM     19  H   UNL     1      42.796   4.292  20.177  1.00  0.00     0.293 HD
ENDBRANCH  14  18
BRANCH  16  20
ATOM     20  O   UNL     1      42.802   0.810  21.574  1.00  0.00    -0.502 OA
ATOM     21  H   UNL     1      42.766  -0.153  21.887  1.00  0.00     0.293 HD
ENDBRANCH  16  20
BRANCH  17  22
ATOM     22  O   UNL     1      44.959  -0.096  23.142  1.00  0.00    -0.504 OA
ATOM     23  H   UNL     1      44.362  -0.849  22.823  1.00  0.00     0.293 HD
ENDBRANCH  17  22
ENDBRANCH   1  12
BRANCH   2  24
ATOM     24  O   UNL     1      47.533   4.597  19.762  1.00  0.00    -0.502 OA
ATOM     25  H   UNL     1      47.165   5.411  19.284  1.00  0.00     0.293 HD
ENDBRANCH   2  24
BRANCH   6  26
ATOM     26  O   UNL     1      51.570   7.174  22.093  1.00  0.00    -0.507 OA
ATOM     27  H   UNL     1      51.232   7.429  21.178  1.00  0.00     0.293 HD
ENDBRANCH   6  26
BRANCH   8  28
ATOM     28  O   UNL     1      51.455   5.153  26.447  1.00  0.00    -0.508 OA
ATOM     29  H   UNL     1      52.024   4.356  26.708  1.00  0.00     0.293 HD
ENDBRANCH   8  28
TORSDOF 7
ENDMDL
