MODEL 1
REMARK VINA RESULT:    -5.037      0.000      0.000
REMARK INTER + INTRA:          -5.708
REMARK INTER:                  -5.478
REMARK INTRA:                  -0.230
REMARK UNBOUND:                -0.230
REMARK SMILES O=C([O-])c1ccccc1O
REMARK SMILES IDX 4 1 9 2 5 3 8 4 6 5 7 6 2 7 1 8 3 9 10 10
REMARK H PARENT 10 11
REMARK Flexibility Score: inf
ROOT
ATOM      1  C   UNL     1       0.563   7.253  20.020  1.00  0.00     0.039 A 
ATOM      2  C   UNL     1       1.158   8.440  19.531  1.00  0.00     0.124 A 
ATOM      3  C   UNL     1       0.132   6.280  19.096  1.00  0.00     0.014 A 
ATOM      4  C   UNL     1       1.308   8.629  18.147  1.00  0.00     0.047 A 
ATOM      5  C   UNL     1       0.286   6.481  17.722  1.00  0.00     0.001 A 
ATOM      6  C   UNL     1       0.874   7.653  17.249  1.00  0.00     0.004 A 
ENDROOT
BRANCH   1   7
ATOM      7  C   UNL     1       0.385   7.011  21.475  1.00  0.00     0.075 C 
ATOM      8  O   UNL     1      -0.768   6.836  21.954  1.00  0.00    -0.545 OA
ATOM      9  O   UNL     1       1.475   6.973  22.335  1.00  0.00    -0.545 OA
ENDBRANCH   1   7
BRANCH   2  10
ATOM     10  O   UNL     1       1.601   9.431  20.406  1.00  0.00    -0.507 OA
ATOM     11  H   UNL     1       2.576   9.514  20.667  1.00  0.00     0.293 HD
ENDBRANCH   2  10
TORSDOF 2
ENDMDL
MODEL 2
REMARK VINA RESULT:    -4.650      2.917      4.384
REMARK INTER + INTRA:          -5.288
REMARK INTER:                  -5.034
REMARK INTRA:                  -0.254
REMARK UNBOUND:                -0.230
REMARK SMILES O=C([O-])c1ccccc1O
REMARK SMILES IDX 4 1 9 2 5 3 8 4 6 5 7 6 2 7 1 8 3 9 10 10
REMARK H PARENT 10 11
REMARK Flexibility Score: inf
ROOT
ATOM      1  C   UNL     1       1.013   8.178  17.948  1.00  0.00     0.039 A 
ATOM      2  C   UNL     1       0.609   6.838  17.741  1.00  0.00     0.124 A 
ATOM      3  C   UNL     1       0.902   8.727  19.242  1.00  0.00     0.014 A 
ATOM      4  C   UNL     1       0.108   6.083  18.814  1.00  0.00     0.047 A 
ATOM      5  C   UNL     1       0.401   7.965  20.301  1.00  0.00     0.001 A 
ATOM      6  C   UNL     1       0.006   6.646  20.087  1.00  0.00     0.004 A 
ENDROOT
BRANCH   1   7
ATOM      7  C   UNL     1       1.548   9.012  16.842  1.00  0.00     0.075 C 
ATOM      8  O   UNL     1       2.611   9.671  17.000  1.00  0.00    -0.545 OA
ATOM      9  O   UNL     1       0.896   9.086  15.617  1.00  0.00    -0.545 OA
ENDBRANCH   1   7
BRANCH   2  10
ATOM     10  O   UNL     1       0.701   6.251  16.479  1.00  0.00    -0.507 OA
ATOM     11  H   UNL     1      -0.063   6.292  15.815  1.00  0.00     0.293 HD
ENDBRANCH   2  10
TORSDOF 2
ENDMDL
MODEL 3
REMARK VINA RESULT:    -4.559      9.086     10.240
REMARK INTER + INTRA:          -5.189
REMARK INTER:                  -4.935
REMARK INTRA:                  -0.254
REMARK UNBOUND:                -0.230
REMARK SMILES O=C([O-])c1ccccc1O
REMARK SMILES IDX 4 1 9 2 5 3 8 4 6 5 7 6 2 7 1 8 3 9 10 10
REMARK H PARENT 10 11
REMARK Flexibility Score: inf
ROOT
ATOM      1  C   UNL     1      -6.881   5.200  14.882  1.00  0.00     0.039 A 
ATOM      2  C   UNL     1      -8.113   5.048  14.201  1.00  0.00     0.124 A 
ATOM      3  C   UNL     1      -6.783   6.177  15.894  1.00  0.00     0.014 A 
ATOM      4  C   UNL     1      -9.206   5.862  14.540  1.00  0.00     0.047 A 
ATOM      5  C   UNL     1      -7.877   6.981  16.220  1.00  0.00     0.001 A 
ATOM      6  C   UNL     1      -9.086   6.824  15.545  1.00  0.00     0.004 A 
ENDROOT
BRANCH   1   7
ATOM      7  C   UNL     1      -5.701   4.360  14.557  1.00  0.00     0.075 C 
ATOM      8  O   UNL     1      -5.057   3.785  15.476  1.00  0.00    -0.545 OA
ATOM      9  O   UNL     1      -5.281   4.188  13.244  1.00  0.00    -0.545 OA
ENDBRANCH   1   7
BRANCH   2  10
ATOM     10  O   UNL     1      -8.260   4.094  13.194  1.00  0.00    -0.507 OA
ATOM     11  H   UNL     1      -9.161   3.893  12.778  1.00  0.00     0.293 HD
ENDBRANCH   2  10
TORSDOF 2
ENDMDL
MODEL 4
REMARK VINA RESULT:    -4.482      1.173      2.199
REMARK INTER + INTRA:          -5.104
REMARK INTER:                  -4.867
REMARK INTRA:                  -0.237
REMARK UNBOUND:                -0.230
REMARK SMILES O=C([O-])c1ccccc1O
REMARK SMILES IDX 4 1 9 2 5 3 8 4 6 5 7 6 2 7 1 8 3 9 10 10
REMARK H PARENT 10 11
REMARK Flexibility Score: inf
ROOT
ATOM      1  C   UNL     1       0.680   7.369  19.672  1.00  0.00     0.039 A 
ATOM      2  C   UNL     1       0.357   6.449  18.645  1.00  0.00     0.124 A 
ATOM      3  C   UNL     1       1.259   8.604  19.318  1.00  0.00     0.014 A 
ATOM      4  C   UNL     1       0.617   6.778  17.304  1.00  0.00     0.047 A 
ATOM      5  C   UNL     1       1.513   8.917  17.981  1.00  0.00     0.001 A 
ATOM      6  C   UNL     1       1.192   8.006  16.976  1.00  0.00     0.004 A 
ENDROOT
BRANCH   1   7
ATOM      7  C   UNL     1       0.421   7.063  21.102  1.00  0.00     0.075 C 
ATOM      8  O   UNL     1      -0.754   6.843  21.503  1.00  0.00    -0.545 OA
ATOM      9  O   UNL     1       1.459   7.012  22.025  1.00  0.00    -0.545 OA
ENDBRANCH   1   7
BRANCH   2  10
ATOM     10  O   UNL     1      -0.219   5.215  18.945  1.00  0.00    -0.507 OA
ATOM     11  H   UNL     1      -1.110   5.146  19.423  1.00  0.00     0.293 HD
ENDBRANCH   2  10
TORSDOF 2
ENDMDL
MODEL 5
REMARK VINA RESULT:    -4.438      5.735      6.715
REMARK INTER + INTRA:          -5.057
REMARK INTER:                  -4.824
REMARK INTRA:                  -0.234
REMARK UNBOUND:                -0.230
REMARK SMILES O=C([O-])c1ccccc1O
REMARK SMILES IDX 4 1 9 2 5 3 8 4 6 5 7 6 2 7 1 8 3 9 10 10
REMARK H PARENT 10 11
REMARK Flexibility Score: inf
ROOT
ATOM      1  C   UNL     1      -2.877   3.950  16.175  1.00  0.00     0.039 A 
ATOM      2  C   UNL     1      -3.132   5.048  15.318  1.00  0.00     0.124 A 
ATOM      3  C   UNL     1      -3.965   3.172  16.620  1.00  0.00     0.014 A 
ATOM      4  C   UNL     1      -4.449   5.342  14.929  1.00  0.00     0.047 A 
ATOM      5  C   UNL     1      -5.270   3.477  16.226  1.00  0.00     0.001 A 
ATOM      6  C   UNL     1      -5.511   4.559  15.382  1.00  0.00     0.004 A 
ENDROOT
BRANCH   1   7
ATOM      7  C   UNL     1      -1.500   3.602  16.610  1.00  0.00     0.075 C 
ATOM      8  O   UNL     1      -1.193   2.403  16.848  1.00  0.00    -0.545 OA
ATOM      9  O   UNL     1      -0.527   4.582  16.765  1.00  0.00    -0.545 OA
ENDBRANCH   1   7
BRANCH   2  10
ATOM     10  O   UNL     1      -2.088   5.846  14.850  1.00  0.00    -0.507 OA
ATOM     11  H   UNL     1      -1.199   5.449  14.568  1.00  0.00     0.293 HD
ENDBRANCH   2  10
TORSDOF 2
ENDMDL
MODEL 6
REMARK VINA RESULT:    -4.295      7.719      8.845
REMARK INTER + INTRA:          -4.901
REMARK INTER:                  -4.662
REMARK INTRA:                  -0.239
REMARK UNBOUND:                -0.230
REMARK SMILES O=C([O-])c1ccccc1O
REMARK SMILES IDX 4 1 9 2 5 3 8 4 6 5 7 6 2 7 1 8 3 9 10 10
REMARK H PARENT 10 11
REMARK Flexibility Score: inf
ROOT
ATOM      1  C   UNL     1      -5.924   4.612  15.185  1.00  0.00     0.039 A 
ATOM      2  C   UNL     1      -5.018   4.291  14.145  1.00  0.00     0.124 A 
ATOM      3  C   UNL     1      -7.222   5.042  14.844  1.00  0.00     0.014 A 
ATOM      4  C   UNL     1      -5.422   4.406  12.805  1.00  0.00     0.047 A 
ATOM      5  C   UNL     1      -7.610   5.153  13.507  1.00  0.00     0.001 A 
ATOM      6  C   UNL     1      -6.712   4.835  12.490  1.00  0.00     0.004 A 
ENDROOT
BRANCH   1   7
ATOM      7  C   UNL     1      -5.539   4.503  16.616  1.00  0.00     0.075 C 
ATOM      8  O   UNL     1      -5.179   3.394  17.095  1.00  0.00    -0.545 OA
ATOM      9  O   UNL     1      -5.567   5.612  17.453  1.00  0.00    -0.545 OA
ENDBRANCH   1   7
BRANCH   2  10
ATOM     10  O   UNL     1      -3.723   3.859  14.433  1.00  0.00    -0.507 OA
ATOM     11  H   UNL     1      -3.494   2.875  14.506  1.00  0.00     0.293 HD
ENDBRANCH   2  10
TORSDOF 2
ENDMDL
MODEL 7
REMARK VINA RESULT:    -4.294      6.998      7.416
REMARK INTER + INTRA:          -4.901
REMARK INTER:                  -4.655
REMARK INTRA:                  -0.246
REMARK UNBOUND:                -0.230
REMARK SMILES O=C([O-])c1ccccc1O
REMARK SMILES IDX 4 1 9 2 5 3 8 4 6 5 7 6 2 7 1 8 3 9 10 10
REMARK H PARENT 10 11
REMARK Flexibility Score: inf
ROOT
ATOM      1  C   UNL     1      -5.207   5.826  16.676  1.00  0.00     0.039 A 
ATOM      2  C   UNL     1      -5.932   6.405  17.745  1.00  0.00     0.124 A 
ATOM      3  C   UNL     1      -4.900   6.623  15.555  1.00  0.00     0.014 A 
ATOM      4  C   UNL     1      -6.329   7.751  17.674  1.00  0.00     0.047 A 
ATOM      5  C   UNL     1      -5.302   7.960  15.497  1.00  0.00     0.001 A 
ATOM      6  C   UNL     1      -6.015   8.522  16.555  1.00  0.00     0.004 A 
ENDROOT
BRANCH   1   7
ATOM      7  C   UNL     1      -4.767   4.408  16.710  1.00  0.00     0.075 C 
ATOM      8  O   UNL     1      -5.547   3.509  17.126  1.00  0.00    -0.545 OA
ATOM      9  O   UNL     1      -3.495   4.041  16.288  1.00  0.00    -0.545 OA
ENDBRANCH   1   7
BRANCH   2  10
ATOM     10  O   UNL     1      -6.259   5.656  18.876  1.00  0.00    -0.507 OA
ATOM     11  H   UNL     1      -6.764   4.781  18.807  1.00  0.00     0.293 HD
ENDBRANCH   2  10
TORSDOF 2
ENDMDL
MODEL 8
REMARK VINA RESULT:    -4.263      7.654      8.764
REMARK INTER + INTRA:          -4.867
REMARK INTER:                  -4.616
REMARK INTRA:                  -0.250
REMARK UNBOUND:                -0.230
REMARK SMILES O=C([O-])c1ccccc1O
REMARK SMILES IDX 4 1 9 2 5 3 8 4 6 5 7 6 2 7 1 8 3 9 10 10
REMARK H PARENT 10 11
REMARK Flexibility Score: inf
ROOT
ATOM      1  C   UNL     1      -5.444   4.260  15.360  1.00  0.00     0.039 A 
ATOM      2  C   UNL     1      -5.200   4.386  13.972  1.00  0.00     0.124 A 
ATOM      3  C   UNL     1      -6.498   5.000  15.933  1.00  0.00     0.014 A 
ATOM      4  C   UNL     1      -6.002   5.238  13.194  1.00  0.00     0.047 A 
ATOM      5  C   UNL     1      -7.288   5.843  15.148  1.00  0.00     0.001 A 
ATOM      6  C   UNL     1      -7.041   5.962  13.782  1.00  0.00     0.004 A 
ENDROOT
BRANCH   1   7
ATOM      7  C   UNL     1      -4.621   3.370  16.220  1.00  0.00     0.075 C 
ATOM      8  O   UNL     1      -3.364   3.469  16.217  1.00  0.00    -0.545 OA
ATOM      9  O   UNL     1      -5.212   2.417  17.040  1.00  0.00    -0.545 OA
ENDBRANCH   1   7
BRANCH   2  10
ATOM     10  O   UNL     1      -4.169   3.673  13.360  1.00  0.00    -0.507 OA
ATOM     11  H   UNL     1      -4.326   2.765  12.940  1.00  0.00     0.293 HD
ENDBRANCH   2  10
TORSDOF 2
ENDMDL
MODEL 9
REMARK VINA RESULT:    -4.133      9.231     10.454
REMARK INTER + INTRA:          -4.726
REMARK INTER:                  -4.472
REMARK INTRA:                  -0.254
REMARK UNBOUND:                -0.230
REMARK SMILES O=C([O-])c1ccccc1O
REMARK SMILES IDX 4 1 9 2 5 3 8 4 6 5 7 6 2 7 1 8 3 9 10 10
REMARK H PARENT 10 11
REMARK Flexibility Score: inf
ROOT
ATOM      1  C   UNL     1      -7.790   5.849  14.734  1.00  0.00     0.039 A 
ATOM      2  C   UNL     1      -7.325   4.768  13.948  1.00  0.00     0.124 A 
ATOM      3  C   UNL     1      -6.850   6.634  15.431  1.00  0.00     0.014 A 
ATOM      4  C   UNL     1      -5.949   4.496  13.875  1.00  0.00     0.047 A 
ATOM      5  C   UNL     1      -5.484   6.352  15.351  1.00  0.00     0.001 A 
ATOM      6  C   UNL     1      -5.035   5.285  14.574  1.00  0.00     0.004 A 
ENDROOT
BRANCH   1   7
ATOM      7  C   UNL     1      -9.236   6.173  14.838  1.00  0.00     0.075 C 
ATOM      8  O   UNL     1      -9.743   6.464  15.955  1.00  0.00    -0.545 OA
ATOM      9  O   UNL     1     -10.057   6.163  13.717  1.00  0.00    -0.545 OA
ENDBRANCH   1   7
BRANCH   2  10
ATOM     10  O   UNL     1      -8.218   3.964  13.239  1.00  0.00    -0.507 OA
ATOM     11  H   UNL     1      -9.195   4.211  13.142  1.00  0.00     0.293 HD
ENDBRANCH   2  10
TORSDOF 2
ENDMDL
