MODEL 1
REMARK VINA RESULT:    -5.266      0.000      0.000
REMARK INTER + INTRA:          -7.917
REMARK INTER:                  -7.113
REMARK INTRA:                  -0.804
REMARK UNBOUND:                -0.804
REMARK SMILES CC(=O)CCC=C(C)CCC=C(C)C
REMARK SMILES IDX 7 1 6 2 8 3 9 4 10 5 11 6 13 7 12 8 14 9 5 10 4 11 2 12 3 13
REMARK SMILES IDX 1 14
REMARK H PARENT
REMARK Flexibility Score: inf
ROOT
ATOM      1  C   UNL     1       7.857  -1.741  48.207  1.00  0.00    -0.077 C 
ATOM      2  C   UNL     1       6.913  -1.756  49.174  1.00  0.00    -0.028 C 
ATOM      3  C   UNL     1       9.262  -2.230  48.472  1.00  0.00     0.039 C 
ENDROOT
BRANCH   1   4
ATOM      4  C   UNL     1       7.501  -1.222  46.829  1.00  0.00     0.034 C 
BRANCH   4   5
ATOM      5  C   UNL     1       6.027  -0.803  46.738  1.00  0.00     0.032 C 
BRANCH   5   6
ATOM      6  C   UNL     1       5.356  -1.378  45.513  1.00  0.00    -0.028 C 
ATOM      7  C   UNL     1       4.412  -3.112  44.051  1.00  0.00     0.039 C 
ATOM      8  C   UNL     1       5.033  -2.680  45.355  1.00  0.00    -0.080 C 
ATOM      9  C   UNL     1       5.258  -3.700  46.446  1.00  0.00     0.039 C 
ENDBRANCH   5   6
ENDBRANCH   4   5
ENDBRANCH   1   4
BRANCH   2  10
ATOM     10  C   UNL     1       7.177  -2.247  50.577  1.00  0.00     0.035 C 
BRANCH  10  11
ATOM     11  C   UNL     1       5.920  -2.872  51.191  1.00  0.00     0.079 C 
BRANCH  11  12
ATOM     12  C   UNL     1       5.601  -4.188  50.530  1.00  0.00     0.130 C 
ATOM     13  O   UNL     1       6.470  -5.042  50.441  1.00  0.00    -0.300 OA
ATOM     14  C   UNL     1       4.233  -4.478  49.987  1.00  0.00     0.087 C 
ENDBRANCH  11  12
ENDBRANCH  10  11
ENDBRANCH   2  10
TORSDOF 6
ENDMDL
MODEL 2
REMARK VINA RESULT:    -5.191      2.087      3.800
REMARK INTER + INTRA:          -7.816
REMARK INTER:                  -6.468
REMARK INTRA:                  -1.348
REMARK UNBOUND:                -0.804
REMARK SMILES CC(=O)CCC=C(C)CCC=C(C)C
REMARK SMILES IDX 7 1 6 2 8 3 9 4 10 5 11 6 13 7 12 8 14 9 5 10 4 11 2 12 3 13
REMARK SMILES IDX 1 14
REMARK H PARENT
REMARK Flexibility Score: inf
ROOT
ATOM      1  C   UNL     1       8.602  -4.909  48.453  1.00  0.00    -0.077 C 
ATOM      2  C   UNL     1       7.634  -5.120  47.534  1.00  0.00    -0.028 C 
ATOM      3  C   UNL     1       8.620  -5.659  49.764  1.00  0.00     0.039 C 
ENDROOT
BRANCH   1   4
ATOM      4  C   UNL     1       9.693  -3.897  48.164  1.00  0.00     0.034 C 
BRANCH   4   5
ATOM      5  C   UNL     1       9.391  -2.532  48.798  1.00  0.00     0.032 C 
BRANCH   5   6
ATOM      6  C   UNL     1       8.269  -1.818  48.081  1.00  0.00    -0.028 C 
ATOM      7  C   UNL     1       6.012  -0.911  47.742  1.00  0.00     0.039 C 
ATOM      8  C   UNL     1       7.044  -1.594  48.603  1.00  0.00    -0.080 C 
ATOM      9  C   UNL     1       6.691  -1.989  50.017  1.00  0.00     0.039 C 
ENDBRANCH   5   6
ENDBRANCH   4   5
ENDBRANCH   1   4
BRANCH   2  10
ATOM     10  C   UNL     1       6.505  -6.101  47.737  1.00  0.00     0.035 C 
BRANCH  10  11
ATOM     11  C   UNL     1       5.146  -5.443  47.484  1.00  0.00     0.079 C 
BRANCH  11  12
ATOM     12  C   UNL     1       4.644  -4.758  48.729  1.00  0.00     0.130 C 
ATOM     13  O   UNL     1       4.013  -3.716  48.629  1.00  0.00    -0.300 OA
ATOM     14  C   UNL     1       4.894  -5.333  50.092  1.00  0.00     0.087 C 
ENDBRANCH  11  12
ENDBRANCH  10  11
ENDBRANCH   2  10
TORSDOF 6
ENDMDL
MODEL 3
REMARK VINA RESULT:    -5.179      1.362      3.542
REMARK INTER + INTRA:          -7.801
REMARK INTER:                  -6.492
REMARK INTRA:                  -1.308
REMARK UNBOUND:                -0.804
REMARK SMILES CC(=O)CCC=C(C)CCC=C(C)C
REMARK SMILES IDX 7 1 6 2 8 3 9 4 10 5 11 6 13 7 12 8 14 9 5 10 4 11 2 12 3 13
REMARK SMILES IDX 1 14
REMARK H PARENT
REMARK Flexibility Score: inf
ROOT
ATOM      1  C   UNL     1       5.393  -2.293  46.907  1.00  0.00    -0.077 C 
ATOM      2  C   UNL     1       4.990  -2.531  48.175  1.00  0.00    -0.028 C 
ATOM      3  C   UNL     1       5.193  -3.315  45.813  1.00  0.00     0.039 C 
ENDROOT
BRANCH   1   4
ATOM      4  C   UNL     1       6.061  -0.974  46.575  1.00  0.00     0.034 C 
BRANCH   4   5
ATOM      5  C   UNL     1       7.305  -0.727  47.440  1.00  0.00     0.032 C 
BRANCH   5   6
ATOM      6  C   UNL     1       8.266  -1.891  47.382  1.00  0.00    -0.028 C 
ATOM      7  C   UNL     1       9.685  -3.702  48.242  1.00  0.00     0.039 C 
ATOM      8  C   UNL     1       8.681  -2.598  48.456  1.00  0.00    -0.080 C 
ATOM      9  C   UNL     1       8.160  -2.324  49.846  1.00  0.00     0.039 C 
ENDBRANCH   5   6
ENDBRANCH   4   5
ENDBRANCH   1   4
BRANCH   2  10
ATOM     10  C   UNL     1       4.324  -3.817  48.600  1.00  0.00     0.035 C 
BRANCH  10  11
ATOM     11  C   UNL     1       4.861  -4.299  49.951  1.00  0.00     0.079 C 
BRANCH  11  12
ATOM     12  C   UNL     1       6.007  -5.258  49.758  1.00  0.00     0.130 C 
ATOM     13  O   UNL     1       6.630  -5.654  50.732  1.00  0.00    -0.300 OA
ATOM     14  C   UNL     1       6.396  -5.748  48.394  1.00  0.00     0.087 C 
ENDBRANCH  11  12
ENDBRANCH  10  11
ENDBRANCH   2  10
TORSDOF 6
ENDMDL
MODEL 4
REMARK VINA RESULT:    -5.105      1.482      2.824
REMARK INTER + INTRA:          -7.701
REMARK INTER:                  -6.539
REMARK INTRA:                  -1.161
REMARK UNBOUND:                -0.804
REMARK SMILES CC(=O)CCC=C(C)CCC=C(C)C
REMARK SMILES IDX 7 1 6 2 8 3 9 4 10 5 11 6 13 7 12 8 14 9 5 10 4 11 2 12 3 13
REMARK SMILES IDX 1 14
REMARK H PARENT
REMARK Flexibility Score: inf
ROOT
ATOM      1  C   UNL     1       7.620  -3.291  49.595  1.00  0.00    -0.077 C 
ATOM      2  C   UNL     1       7.019  -4.487  49.781  1.00  0.00    -0.028 C 
ATOM      3  C   UNL     1       7.112  -2.041  50.273  1.00  0.00     0.039 C 
ENDROOT
BRANCH   1   4
ATOM      4  C   UNL     1       8.828  -3.201  48.685  1.00  0.00     0.034 C 
BRANCH   4   5
ATOM      5  C   UNL     1       8.639  -2.148  47.583  1.00  0.00     0.032 C 
BRANCH   5   6
ATOM      6  C   UNL     1       7.415  -2.431  46.744  1.00  0.00    -0.028 C 
ATOM      7  C   UNL     1       5.266  -1.974  45.645  1.00  0.00     0.039 C 
ATOM      8  C   UNL     1       6.456  -1.525  46.455  1.00  0.00    -0.080 C 
ATOM      9  C   UNL     1       6.552  -0.086  46.903  1.00  0.00     0.039 C 
ENDBRANCH   5   6
ENDBRANCH   4   5
ENDBRANCH   1   4
BRANCH   2  10
ATOM     10  C   UNL     1       5.807  -4.672  50.662  1.00  0.00     0.035 C 
BRANCH  10  11
ATOM     11  C   UNL     1       4.639  -5.278  49.879  1.00  0.00     0.079 C 
BRANCH  11  12
ATOM     12  C   UNL     1       4.425  -4.540  48.583  1.00  0.00     0.130 C 
ATOM     13  O   UNL     1       4.105  -3.361  48.609  1.00  0.00    -0.300 OA
ATOM     14  C   UNL     1       4.607  -5.218  47.257  1.00  0.00     0.087 C 
ENDBRANCH  11  12
ENDBRANCH  10  11
ENDBRANCH   2  10
TORSDOF 6
ENDMDL
MODEL 5
REMARK VINA RESULT:    -5.057      1.815      4.507
REMARK INTER + INTRA:          -7.635
REMARK INTER:                  -6.619
REMARK INTRA:                  -1.015
REMARK UNBOUND:                -0.804
REMARK SMILES CC(=O)CCC=C(C)CCC=C(C)C
REMARK SMILES IDX 7 1 6 2 8 3 9 4 10 5 11 6 13 7 12 8 14 9 5 10 4 11 2 12 3 13
REMARK SMILES IDX 1 14
REMARK H PARENT
REMARK Flexibility Score: inf
ROOT
ATOM      1  C   UNL     1       8.732  -3.354  47.973  1.00  0.00    -0.077 C 
ATOM      2  C   UNL     1       7.823  -2.849  47.110  1.00  0.00    -0.028 C 
ATOM      3  C   UNL     1       9.736  -2.464  48.666  1.00  0.00     0.039 C 
ENDROOT
BRANCH   1   4
ATOM      4  C   UNL     1       8.745  -4.843  48.251  1.00  0.00     0.034 C 
BRANCH   4   5
ATOM      5  C   UNL     1       8.206  -5.170  49.651  1.00  0.00     0.032 C 
BRANCH   5   6
ATOM      6  C   UNL     1       6.706  -5.342  49.646  1.00  0.00    -0.028 C 
ATOM      7  C   UNL     1       4.357  -4.761  50.072  1.00  0.00     0.039 C 
ATOM      8  C   UNL     1       5.826  -4.421  50.096  1.00  0.00    -0.080 C 
ATOM      9  C   UNL     1       6.269  -3.069  50.599  1.00  0.00     0.039 C 
ENDBRANCH   5   6
ENDBRANCH   4   5
ENDBRANCH   1   4
BRANCH   2  10
ATOM     10  C   UNL     1       7.738  -1.382  46.766  1.00  0.00     0.035 C 
BRANCH  10  11
ATOM     11  C   UNL     1       6.349  -0.818  47.079  1.00  0.00     0.079 C 
BRANCH  11  12
ATOM     12  C   UNL     1       5.272  -1.776  46.641  1.00  0.00     0.130 C 
ATOM     13  O   UNL     1       4.602  -2.353  47.485  1.00  0.00    -0.300 OA
ATOM     14  C   UNL     1       4.996  -2.032  45.189  1.00  0.00     0.087 C 
ENDBRANCH  11  12
ENDBRANCH  10  11
ENDBRANCH   2  10
TORSDOF 6
ENDMDL
MODEL 6
REMARK VINA RESULT:    -5.053      2.387      4.916
REMARK INTER + INTRA:          -7.630
REMARK INTER:                  -6.306
REMARK INTRA:                  -1.325
REMARK UNBOUND:                -0.804
REMARK SMILES CC(=O)CCC=C(C)CCC=C(C)C
REMARK SMILES IDX 7 1 6 2 8 3 9 4 10 5 11 6 13 7 12 8 14 9 5 10 4 11 2 12 3 13
REMARK SMILES IDX 1 14
REMARK H PARENT
REMARK Flexibility Score: inf
ROOT
ATOM      1  C   UNL     1       7.692  -5.418  48.962  1.00  0.00    -0.077 C 
ATOM      2  C   UNL     1       8.664  -4.506  49.183  1.00  0.00    -0.028 C 
ATOM      3  C   UNL     1       7.226  -5.749  47.564  1.00  0.00     0.039 C 
ENDROOT
BRANCH   1   4
ATOM      4  C   UNL     1       7.055  -6.125  50.141  1.00  0.00     0.034 C 
BRANCH   4   5
ATOM      5  C   UNL     1       5.699  -5.509  50.514  1.00  0.00     0.032 C 
BRANCH   5   6
ATOM      6  C   UNL     1       5.836  -4.060  50.919  1.00  0.00    -0.028 C 
ATOM      7  C   UNL     1       5.706  -1.619  50.680  1.00  0.00     0.039 C 
ATOM      8  C   UNL     1       5.457  -3.011  50.157  1.00  0.00    -0.080 C 
ATOM      9  C   UNL     1       4.782  -3.195  48.819  1.00  0.00     0.039 C 
ENDBRANCH   5   6
ENDBRANCH   4   5
ENDBRANCH   1   4
BRANCH   2  10
ATOM     10  C   UNL     1       9.351  -3.748  48.072  1.00  0.00     0.035 C 
BRANCH  10  11
ATOM     11  C   UNL     1       9.225  -2.234  48.273  1.00  0.00     0.079 C 
BRANCH  11  12
ATOM     12  C   UNL     1       8.057  -1.688  47.494  1.00  0.00     0.130 C 
ATOM     13  O   UNL     1       7.553  -0.627  47.833  1.00  0.00    -0.300 OA
ATOM     14  C   UNL     1       7.504  -2.412  46.302  1.00  0.00     0.087 C 
ENDBRANCH  11  12
ENDBRANCH  10  11
ENDBRANCH   2  10
TORSDOF 6
ENDMDL
MODEL 7
REMARK VINA RESULT:    -5.042      1.978      3.307
REMARK INTER + INTRA:          -7.615
REMARK INTER:                  -6.451
REMARK INTRA:                  -1.164
REMARK UNBOUND:                -0.804
REMARK SMILES CC(=O)CCC=C(C)CCC=C(C)C
REMARK SMILES IDX 7 1 6 2 8 3 9 4 10 5 11 6 13 7 12 8 14 9 5 10 4 11 2 12 3 13
REMARK SMILES IDX 1 14
REMARK H PARENT
REMARK Flexibility Score: inf
ROOT
ATOM      1  C   UNL     1       7.021  -1.737  48.983  1.00  0.00    -0.077 C 
ATOM      2  C   UNL     1       8.142  -2.110  48.328  1.00  0.00    -0.028 C 
ATOM      3  C   UNL     1       6.871  -1.949  50.471  1.00  0.00     0.039 C 
ENDROOT
BRANCH   1   4
ATOM      4  C   UNL     1       5.888  -1.094  48.209  1.00  0.00     0.034 C 
BRANCH   4   5
ATOM      5  C   UNL     1       5.094  -2.124  47.393  1.00  0.00     0.032 C 
BRANCH   5   6
ATOM      6  C   UNL     1       4.545  -3.226  48.268  1.00  0.00    -0.028 C 
ATOM      7  C   UNL     1       3.984  -5.523  48.933  1.00  0.00     0.039 C 
ATOM      8  C   UNL     1       4.626  -4.544  47.984  1.00  0.00    -0.080 C 
ATOM      9  C   UNL     1       5.351  -5.058  46.763  1.00  0.00     0.039 C 
ENDBRANCH   5   6
ENDBRANCH   4   5
ENDBRANCH   1   4
BRANCH   2  10
ATOM     10  C   UNL     1       9.318  -2.763  49.013  1.00  0.00     0.035 C 
BRANCH  10  11
ATOM     11  C   UNL     1       9.795  -3.997  48.240  1.00  0.00     0.079 C 
BRANCH  11  12
ATOM     12  C   UNL     1       8.818  -5.134  48.395  1.00  0.00     0.130 C 
ATOM     13  O   UNL     1       8.613  -5.882  47.451  1.00  0.00    -0.300 OA
ATOM     14  C   UNL     1       8.097  -5.376  49.689  1.00  0.00     0.087 C 
ENDBRANCH  11  12
ENDBRANCH  10  11
ENDBRANCH   2  10
TORSDOF 6
ENDMDL
MODEL 8
REMARK VINA RESULT:    -4.866      2.288      3.898
REMARK INTER + INTRA:          -7.378
REMARK INTER:                  -6.038
REMARK INTRA:                  -1.339
REMARK UNBOUND:                -0.804
REMARK SMILES CC(=O)CCC=C(C)CCC=C(C)C
REMARK SMILES IDX 7 1 6 2 8 3 9 4 10 5 11 6 13 7 12 8 14 9 5 10 4 11 2 12 3 13
REMARK SMILES IDX 1 14
REMARK H PARENT
REMARK Flexibility Score: inf
ROOT
ATOM      1  C   UNL     1       7.058  -5.694  48.115  1.00  0.00    -0.077 C 
ATOM      2  C   UNL     1       8.301  -5.200  47.928  1.00  0.00    -0.028 C 
ATOM      3  C   UNL     1       6.470  -5.841  49.499  1.00  0.00     0.039 C 
ENDROOT
BRANCH   1   4
ATOM      4  C   UNL     1       6.236  -6.112  46.913  1.00  0.00     0.034 C 
BRANCH   4   5
ATOM      5  C   UNL     1       4.989  -5.233  46.738  1.00  0.00     0.032 C 
BRANCH   5   6
ATOM      6  C   UNL     1       5.346  -3.846  46.257  1.00  0.00    -0.028 C 
ATOM      7  C   UNL     1       5.560  -1.401  46.352  1.00  0.00     0.039 C 
ATOM      8  C   UNL     1       5.208  -2.720  46.991  1.00  0.00    -0.080 C 
ATOM      9  C   UNL     1       4.732  -2.751  48.424  1.00  0.00     0.039 C 
ENDBRANCH   5   6
ENDBRANCH   4   5
ENDBRANCH   1   4
BRANCH   2  10
ATOM     10  C   UNL     1       9.195  -4.765  49.065  1.00  0.00     0.035 C 
BRANCH  10  11
ATOM     11  C   UNL     1       9.762  -3.363  48.819  1.00  0.00     0.079 C 
BRANCH  11  12
ATOM     12  C   UNL     1       8.671  -2.327  48.887  1.00  0.00     0.130 C 
ATOM     13  O   UNL     1       8.514  -1.558  47.950  1.00  0.00    -0.300 OA
ATOM     14  C   UNL     1       7.762  -2.223  50.076  1.00  0.00     0.087 C 
ENDBRANCH  11  12
ENDBRANCH  10  11
ENDBRANCH   2  10
TORSDOF 6
ENDMDL
MODEL 9
REMARK VINA RESULT:    -4.737      1.770      2.229
REMARK INTER + INTRA:          -7.203
REMARK INTER:                  -6.272
REMARK INTRA:                  -0.932
REMARK UNBOUND:                -0.804
REMARK SMILES CC(=O)CCC=C(C)CCC=C(C)C
REMARK SMILES IDX 7 1 6 2 8 3 9 4 10 5 11 6 13 7 12 8 14 9 5 10 4 11 2 12 3 13
REMARK SMILES IDX 1 14
REMARK H PARENT
REMARK Flexibility Score: inf
ROOT
ATOM      1  C   UNL     1       8.610  -2.532  48.133  1.00  0.00    -0.077 C 
ATOM      2  C   UNL     1       8.240  -3.694  47.550  1.00  0.00    -0.028 C 
ATOM      3  C   UNL     1       9.707  -2.487  49.170  1.00  0.00     0.039 C 
ENDROOT
BRANCH   1   4
ATOM      4  C   UNL     1       7.909  -1.248  47.739  1.00  0.00     0.034 C 
BRANCH   4   5
ATOM      5  C   UNL     1       6.382  -1.371  47.850  1.00  0.00     0.032 C 
BRANCH   5   6
ATOM      6  C   UNL     1       5.712  -1.252  46.501  1.00  0.00    -0.028 C 
ATOM      7  C   UNL     1       4.579  -2.013  44.460  1.00  0.00     0.039 C 
ATOM      8  C   UNL     1       5.168  -2.283  45.821  1.00  0.00    -0.080 C 
ATOM      9  C   UNL     1       5.118  -3.681  46.389  1.00  0.00     0.039 C 
ENDBRANCH   5   6
ENDBRANCH   4   5
ENDBRANCH   1   4
BRANCH   2  10
ATOM     10  C   UNL     1       8.876  -5.022  47.883  1.00  0.00     0.035 C 
BRANCH  10  11
ATOM     11  C   UNL     1       7.815  -6.088  48.171  1.00  0.00     0.079 C 
BRANCH  11  12
ATOM     12  C   UNL     1       7.207  -5.882  49.534  1.00  0.00     0.130 C 
ATOM     13  O   UNL     1       7.876  -6.113  50.531  1.00  0.00    -0.300 OA
ATOM     14  C   UNL     1       5.800  -5.387  49.697  1.00  0.00     0.087 C 
ENDBRANCH  11  12
ENDBRANCH  10  11
ENDBRANCH   2  10
TORSDOF 6
ENDMDL
