MODEL 1
REMARK VINA RESULT:    -6.073      0.000      0.000
REMARK INTER + INTRA:         -18.100
REMARK INTER:                 -16.013
REMARK INTRA:                  -2.087
REMARK UNBOUND:                -2.087
REMARK SMILES CCCCCCCCCCCCCCCCCCCCCCCCCCCCCC(=O)[O-]
REMARK SMILES IDX 16 1 17 2 18 3 19 4 20 5 21 6 22 7 23 8 24 9 25 10 26 11
REMARK SMILES IDX 27 12 28 13 29 14 30 15 31 16 32 17 15 18 14 19 13 20 12 21
REMARK SMILES IDX 11 22 10 23 9 24 8 25 7 26 6 27 5 28 4 29 3 30 2 31 1 32
REMARK H PARENT
REMARK Flexibility Score: inf
ROOT
ATOM      1  C   UNL     1      13.995  -8.966  -0.272  1.00  0.00     0.000 C 
ENDROOT
BRANCH   1   2
ATOM      2  C   UNL     1      14.725  -7.770  -0.900  1.00  0.00     0.000 C 
BRANCH   2   3
ATOM      3  C   UNL     1      14.522  -7.730  -2.420  1.00  0.00     0.000 C 
BRANCH   3   4
ATOM      4  C   UNL     1      13.213  -7.012  -2.777  1.00  0.00     0.000 C 
BRANCH   4   5
ATOM      5  C   UNL     1      12.437  -7.710  -3.908  1.00  0.00     0.000 C 
BRANCH   5   6
ATOM      6  C   UNL     1      12.303  -9.238  -3.757  1.00  0.00     0.000 C 
BRANCH   6   7
ATOM      7  C   UNL     1      12.261 -10.028  -5.080  1.00  0.00     0.000 C 
BRANCH   7   8
ATOM      8  C   UNL     1      12.095  -9.166  -6.345  1.00  0.00     0.000 C 
BRANCH   8   9
ATOM      9  C   UNL     1      11.807 -10.004  -7.602  1.00  0.00     0.000 C 
BRANCH   9  10
ATOM     10  C   UNL     1      10.410  -9.730  -8.182  1.00  0.00     0.000 C 
BRANCH  10  11
ATOM     11  C   UNL     1       9.302 -10.510  -7.451  1.00  0.00     0.000 C 
BRANCH  11  12
ATOM     12  C   UNL     1       9.510 -12.031  -7.514  1.00  0.00     0.000 C 
BRANCH  12  13
ATOM     13  C   UNL     1       8.199 -12.795  -7.774  1.00  0.00     0.006 C 
BRANCH  13  14
ATOM     14  C   UNL     1       8.315 -14.283  -7.418  1.00  0.00     0.053 C 
BRANCH  14  15
ATOM     15  C   UNL     1       7.221 -15.094  -8.041  1.00  0.00     0.041 C 
ATOM     16  O   UNL     1       6.418 -14.562  -8.852  1.00  0.00    -0.550 OA
ATOM     17  O   UNL     1       7.076 -16.437  -7.712  1.00  0.00    -0.550 OA
ENDBRANCH  14  15
ENDBRANCH  13  14
ENDBRANCH  12  13
ENDBRANCH  11  12
ENDBRANCH  10  11
ENDBRANCH   9  10
ENDBRANCH   8   9
ENDBRANCH   7   8
ENDBRANCH   6   7
ENDBRANCH   5   6
ENDBRANCH   4   5
ENDBRANCH   3   4
ENDBRANCH   2   3
ENDBRANCH   1   2
BRANCH   1  18
ATOM     18  C   UNL     1      12.693  -8.568   0.447  1.00  0.00     0.000 C 
BRANCH  18  19
ATOM     19  C   UNL     1      12.549  -9.105   1.884  1.00  0.00     0.000 C 
BRANCH  19  20
ATOM     20  C   UNL     1      11.936  -8.077   2.852  1.00  0.00     0.000 C 
BRANCH  20  21
ATOM     21  C   UNL     1      12.468  -8.230   4.292  1.00  0.00     0.000 C 
BRANCH  21  22
ATOM     22  C   UNL     1      13.247  -9.537   4.535  1.00  0.00     0.000 C 
BRANCH  22  23
ATOM     23  C   UNL     1      12.551 -10.550   5.462  1.00  0.00     0.000 C 
BRANCH  23  24
ATOM     24  C   UNL     1      11.072 -10.850   5.128  1.00  0.00    -0.000 C 
BRANCH  24  25
ATOM     25  C   UNL     1      10.816 -12.170   4.375  1.00  0.00    -0.000 C 
BRANCH  25  26
ATOM     26  C   UNL     1       9.716 -13.054   5.003  1.00  0.00    -0.000 C 
BRANCH  26  27
ATOM     27  C   UNL     1       8.894 -12.339   6.091  1.00  0.00    -0.000 C 
BRANCH  27  28
ATOM     28  C   UNL     1       7.938 -13.255   6.878  1.00  0.00    -0.000 C 
BRANCH  28  29
ATOM     29  C   UNL     1       8.535 -14.619   7.274  1.00  0.00    -0.000 C 
BRANCH  29  30
ATOM     30  C   UNL     1       7.807 -15.820   6.631  1.00  0.00    -0.000 C 
BRANCH  30  31
ATOM     31  C   UNL     1       6.887 -15.390   5.479  1.00  0.00    -0.003 C 
ATOM     32  C   UNL     1       6.986 -16.357   4.303  1.00  0.00     0.004 C 
ENDBRANCH  30  31
ENDBRANCH  29  30
ENDBRANCH  28  29
ENDBRANCH  27  28
ENDBRANCH  26  27
ENDBRANCH  25  26
ENDBRANCH  24  25
ENDBRANCH  23  24
ENDBRANCH  22  23
ENDBRANCH  21  22
ENDBRANCH  20  21
ENDBRANCH  19  20
ENDBRANCH  18  19
ENDBRANCH   1  18
TORSDOF 28
ENDMDL
MODEL 2
REMARK VINA RESULT:    -5.990      5.299     14.506
REMARK INTER + INTRA:         -17.882
REMARK INTER:                 -15.641
REMARK INTRA:                  -2.241
REMARK UNBOUND:                -2.087
REMARK SMILES CCCCCCCCCCCCCCCCCCCCCCCCCCCCCC(=O)[O-]
REMARK SMILES IDX 16 1 17 2 18 3 19 4 20 5 21 6 22 7 23 8 24 9 25 10 26 11
REMARK SMILES IDX 27 12 28 13 29 14 30 15 31 16 32 17 15 18 14 19 13 20 12 21
REMARK SMILES IDX 11 22 10 23 9 24 8 25 7 26 6 27 5 28 4 29 3 30 2 31 1 32
REMARK H PARENT
REMARK Flexibility Score: inf
ROOT
ATOM      1  C   UNL     1       2.781 -17.877  -1.564  1.00  0.00     0.000 C 
ENDROOT
BRANCH   1   2
ATOM      2  C   UNL     1       3.420 -17.373  -0.262  1.00  0.00     0.000 C 
BRANCH   2   3
ATOM      3  C   UNL     1       4.906 -17.749  -0.191  1.00  0.00     0.000 C 
BRANCH   3   4
ATOM      4  C   UNL     1       5.263 -18.304   1.194  1.00  0.00     0.000 C 
BRANCH   4   5
ATOM      5  C   UNL     1       4.084 -19.027   1.871  1.00  0.00     0.000 C 
BRANCH   5   6
ATOM      6  C   UNL     1       3.830 -18.625   3.337  1.00  0.00     0.000 C 
BRANCH   6   7
ATOM      7  C   UNL     1       3.498 -17.136   3.561  1.00  0.00     0.000 C 
BRANCH   7   8
ATOM      8  C   UNL     1       4.496 -16.376   4.454  1.00  0.00     0.000 C 
BRANCH   8   9
ATOM      9  C   UNL     1       5.546 -15.597   3.644  1.00  0.00     0.000 C 
BRANCH   9  10
ATOM     10  C   UNL     1       6.984 -16.005   4.001  1.00  0.00     0.000 C 
BRANCH  10  11
ATOM     11  C   UNL     1       7.256 -15.954   5.515  1.00  0.00     0.000 C 
BRANCH  11  12
ATOM     12  C   UNL     1       8.600 -15.291   5.853  1.00  0.00     0.000 C 
BRANCH  12  13
ATOM     13  C   UNL     1       8.565 -14.540   7.196  1.00  0.00     0.006 C 
BRANCH  13  14
ATOM     14  C   UNL     1       7.979 -13.129   7.055  1.00  0.00     0.053 C 
BRANCH  14  15
ATOM     15  C   UNL     1       8.501 -12.424   5.841  1.00  0.00     0.041 C 
ATOM     16  O   UNL     1       9.662 -11.935   5.840  1.00  0.00    -0.550 OA
ATOM     17  O   UNL     1       7.699 -12.291   4.714  1.00  0.00    -0.550 OA
ENDBRANCH  14  15
ENDBRANCH  13  14
ENDBRANCH  12  13
ENDBRANCH  11  12
ENDBRANCH  10  11
ENDBRANCH   9  10
ENDBRANCH   8   9
ENDBRANCH   7   8
ENDBRANCH   6   7
ENDBRANCH   5   6
ENDBRANCH   4   5
ENDBRANCH   3   4
ENDBRANCH   2   3
ENDBRANCH   1   2
BRANCH   1  18
ATOM     18  C   UNL     1       3.757 -18.682  -2.442  1.00  0.00     0.000 C 
BRANCH  18  19
ATOM     19  C   UNL     1       3.239 -19.023  -3.852  1.00  0.00     0.000 C 
BRANCH  19  20
ATOM     20  C   UNL     1       3.825 -18.112  -4.946  1.00  0.00     0.000 C 
BRANCH  20  21
ATOM     21  C   UNL     1       4.858 -17.109  -4.389  1.00  0.00     0.000 C 
BRANCH  21  22
ATOM     22  C   UNL     1       5.477 -16.190  -5.460  1.00  0.00     0.000 C 
BRANCH  22  23
ATOM     23  C   UNL     1       4.484 -15.624  -6.490  1.00  0.00     0.000 C 
BRANCH  23  24
ATOM     24  C   UNL     1       5.017 -14.463  -7.359  1.00  0.00    -0.000 C 
BRANCH  24  25
ATOM     25  C   UNL     1       5.757 -14.881  -8.644  1.00  0.00    -0.000 C 
BRANCH  25  26
ATOM     26  C   UNL     1       7.250 -14.484  -8.674  1.00  0.00    -0.000 C 
BRANCH  26  27
ATOM     27  C   UNL     1       7.645 -13.483  -7.572  1.00  0.00    -0.000 C 
BRANCH  27  28
ATOM     28  C   UNL     1       9.031 -12.839  -7.758  1.00  0.00    -0.000 C 
BRANCH  28  29
ATOM     29  C   UNL     1       9.220 -11.497  -7.025  1.00  0.00    -0.000 C 
BRANCH  29  30
ATOM     30  C   UNL     1       9.373 -10.291  -7.979  1.00  0.00    -0.000 C 
BRANCH  30  31
ATOM     31  C   UNL     1      10.741  -9.608  -7.834  1.00  0.00    -0.003 C 
ATOM     32  C   UNL     1      11.865 -10.513  -8.326  1.00  0.00     0.004 C 
ENDBRANCH  30  31
ENDBRANCH  29  30
ENDBRANCH  28  29
ENDBRANCH  27  28
ENDBRANCH  26  27
ENDBRANCH  25  26
ENDBRANCH  24  25
ENDBRANCH  23  24
ENDBRANCH  22  23
ENDBRANCH  21  22
ENDBRANCH  20  21
ENDBRANCH  19  20
ENDBRANCH  18  19
ENDBRANCH   1  18
TORSDOF 28
ENDMDL
MODEL 3
REMARK VINA RESULT:    -5.854      5.917     13.111
REMARK INTER + INTRA:         -17.524
REMARK INTER:                 -14.320
REMARK INTRA:                  -3.203
REMARK UNBOUND:                -2.087
REMARK SMILES CCCCCCCCCCCCCCCCCCCCCCCCCCCCCC(=O)[O-]
REMARK SMILES IDX 16 1 17 2 18 3 19 4 20 5 21 6 22 7 23 8 24 9 25 10 26 11
REMARK SMILES IDX 27 12 28 13 29 14 30 15 31 16 32 17 15 18 14 19 13 20 12 21
REMARK SMILES IDX 11 22 10 23 9 24 8 25 7 26 6 27 5 28 4 29 3 30 2 31 1 32
REMARK H PARENT
REMARK Flexibility Score: inf
ROOT
ATOM      1  C   UNL     1       4.550 -16.363   4.396  1.00  0.00     0.000 C 
ENDROOT
BRANCH   1   2
ATOM      2  C   UNL     1       5.627 -15.684   3.538  1.00  0.00     0.000 C 
BRANCH   2   3
ATOM      3  C   UNL     1       7.034 -16.122   3.963  1.00  0.00     0.000 C 
BRANCH   3   4
ATOM      4  C   UNL     1       7.201 -16.018   5.485  1.00  0.00     0.000 C 
BRANCH   4   5
ATOM      5  C   UNL     1       8.549 -15.400   5.898  1.00  0.00     0.000 C 
BRANCH   5   6
ATOM      6  C   UNL     1       8.476 -14.407   7.075  1.00  0.00     0.000 C 
BRANCH   6   7
ATOM      7  C   UNL     1       8.575 -12.918   6.685  1.00  0.00     0.000 C 
BRANCH   7   8
ATOM      8  C   UNL     1       7.228 -12.236   6.383  1.00  0.00     0.000 C 
BRANCH   8   9
ATOM      9  C   UNL     1       6.964 -12.082   4.875  1.00  0.00     0.000 C 
BRANCH   9  10
ATOM     10  C   UNL     1       8.250 -11.807   4.079  1.00  0.00     0.000 C 
BRANCH  10  11
ATOM     11  C   UNL     1       8.463 -12.812   2.934  1.00  0.00     0.000 C 
BRANCH  11  12
ATOM     12  C   UNL     1       9.871 -13.429   2.943  1.00  0.00     0.000 C 
BRANCH  12  13
ATOM     13  C   UNL     1      10.817 -12.721   3.929  1.00  0.00     0.006 C 
BRANCH  13  14
ATOM     14  C   UNL     1      11.950 -11.975   3.211  1.00  0.00     0.053 C 
BRANCH  14  15
ATOM     15  C   UNL     1      12.656 -11.019   4.121  1.00  0.00     0.041 C 
ATOM     16  O   UNL     1      13.751 -10.503   3.773  1.00  0.00    -0.550 OA
ATOM     17  O   UNL     1      12.115 -10.710   5.363  1.00  0.00    -0.550 OA
ENDBRANCH  14  15
ENDBRANCH  13  14
ENDBRANCH  12  13
ENDBRANCH  11  12
ENDBRANCH  10  11
ENDBRANCH   9  10
ENDBRANCH   8   9
ENDBRANCH   7   8
ENDBRANCH   6   7
ENDBRANCH   5   6
ENDBRANCH   4   5
ENDBRANCH   3   4
ENDBRANCH   2   3
ENDBRANCH   1   2
BRANCH   1  18
ATOM     18  C   UNL     1       3.566 -17.210   3.569  1.00  0.00     0.000 C 
BRANCH  18  19
ATOM     19  C   UNL     1       4.045 -18.638   3.243  1.00  0.00     0.000 C 
BRANCH  19  20
ATOM     20  C   UNL     1       4.219 -18.884   1.733  1.00  0.00     0.000 C 
BRANCH  20  21
ATOM     21  C   UNL     1       3.882 -17.638   0.887  1.00  0.00     0.000 C 
BRANCH  21  22
ATOM     22  C   UNL     1       3.783 -17.917  -0.625  1.00  0.00     0.000 C 
BRANCH  22  23
ATOM     23  C   UNL     1       2.383 -17.728  -1.235  1.00  0.00     0.000 C 
BRANCH  23  24
ATOM     24  C   UNL     1       2.349 -17.494  -2.762  1.00  0.00    -0.000 C 
BRANCH  24  25
ATOM     25  C   UNL     1       2.854 -18.667  -3.625  1.00  0.00    -0.000 C 
BRANCH  25  26
ATOM     26  C   UNL     1       3.970 -18.286  -4.622  1.00  0.00    -0.000 C 
BRANCH  26  27
ATOM     27  C   UNL     1       4.945 -17.223  -4.082  1.00  0.00    -0.000 C 
BRANCH  27  28
ATOM     28  C   UNL     1       4.948 -15.898  -4.865  1.00  0.00    -0.000 C 
BRANCH  28  29
ATOM     29  C   UNL     1       5.534 -15.993  -6.287  1.00  0.00    -0.000 C 
BRANCH  29  30
ATOM     30  C   UNL     1       4.840 -15.058  -7.302  1.00  0.00    -0.000 C 
BRANCH  30  31
ATOM     31  C   UNL     1       5.825 -14.488  -8.333  1.00  0.00    -0.003 C 
ATOM     32  C   UNL     1       6.775 -15.565  -8.844  1.00  0.00     0.004 C 
ENDBRANCH  30  31
ENDBRANCH  29  30
ENDBRANCH  28  29
ENDBRANCH  27  28
ENDBRANCH  26  27
ENDBRANCH  25  26
ENDBRANCH  24  25
ENDBRANCH  23  24
ENDBRANCH  22  23
ENDBRANCH  21  22
ENDBRANCH  20  21
ENDBRANCH  19  20
ENDBRANCH  18  19
ENDBRANCH   1  18
TORSDOF 28
ENDMDL
MODEL 4
REMARK VINA RESULT:    -5.826      1.848      4.924
REMARK INTER + INTRA:         -17.451
REMARK INTER:                 -15.457
REMARK INTRA:                  -1.994
REMARK UNBOUND:                -2.087
REMARK SMILES CCCCCCCCCCCCCCCCCCCCCCCCCCCCCC(=O)[O-]
REMARK SMILES IDX 16 1 17 2 18 3 19 4 20 5 21 6 22 7 23 8 24 9 25 10 26 11
REMARK SMILES IDX 27 12 28 13 29 14 30 15 31 16 32 17 15 18 14 19 13 20 12 21
REMARK SMILES IDX 11 22 10 23 9 24 8 25 7 26 6 27 5 28 4 29 3 30 2 31 1 32
REMARK H PARENT
REMARK Flexibility Score: inf
ROOT
ATOM      1  C   UNL     1      12.885  -9.446   4.605  1.00  0.00     0.000 C 
ENDROOT
BRANCH   1   2
ATOM      2  C   UNL     1      11.897  -8.438   3.999  1.00  0.00     0.000 C 
BRANCH   2   3
ATOM      3  C   UNL     1      12.383  -7.936   2.634  1.00  0.00     0.000 C 
BRANCH   3   4
ATOM      4  C   UNL     1      12.003  -8.924   1.522  1.00  0.00     0.000 C 
BRANCH   4   5
ATOM      5  C   UNL     1      13.212  -9.711   0.983  1.00  0.00     0.000 C 
BRANCH   5   6
ATOM      6  C   UNL     1      13.577  -9.415  -0.485  1.00  0.00     0.000 C 
BRANCH   6   7
ATOM      7  C   UNL     1      14.368  -8.111  -0.715  1.00  0.00     0.000 C 
BRANCH   7   8
ATOM      8  C   UNL     1      13.991  -7.342  -1.994  1.00  0.00     0.000 C 
BRANCH   8   9
ATOM      9  C   UNL     1      12.577  -7.679  -2.496  1.00  0.00     0.000 C 
BRANCH   9  10
ATOM     10  C   UNL     1      12.533  -7.910  -4.015  1.00  0.00     0.000 C 
BRANCH  10  11
ATOM     11  C   UNL     1      12.315  -9.389  -4.382  1.00  0.00     0.000 C 
BRANCH  11  12
ATOM     12  C   UNL     1      11.213  -9.580  -5.436  1.00  0.00     0.000 C 
BRANCH  12  13
ATOM     13  C   UNL     1      11.761  -9.548  -6.874  1.00  0.00     0.006 C 
BRANCH  13  14
ATOM     14  C   UNL     1      11.696 -10.925  -7.549  1.00  0.00     0.053 C 
BRANCH  14  15
ATOM     15  C   UNL     1      10.285 -11.397  -7.724  1.00  0.00     0.041 C 
ATOM     16  O   UNL     1      10.004 -12.618  -7.598  1.00  0.00    -0.550 OA
ATOM     17  O   UNL     1       9.282 -10.490  -8.043  1.00  0.00    -0.550 OA
ENDBRANCH  14  15
ENDBRANCH  13  14
ENDBRANCH  12  13
ENDBRANCH  11  12
ENDBRANCH  10  11
ENDBRANCH   9  10
ENDBRANCH   8   9
ENDBRANCH   7   8
ENDBRANCH   6   7
ENDBRANCH   5   6
ENDBRANCH   4   5
ENDBRANCH   3   4
ENDBRANCH   2   3
ENDBRANCH   1   2
BRANCH   1  18
ATOM     18  C   UNL     1      12.197 -10.713   5.145  1.00  0.00     0.000 C 
BRANCH  18  19
ATOM     19  C   UNL     1      11.788 -11.743   4.075  1.00  0.00     0.000 C 
BRANCH  19  20
ATOM     20  C   UNL     1      10.508 -12.516   4.440  1.00  0.00     0.000 C 
BRANCH  20  21
ATOM     21  C   UNL     1       9.800 -11.934   5.681  1.00  0.00     0.000 C 
BRANCH  21  22
ATOM     22  C   UNL     1       8.386 -12.499   5.917  1.00  0.00     0.000 C 
BRANCH  22  23
ATOM     23  C   UNL     1       8.250 -13.432   7.133  1.00  0.00     0.000 C 
BRANCH  23  24
ATOM     24  C   UNL     1       8.559 -14.923   6.865  1.00  0.00    -0.000 C 
BRANCH  24  25
ATOM     25  C   UNL     1       7.415 -15.734   6.225  1.00  0.00    -0.000 C 
BRANCH  25  26
ATOM     26  C   UNL     1       7.421 -15.728   4.681  1.00  0.00    -0.000 C 
BRANCH  26  27
ATOM     27  C   UNL     1       6.315 -14.853   4.062  1.00  0.00    -0.000 C 
BRANCH  27  28
ATOM     28  C   UNL     1       5.187 -15.640   3.369  1.00  0.00    -0.000 C 
BRANCH  28  29
ATOM     29  C   UNL     1       4.387 -16.571   4.299  1.00  0.00    -0.000 C 
BRANCH  29  30
ATOM     30  C   UNL     1       3.553 -17.629   3.543  1.00  0.00    -0.000 C 
BRANCH  30  31
ATOM     31  C   UNL     1       4.249 -18.997   3.507  1.00  0.00    -0.003 C 
ATOM     32  C   UNL     1       5.766 -18.845   3.491  1.00  0.00     0.004 C 
ENDBRANCH  30  31
ENDBRANCH  29  30
ENDBRANCH  28  29
ENDBRANCH  27  28
ENDBRANCH  26  27
ENDBRANCH  25  26
ENDBRANCH  24  25
ENDBRANCH  23  24
ENDBRANCH  22  23
ENDBRANCH  21  22
ENDBRANCH  20  21
ENDBRANCH  19  20
ENDBRANCH  18  19
ENDBRANCH   1  18
TORSDOF 28
ENDMDL
MODEL 5
REMARK VINA RESULT:    -5.786      3.744     10.758
REMARK INTER + INTRA:         -17.344
REMARK INTER:                 -13.060
REMARK INTRA:                  -4.284
REMARK UNBOUND:                -2.087
REMARK SMILES CCCCCCCCCCCCCCCCCCCCCCCCCCCCCC(=O)[O-]
REMARK SMILES IDX 16 1 17 2 18 3 19 4 20 5 21 6 22 7 23 8 24 9 25 10 26 11
REMARK SMILES IDX 27 12 28 13 29 14 30 15 31 16 32 17 15 18 14 19 13 20 12 21
REMARK SMILES IDX 11 22 10 23 9 24 8 25 7 26 6 27 5 28 4 29 3 30 2 31 1 32
REMARK H PARENT
REMARK Flexibility Score: inf
ROOT
ATOM      1  C   UNL     1      10.889 -11.662  -0.432  1.00  0.00     0.000 C 
ENDROOT
BRANCH   1   2
ATOM      2  C   UNL     1      11.089 -11.320   1.052  1.00  0.00     0.000 C 
BRANCH   2   3
ATOM      3  C   UNL     1      10.563  -9.916   1.375  1.00  0.00     0.000 C 
BRANCH   3   4
ATOM      4  C   UNL     1      11.688  -8.876   1.277  1.00  0.00     0.000 C 
BRANCH   4   5
ATOM      5  C   UNL     1      12.866  -9.178   2.220  1.00  0.00     0.000 C 
BRANCH   5   6
ATOM      6  C   UNL     1      12.565  -8.982   3.719  1.00  0.00     0.000 C 
BRANCH   6   7
ATOM      7  C   UNL     1      13.064 -10.111   4.643  1.00  0.00     0.000 C 
BRANCH   7   8
ATOM      8  C   UNL     1      11.975 -10.772   5.508  1.00  0.00     0.000 C 
BRANCH   8   9
ATOM      9  C   UNL     1      10.955 -11.567   4.675  1.00  0.00     0.000 C 
BRANCH   9  10
ATOM     10  C   UNL     1      10.183 -12.595   5.518  1.00  0.00     0.000 C 
BRANCH  10  11
ATOM     11  C   UNL     1       8.786 -12.096   5.926  1.00  0.00     0.000 C 
BRANCH  11  12
ATOM     12  C   UNL     1       8.127 -12.987   6.991  1.00  0.00     0.000 C 
BRANCH  12  13
ATOM     13  C   UNL     1       8.746 -14.395   7.044  1.00  0.00     0.006 C 
BRANCH  13  14
ATOM     14  C   UNL     1       7.706 -15.495   6.789  1.00  0.00     0.053 C 
BRANCH  14  15
ATOM     15  C   UNL     1       7.353 -15.607   5.338  1.00  0.00     0.041 C 
ATOM     16  O   UNL     1       6.175 -15.884   4.991  1.00  0.00    -0.550 OA
ATOM     17  O   UNL     1       8.330 -15.421   4.367  1.00  0.00    -0.550 OA
ENDBRANCH  14  15
ENDBRANCH  13  14
ENDBRANCH  12  13
ENDBRANCH  11  12
ENDBRANCH  10  11
ENDBRANCH   9  10
ENDBRANCH   8   9
ENDBRANCH   7   8
ENDBRANCH   6   7
ENDBRANCH   5   6
ENDBRANCH   4   5
ENDBRANCH   3   4
ENDBRANCH   2   3
ENDBRANCH   1   2
BRANCH   1  18
ATOM     18  C   UNL     1      12.188 -12.105  -1.129  1.00  0.00     0.000 C 
BRANCH  18  19
ATOM     19  C   UNL     1      13.208 -10.981  -1.388  1.00  0.00     0.000 C 
BRANCH  19  20
ATOM     20  C   UNL     1      13.729 -10.963  -2.837  1.00  0.00     0.000 C 
BRANCH  20  21
ATOM     21  C   UNL     1      14.327  -9.597  -3.234  1.00  0.00     0.000 C 
BRANCH  21  22
ATOM     22  C   UNL     1      14.758  -8.731  -2.034  1.00  0.00     0.000 C 
BRANCH  22  23
ATOM     23  C   UNL     1      14.051  -7.368  -1.924  1.00  0.00     0.000 C 
BRANCH  23  24
ATOM     24  C   UNL     1      13.025  -7.060  -3.037  1.00  0.00    -0.000 C 
BRANCH  24  25
ATOM     25  C   UNL     1      11.553  -6.996  -2.584  1.00  0.00    -0.000 C 
BRANCH  25  26
ATOM     26  C   UNL     1      10.958  -8.359  -2.168  1.00  0.00    -0.000 C 
BRANCH  26  27
ATOM     27  C   UNL     1       9.878  -8.882  -3.134  1.00  0.00    -0.000 C 
BRANCH  27  28
ATOM     28  C   UNL     1      10.359  -9.980  -4.100  1.00  0.00    -0.000 C 
BRANCH  28  29
ATOM     29  C   UNL     1      10.575  -9.510  -5.551  1.00  0.00    -0.000 C 
BRANCH  29  30
ATOM     30  C   UNL     1      12.046  -9.595  -6.014  1.00  0.00    -0.000 C 
BRANCH  30  31
ATOM     31  C   UNL     1      12.181  -9.494  -7.540  1.00  0.00    -0.003 C 
ATOM     32  C   UNL     1      11.762 -10.793  -8.219  1.00  0.00     0.004 C 
ENDBRANCH  30  31
ENDBRANCH  29  30
ENDBRANCH  28  29
ENDBRANCH  27  28
ENDBRANCH  26  27
ENDBRANCH  25  26
ENDBRANCH  24  25
ENDBRANCH  23  24
ENDBRANCH  22  23
ENDBRANCH  21  22
ENDBRANCH  20  21
ENDBRANCH  19  20
ENDBRANCH  18  19
ENDBRANCH   1  18
TORSDOF 28
ENDMDL
MODEL 6
REMARK VINA RESULT:    -5.775      4.546     13.201
REMARK INTER + INTRA:         -17.315
REMARK INTER:                 -15.593
REMARK INTRA:                  -1.722
REMARK UNBOUND:                -2.087
REMARK SMILES CCCCCCCCCCCCCCCCCCCCCCCCCCCCCC(=O)[O-]
REMARK SMILES IDX 16 1 17 2 18 3 19 4 20 5 21 6 22 7 23 8 24 9 25 10 26 11
REMARK SMILES IDX 27 12 28 13 29 14 30 15 31 16 32 17 15 18 14 19 13 20 12 21
REMARK SMILES IDX 11 22 10 23 9 24 8 25 7 26 6 27 5 28 4 29 3 30 2 31 1 32
REMARK H PARENT
REMARK Flexibility Score: inf
ROOT
ATOM      1  C   UNL     1       4.501 -15.284  -6.900  1.00  0.00     0.000 C 
ENDROOT
BRANCH   1   2
ATOM      2  C   UNL     1       5.257 -15.410  -5.569  1.00  0.00     0.000 C 
BRANCH   2   3
ATOM      3  C   UNL     1       4.403 -16.120  -4.511  1.00  0.00     0.000 C 
BRANCH   3   4
ATOM      4  C   UNL     1       4.280 -17.618  -4.824  1.00  0.00     0.000 C 
BRANCH   4   5
ATOM      5  C   UNL     1       3.390 -18.369  -3.817  1.00  0.00     0.000 C 
BRANCH   5   6
ATOM      6  C   UNL     1       4.154 -19.116  -2.706  1.00  0.00     0.000 C 
BRANCH   6   7
ATOM      7  C   UNL     1       4.529 -18.264  -1.478  1.00  0.00     0.000 C 
BRANCH   7   8
ATOM      8  C   UNL     1       3.362 -17.953  -0.524  1.00  0.00     0.000 C 
BRANCH   8   9
ATOM      9  C   UNL     1       3.829 -17.654   0.911  1.00  0.00     0.000 C 
BRANCH   9  10
ATOM     10  C   UNL     1       4.023 -18.931   1.744  1.00  0.00     0.000 C 
BRANCH  10  11
ATOM     11  C   UNL     1       4.032 -18.654   3.258  1.00  0.00     0.000 C 
BRANCH  11  12
ATOM     12  C   UNL     1       3.406 -17.297   3.615  1.00  0.00     0.000 C 
BRANCH  12  13
ATOM     13  C   UNL     1       4.382 -16.380   4.374  1.00  0.00     0.006 C 
BRANCH  13  14
ATOM     14  C   UNL     1       5.515 -15.868   3.475  1.00  0.00     0.053 C 
BRANCH  14  15
ATOM     15  C   UNL     1       6.849 -16.406   3.892  1.00  0.00     0.041 C 
ATOM     16  O   UNL     1       7.649 -16.858   3.030  1.00  0.00    -0.550 OA
ATOM     17  O   UNL     1       7.203 -16.425   5.235  1.00  0.00    -0.550 OA
ENDBRANCH  14  15
ENDBRANCH  13  14
ENDBRANCH  12  13
ENDBRANCH  11  12
ENDBRANCH  10  11
ENDBRANCH   9  10
ENDBRANCH   8   9
ENDBRANCH   7   8
ENDBRANCH   6   7
ENDBRANCH   5   6
ENDBRANCH   4   5
ENDBRANCH   3   4
ENDBRANCH   2   3
ENDBRANCH   1   2
BRANCH   1  18
ATOM     18  C   UNL     1       5.199 -14.347  -7.903  1.00  0.00     0.000 C 
BRANCH  18  19
ATOM     19  C   UNL     1       6.362 -14.981  -8.689  1.00  0.00     0.000 C 
BRANCH  19  20
ATOM     20  C   UNL     1       7.643 -14.128  -8.661  1.00  0.00     0.000 C 
BRANCH  20  21
ATOM     21  C   UNL     1       7.567 -12.980  -7.633  1.00  0.00     0.000 C 
BRANCH  21  22
ATOM     22  C   UNL     1       8.830 -12.098  -7.586  1.00  0.00     0.000 C 
BRANCH  22  23
ATOM     23  C   UNL     1      10.128 -12.835  -7.215  1.00  0.00     0.000 C 
BRANCH  23  24
ATOM     24  C   UNL     1      11.436 -12.150  -7.674  1.00  0.00    -0.000 C 
BRANCH  24  25
ATOM     25  C   UNL     1      11.287 -10.697  -8.167  1.00  0.00    -0.000 C 
BRANCH  25  26
ATOM     26  C   UNL     1      11.947  -9.645  -7.249  1.00  0.00    -0.000 C 
BRANCH  26  27
ATOM     27  C   UNL     1      11.579  -9.804  -5.762  1.00  0.00    -0.000 C 
BRANCH  27  28
ATOM     28  C   UNL     1      12.556  -9.126  -4.784  1.00  0.00    -0.000 C 
BRANCH  28  29
ATOM     29  C   UNL     1      11.884  -8.250  -3.709  1.00  0.00    -0.000 C 
BRANCH  29  30
ATOM     30  C   UNL     1      12.792  -7.116  -3.183  1.00  0.00    -0.000 C 
BRANCH  30  31
ATOM     31  C   UNL     1      13.464  -7.483  -1.851  1.00  0.00    -0.003 C 
ATOM     32  C   UNL     1      14.927  -7.860  -2.057  1.00  0.00     0.004 C 
ENDBRANCH  30  31
ENDBRANCH  29  30
ENDBRANCH  28  29
ENDBRANCH  27  28
ENDBRANCH  26  27
ENDBRANCH  25  26
ENDBRANCH  24  25
ENDBRANCH  23  24
ENDBRANCH  22  23
ENDBRANCH  21  22
ENDBRANCH  20  21
ENDBRANCH  19  20
ENDBRANCH  18  19
ENDBRANCH   1  18
TORSDOF 28
ENDMDL
MODEL 7
REMARK VINA RESULT:    -5.773      4.099     10.284
REMARK INTER + INTRA:         -17.309
REMARK INTER:                 -15.460
REMARK INTRA:                  -1.850
REMARK UNBOUND:                -2.087
REMARK SMILES CCCCCCCCCCCCCCCCCCCCCCCCCCCCCC(=O)[O-]
REMARK SMILES IDX 16 1 17 2 18 3 19 4 20 5 21 6 22 7 23 8 24 9 25 10 26 11
REMARK SMILES IDX 27 12 28 13 29 14 30 15 31 16 32 17 15 18 14 19 13 20 12 21
REMARK SMILES IDX 11 22 10 23 9 24 8 25 7 26 6 27 5 28 4 29 3 30 2 31 1 32
REMARK H PARENT
REMARK Flexibility Score: inf
ROOT
ATOM      1  C   UNL     1       8.641 -14.547   6.764  1.00  0.00     0.000 C 
ENDROOT
BRANCH   1   2
ATOM      2  C   UNL     1       7.994 -13.191   7.078  1.00  0.00     0.000 C 
BRANCH   2   3
ATOM      3  C   UNL     1       7.957 -12.292   5.835  1.00  0.00     0.000 C 
BRANCH   3   4
ATOM      4  C   UNL     1       9.270 -12.398   5.046  1.00  0.00     0.000 C 
BRANCH   4   5
ATOM      5  C   UNL     1      10.375 -11.479   5.598  1.00  0.00     0.000 C 
BRANCH   5   6
ATOM      6  C   UNL     1      11.662 -11.431   4.751  1.00  0.00     0.000 C 
BRANCH   6   7
ATOM      7  C   UNL     1      12.708 -10.392   5.205  1.00  0.00     0.000 C 
BRANCH   7   8
ATOM      8  C   UNL     1      12.886  -9.194   4.255  1.00  0.00     0.000 C 
BRANCH   8   9
ATOM      9  C   UNL     1      12.783  -9.589   2.772  1.00  0.00     0.000 C 
BRANCH   9  10
ATOM     10  C   UNL     1      12.584  -8.374   1.853  1.00  0.00     0.000 C 
BRANCH  10  11
ATOM     11  C   UNL     1      12.552  -8.758   0.362  1.00  0.00     0.000 C 
BRANCH  11  12
ATOM     12  C   UNL     1      13.811  -8.304  -0.393  1.00  0.00     0.000 C 
BRANCH  12  13
ATOM     13  C   UNL     1      13.497  -7.804  -1.814  1.00  0.00     0.006 C 
BRANCH  13  14
ATOM     14  C   UNL     1      13.706  -8.897  -2.871  1.00  0.00     0.053 C 
BRANCH  14  15
ATOM     15  C   UNL     1      12.476  -9.121  -3.696  1.00  0.00     0.041 C 
ATOM     16  O   UNL     1      11.692 -10.067  -3.422  1.00  0.00    -0.550 OA
ATOM     17  O   UNL     1      12.204  -8.294  -4.779  1.00  0.00    -0.550 OA
ENDBRANCH  14  15
ENDBRANCH  13  14
ENDBRANCH  12  13
ENDBRANCH  11  12
ENDBRANCH  10  11
ENDBRANCH   9  10
ENDBRANCH   8   9
ENDBRANCH   7   8
ENDBRANCH   6   7
ENDBRANCH   5   6
ENDBRANCH   4   5
ENDBRANCH   3   4
ENDBRANCH   2   3
ENDBRANCH   1   2
BRANCH   1  18
ATOM     18  C   UNL     1       7.616 -15.627   6.372  1.00  0.00     0.000 C 
BRANCH  18  19
ATOM     19  C   UNL     1       7.589 -15.991   4.875  1.00  0.00     0.000 C 
BRANCH  19  20
ATOM     20  C   UNL     1       6.488 -15.250   4.095  1.00  0.00     0.000 C 
BRANCH  20  21
ATOM     21  C   UNL     1       5.167 -16.045   4.035  1.00  0.00     0.000 C 
BRANCH  21  22
ATOM     22  C   UNL     1       5.349 -17.534   3.679  1.00  0.00     0.000 C 
BRANCH  22  23
ATOM     23  C   UNL     1       4.060 -18.373   3.701  1.00  0.00     0.000 C 
BRANCH  23  24
ATOM     24  C   UNL     1       3.669 -19.025   2.355  1.00  0.00    -0.000 C 
BRANCH  24  25
ATOM     25  C   UNL     1       3.687 -18.087   1.132  1.00  0.00    -0.000 C 
BRANCH  25  26
ATOM     26  C   UNL     1       4.682 -18.505   0.027  1.00  0.00    -0.000 C 
BRANCH  26  27
ATOM     27  C   UNL     1       4.375 -17.882  -1.348  1.00  0.00    -0.000 C 
BRANCH  27  28
ATOM     28  C   UNL     1       2.904 -17.478  -1.555  1.00  0.00    -0.000 C 
BRANCH  28  29
ATOM     29  C   UNL     1       2.248 -18.067  -2.819  1.00  0.00    -0.000 C 
BRANCH  29  30
ATOM     30  C   UNL     1       3.167 -19.034  -3.596  1.00  0.00    -0.000 C 
BRANCH  30  31
ATOM     31  C   UNL     1       3.520 -18.503  -4.993  1.00  0.00    -0.003 C 
ATOM     32  C   UNL     1       4.275 -17.181  -4.906  1.00  0.00     0.004 C 
ENDBRANCH  30  31
ENDBRANCH  29  30
ENDBRANCH  28  29
ENDBRANCH  27  28
ENDBRANCH  26  27
ENDBRANCH  25  26
ENDBRANCH  24  25
ENDBRANCH  23  24
ENDBRANCH  22  23
ENDBRANCH  21  22
ENDBRANCH  20  21
ENDBRANCH  19  20
ENDBRANCH  18  19
ENDBRANCH   1  18
TORSDOF 28
ENDMDL
MODEL 8
REMARK VINA RESULT:    -5.764      3.416     10.820
REMARK INTER + INTRA:         -17.286
REMARK INTER:                 -13.597
REMARK INTRA:                  -3.689
REMARK UNBOUND:                -2.087
REMARK SMILES CCCCCCCCCCCCCCCCCCCCCCCCCCCCCC(=O)[O-]
REMARK SMILES IDX 16 1 17 2 18 3 19 4 20 5 21 6 22 7 23 8 24 9 25 10 26 11
REMARK SMILES IDX 27 12 28 13 29 14 30 15 31 16 32 17 15 18 14 19 13 20 12 21
REMARK SMILES IDX 11 22 10 23 9 24 8 25 7 26 6 27 5 28 4 29 3 30 2 31 1 32
REMARK H PARENT
REMARK Flexibility Score: inf
ROOT
ATOM      1  C   UNL     1      10.114  -8.522   2.305  1.00  0.00     0.000 C 
ENDROOT
BRANCH   1   2
ATOM      2  C   UNL     1      10.878  -8.444   3.635  1.00  0.00     0.000 C 
BRANCH   2   3
ATOM      3  C   UNL     1      12.393  -8.517   3.409  1.00  0.00     0.000 C 
BRANCH   3   4
ATOM      4  C   UNL     1      13.041  -9.521   4.373  1.00  0.00     0.000 C 
BRANCH   4   5
ATOM      5  C   UNL     1      12.015 -10.446   5.051  1.00  0.00     0.000 C 
BRANCH   5   6
ATOM      6  C   UNL     1      11.873 -11.840   4.409  1.00  0.00     0.000 C 
BRANCH   6   7
ATOM      7  C   UNL     1      10.662 -12.665   4.889  1.00  0.00     0.000 C 
BRANCH   7   8
ATOM      8  C   UNL     1       9.356 -11.867   5.048  1.00  0.00     0.000 C 
BRANCH   8   9
ATOM      9  C   UNL     1       8.757 -11.981   6.461  1.00  0.00     0.000 C 
BRANCH   9  10
ATOM     10  C   UNL     1       7.677 -13.071   6.554  1.00  0.00     0.000 C 
BRANCH  10  11
ATOM     11  C   UNL     1       8.236 -14.417   7.049  1.00  0.00     0.000 C 
BRANCH  11  12
ATOM     12  C   UNL     1       7.664 -15.615   6.276  1.00  0.00     0.000 C 
BRANCH  12  13
ATOM     13  C   UNL     1       8.023 -15.576   4.780  1.00  0.00     0.006 C 
BRANCH  13  14
ATOM     14  C   UNL     1       6.778 -15.487   3.887  1.00  0.00     0.053 C 
BRANCH  14  15
ATOM     15  C   UNL     1       5.843 -16.635   4.113  1.00  0.00     0.041 C 
ATOM     16  O   UNL     1       6.207 -17.812   3.851  1.00  0.00    -0.550 OA
ATOM     17  O   UNL     1       4.561 -16.405   4.599  1.00  0.00    -0.550 OA
ENDBRANCH  14  15
ENDBRANCH  13  14
ENDBRANCH  12  13
ENDBRANCH  11  12
ENDBRANCH  10  11
ENDBRANCH   9  10
ENDBRANCH   8   9
ENDBRANCH   7   8
ENDBRANCH   6   7
ENDBRANCH   5   6
ENDBRANCH   4   5
ENDBRANCH   3   4
ENDBRANCH   2   3
ENDBRANCH   1   2
BRANCH   1  18
ATOM     18  C   UNL     1       9.715  -9.959   1.923  1.00  0.00     0.000 C 
BRANCH  18  19
ATOM     19  C   UNL     1      10.372 -10.501   0.639  1.00  0.00     0.000 C 
BRANCH  19  20
ATOM     20  C   UNL     1      11.600 -11.386   0.919  1.00  0.00     0.000 C 
BRANCH  20  21
ATOM     21  C   UNL     1      12.918 -10.733   0.453  1.00  0.00     0.000 C 
BRANCH  21  22
ATOM     22  C   UNL     1      12.734  -9.348  -0.197  1.00  0.00     0.000 C 
BRANCH  22  23
ATOM     23  C   UNL     1      14.036  -8.567  -0.450  1.00  0.00     0.000 C 
BRANCH  23  24
ATOM     24  C   UNL     1      14.330  -8.227  -1.929  1.00  0.00    -0.000 C 
BRANCH  24  25
ATOM     25  C   UNL     1      13.610  -6.980  -2.479  1.00  0.00    -0.000 C 
BRANCH  25  26
ATOM     26  C   UNL     1      12.499  -7.290  -3.506  1.00  0.00    -0.000 C 
BRANCH  26  27
ATOM     27  C   UNL     1      12.552  -8.727  -4.058  1.00  0.00    -0.000 C 
BRANCH  27  28
ATOM     28  C   UNL     1      11.210  -9.257  -4.596  1.00  0.00    -0.000 C 
BRANCH  28  29
ATOM     29  C   UNL     1      11.098  -9.281  -6.133  1.00  0.00    -0.000 C 
BRANCH  29  30
ATOM     30  C   UNL     1      12.202 -10.117  -6.817  1.00  0.00    -0.000 C 
BRANCH  30  31
ATOM     31  C   UNL     1      11.634 -11.058  -7.890  1.00  0.00    -0.003 C 
ATOM     32  C   UNL     1      10.139 -11.284  -7.692  1.00  0.00     0.004 C 
ENDBRANCH  30  31
ENDBRANCH  29  30
ENDBRANCH  28  29
ENDBRANCH  27  28
ENDBRANCH  26  27
ENDBRANCH  25  26
ENDBRANCH  24  25
ENDBRANCH  23  24
ENDBRANCH  22  23
ENDBRANCH  21  22
ENDBRANCH  20  21
ENDBRANCH  19  20
ENDBRANCH  18  19
ENDBRANCH   1  18
TORSDOF 28
ENDMDL
MODEL 9
REMARK VINA RESULT:    -5.693      5.140      9.298
REMARK INTER + INTRA:         -17.100
REMARK INTER:                 -12.184
REMARK INTRA:                  -4.916
REMARK UNBOUND:                -2.087
REMARK SMILES CCCCCCCCCCCCCCCCCCCCCCCCCCCCCC(=O)[O-]
REMARK SMILES IDX 16 1 17 2 18 3 19 4 20 5 21 6 22 7 23 8 24 9 25 10 26 11
REMARK SMILES IDX 27 12 28 13 29 14 30 15 31 16 32 17 15 18 14 19 13 20 12 21
REMARK SMILES IDX 11 22 10 23 9 24 8 25 7 26 6 27 5 28 4 29 3 30 2 31 1 32
REMARK H PARENT
REMARK Flexibility Score: inf
ROOT
ATOM      1  C   UNL     1       8.007 -11.383  -5.687  1.00  0.00     0.000 C 
ENDROOT
BRANCH   1   2
ATOM      2  C   UNL     1       7.869 -12.515  -4.658  1.00  0.00     0.000 C 
BRANCH   2   3
ATOM      3  C   UNL     1       6.417 -13.000  -4.558  1.00  0.00     0.000 C 
BRANCH   3   4
ATOM      4  C   UNL     1       5.588 -12.489  -5.745  1.00  0.00     0.000 C 
BRANCH   4   5
ATOM      5  C   UNL     1       4.568 -13.526  -6.252  1.00  0.00     0.000 C 
BRANCH   5   6
ATOM      6  C   UNL     1       4.851 -14.079  -7.663  1.00  0.00     0.000 C 
BRANCH   6   7
ATOM      7  C   UNL     1       6.323 -14.001  -8.116  1.00  0.00     0.000 C 
BRANCH   7   8
ATOM      8  C   UNL     1       6.832 -15.236  -8.882  1.00  0.00     0.000 C 
BRANCH   8   9
ATOM      9  C   UNL     1       7.542 -16.251  -7.970  1.00  0.00     0.000 C 
BRANCH   9  10
ATOM     10  C   UNL     1       8.095 -15.605  -6.690  1.00  0.00     0.000 C 
BRANCH  10  11
ATOM     11  C   UNL     1       7.637 -16.334  -5.414  1.00  0.00     0.000 C 
BRANCH  11  12
ATOM     12  C   UNL     1       6.171 -16.789  -5.486  1.00  0.00     0.000 C 
BRANCH  12  13
ATOM     13  C   UNL     1       5.428 -16.593  -4.153  1.00  0.00     0.006 C 
BRANCH  13  14
ATOM     14  C   UNL     1       3.905 -16.690  -4.319  1.00  0.00     0.053 C 
BRANCH  14  15
ATOM     15  C   UNL     1       3.378 -18.023  -3.886  1.00  0.00     0.041 C 
ATOM     16  O   UNL     1       3.145 -18.249  -2.669  1.00  0.00    -0.550 OA
ATOM     17  O   UNL     1       3.159 -19.024  -4.825  1.00  0.00    -0.550 OA
ENDBRANCH  14  15
ENDBRANCH  13  14
ENDBRANCH  12  13
ENDBRANCH  11  12
ENDBRANCH  10  11
ENDBRANCH   9  10
ENDBRANCH   8   9
ENDBRANCH   7   8
ENDBRANCH   6   7
ENDBRANCH   5   6
ENDBRANCH   4   5
ENDBRANCH   3   4
ENDBRANCH   2   3
ENDBRANCH   1   2
BRANCH   1  18
ATOM     18  C   UNL     1       9.029 -11.697  -6.794  1.00  0.00     0.000 C 
BRANCH  18  19
ATOM     19  C   UNL     1       9.002 -10.740  -8.001  1.00  0.00     0.000 C 
BRANCH  19  20
ATOM     20  C   UNL     1      10.110  -9.673  -7.948  1.00  0.00     0.000 C 
BRANCH  20  21
ATOM     21  C   UNL     1      11.508 -10.282  -7.716  1.00  0.00     0.000 C 
BRANCH  21  22
ATOM     22  C   UNL     1      12.293  -9.625  -6.564  1.00  0.00     0.000 C 
BRANCH  22  23
ATOM     23  C   UNL     1      11.430  -9.074  -5.416  1.00  0.00     0.000 C 
BRANCH  23  24
ATOM     24  C   UNL     1      11.221 -10.032  -4.222  1.00  0.00    -0.000 C 
BRANCH  24  25
ATOM     25  C   UNL     1      12.478 -10.791  -3.752  1.00  0.00    -0.000 C 
BRANCH  25  26
ATOM     26  C   UNL     1      12.251 -11.687  -2.514  1.00  0.00    -0.000 C 
BRANCH  26  27
ATOM     27  C   UNL     1      12.754 -11.063  -1.199  1.00  0.00    -0.000 C 
BRANCH  27  28
ATOM     28  C   UNL     1      11.971  -9.819  -0.739  1.00  0.00    -0.000 C 
BRANCH  28  29
ATOM     29  C   UNL     1      12.835  -8.563  -0.512  1.00  0.00    -0.000 C 
BRANCH  29  30
ATOM     30  C   UNL     1      14.142  -8.559  -1.336  1.00  0.00    -0.000 C 
BRANCH  30  31
ATOM     31  C   UNL     1      14.200  -7.386  -2.325  1.00  0.00    -0.003 C 
ATOM     32  C   UNL     1      12.800  -6.920  -2.711  1.00  0.00     0.004 C 
ENDBRANCH  30  31
ENDBRANCH  29  30
ENDBRANCH  28  29
ENDBRANCH  27  28
ENDBRANCH  26  27
ENDBRANCH  25  26
ENDBRANCH  24  25
ENDBRANCH  23  24
ENDBRANCH  22  23
ENDBRANCH  21  22
ENDBRANCH  20  21
ENDBRANCH  19  20
ENDBRANCH  18  19
ENDBRANCH   1  18
TORSDOF 28
ENDMDL
