MODEL 1
REMARK VINA RESULT:    -6.983      0.000      0.000
REMARK INTER + INTRA:          -8.964
REMARK INTER:                  -8.616
REMARK INTRA:                  -0.348
REMARK UNBOUND:                -0.348
REMARK SMILES Oc1cc(O)c2cc(O)c(-c3cc(O)c(O)c(O)c3)[o+]c2c1
REMARK SMILES IDX 10 1 20 2 21 3 22 4 2 5 3 6 4 7 6 8 7 9 8 10 11 11 12 12
REMARK SMILES IDX 13 13 19 14 15 15 17 16 14 17 16 19 18 21 9 23 1 25 5 27
REMARK H PARENT 14 18 16 20 18 22 9 24 1 26 5 28
REMARK Flexibility Score: inf
ROOT
ATOM      1  C   UNL     1     -18.570  -6.426  21.996  1.00  0.00     0.402 A 
ATOM      2  O   UNL     1     -19.363  -6.441  23.064  1.00  0.00    -0.202 OA
ATOM      3  C   UNL     1     -19.376  -5.475  23.976  1.00  0.00     0.368 A 
ATOM      4  C   UNL     1     -20.242  -5.582  25.067  1.00  0.00     0.162 A 
ATOM      5  C   UNL     1     -20.276  -4.584  26.043  1.00  0.00     0.128 A 
ATOM      6  C   UNL     1     -19.437  -3.470  25.928  1.00  0.00     0.093 A 
ATOM      7  C   UNL     1     -18.559  -3.339  24.845  1.00  0.00     0.136 A 
ATOM      8  C   UNL     1     -18.525  -4.350  23.850  1.00  0.00     0.125 A 
ATOM      9  C   UNL     1     -17.688  -4.297  22.723  1.00  0.00     0.078 A 
ATOM     10  C   UNL     1     -17.713  -5.331  21.782  1.00  0.00     0.223 A 
ENDROOT
BRANCH   1  11
ATOM     11  C   UNL     1     -18.640  -7.568  21.055  1.00  0.00     0.091 A 
ATOM     12  C   UNL     1     -17.644  -8.559  21.033  1.00  0.00     0.068 A 
ATOM     13  C   UNL     1     -17.740  -9.645  20.150  1.00  0.00     0.162 A 
ATOM     14  C   UNL     1     -19.750  -7.695  20.206  1.00  0.00     0.068 A 
ATOM     15  C   UNL     1     -18.844  -9.751  19.288  1.00  0.00     0.200 A 
ATOM     16  C   UNL     1     -19.850  -8.776  19.321  1.00  0.00     0.162 A 
BRANCH  13  17
ATOM     17  O   UNL     1     -16.744 -10.620  20.131  1.00  0.00    -0.504 OA
ATOM     18  H   UNL     1     -15.838 -10.463  20.558  1.00  0.00     0.293 HD
ENDBRANCH  13  17
BRANCH  15  19
ATOM     19  O   UNL     1     -18.960 -10.819  18.399  1.00  0.00    -0.502 OA
ATOM     20  H   UNL     1     -18.795 -11.778  18.683  1.00  0.00     0.293 HD
ENDBRANCH  15  19
BRANCH  16  21
ATOM     21  O   UNL     1     -20.949  -8.890  18.470  1.00  0.00    -0.504 OA
ATOM     22  H   UNL     1     -21.570  -9.689  18.511  1.00  0.00     0.293 HD
ENDBRANCH  16  21
ENDBRANCH   1  11
BRANCH  10  23
ATOM     23  O   UNL     1     -16.917  -5.255  20.638  1.00  0.00    -0.500 OA
ATOM     24  H   UNL     1     -17.136  -5.783  19.801  1.00  0.00     0.294 HD
ENDBRANCH  10  23
BRANCH   5  25
ATOM     25  O   UNL     1     -21.146  -4.710  27.123  1.00  0.00    -0.507 OA
ATOM     26  H   UNL     1     -20.910  -5.274  27.931  1.00  0.00     0.293 HD
ENDBRANCH   5  25
BRANCH   7  27
ATOM     27  O   UNL     1     -17.752  -2.199  24.804  1.00  0.00    -0.507 OA
ATOM     28  H   UNL     1     -18.081  -1.276  24.564  1.00  0.00     0.293 HD
ENDBRANCH   7  27
TORSDOF 7
ENDMDL
MODEL 2
REMARK VINA RESULT:    -6.920      1.205      6.996
REMARK INTER + INTRA:          -8.887
REMARK INTER:                  -8.759
REMARK INTRA:                  -0.128
REMARK UNBOUND:                -0.348
REMARK SMILES Oc1cc(O)c2cc(O)c(-c3cc(O)c(O)c(O)c3)[o+]c2c1
REMARK SMILES IDX 10 1 20 2 21 3 22 4 2 5 3 6 4 7 6 8 7 9 8 10 11 11 12 12
REMARK SMILES IDX 13 13 19 14 15 15 17 16 14 17 16 19 18 21 9 23 1 25 5 27
REMARK H PARENT 14 18 16 20 18 22 9 24 1 26 5 28
REMARK Flexibility Score: inf
ROOT
ATOM      1  C   UNL     1     -18.554  -6.368  22.769  1.00  0.00     0.402 A 
ATOM      2  O   UNL     1     -19.583  -7.083  22.321  1.00  0.00    -0.202 OA
ATOM      3  C   UNL     1     -19.472  -8.003  21.369  1.00  0.00     0.368 A 
ATOM      4  C   UNL     1     -20.613  -8.701  20.962  1.00  0.00     0.162 A 
ATOM      5  C   UNL     1     -20.528  -9.671  19.962  1.00  0.00     0.128 A 
ATOM      6  C   UNL     1     -19.294  -9.947  19.363  1.00  0.00     0.093 A 
ATOM      7  C   UNL     1     -18.136  -9.261  19.752  1.00  0.00     0.136 A 
ATOM      8  C   UNL     1     -18.219  -8.277  20.770  1.00  0.00     0.125 A 
ATOM      9  C   UNL     1     -17.110  -7.550  21.233  1.00  0.00     0.078 A 
ATOM     10  C   UNL     1     -17.268  -6.598  22.245  1.00  0.00     0.223 A 
ENDROOT
BRANCH   1  11
ATOM     11  C   UNL     1     -18.806  -5.364  23.828  1.00  0.00     0.091 A 
ATOM     12  C   UNL     1     -18.390  -4.030  23.684  1.00  0.00     0.068 A 
ATOM     13  C   UNL     1     -18.658  -3.089  24.689  1.00  0.00     0.162 A 
ATOM     14  C   UNL     1     -19.525  -5.737  24.974  1.00  0.00     0.068 A 
ATOM     15  C   UNL     1     -19.358  -3.476  25.843  1.00  0.00     0.200 A 
ATOM     16  C   UNL     1     -19.794  -4.801  25.981  1.00  0.00     0.162 A 
BRANCH  13  17
ATOM     17  O   UNL     1     -18.235  -1.768  24.540  1.00  0.00    -0.504 OA
ATOM     18  H   UNL     1     -18.291  -1.103  25.302  1.00  0.00     0.293 HD
ENDBRANCH  13  17
BRANCH  15  19
ATOM     19  O   UNL     1     -19.633  -2.559  26.857  1.00  0.00    -0.502 OA
ATOM     20  H   UNL     1     -20.505  -2.571  27.373  1.00  0.00     0.293 HD
ENDBRANCH  15  19
BRANCH  16  21
ATOM     21  O   UNL     1     -20.497  -5.179  27.125  1.00  0.00    -0.504 OA
ATOM     22  H   UNL     1     -20.280  -6.035  27.621  1.00  0.00     0.293 HD
ENDBRANCH  16  21
ENDBRANCH   1  11
BRANCH  10  23
ATOM     23  O   UNL     1     -16.159  -5.911  22.740  1.00  0.00    -0.500 OA
ATOM     24  H   UNL     1     -16.257  -5.061  23.283  1.00  0.00     0.294 HD
ENDBRANCH  10  23
BRANCH   5  25
ATOM     25  O   UNL     1     -21.676 -10.355  19.571  1.00  0.00    -0.507 OA
ATOM     26  H   UNL     1     -22.555  -9.873  19.419  1.00  0.00     0.293 HD
ENDBRANCH   5  25
BRANCH   7  27
ATOM     27  O   UNL     1     -16.944  -9.592  19.103  1.00  0.00    -0.507 OA
ATOM     28  H   UNL     1     -16.225 -10.182  19.495  1.00  0.00     0.293 HD
ENDBRANCH   7  27
TORSDOF 7
ENDMDL
MODEL 3
REMARK VINA RESULT:    -6.835      1.213      6.994
REMARK INTER + INTRA:          -8.781
REMARK INTER:                  -8.778
REMARK INTRA:                  -0.003
REMARK UNBOUND:                -0.348
REMARK SMILES Oc1cc(O)c2cc(O)c(-c3cc(O)c(O)c(O)c3)[o+]c2c1
REMARK SMILES IDX 10 1 20 2 21 3 22 4 2 5 3 6 4 7 6 8 7 9 8 10 11 11 12 12
REMARK SMILES IDX 13 13 19 14 15 15 17 16 14 17 16 19 18 21 9 23 1 25 5 27
REMARK H PARENT 14 18 16 20 18 22 9 24 1 26 5 28
REMARK Flexibility Score: inf
ROOT
ATOM      1  C   UNL     1     -18.601  -6.383  22.723  1.00  0.00     0.402 A 
ATOM      2  O   UNL     1     -19.614  -7.134  22.298  1.00  0.00    -0.202 OA
ATOM      3  C   UNL     1     -19.492  -8.048  21.341  1.00  0.00     0.368 A 
ATOM      4  C   UNL     1     -20.616  -8.786  20.960  1.00  0.00     0.162 A 
ATOM      5  C   UNL     1     -20.520  -9.752  19.956  1.00  0.00     0.128 A 
ATOM      6  C   UNL     1     -19.291  -9.982  19.328  1.00  0.00     0.093 A 
ATOM      7  C   UNL     1     -18.150  -9.255  19.691  1.00  0.00     0.136 A 
ATOM      8  C   UNL     1     -18.244  -8.276  20.713  1.00  0.00     0.125 A 
ATOM      9  C   UNL     1     -17.152  -7.510  21.151  1.00  0.00     0.078 A 
ATOM     10  C   UNL     1     -17.320  -6.565  22.168  1.00  0.00     0.223 A 
ENDROOT
BRANCH   1  11
ATOM     11  C   UNL     1     -18.864  -5.390  23.789  1.00  0.00     0.091 A 
ATOM     12  C   UNL     1     -19.557  -5.740  24.960  1.00  0.00     0.068 A 
ATOM     13  C   UNL     1     -19.777  -4.791  25.969  1.00  0.00     0.162 A 
ATOM     14  C   UNL     1     -18.363  -4.086  23.656  1.00  0.00     0.068 A 
ATOM     15  C   UNL     1     -19.291  -3.482  25.816  1.00  0.00     0.200 A 
ATOM     16  C   UNL     1     -18.581  -3.133  24.660  1.00  0.00     0.162 A 
BRANCH  13  17
ATOM     17  O   UNL     1     -20.471  -5.147  27.125  1.00  0.00    -0.504 OA
ATOM     18  H   UNL     1     -20.687  -6.114  27.338  1.00  0.00     0.293 HD
ENDBRANCH  13  17
BRANCH  15  19
ATOM     19  O   UNL     1     -19.501  -2.520  26.803  1.00  0.00    -0.502 OA
ATOM     20  H   UNL     1     -20.400  -2.073  26.939  1.00  0.00     0.293 HD
ENDBRANCH  15  19
BRANCH  16  21
ATOM     21  O   UNL     1     -18.094  -1.834  24.516  1.00  0.00    -0.504 OA
ATOM     22  H   UNL     1     -18.065  -1.376  23.613  1.00  0.00     0.293 HD
ENDBRANCH  16  21
ENDBRANCH   1  11
BRANCH  10  23
ATOM     23  O   UNL     1     -16.225  -5.839  22.638  1.00  0.00    -0.500 OA
ATOM     24  H   UNL     1     -16.230  -4.826  22.667  1.00  0.00     0.294 HD
ENDBRANCH  10  23
BRANCH   5  25
ATOM     25  O   UNL     1     -21.652 -10.476  19.590  1.00  0.00    -0.507 OA
ATOM     26  H   UNL     1     -22.478 -10.500  20.177  1.00  0.00     0.293 HD
ENDBRANCH   5  25
BRANCH   7  27
ATOM     27  O   UNL     1     -16.962  -9.542  19.014  1.00  0.00    -0.507 OA
ATOM     28  H   UNL     1     -16.349 -10.312  19.237  1.00  0.00     0.293 HD
ENDBRANCH   7  27
TORSDOF 7
ENDMDL
MODEL 4
REMARK VINA RESULT:    -6.573      1.078      2.580
REMARK INTER + INTRA:          -8.459
REMARK INTER:                  -8.079
REMARK INTRA:                  -0.380
REMARK UNBOUND:                -0.348
REMARK SMILES Oc1cc(O)c2cc(O)c(-c3cc(O)c(O)c(O)c3)[o+]c2c1
REMARK SMILES IDX 10 1 20 2 21 3 22 4 2 5 3 6 4 7 6 8 7 9 8 10 11 11 12 12
REMARK SMILES IDX 13 13 19 14 15 15 17 16 14 17 16 19 18 21 9 23 1 25 5 27
REMARK H PARENT 14 18 16 20 18 22 9 24 1 26 5 28
REMARK Flexibility Score: inf
ROOT
ATOM      1  C   UNL     1     -19.279  -7.392  22.693  1.00  0.00     0.402 A 
ATOM      2  O   UNL     1     -18.831  -6.140  22.626  1.00  0.00    -0.202 OA
ATOM      3  C   UNL     1     -18.942  -5.272  23.626  1.00  0.00     0.368 A 
ATOM      4  C   UNL     1     -18.443  -3.977  23.460  1.00  0.00     0.162 A 
ATOM      5  C   UNL     1     -18.547  -3.043  24.491  1.00  0.00     0.128 A 
ATOM      6  C   UNL     1     -19.154  -3.405  25.700  1.00  0.00     0.093 A 
ATOM      7  C   UNL     1     -19.662  -4.695  25.892  1.00  0.00     0.136 A 
ATOM      8  C   UNL     1     -19.555  -5.648  24.846  1.00  0.00     0.125 A 
ATOM      9  C   UNL     1     -20.023  -6.968  24.953  1.00  0.00     0.078 A 
ATOM     10  C   UNL     1     -19.878  -7.853  23.880  1.00  0.00     0.223 A 
ENDROOT
BRANCH   1  11
ATOM     11  C   UNL     1     -19.107  -8.262  21.507  1.00  0.00     0.091 A 
ATOM     12  C   UNL     1     -17.962  -9.060  21.346  1.00  0.00     0.068 A 
ATOM     13  C   UNL     1     -17.828  -9.895  20.227  1.00  0.00     0.162 A 
ATOM     14  C   UNL     1     -20.132  -8.335  20.551  1.00  0.00     0.068 A 
ATOM     15  C   UNL     1     -18.849  -9.944  19.264  1.00  0.00     0.200 A 
ATOM     16  C   UNL     1     -20.002  -9.166  19.430  1.00  0.00     0.162 A 
BRANCH  13  17
ATOM     17  O   UNL     1     -16.685 -10.679  20.073  1.00  0.00    -0.504 OA
ATOM     18  H   UNL     1     -16.702 -11.680  20.229  1.00  0.00     0.293 HD
ENDBRANCH  13  17
BRANCH  15  19
ATOM     19  O   UNL     1     -18.737 -10.763  18.141  1.00  0.00    -0.502 OA
ATOM     20  H   UNL     1     -18.154 -10.517  17.349  1.00  0.00     0.293 HD
ENDBRANCH  15  19
BRANCH  16  21
ATOM     21  O   UNL     1     -21.017  -9.225  18.476  1.00  0.00    -0.504 OA
ATOM     22  H   UNL     1     -21.837  -8.632  18.536  1.00  0.00     0.293 HD
ENDBRANCH  16  21
ENDBRANCH   1  11
BRANCH  10  23
ATOM     23  O   UNL     1     -20.298  -9.178  24.004  1.00  0.00    -0.500 OA
ATOM     24  H   UNL     1     -19.798  -9.843  24.583  1.00  0.00     0.294 HD
ENDBRANCH  10  23
BRANCH   5  25
ATOM     25  O   UNL     1     -18.045  -1.757  24.306  1.00  0.00    -0.507 OA
ATOM     26  H   UNL     1     -18.249  -1.225  23.468  1.00  0.00     0.293 HD
ENDBRANCH   5  25
BRANCH   7  27
ATOM     27  O   UNL     1     -20.255  -4.977  27.124  1.00  0.00    -0.507 OA
ATOM     28  H   UNL     1     -19.906  -5.656  27.784  1.00  0.00     0.293 HD
ENDBRANCH   7  27
TORSDOF 7
ENDMDL
MODEL 5
REMARK VINA RESULT:    -6.216      2.206      7.001
REMARK INTER + INTRA:          -8.018
REMARK INTER:                  -7.964
REMARK INTRA:                  -0.054
REMARK UNBOUND:                -0.348
REMARK SMILES Oc1cc(O)c2cc(O)c(-c3cc(O)c(O)c(O)c3)[o+]c2c1
REMARK SMILES IDX 10 1 20 2 21 3 22 4 2 5 3 6 4 7 6 8 7 9 8 10 11 11 12 12
REMARK SMILES IDX 13 13 19 14 15 15 17 16 14 17 16 19 18 21 9 23 1 25 5 27
REMARK H PARENT 14 18 16 20 18 22 9 24 1 26 5 28
REMARK Flexibility Score: inf
ROOT
ATOM      1  C   UNL     1     -17.730  -6.411  22.551  1.00  0.00     0.402 A 
ATOM      2  O   UNL     1     -17.569  -7.666  22.962  1.00  0.00    -0.202 OA
ATOM      3  C   UNL     1     -17.008  -8.611  22.215  1.00  0.00     0.368 A 
ATOM      4  C   UNL     1     -16.886  -9.904  22.733  1.00  0.00     0.162 A 
ATOM      5  C   UNL     1     -16.303 -10.918  21.971  1.00  0.00     0.128 A 
ATOM      6  C   UNL     1     -15.838 -10.639  20.681  1.00  0.00     0.093 A 
ATOM      7  C   UNL     1     -15.948  -9.352  20.139  1.00  0.00     0.136 A 
ATOM      8  C   UNL     1     -16.537  -8.319  20.912  1.00  0.00     0.125 A 
ATOM      9  C   UNL     1     -16.678  -6.998  20.456  1.00  0.00     0.078 A 
ATOM     10  C   UNL     1     -17.266  -6.031  21.278  1.00  0.00     0.223 A 
ENDROOT
BRANCH   1  11
ATOM     11  C   UNL     1     -18.380  -5.450  23.471  1.00  0.00     0.091 A 
ATOM     12  C   UNL     1     -19.611  -5.742  24.083  1.00  0.00     0.068 A 
ATOM     13  C   UNL     1     -20.200  -4.829  24.969  1.00  0.00     0.162 A 
ATOM     14  C   UNL     1     -17.729  -4.247  23.786  1.00  0.00     0.068 A 
ATOM     15  C   UNL     1     -19.551  -3.617  25.260  1.00  0.00     0.200 A 
ATOM     16  C   UNL     1     -18.313  -3.331  24.670  1.00  0.00     0.162 A 
BRANCH  13  17
ATOM     17  O   UNL     1     -21.425  -5.125  25.566  1.00  0.00    -0.504 OA
ATOM     18  H   UNL     1     -21.744  -6.080  25.679  1.00  0.00     0.293 HD
ENDBRANCH  13  17
BRANCH  15  19
ATOM     19  O   UNL     1     -20.119  -2.692  26.136  1.00  0.00    -0.502 OA
ATOM     20  H   UNL     1     -20.852  -2.056  25.847  1.00  0.00     0.293 HD
ENDBRANCH  15  19
BRANCH  16  21
ATOM     21  O   UNL     1     -17.668  -2.131  24.968  1.00  0.00    -0.504 OA
ATOM     22  H   UNL     1     -17.048  -1.684  24.305  1.00  0.00     0.293 HD
ENDBRANCH  16  21
ENDBRANCH   1  11
BRANCH  10  23
ATOM     23  O   UNL     1     -17.360  -4.708  20.845  1.00  0.00    -0.500 OA
ATOM     24  H   UNL     1     -17.202  -3.929  21.474  1.00  0.00     0.294 HD
ENDBRANCH  10  23
BRANCH   5  25
ATOM     25  O   UNL     1     -16.192 -12.199  22.505  1.00  0.00    -0.507 OA
ATOM     26  H   UNL     1     -16.210 -12.360  23.505  1.00  0.00     0.293 HD
ENDBRANCH   5  25
BRANCH   7  27
ATOM     27  O   UNL     1     -15.463  -9.156  18.843  1.00  0.00    -0.507 OA
ATOM     28  H   UNL     1     -15.907  -8.572  18.150  1.00  0.00     0.293 HD
ENDBRANCH   7  27
TORSDOF 7
ENDMDL
MODEL 6
REMARK VINA RESULT:    -5.928      1.868      2.189
REMARK INTER + INTRA:          -7.663
REMARK INTER:                  -7.573
REMARK INTRA:                  -0.090
REMARK UNBOUND:                -0.348
REMARK SMILES Oc1cc(O)c2cc(O)c(-c3cc(O)c(O)c(O)c3)[o+]c2c1
REMARK SMILES IDX 10 1 20 2 21 3 22 4 2 5 3 6 4 7 6 8 7 9 8 10 11 11 12 12
REMARK SMILES IDX 13 13 19 14 15 15 17 16 14 17 16 19 18 21 9 23 1 25 5 27
REMARK H PARENT 14 18 16 20 18 22 9 24 1 26 5 28
REMARK Flexibility Score: inf
ROOT
ATOM      1  C   UNL     1     -18.774  -6.559  22.735  1.00  0.00     0.402 A 
ATOM      2  O   UNL     1     -19.413  -5.865  23.674  1.00  0.00    -0.202 OA
ATOM      3  C   UNL     1     -18.844  -4.888  24.372  1.00  0.00     0.368 A 
ATOM      4  C   UNL     1     -19.597  -4.219  25.341  1.00  0.00     0.162 A 
ATOM      5  C   UNL     1     -19.025  -3.190  26.092  1.00  0.00     0.128 A 
ATOM      6  C   UNL     1     -17.692  -2.827  25.874  1.00  0.00     0.093 A 
ATOM      7  C   UNL     1     -16.916  -3.482  24.909  1.00  0.00     0.136 A 
ATOM      8  C   UNL     1     -17.495  -4.526  24.142  1.00  0.00     0.125 A 
ATOM      9  C   UNL     1     -16.799  -5.229  23.145  1.00  0.00     0.078 A 
ATOM     10  C   UNL     1     -17.438  -6.244  22.426  1.00  0.00     0.223 A 
ENDROOT
BRANCH   1  11
ATOM     11  C   UNL     1     -19.513  -7.632  22.032  1.00  0.00     0.091 A 
ATOM     12  C   UNL     1     -20.167  -8.654  22.740  1.00  0.00     0.068 A 
ATOM     13  C   UNL     1     -20.881  -9.650  22.057  1.00  0.00     0.162 A 
ATOM     14  C   UNL     1     -19.613  -7.599  20.632  1.00  0.00     0.068 A 
ATOM     15  C   UNL     1     -20.956  -9.620  20.654  1.00  0.00     0.200 A 
ATOM     16  C   UNL     1     -20.323  -8.591  19.945  1.00  0.00     0.162 A 
BRANCH  13  17
ATOM     17  O   UNL     1     -21.522 -10.664  22.769  1.00  0.00    -0.504 OA
ATOM     18  H   UNL     1     -22.423 -10.517  23.208  1.00  0.00     0.293 HD
ENDBRANCH  13  17
BRANCH  15  19
ATOM     19  O   UNL     1     -21.657 -10.601  19.953  1.00  0.00    -0.502 OA
ATOM     20  H   UNL     1     -22.585 -10.901  20.227  1.00  0.00     0.293 HD
ENDBRANCH  15  19
BRANCH  16  21
ATOM     21  O   UNL     1     -20.407  -8.561  18.553  1.00  0.00    -0.504 OA
ATOM     22  H   UNL     1     -20.733  -7.740  18.059  1.00  0.00     0.293 HD
ENDBRANCH  16  21
ENDBRANCH   1  11
BRANCH  10  23
ATOM     23  O   UNL     1     -16.762  -6.908  21.402  1.00  0.00    -0.500 OA
ATOM     24  H   UNL     1     -17.095  -6.890  20.445  1.00  0.00     0.294 HD
ENDBRANCH  10  23
BRANCH   5  25
ATOM     25  O   UNL     1     -19.791  -2.536  27.054  1.00  0.00    -0.507 OA
ATOM     26  H   UNL     1     -20.580  -1.954  26.797  1.00  0.00     0.293 HD
ENDBRANCH   5  25
BRANCH   7  27
ATOM     27  O   UNL     1     -15.592  -3.063  24.754  1.00  0.00    -0.507 OA
ATOM     28  H   UNL     1     -15.252  -2.525  23.970  1.00  0.00     0.293 HD
ENDBRANCH   7  27
TORSDOF 7
ENDMDL
MODEL 7
REMARK VINA RESULT:    -5.721      4.173      5.098
REMARK INTER + INTRA:          -7.407
REMARK INTER:                  -7.391
REMARK INTRA:                  -0.016
REMARK UNBOUND:                -0.348
REMARK SMILES Oc1cc(O)c2cc(O)c(-c3cc(O)c(O)c(O)c3)[o+]c2c1
REMARK SMILES IDX 10 1 20 2 21 3 22 4 2 5 3 6 4 7 6 8 7 9 8 10 11 11 12 12
REMARK SMILES IDX 13 13 19 14 15 15 17 16 14 17 16 19 18 21 9 23 1 25 5 27
REMARK H PARENT 14 18 16 20 18 22 9 24 1 26 5 28
REMARK Flexibility Score: inf
ROOT
ATOM      1  C   UNL     1     -19.671  -8.534  24.459  1.00  0.00     0.402 A 
ATOM      2  O   UNL     1     -19.964  -7.366  25.026  1.00  0.00    -0.202 OA
ATOM      3  C   UNL     1     -19.553  -6.198  24.545  1.00  0.00     0.368 A 
ATOM      4  C   UNL     1     -19.909  -5.024  25.215  1.00  0.00     0.162 A 
ATOM      5  C   UNL     1     -19.489  -3.782  24.734  1.00  0.00     0.128 A 
ATOM      6  C   UNL     1     -18.707  -3.713  23.576  1.00  0.00     0.093 A 
ATOM      7  C   UNL     1     -18.336  -4.874  22.887  1.00  0.00     0.136 A 
ATOM      8  C   UNL     1     -18.764  -6.137  23.371  1.00  0.00     0.125 A 
ATOM      9  C   UNL     1     -18.452  -7.352  22.739  1.00  0.00     0.078 A 
ATOM     10  C   UNL     1     -18.913  -8.559  23.273  1.00  0.00     0.223 A 
ENDROOT
BRANCH   1  11
ATOM     11  C   UNL     1     -20.180  -9.770  25.096  1.00  0.00     0.091 A 
ATOM     12  C   UNL     1     -19.362 -10.903  25.251  1.00  0.00     0.068 A 
ATOM     13  C   UNL     1     -19.856 -12.056  25.877  1.00  0.00     0.162 A 
ATOM     14  C   UNL     1     -21.486  -9.795  25.608  1.00  0.00     0.068 A 
ATOM     15  C   UNL     1     -21.172 -12.079  26.366  1.00  0.00     0.200 A 
ATOM     16  C   UNL     1     -21.984 -10.945  26.234  1.00  0.00     0.162 A 
BRANCH  13  17
ATOM     17  O   UNL     1     -19.039 -13.177  26.020  1.00  0.00    -0.504 OA
ATOM     18  H   UNL     1     -19.035 -13.727  26.871  1.00  0.00     0.293 HD
ENDBRANCH  13  17
BRANCH  15  19
ATOM     19  O   UNL     1     -21.686 -13.216  26.989  1.00  0.00    -0.502 OA
ATOM     20  H   UNL     1     -22.087 -13.186  27.919  1.00  0.00     0.293 HD
ENDBRANCH  15  19
BRANCH  16  21
ATOM     21  O   UNL     1     -23.288 -10.969  26.728  1.00  0.00    -0.504 OA
ATOM     22  H   UNL     1     -24.071 -10.641  26.175  1.00  0.00     0.293 HD
ENDBRANCH  16  21
ENDBRANCH   1  11
BRANCH  10  23
ATOM     23  O   UNL     1     -18.645  -9.762  22.619  1.00  0.00    -0.500 OA
ATOM     24  H   UNL     1     -17.699 -10.050  22.400  1.00  0.00     0.294 HD
ENDBRANCH  10  23
BRANCH   5  25
ATOM     25  O   UNL     1     -19.854  -2.624  25.416  1.00  0.00    -0.507 OA
ATOM     26  H   UNL     1     -19.192  -1.874  25.579  1.00  0.00     0.293 HD
ENDBRANCH   5  25
BRANCH   7  27
ATOM     27  O   UNL     1     -17.551  -4.720  21.741  1.00  0.00    -0.507 OA
ATOM     28  H   UNL     1     -17.446  -5.422  21.023  1.00  0.00     0.293 HD
ENDBRANCH   7  27
TORSDOF 7
ENDMDL
MODEL 8
REMARK VINA RESULT:    -5.720      2.202      2.997
REMARK INTER + INTRA:          -7.406
REMARK INTER:                  -7.153
REMARK INTRA:                  -0.253
REMARK UNBOUND:                -0.348
REMARK SMILES Oc1cc(O)c2cc(O)c(-c3cc(O)c(O)c(O)c3)[o+]c2c1
REMARK SMILES IDX 10 1 20 2 21 3 22 4 2 5 3 6 4 7 6 8 7 9 8 10 11 11 12 12
REMARK SMILES IDX 13 13 19 14 15 15 17 16 14 17 16 19 18 21 9 23 1 25 5 27
REMARK H PARENT 14 18 16 20 18 22 9 24 1 26 5 28
REMARK Flexibility Score: inf
ROOT
ATOM      1  C   UNL     1     -18.001  -6.825  22.462  1.00  0.00     0.402 A 
ATOM      2  O   UNL     1     -18.424  -5.832  23.240  1.00  0.00    -0.202 OA
ATOM      3  C   UNL     1     -17.603  -5.002  23.875  1.00  0.00     0.368 A 
ATOM      4  C   UNL     1     -18.143  -3.990  24.674  1.00  0.00     0.162 A 
ATOM      5  C   UNL     1     -17.305  -3.106  25.355  1.00  0.00     0.128 A 
ATOM      6  C   UNL     1     -15.916  -3.232  25.238  1.00  0.00     0.093 A 
ATOM      7  C   UNL     1     -15.350  -4.238  24.444  1.00  0.00     0.136 A 
ATOM      8  C   UNL     1     -16.199  -5.137  23.748  1.00  0.00     0.125 A 
ATOM      9  C   UNL     1     -15.722  -6.166  22.920  1.00  0.00     0.078 A 
ATOM     10  C   UNL     1     -16.621  -7.011  22.262  1.00  0.00     0.223 A 
ENDROOT
BRANCH   1  11
ATOM     11  C   UNL     1     -19.015  -7.690  21.816  1.00  0.00     0.091 A 
ATOM     12  C   UNL     1     -19.209  -7.675  20.425  1.00  0.00     0.068 A 
ATOM     13  C   UNL     1     -20.159  -8.517  19.829  1.00  0.00     0.162 A 
ATOM     14  C   UNL     1     -19.758  -8.585  22.601  1.00  0.00     0.068 A 
ATOM     15  C   UNL     1     -20.914  -9.394  20.626  1.00  0.00     0.200 A 
ATOM     16  C   UNL     1     -20.709  -9.428  22.011  1.00  0.00     0.162 A 
BRANCH  13  17
ATOM     17  O   UNL     1     -20.349  -8.490  18.448  1.00  0.00    -0.504 OA
ATOM     18  H   UNL     1     -19.684  -8.040  17.829  1.00  0.00     0.293 HD
ENDBRANCH  13  17
BRANCH  15  19
ATOM     19  O   UNL     1     -21.867 -10.239  20.057  1.00  0.00    -0.502 OA
ATOM     20  H   UNL     1     -22.751 -10.437  20.509  1.00  0.00     0.293 HD
ENDBRANCH  15  19
BRANCH  16  21
ATOM     21  O   UNL     1     -21.456 -10.306  22.797  1.00  0.00    -0.504 OA
ATOM     22  H   UNL     1     -21.684 -10.091  23.760  1.00  0.00     0.293 HD
ENDBRANCH  16  21
ENDBRANCH   1  11
BRANCH  10  23
ATOM     23  O   UNL     1     -16.147  -8.001  21.401  1.00  0.00    -0.500 OA
ATOM     24  H   UNL     1     -16.590  -8.911  21.341  1.00  0.00     0.294 HD
ENDBRANCH  10  23
BRANCH   5  25
ATOM     25  O   UNL     1     -17.863  -2.104  26.146  1.00  0.00    -0.507 OA
ATOM     26  H   UNL     1     -17.395  -1.216  26.284  1.00  0.00     0.293 HD
ENDBRANCH   5  25
BRANCH   7  27
ATOM     27  O   UNL     1     -13.956  -4.300  24.382  1.00  0.00    -0.507 OA
ATOM     28  H   UNL     1     -13.397  -3.868  23.661  1.00  0.00     0.293 HD
ENDBRANCH   7  27
TORSDOF 7
ENDMDL
MODEL 9
REMARK VINA RESULT:    -5.675      3.971      5.701
REMARK INTER + INTRA:          -7.350
REMARK INTER:                  -7.035
REMARK INTRA:                  -0.315
REMARK UNBOUND:                -0.348
REMARK SMILES Oc1cc(O)c2cc(O)c(-c3cc(O)c(O)c(O)c3)[o+]c2c1
REMARK SMILES IDX 10 1 20 2 21 3 22 4 2 5 3 6 4 7 6 8 7 9 8 10 11 11 12 12
REMARK SMILES IDX 13 13 19 14 15 15 17 16 14 17 16 19 18 21 9 23 1 25 5 27
REMARK H PARENT 14 18 16 20 18 22 9 24 1 26 5 28
REMARK Flexibility Score: inf
ROOT
ATOM      1  C   UNL     1     -18.442  -9.067  22.652  1.00  0.00     0.402 A 
ATOM      2  O   UNL     1     -18.028  -9.956  23.552  1.00  0.00    -0.202 OA
ATOM      3  C   UNL     1     -18.846 -10.567  24.402  1.00  0.00     0.368 A 
ATOM      4  C   UNL     1     -18.317 -11.484  25.314  1.00  0.00     0.162 A 
ATOM      5  C   UNL     1     -19.151 -12.140  26.221  1.00  0.00     0.128 A 
ATOM      6  C   UNL     1     -20.526 -11.877  26.218  1.00  0.00     0.093 A 
ATOM      7  C   UNL     1     -21.081 -10.962  25.315  1.00  0.00     0.136 A 
ATOM      8  C   UNL     1     -20.236 -10.296  24.389  1.00  0.00     0.125 A 
ATOM      9  C   UNL     1     -20.705  -9.374  23.440  1.00  0.00     0.078 A 
ATOM     10  C   UNL     1     -19.812  -8.761  22.556  1.00  0.00     0.223 A 
ENDROOT
BRANCH   1  11
ATOM     11  C   UNL     1     -17.431  -8.445  21.766  1.00  0.00     0.091 A 
ATOM     12  C   UNL     1     -16.870  -9.152  20.688  1.00  0.00     0.068 A 
ATOM     13  C   UNL     1     -15.931  -8.538  19.847  1.00  0.00     0.162 A 
ATOM     14  C   UNL     1     -17.067  -7.105  21.968  1.00  0.00     0.068 A 
ATOM     15  C   UNL     1     -15.556  -7.203  20.072  1.00  0.00     0.200 A 
ATOM     16  C   UNL     1     -16.129  -6.488  21.131  1.00  0.00     0.162 A 
BRANCH  13  17
ATOM     17  O   UNL     1     -15.375  -9.250  18.784  1.00  0.00    -0.504 OA
ATOM     18  H   UNL     1     -15.415  -8.903  17.833  1.00  0.00     0.293 HD
ENDBRANCH  13  17
BRANCH  15  19
ATOM     19  O   UNL     1     -14.621  -6.573  19.250  1.00  0.00    -0.502 OA
ATOM     20  H   UNL     1     -13.678  -6.925  19.137  1.00  0.00     0.293 HD
ENDBRANCH  15  19
BRANCH  16  21
ATOM     21  O   UNL     1     -15.760  -5.160  21.345  1.00  0.00    -0.504 OA
ATOM     22  H   UNL     1     -16.283  -4.393  20.941  1.00  0.00     0.293 HD
ENDBRANCH  16  21
ENDBRANCH   1  11
BRANCH  10  23
ATOM     23  O   UNL     1     -20.284  -7.883  21.580  1.00  0.00    -0.500 OA
ATOM     24  H   UNL     1     -21.276  -7.768  21.402  1.00  0.00     0.294 HD
ENDBRANCH  10  23
BRANCH   5  25
ATOM     25  O   UNL     1     -18.604 -13.050  27.122  1.00  0.00    -0.507 OA
ATOM     26  H   UNL     1     -17.742 -13.543  26.920  1.00  0.00     0.293 HD
ENDBRANCH   5  25
BRANCH   7  27
ATOM     27  O   UNL     1     -22.461 -10.752  25.377  1.00  0.00    -0.507 OA
ATOM     28  H   UNL     1     -23.072 -10.732  24.574  1.00  0.00     0.293 HD
ENDBRANCH   7  27
TORSDOF 7
ENDMDL
