MODEL 1
REMARK VINA RESULT:     4.038      0.000      0.000
REMARK INTER + INTRA:           5.289
REMARK INTER:                   4.864
REMARK INTRA:                   0.424
REMARK UNBOUND:                 0.424
REMARK SMILES Oc1cc(O)c2c(c1)O[C@@H](c1ccc(O)c(O)c1)[C@H](O)C2
REMARK SMILES IDX 21 1 19 2 10 3 9 4 7 5 8 6 2 7 3 8 4 9 6 10 20 11 11 13
REMARK SMILES IDX 18 14 12 15 16 16 13 17 14 18 17 19 15 21 5 23 1 25
REMARK H PARENT 20 12 17 20 15 22 5 24 1 26
REMARK Flexibility Score: inf
ROOT
ATOM      1  C   UNL     1      20.249   3.018   7.223  1.00  0.00     0.079 C 
ATOM      2  C   UNL     1      19.664   4.371   6.775  1.00  0.00     0.164 C 
ATOM      3  C   UNL     1      20.720   5.485   6.922  1.00  0.00     0.232 C 
ATOM      4  O   UNL     1      21.888   5.139   6.179  1.00  0.00    -0.482 OA
ATOM      5  C   UNL     1      22.373   3.828   6.113  1.00  0.00     0.131 A 
ATOM      6  C   UNL     1      23.621   3.597   5.528  1.00  0.00     0.093 A 
ATOM      7  C   UNL     1      24.139   2.299   5.461  1.00  0.00     0.122 A 
ATOM      8  C   UNL     1      23.410   1.233   5.991  1.00  0.00     0.092 A 
ATOM      9  C   UNL     1      22.160   1.445   6.582  1.00  0.00     0.126 A 
ATOM     10  C   UNL     1      21.610   2.749   6.614  1.00  0.00     0.039 A 
ENDROOT
BRANCH   2  11
ATOM     11  O   UNL     1      18.498   4.670   7.503  1.00  0.00    -0.389 OA
ATOM     12  H   UNL     1      18.528   5.634   7.739  1.00  0.00     0.211 HD
ENDBRANCH   2  11
BRANCH   3  13
ATOM     13  C   UNL     1      20.185   6.812   6.440  1.00  0.00    -0.001 A 
ATOM     14  C   UNL     1      18.801   7.065   6.431  1.00  0.00     0.057 A 
ATOM     15  C   UNL     1      21.068   7.829   6.043  1.00  0.00     0.012 A 
ATOM     16  C   UNL     1      18.307   8.308   6.011  1.00  0.00     0.157 A 
ATOM     17  C   UNL     1      20.577   9.067   5.624  1.00  0.00     0.050 A 
ATOM     18  C   UNL     1      19.201   9.313   5.603  1.00  0.00     0.157 A 
BRANCH  16  19
ATOM     19  O   UNL     1      16.934   8.548   5.999  1.00  0.00    -0.504 OA
ATOM     20  H   UNL     1      16.362   8.322   5.194  1.00  0.00     0.293 HD
ENDBRANCH  16  19
BRANCH  18  21
ATOM     21  O   UNL     1      18.741  10.560   5.180  1.00  0.00    -0.504 OA
ATOM     22  H   UNL     1      18.991  11.417   5.659  1.00  0.00     0.293 HD
ENDBRANCH  18  21
ENDBRANCH   3  13
BRANCH   9  23
ATOM     23  O   UNL     1      21.499   0.345   7.133  1.00  0.00    -0.507 OA
ATOM     24  H   UNL     1      21.836  -0.156   7.944  1.00  0.00     0.293 HD
ENDBRANCH   9  23
BRANCH   7  25
ATOM     25  O   UNL     1      25.381   2.061   4.877  1.00  0.00    -0.508 OA
ATOM     26  H   UNL     1      25.624   2.445   3.970  1.00  0.00     0.293 HD
ENDBRANCH   7  25
TORSDOF 6
ENDMDL
MODEL 2
REMARK VINA RESULT:     4.860      1.361      3.008
REMARK INTER + INTRA:           6.279
REMARK INTER:                   5.886
REMARK INTRA:                   0.392
REMARK UNBOUND:                 0.424
REMARK SMILES Oc1cc(O)c2c(c1)O[C@@H](c1ccc(O)c(O)c1)[C@H](O)C2
REMARK SMILES IDX 21 1 19 2 10 3 9 4 7 5 8 6 2 7 3 8 4 9 6 10 20 11 11 13
REMARK SMILES IDX 18 14 12 15 16 16 13 17 14 18 17 19 15 21 5 23 1 25
REMARK H PARENT 20 12 17 20 15 22 5 24 1 26
REMARK Flexibility Score: inf
ROOT
ATOM      1  C   UNL     1      22.604   5.047   5.214  1.00  0.00     0.079 C 
ATOM      2  C   UNL     1      21.732   6.238   5.655  1.00  0.00     0.164 C 
ATOM      3  C   UNL     1      20.239   5.864   5.580  1.00  0.00     0.232 C 
ATOM      4  O   UNL     1      19.994   4.704   6.375  1.00  0.00    -0.482 OA
ATOM      5  C   UNL     1      20.899   3.638   6.442  1.00  0.00     0.131 A 
ATOM      6  C   UNL     1      20.510   2.460   7.085  1.00  0.00     0.093 A 
ATOM      7  C   UNL     1      21.387   1.372   7.156  1.00  0.00     0.122 A 
ATOM      8  C   UNL     1      22.651   1.462   6.572  1.00  0.00     0.092 A 
ATOM      9  C   UNL     1      23.058   2.633   5.922  1.00  0.00     0.126 A 
ATOM     10  C   UNL     1      22.193   3.753   5.886  1.00  0.00     0.039 A 
ENDROOT
BRANCH   2  11
ATOM     11  O   UNL     1      22.017   7.373   4.875  1.00  0.00    -0.389 OA
ATOM     12  H   UNL     1      21.152   7.761   4.579  1.00  0.00     0.211 HD
ENDBRANCH   2  11
BRANCH   3  13
ATOM     13  C   UNL     1      19.366   7.000   6.057  1.00  0.00    -0.001 A 
ATOM     14  C   UNL     1      19.889   8.299   6.185  1.00  0.00     0.057 A 
ATOM     15  C   UNL     1      18.006   6.781   6.331  1.00  0.00     0.012 A 
ATOM     16  C   UNL     1      19.071   9.359   6.600  1.00  0.00     0.157 A 
ATOM     17  C   UNL     1      17.190   7.836   6.745  1.00  0.00     0.050 A 
ATOM     18  C   UNL     1      17.714   9.125   6.884  1.00  0.00     0.157 A 
BRANCH  16  19
ATOM     19  O   UNL     1      19.600  10.643   6.729  1.00  0.00    -0.504 OA
ATOM     20  H   UNL     1      19.110  11.370   7.237  1.00  0.00     0.293 HD
ENDBRANCH  16  19
BRANCH  18  21
ATOM     21  O   UNL     1      16.875  10.158   7.299  1.00  0.00    -0.504 OA
ATOM     22  H   UNL     1      16.570  10.250   8.261  1.00  0.00     0.293 HD
ENDBRANCH  18  21
ENDBRANCH   3  13
BRANCH   9  23
ATOM     23  O   UNL     1      24.318   2.646   5.320  1.00  0.00    -0.507 OA
ATOM     24  H   UNL     1      25.156   2.311   5.776  1.00  0.00     0.293 HD
ENDBRANCH   9  23
BRANCH   7  25
ATOM     25  O   UNL     1      21.007   0.196   7.797  1.00  0.00    -0.508 OA
ATOM     26  H   UNL     1      20.818  -0.654   7.278  1.00  0.00     0.293 HD
ENDBRANCH   7  25
TORSDOF 6
ENDMDL
MODEL 3
REMARK VINA RESULT:     5.637      1.117      6.799
REMARK INTER + INTRA:           7.215
REMARK INTER:                   6.832
REMARK INTRA:                   0.383
REMARK UNBOUND:                 0.424
REMARK SMILES Oc1cc(O)c2c(c1)O[C@@H](c1ccc(O)c(O)c1)[C@H](O)C2
REMARK SMILES IDX 21 1 19 2 10 3 9 4 7 5 8 6 2 7 3 8 4 9 6 10 20 11 11 13
REMARK SMILES IDX 18 14 12 15 16 16 13 17 14 18 17 19 15 21 5 23 1 25
REMARK H PARENT 20 12 17 20 15 22 5 24 1 26
REMARK Flexibility Score: inf
ROOT
ATOM      1  C   UNL     1      18.746   5.710   6.701  1.00  0.00     0.079 C 
ATOM      2  C   UNL     1      19.966   4.769   6.737  1.00  0.00     0.164 C 
ATOM      3  C   UNL     1      20.869   5.020   5.514  1.00  0.00     0.232 C 
ATOM      4  O   UNL     1      21.258   6.393   5.477  1.00  0.00    -0.482 OA
ATOM      5  C   UNL     1      20.382   7.428   5.825  1.00  0.00     0.131 A 
ATOM      6  C   UNL     1      20.768   8.749   5.585  1.00  0.00     0.093 A 
ATOM      7  C   UNL     1      19.909   9.805   5.909  1.00  0.00     0.122 A 
ATOM      8  C   UNL     1      18.658   9.535   6.464  1.00  0.00     0.092 A 
ATOM      9  C   UNL     1      18.253   8.218   6.711  1.00  0.00     0.126 A 
ATOM     10  C   UNL     1      19.135   7.147   6.427  1.00  0.00     0.039 A 
ENDROOT
BRANCH   2  11
ATOM     11  O   UNL     1      19.552   3.427   6.804  1.00  0.00    -0.389 OA
ATOM     12  H   UNL     1      18.693   3.400   7.300  1.00  0.00     0.211 HD
ENDBRANCH   2  11
BRANCH   3  13
ATOM     13  C   UNL     1      22.099   4.144   5.554  1.00  0.00    -0.001 A 
ATOM     14  C   UNL     1      22.010   2.804   5.971  1.00  0.00     0.057 A 
ATOM     15  C   UNL     1      23.339   4.646   5.126  1.00  0.00     0.012 A 
ATOM     16  C   UNL     1      23.147   1.983   5.981  1.00  0.00     0.157 A 
ATOM     17  C   UNL     1      24.472   3.830   5.136  1.00  0.00     0.050 A 
ATOM     18  C   UNL     1      24.385   2.501   5.563  1.00  0.00     0.157 A 
BRANCH  16  19
ATOM     19  O   UNL     1      23.050   0.658   6.401  1.00  0.00    -0.504 OA
ATOM     20  H   UNL     1      22.155   0.188   6.473  1.00  0.00     0.293 HD
ENDBRANCH  16  19
BRANCH  18  21
ATOM     21  O   UNL     1      25.534   1.711   5.561  1.00  0.00    -0.504 OA
ATOM     22  H   UNL     1      25.982   1.411   6.419  1.00  0.00     0.293 HD
ENDBRANCH  18  21
ENDBRANCH   3  13
BRANCH   9  23
ATOM     23  O   UNL     1      16.973   8.010   7.227  1.00  0.00    -0.507 OA
ATOM     24  H   UNL     1      16.590   7.093   7.413  1.00  0.00     0.293 HD
ENDBRANCH   9  23
BRANCH   7  25
ATOM     25  O   UNL     1      20.288  11.125   5.674  1.00  0.00    -0.508 OA
ATOM     26  H   UNL     1      20.013  11.613   4.830  1.00  0.00     0.293 HD
ENDBRANCH   7  25
TORSDOF 6
ENDMDL
