MODEL 1
REMARK VINA RESULT:    -3.263      0.000      0.000
REMARK INTER + INTRA:          -3.854
REMARK INTER:                  -3.835
REMARK INTRA:                  -0.019
REMARK UNBOUND:                -0.019
REMARK SMILES CCCCC(=O)[O-]
REMARK SMILES IDX 4 1 5 2 6 3 7 4 3 5 2 6 1 7
REMARK H PARENT
REMARK Flexibility Score: inf
ROOT
ATOM      1  C   UNL     1     -15.980   7.153  30.397  1.00  0.00     0.053 C 
ENDROOT
BRANCH   1   2
ATOM      2  C   UNL     1     -16.421   5.743  30.641  1.00  0.00     0.041 C 
ATOM      3  O   UNL     1     -16.443   4.913  29.695  1.00  0.00    -0.550 OA
ATOM      4  O   UNL     1     -16.838   5.355  31.908  1.00  0.00    -0.550 OA
ENDBRANCH   1   2
BRANCH   1   5
ATOM      5  C   UNL     1     -14.909   7.240  29.298  1.00  0.00     0.006 C 
BRANCH   5   6
ATOM      6  C   UNL     1     -14.526   8.679  28.906  1.00  0.00    -0.003 C 
ATOM      7  C   UNL     1     -14.321   8.850  27.402  1.00  0.00     0.004 C 
ENDBRANCH   5   6
ENDBRANCH   1   5
TORSDOF 3
ENDMDL
MODEL 2
REMARK VINA RESULT:    -3.232      0.231      1.225
REMARK INTER + INTRA:          -3.818
REMARK INTER:                  -3.801
REMARK INTRA:                  -0.017
REMARK UNBOUND:                -0.019
REMARK SMILES CCCCC(=O)[O-]
REMARK SMILES IDX 4 1 5 2 6 3 7 4 3 5 2 6 1 7
REMARK H PARENT
REMARK Flexibility Score: inf
ROOT
ATOM      1  C   UNL     1     -16.048   7.042  30.418  1.00  0.00     0.053 C 
ENDROOT
BRANCH   1   2
ATOM      2  C   UNL     1     -16.378   5.602  30.665  1.00  0.00     0.041 C 
ATOM      3  O   UNL     1     -16.410   5.151  31.840  1.00  0.00    -0.550 OA
ATOM      4  O   UNL     1     -16.618   4.751  29.594  1.00  0.00    -0.550 OA
ENDBRANCH   1   2
BRANCH   1   5
ATOM      5  C   UNL     1     -14.947   7.207  29.359  1.00  0.00     0.006 C 
BRANCH   5   6
ATOM      6  C   UNL     1     -14.655   8.670  28.979  1.00  0.00    -0.003 C 
ATOM      7  C   UNL     1     -14.334   8.846  27.496  1.00  0.00     0.004 C 
ENDBRANCH   5   6
ENDBRANCH   1   5
TORSDOF 3
ENDMDL
MODEL 3
REMARK VINA RESULT:    -3.167      3.249      4.427
REMARK INTER + INTRA:          -3.741
REMARK INTER:                  -3.725
REMARK INTRA:                  -0.016
REMARK UNBOUND:                -0.019
REMARK SMILES CCCCC(=O)[O-]
REMARK SMILES IDX 4 1 5 2 6 3 7 4 3 5 2 6 1 7
REMARK H PARENT
REMARK Flexibility Score: inf
ROOT
ATOM      1  C   UNL     1     -14.683   8.627  29.009  1.00  0.00     0.053 C 
ENDROOT
BRANCH   1   2
ATOM      2  C   UNL     1     -13.928   8.612  27.716  1.00  0.00     0.041 C 
ATOM      3  O   UNL     1     -14.516   8.879  26.635  1.00  0.00    -0.550 OA
ATOM      4  O   UNL     1     -12.582   8.271  27.702  1.00  0.00    -0.550 OA
ENDBRANCH   1   2
BRANCH   1   5
ATOM      5  C   UNL     1     -14.976   7.208  29.520  1.00  0.00     0.006 C 
BRANCH   5   6
ATOM      6  C   UNL     1     -16.202   7.115  30.448  1.00  0.00    -0.003 C 
ATOM      7  C   UNL     1     -16.296   5.774  31.175  1.00  0.00     0.004 C 
ENDBRANCH   5   6
ENDBRANCH   1   5
TORSDOF 3
ENDMDL
MODEL 4
REMARK VINA RESULT:    -3.082     25.993     26.577
REMARK INTER + INTRA:          -3.642
REMARK INTER:                  -3.620
REMARK INTRA:                  -0.022
REMARK UNBOUND:                -0.019
REMARK SMILES CCCCC(=O)[O-]
REMARK SMILES IDX 4 1 5 2 6 3 7 4 3 5 2 6 1 7
REMARK H PARENT
REMARK Flexibility Score: inf
ROOT
ATOM      1  C   UNL     1       2.479 -10.412  18.966  1.00  0.00     0.053 C 
ENDROOT
BRANCH   1   2
ATOM      2  C   UNL     1       1.397 -10.593  17.947  1.00  0.00     0.041 C 
ATOM      3  O   UNL     1       1.688 -10.779  16.737  1.00  0.00    -0.550 OA
ATOM      4  O   UNL     1       0.063 -10.524  18.332  1.00  0.00    -0.550 OA
ENDBRANCH   1   2
BRANCH   1   5
ATOM      5  C   UNL     1       2.436  -9.017  19.610  1.00  0.00     0.006 C 
BRANCH   5   6
ATOM      6  C   UNL     1       3.043  -8.959  21.024  1.00  0.00    -0.003 C 
ATOM      7  C   UNL     1       1.987  -9.015  22.126  1.00  0.00     0.004 C 
ENDBRANCH   5   6
ENDBRANCH   1   5
TORSDOF 3
ENDMDL
MODEL 5
REMARK VINA RESULT:    -2.962      1.288      1.539
REMARK INTER + INTRA:          -3.501
REMARK INTER:                  -3.483
REMARK INTRA:                  -0.018
REMARK UNBOUND:                -0.019
REMARK SMILES CCCCC(=O)[O-]
REMARK SMILES IDX 4 1 5 2 6 3 7 4 3 5 2 6 1 7
REMARK H PARENT
REMARK Flexibility Score: inf
ROOT
ATOM      1  C   UNL     1     -14.545   6.826  29.180  1.00  0.00     0.053 C 
ENDROOT
BRANCH   1   2
ATOM      2  C   UNL     1     -15.714   6.169  29.848  1.00  0.00     0.041 C 
ATOM      3  O   UNL     1     -16.116   5.042  29.459  1.00  0.00    -0.550 OA
ATOM      4  O   UNL     1     -16.378   6.819  30.881  1.00  0.00    -0.550 OA
ENDBRANCH   1   2
BRANCH   1   5
ATOM      5  C   UNL     1     -14.695   8.355  29.131  1.00  0.00     0.006 C 
BRANCH   5   6
ATOM      6  C   UNL     1     -13.744   9.048  28.138  1.00  0.00    -0.003 C 
ATOM      7  C   UNL     1     -12.271   8.843  28.486  1.00  0.00     0.004 C 
ENDBRANCH   5   6
ENDBRANCH   1   5
TORSDOF 3
ENDMDL
MODEL 6
REMARK VINA RESULT:    -2.923     25.552     26.151
REMARK INTER + INTRA:          -3.455
REMARK INTER:                  -3.341
REMARK INTRA:                  -0.114
REMARK UNBOUND:                -0.019
REMARK SMILES CCCCC(=O)[O-]
REMARK SMILES IDX 4 1 5 2 6 3 7 4 3 5 2 6 1 7
REMARK H PARENT
REMARK Flexibility Score: inf
ROOT
ATOM      1  C   UNL     1       0.647  -9.570  18.616  1.00  0.00     0.053 C 
ENDROOT
BRANCH   1   2
ATOM      2  C   UNL     1       0.673  -8.453  17.619  1.00  0.00     0.041 C 
ATOM      3  O   UNL     1       0.509  -8.691  16.394  1.00  0.00    -0.550 OA
ATOM      4  O   UNL     1       0.909  -7.151  18.043  1.00  0.00    -0.550 OA
ENDBRANCH   1   2
BRANCH   1   5
ATOM      5  C   UNL     1       1.925 -10.423  18.557  1.00  0.00     0.006 C 
BRANCH   5   6
ATOM      6  C   UNL     1       3.108  -9.837  19.350  1.00  0.00    -0.003 C 
ATOM      7  C   UNL     1       2.681  -9.201  20.671  1.00  0.00     0.004 C 
ENDBRANCH   5   6
ENDBRANCH   1   5
TORSDOF 3
ENDMDL
MODEL 7
REMARK VINA RESULT:    -2.909      2.592      3.457
REMARK INTER + INTRA:          -3.438
REMARK INTER:                  -3.414
REMARK INTRA:                  -0.024
REMARK UNBOUND:                -0.019
REMARK SMILES CCCCC(=O)[O-]
REMARK SMILES IDX 4 1 5 2 6 3 7 4 3 5 2 6 1 7
REMARK H PARENT
REMARK Flexibility Score: inf
ROOT
ATOM      1  C   UNL     1     -15.316   4.422  31.919  1.00  0.00     0.053 C 
ENDROOT
BRANCH   1   2
ATOM      2  C   UNL     1     -15.621   3.301  32.865  1.00  0.00     0.041 C 
ATOM      3  O   UNL     1     -14.950   2.237  32.825  1.00  0.00    -0.550 OA
ATOM      4  O   UNL     1     -16.669   3.421  33.769  1.00  0.00    -0.550 OA
ENDBRANCH   1   2
BRANCH   1   5
ATOM      5  C   UNL     1     -16.576   5.219  31.546  1.00  0.00     0.006 C 
BRANCH   5   6
ATOM      6  C   UNL     1     -16.289   6.537  30.805  1.00  0.00    -0.003 C 
ATOM      7  C   UNL     1     -15.199   6.397  29.744  1.00  0.00     0.004 C 
ENDBRANCH   5   6
ENDBRANCH   1   5
TORSDOF 3
ENDMDL
MODEL 8
REMARK VINA RESULT:    -2.772     25.213     25.770
REMARK INTER + INTRA:          -3.278
REMARK INTER:                  -3.184
REMARK INTRA:                  -0.094
REMARK UNBOUND:                -0.019
REMARK SMILES CCCCC(=O)[O-]
REMARK SMILES IDX 4 1 5 2 6 3 7 4 3 5 2 6 1 7
REMARK H PARENT
REMARK Flexibility Score: inf
ROOT
ATOM      1  C   UNL     1       2.218  -9.177  20.807  1.00  0.00     0.053 C 
ENDROOT
BRANCH   1   2
ATOM      2  C   UNL     1       2.258  -7.687  20.948  1.00  0.00     0.041 C 
ATOM      3  O   UNL     1       2.790  -7.159  21.959  1.00  0.00    -0.550 OA
ATOM      4  O   UNL     1       1.679  -6.882  19.975  1.00  0.00    -0.550 OA
ENDBRANCH   1   2
BRANCH   1   5
ATOM      5  C   UNL     1       3.100  -9.670  19.650  1.00  0.00     0.006 C 
BRANCH   5   6
ATOM      6  C   UNL     1       2.322 -10.374  18.522  1.00  0.00    -0.003 C 
ATOM      7  C   UNL     1       0.814 -10.143  18.607  1.00  0.00     0.004 C 
ENDBRANCH   5   6
ENDBRANCH   1   5
TORSDOF 3
ENDMDL
MODEL 9
REMARK VINA RESULT:    -2.489      4.576      6.848
REMARK INTER + INTRA:          -2.945
REMARK INTER:                  -2.919
REMARK INTRA:                  -0.026
REMARK UNBOUND:                -0.019
REMARK SMILES CCCCC(=O)[O-]
REMARK SMILES IDX 4 1 5 2 6 3 7 4 3 5 2 6 1 7
REMARK H PARENT
REMARK Flexibility Score: inf
ROOT
ATOM      1  C   UNL     1     -16.873   3.255  33.465  1.00  0.00     0.053 C 
ENDROOT
BRANCH   1   2
ATOM      2  C   UNL     1     -16.190   4.009  32.366  1.00  0.00     0.041 C 
ATOM      3  O   UNL     1     -16.865   4.551  31.453  1.00  0.00    -0.550 OA
ATOM      4  O   UNL     1     -14.803   4.083  32.334  1.00  0.00    -0.550 OA
ENDBRANCH   1   2
BRANCH   1   5
ATOM      5  C   UNL     1     -15.868   2.584  34.414  1.00  0.00     0.006 C 
BRANCH   5   6
ATOM      6  C   UNL     1     -16.262   1.157  34.839  1.00  0.00    -0.003 C 
ATOM      7  C   UNL     1     -15.571   0.708  36.125  1.00  0.00     0.004 C 
ENDBRANCH   5   6
ENDBRANCH   1   5
TORSDOF 3
ENDMDL
