MODEL 1
REMARK VINA RESULT:    -2.885      0.000      0.000
REMARK INTER + INTRA:          -3.151
REMARK INTER:                  -3.138
REMARK INTRA:                  -0.013
REMARK UNBOUND:                -0.013
REMARK SMILES OCc1ccco1
REMARK SMILES IDX 2 1 3 2 5 3 6 4 4 5 7 6 1 7
REMARK H PARENT 1 8
REMARK Flexibility Score: inf
ROOT
ATOM      1  C   UNL     1      11.207 -18.534  19.563  1.00  0.00     0.231 C 
ENDROOT
BRANCH   1   2
ATOM      2  C   UNL     1       9.819 -18.963  19.209  1.00  0.00     0.129 A 
ATOM      3  C   UNL     1       7.919 -19.259  18.147  1.00  0.00     0.042 A 
ATOM      4  C   UNL     1       7.876 -19.817  19.410  1.00  0.00     0.195 A 
ATOM      5  C   UNL     1       9.174 -18.704  18.017  1.00  0.00     0.048 A 
ATOM      6  O   UNL     1       9.023 -19.620  20.020  1.00  0.00    -0.467 OA
ENDBRANCH   1   2
BRANCH   1   7
ATOM      7  O   UNL     1      12.101 -18.920  18.557  1.00  0.00    -0.388 OA
ATOM      8  H   UNL     1      12.094 -19.912  18.537  1.00  0.00     0.211 HD
ENDBRANCH   1   7
TORSDOF 2
ENDMDL
MODEL 2
REMARK VINA RESULT:    -2.804      1.005      1.410
REMARK INTER + INTRA:          -3.063
REMARK INTER:                  -3.043
REMARK INTRA:                  -0.020
REMARK UNBOUND:                -0.013
REMARK SMILES OCc1ccco1
REMARK SMILES IDX 2 1 3 2 5 3 6 4 4 5 7 6 1 7
REMARK H PARENT 1 8
REMARK Flexibility Score: inf
ROOT
ATOM      1  C   UNL     1      11.211 -18.795  19.694  1.00  0.00     0.231 C 
ENDROOT
BRANCH   1   2
ATOM      2  C   UNL     1       9.815 -18.967  19.187  1.00  0.00     0.129 A 
ATOM      3  C   UNL     1       7.707 -19.553  18.999  1.00  0.00     0.042 A 
ATOM      4  C   UNL     1       8.137 -18.876  17.875  1.00  0.00     0.195 A 
ATOM      5  C   UNL     1       8.791 -19.615  19.847  1.00  0.00     0.048 A 
ATOM      6  O   UNL     1       9.401 -18.543  18.015  1.00  0.00    -0.467 OA
ENDBRANCH   1   2
BRANCH   1   7
ATOM      7  O   UNL     1      12.123 -18.895  18.635  1.00  0.00    -0.388 OA
ATOM      8  H   UNL     1      11.784 -18.306  17.912  1.00  0.00     0.211 HD
ENDBRANCH   1   7
TORSDOF 2
ENDMDL
MODEL 3
REMARK VINA RESULT:    -2.757      0.826      0.927
REMARK INTER + INTRA:          -3.012
REMARK INTER:                  -2.999
REMARK INTRA:                  -0.013
REMARK UNBOUND:                -0.013
REMARK SMILES OCc1ccco1
REMARK SMILES IDX 2 1 3 2 5 3 6 4 4 5 7 6 1 7
REMARK H PARENT 1 8
REMARK Flexibility Score: inf
ROOT
ATOM      1  C   UNL     1      11.157 -18.784  19.564  1.00  0.00     0.231 C 
ENDROOT
BRANCH   1   2
ATOM      2  C   UNL     1       9.771 -18.759  19.003  1.00  0.00     0.129 A 
ATOM      3  C   UNL     1       7.833 -18.079  18.223  1.00  0.00     0.042 A 
ATOM      4  C   UNL     1       7.874 -19.455  18.323  1.00  0.00     0.195 A 
ATOM      5  C   UNL     1       9.058 -17.626  18.665  1.00  0.00     0.048 A 
ATOM      6  O   UNL     1       9.041 -19.831  18.795  1.00  0.00    -0.467 OA
ENDBRANCH   1   2
BRANCH   1   7
ATOM      7  O   UNL     1      12.086 -18.991  18.537  1.00  0.00    -0.388 OA
ATOM      8  H   UNL     1      12.730 -18.237  18.581  1.00  0.00     0.211 HD
ENDBRANCH   1   7
TORSDOF 2
ENDMDL
MODEL 4
REMARK VINA RESULT:    -2.684      9.448     10.797
REMARK INTER + INTRA:          -2.933
REMARK INTER:                  -2.917
REMARK INTRA:                  -0.016
REMARK UNBOUND:                -0.013
REMARK SMILES OCc1ccco1
REMARK SMILES IDX 2 1 3 2 5 3 6 4 4 5 7 6 1 7
REMARK H PARENT 1 8
REMARK Flexibility Score: inf
ROOT
ATOM      1  C   UNL     1       0.148 -20.050  18.397  1.00  0.00     0.231 C 
ENDROOT
BRANCH   1   2
ATOM      2  C   UNL     1      -0.857 -20.444  19.432  1.00  0.00     0.129 A 
ATOM      3  C   UNL     1      -2.744 -20.792  20.502  1.00  0.00     0.042 A 
ATOM      4  C   UNL     1      -1.658 -21.125  21.287  1.00  0.00     0.195 A 
ATOM      5  C   UNL     1      -2.228 -20.349  19.303  1.00  0.00     0.048 A 
ATOM      6  O   UNL     1      -0.546 -20.903  20.623  1.00  0.00    -0.467 OA
ENDBRANCH   1   2
BRANCH   1   7
ATOM      7  O   UNL     1       1.005 -21.125  18.127  1.00  0.00    -0.388 OA
ATOM      8  H   UNL     1       1.488 -20.899  17.290  1.00  0.00     0.211 HD
ENDBRANCH   1   7
TORSDOF 2
ENDMDL
MODEL 5
REMARK VINA RESULT:    -2.586      9.171     10.461
REMARK INTER + INTRA:          -2.826
REMARK INTER:                  -2.812
REMARK INTRA:                  -0.014
REMARK UNBOUND:                -0.013
REMARK SMILES OCc1ccco1
REMARK SMILES IDX 2 1 3 2 5 3 6 4 4 5 7 6 1 7
REMARK H PARENT 1 8
REMARK Flexibility Score: inf
ROOT
ATOM      1  C   UNL     1       0.778 -20.536  19.353  1.00  0.00     0.231 C 
ENDROOT
BRANCH   1   2
ATOM      2  C   UNL     1      -0.570 -20.077  18.896  1.00  0.00     0.129 A 
ATOM      3  C   UNL     1      -2.184 -18.991  17.875  1.00  0.00     0.042 A 
ATOM      4  C   UNL     1      -2.691 -19.905  18.777  1.00  0.00     0.195 A 
ATOM      5  C   UNL     1      -0.812 -19.098  17.953  1.00  0.00     0.048 A 
ATOM      6  O   UNL     1      -1.704 -20.534  19.373  1.00  0.00    -0.467 OA
ENDBRANCH   1   2
BRANCH   1   7
ATOM      7  O   UNL     1       1.613 -20.749  18.249  1.00  0.00    -0.388 OA
ATOM      8  H   UNL     1       2.358 -20.099  18.327  1.00  0.00     0.211 HD
ENDBRANCH   1   7
TORSDOF 2
ENDMDL
MODEL 6
REMARK VINA RESULT:    -2.508      2.766      4.900
REMARK INTER + INTRA:          -2.742
REMARK INTER:                  -2.726
REMARK INTRA:                  -0.015
REMARK UNBOUND:                -0.013
REMARK SMILES OCc1ccco1
REMARK SMILES IDX 2 1 3 2 5 3 6 4 4 5 7 6 1 7
REMARK H PARENT 1 8
REMARK Flexibility Score: inf
ROOT
ATOM      1  C   UNL     1      11.453 -18.738  19.868  1.00  0.00     0.231 C 
ENDROOT
BRANCH   1   2
ATOM      2  C   UNL     1      12.536 -18.706  20.898  1.00  0.00     0.129 A 
ATOM      3  C   UNL     1      13.792 -19.168  22.640  1.00  0.00     0.042 A 
ATOM      4  C   UNL     1      14.241 -18.036  21.989  1.00  0.00     0.195 A 
ATOM      5  C   UNL     1      12.688 -19.601  21.937  1.00  0.00     0.048 A 
ATOM      6  O   UNL     1      13.469 -17.783  20.957  1.00  0.00    -0.467 OA
ENDBRANCH   1   2
BRANCH   1   7
ATOM      7  O   UNL     1      12.006 -18.918  18.594  1.00  0.00    -0.388 OA
ATOM      8  H   UNL     1      12.643 -18.170  18.453  1.00  0.00     0.211 HD
ENDBRANCH   1   7
TORSDOF 2
ENDMDL
MODEL 7
REMARK VINA RESULT:    -2.458      7.094      8.378
REMARK INTER + INTRA:          -2.687
REMARK INTER:                  -2.671
REMARK INTRA:                  -0.015
REMARK UNBOUND:                -0.013
REMARK SMILES OCc1ccco1
REMARK SMILES IDX 2 1 3 2 5 3 6 4 4 5 7 6 1 7
REMARK H PARENT 1 8
REMARK Flexibility Score: inf
ROOT
ATOM      1  C   UNL     1       2.944 -19.241  19.355  1.00  0.00     0.231 C 
ENDROOT
BRANCH   1   2
ATOM      2  C   UNL     1       1.611 -19.898  19.518  1.00  0.00     0.129 A 
ATOM      3  C   UNL     1      -0.458 -20.561  19.192  1.00  0.00     0.042 A 
ATOM      4  C   UNL     1       0.022 -21.007  20.407  1.00  0.00     0.195 A 
ATOM      5  C   UNL     1       0.567 -19.841  18.616  1.00  0.00     0.048 A 
ATOM      6  O   UNL     1       1.257 -20.592  20.575  1.00  0.00    -0.467 OA
ENDBRANCH   1   2
BRANCH   1   7
ATOM      7  O   UNL     1       3.180 -18.963  18.002  1.00  0.00    -0.388 OA
ATOM      8  H   UNL     1       3.430 -18.004  17.949  1.00  0.00     0.211 HD
ENDBRANCH   1   7
TORSDOF 2
ENDMDL
MODEL 8
REMARK VINA RESULT:    -2.376     16.751     17.505
REMARK INTER + INTRA:          -2.598
REMARK INTER:                  -2.583
REMARK INTRA:                  -0.015
REMARK UNBOUND:                -0.013
REMARK SMILES OCc1ccco1
REMARK SMILES IDX 2 1 3 2 5 3 6 4 4 5 7 6 1 7
REMARK H PARENT 1 8
REMARK Flexibility Score: inf
ROOT
ATOM      1  C   UNL     1      13.080  -0.877  20.826  1.00  0.00     0.231 C 
ENDROOT
BRANCH   1   2
ATOM      2  C   UNL     1      13.057  -2.016  21.794  1.00  0.00     0.129 A 
ATOM      3  C   UNL     1      12.403  -3.501  23.275  1.00  0.00     0.042 A 
ATOM      4  C   UNL     1      13.753  -3.620  23.014  1.00  0.00     0.195 A 
ATOM      5  C   UNL     1      11.951  -2.462  22.490  1.00  0.00     0.048 A 
ATOM      6  O   UNL     1      14.114  -2.719  22.129  1.00  0.00    -0.467 OA
ENDBRANCH   1   2
BRANCH   1   7
ATOM      7  O   UNL     1      13.379  -1.345  19.540  1.00  0.00    -0.388 OA
ATOM      8  H   UNL     1      12.792  -0.848  18.914  1.00  0.00     0.211 HD
ENDBRANCH   1   7
TORSDOF 2
ENDMDL
MODEL 9
REMARK VINA RESULT:    -2.353      2.756      3.516
REMARK INTER + INTRA:          -2.573
REMARK INTER:                  -2.552
REMARK INTRA:                  -0.021
REMARK UNBOUND:                -0.013
REMARK SMILES OCc1ccco1
REMARK SMILES IDX 2 1 3 2 5 3 6 4 4 5 7 6 1 7
REMARK H PARENT 1 8
REMARK Flexibility Score: inf
ROOT
ATOM      1  C   UNL     1       7.693 -20.879  21.246  1.00  0.00     0.231 C 
ENDROOT
BRANCH   1   2
ATOM      2  C   UNL     1       7.580 -20.043  20.012  1.00  0.00     0.129 A 
ATOM      3  C   UNL     1       7.956 -19.141  18.044  1.00  0.00     0.042 A 
ATOM      4  C   UNL     1       6.868 -18.557  18.660  1.00  0.00     0.195 A 
ATOM      5  C   UNL     1       8.420 -20.101  18.918  1.00  0.00     0.048 A 
ATOM      6  O   UNL     1       6.670 -19.113  19.833  1.00  0.00    -0.467 OA
ENDBRANCH   1   2
BRANCH   1   7
ATOM      7  O   UNL     1       6.500 -20.818  21.978  1.00  0.00    -0.388 OA
ATOM      8  H   UNL     1       5.806 -20.469  21.361  1.00  0.00     0.211 HD
ENDBRANCH   1   7
TORSDOF 2
ENDMDL
