MODEL 1
REMARK VINA RESULT:    -3.641      0.000      0.000
REMARK INTER + INTRA:          -6.892
REMARK INTER:                  -5.770
REMARK INTRA:                  -1.122
REMARK UNBOUND:                -1.122
REMARK SMILES CCCCCCCCCCCC(=O)[O-]
REMARK SMILES IDX 7 1 8 2 9 3 10 4 11 5 12 6 13 7 14 8 6 9 5 10 4 11 3 12 2 13
REMARK SMILES IDX 1 14
REMARK H PARENT
REMARK Flexibility Score: inf
ROOT
ATOM      1  C   UNL     1       1.781  22.532  22.714  1.00  0.00     0.000 C 
ENDROOT
BRANCH   1   2
ATOM      2  C   UNL     1       1.042  22.889  24.020  1.00  0.00     0.000 C 
BRANCH   2   3
ATOM      3  C   UNL     1       1.651  22.288  25.300  1.00  0.00     0.000 C 
BRANCH   3   4
ATOM      4  C   UNL     1       0.950  22.776  26.579  1.00  0.00     0.006 C 
BRANCH   4   5
ATOM      5  C   UNL     1       1.142  24.282  26.803  1.00  0.00     0.053 C 
BRANCH   5   6
ATOM      6  C   UNL     1      -0.143  25.034  26.640  1.00  0.00     0.041 C 
ATOM      7  O   UNL     1      -1.243  24.422  26.663  1.00  0.00    -0.550 OA
ATOM      8  O   UNL     1      -0.122  26.407  26.427  1.00  0.00    -0.550 OA
ENDBRANCH   5   6
ENDBRANCH   4   5
ENDBRANCH   3   4
ENDBRANCH   2   3
ENDBRANCH   1   2
BRANCH   1   9
ATOM      9  C   UNL     1       2.277  23.736  21.894  1.00  0.00     0.000 C 
BRANCH   9  10
ATOM     10  C   UNL     1       3.076  24.743  22.734  1.00  0.00    -0.000 C 
BRANCH  10  11
ATOM     11  C   UNL     1       4.329  24.085  23.332  1.00  0.00    -0.000 C 
BRANCH  11  12
ATOM     12  C   UNL     1       4.537  24.432  24.817  1.00  0.00    -0.000 C 
BRANCH  12  13
ATOM     13  C   UNL     1       5.626  23.610  25.529  1.00  0.00    -0.003 C 
ATOM     14  C   UNL     1       5.081  22.756  26.673  1.00  0.00     0.004 C 
ENDBRANCH  12  13
ENDBRANCH  11  12
ENDBRANCH  10  11
ENDBRANCH   9  10
ENDBRANCH   1   9
TORSDOF 10
ENDMDL
MODEL 2
REMARK VINA RESULT:    -3.580      1.047      3.220
REMARK INTER + INTRA:          -6.794
REMARK INTER:                  -5.458
REMARK INTRA:                  -1.336
REMARK UNBOUND:                -1.122
REMARK SMILES CCCCCCCCCCCC(=O)[O-]
REMARK SMILES IDX 7 1 8 2 9 3 10 4 11 5 12 6 13 7 14 8 6 9 5 10 4 11 3 12 2 13
REMARK SMILES IDX 1 14
REMARK H PARENT
REMARK Flexibility Score: inf
ROOT
ATOM      1  C   UNL     1       4.400  23.099  26.900  1.00  0.00     0.000 C 
ENDROOT
BRANCH   1   2
ATOM      2  C   UNL     1       2.859  23.057  26.960  1.00  0.00     0.000 C 
BRANCH   2   3
ATOM      3  C   UNL     1       2.177  22.374  25.761  1.00  0.00     0.000 C 
BRANCH   3   4
ATOM      4  C   UNL     1       0.920  23.122  25.287  1.00  0.00     0.006 C 
BRANCH   4   5
ATOM      5  C   UNL     1       1.074  24.644  25.410  1.00  0.00     0.053 C 
BRANCH   5   6
ATOM      6  C   UNL     1      -0.038  25.249  26.212  1.00  0.00     0.041 C 
ATOM      7  O   UNL     1      -0.027  26.478  26.483  1.00  0.00    -0.550 OA
ATOM      8  O   UNL     1      -1.067  24.447  26.690  1.00  0.00    -0.550 OA
ENDBRANCH   5   6
ENDBRANCH   4   5
ENDBRANCH   3   4
ENDBRANCH   2   3
ENDBRANCH   1   2
BRANCH   1   9
ATOM      9  C   UNL     1       4.991  24.234  26.044  1.00  0.00     0.000 C 
BRANCH   9  10
ATOM     10  C   UNL     1       6.055  23.742  25.053  1.00  0.00    -0.000 C 
BRANCH  10  11
ATOM     11  C   UNL     1       5.634  24.037  23.606  1.00  0.00    -0.000 C 
BRANCH  11  12
ATOM     12  C   UNL     1       4.210  24.614  23.502  1.00  0.00    -0.000 C 
BRANCH  12  13
ATOM     13  C   UNL     1       3.269  23.852  22.553  1.00  0.00    -0.003 C 
ATOM     14  C   UNL     1       2.236  24.754  21.878  1.00  0.00     0.004 C 
ENDBRANCH  12  13
ENDBRANCH  11  12
ENDBRANCH  10  11
ENDBRANCH   9  10
ENDBRANCH   1   9
TORSDOF 10
ENDMDL
MODEL 3
REMARK VINA RESULT:    -3.543      3.943      5.628
REMARK INTER + INTRA:          -6.736
REMARK INTER:                  -5.987
REMARK INTRA:                  -0.749
REMARK UNBOUND:                -1.122
REMARK SMILES CCCCCCCCCCCC(=O)[O-]
REMARK SMILES IDX 7 1 8 2 9 3 10 4 11 5 12 6 13 7 14 8 6 9 5 10 4 11 3 12 2 13
REMARK SMILES IDX 1 14
REMARK H PARENT
REMARK Flexibility Score: inf
ROOT
ATOM      1  C   UNL     1       2.507  24.787  22.432  1.00  0.00     0.000 C 
ENDROOT
BRANCH   1   2
ATOM      2  C   UNL     1       1.879  25.992  21.700  1.00  0.00     0.000 C 
BRANCH   2   3
ATOM      3  C   UNL     1       1.152  27.001  22.606  1.00  0.00     0.000 C 
BRANCH   3   4
ATOM      4  C   UNL     1       0.851  28.331  21.895  1.00  0.00     0.006 C 
BRANCH   4   5
ATOM      5  C   UNL     1      -0.299  28.198  20.888  1.00  0.00     0.053 C 
BRANCH   5   6
ATOM      6  C   UNL     1      -0.724  29.532  20.354  1.00  0.00     0.041 C 
ATOM      7  O   UNL     1       0.136  30.353  19.942  1.00  0.00    -0.550 OA
ATOM      8  O   UNL     1      -2.069  29.881  20.346  1.00  0.00    -0.550 OA
ENDBRANCH   5   6
ENDBRANCH   4   5
ENDBRANCH   3   4
ENDBRANCH   2   3
ENDBRANCH   1   2
BRANCH   1   9
ATOM      9  C   UNL     1       2.059  23.406  21.921  1.00  0.00     0.000 C 
BRANCH   9  10
ATOM     10  C   UNL     1       1.358  22.569  23.000  1.00  0.00    -0.000 C 
BRANCH  10  11
ATOM     11  C   UNL     1       1.973  22.831  24.383  1.00  0.00    -0.000 C 
BRANCH  11  12
ATOM     12  C   UNL     1       0.944  23.340  25.409  1.00  0.00    -0.000 C 
BRANCH  12  13
ATOM     13  C   UNL     1       0.961  24.861  25.645  1.00  0.00    -0.003 C 
ATOM     14  C   UNL     1      -0.423  25.437  25.944  1.00  0.00     0.004 C 
ENDBRANCH  12  13
ENDBRANCH  11  12
ENDBRANCH  10  11
ENDBRANCH   9  10
ENDBRANCH   1   9
TORSDOF 10
ENDMDL
MODEL 4
REMARK VINA RESULT:    -3.486      3.679      5.401
REMARK INTER + INTRA:          -6.646
REMARK INTER:                  -6.137
REMARK INTRA:                  -0.509
REMARK UNBOUND:                -1.122
REMARK SMILES CCCCCCCCCCCC(=O)[O-]
REMARK SMILES IDX 7 1 8 2 9 3 10 4 11 5 12 6 13 7 14 8 6 9 5 10 4 11 3 12 2 13
REMARK SMILES IDX 1 14
REMARK H PARENT
REMARK Flexibility Score: inf
ROOT
ATOM      1  C   UNL     1       2.332  25.120  22.577  1.00  0.00     0.000 C 
ENDROOT
BRANCH   1   2
ATOM      2  C   UNL     1       1.882  23.714  22.128  1.00  0.00     0.000 C 
BRANCH   2   3
ATOM      3  C   UNL     1       1.700  22.692  23.265  1.00  0.00     0.000 C 
BRANCH   3   4
ATOM      4  C   UNL     1       2.085  23.258  24.642  1.00  0.00     0.006 C 
BRANCH   4   5
ATOM      5  C   UNL     1       0.956  23.093  25.668  1.00  0.00     0.053 C 
BRANCH   5   6
ATOM      6  C   UNL     1       0.245  24.387  25.922  1.00  0.00     0.041 C 
ATOM      7  O   UNL     1       0.793  25.481  25.623  1.00  0.00    -0.550 OA
ATOM      8  O   UNL     1      -1.008  24.386  26.522  1.00  0.00    -0.550 OA
ENDBRANCH   5   6
ENDBRANCH   4   5
ENDBRANCH   3   4
ENDBRANCH   2   3
ENDBRANCH   1   2
BRANCH   1   9
ATOM      9  C   UNL     1       1.836  26.278  21.693  1.00  0.00     0.000 C 
BRANCH   9  10
ATOM     10  C   UNL     1       0.919  27.254  22.445  1.00  0.00    -0.000 C 
BRANCH  10  11
ATOM     11  C   UNL     1       0.967  28.651  21.810  1.00  0.00    -0.000 C 
BRANCH  11  12
ATOM     12  C   UNL     1      -0.223  28.924  20.872  1.00  0.00    -0.000 C 
BRANCH  12  13
ATOM     13  C   UNL     1      -0.076  30.172  19.983  1.00  0.00    -0.003 C 
ATOM     14  C   UNL     1      -1.333  31.040  19.955  1.00  0.00     0.004 C 
ENDBRANCH  12  13
ENDBRANCH  11  12
ENDBRANCH  10  11
ENDBRANCH   9  10
ENDBRANCH   1   9
TORSDOF 10
ENDMDL
MODEL 5
REMARK VINA RESULT:    -3.413      2.995      5.026
REMARK INTER + INTRA:          -6.531
REMARK INTER:                  -5.494
REMARK INTRA:                  -1.037
REMARK UNBOUND:                -1.122
REMARK SMILES CCCCCCCCCCCC(=O)[O-]
REMARK SMILES IDX 7 1 8 2 9 3 10 4 11 5 12 6 13 7 14 8 6 9 5 10 4 11 3 12 2 13
REMARK SMILES IDX 1 14
REMARK H PARENT
REMARK Flexibility Score: inf
ROOT
ATOM      1  C   UNL     1       2.030  23.890  22.445  1.00  0.00     0.000 C 
ENDROOT
BRANCH   1   2
ATOM      2  C   UNL     1       3.228  24.779  22.836  1.00  0.00     0.000 C 
BRANCH   2   3
ATOM      3  C   UNL     1       4.369  24.053  23.571  1.00  0.00     0.000 C 
BRANCH   3   4
ATOM      4  C   UNL     1       4.439  24.414  25.065  1.00  0.00     0.006 C 
BRANCH   4   5
ATOM      5  C   UNL     1       5.845  24.202  25.642  1.00  0.00     0.053 C 
BRANCH   5   6
ATOM      6  C   UNL     1       6.641  25.471  25.641  1.00  0.00     0.041 C 
ATOM      7  O   UNL     1       7.119  25.919  24.566  1.00  0.00    -0.550 OA
ATOM      8  O   UNL     1       6.884  26.141  26.834  1.00  0.00    -0.550 OA
ENDBRANCH   5   6
ENDBRANCH   4   5
ENDBRANCH   3   4
ENDBRANCH   2   3
ENDBRANCH   1   2
BRANCH   1   9
ATOM      9  C   UNL     1       1.882  22.595  23.264  1.00  0.00     0.000 C 
BRANCH   9  10
ATOM     10  C   UNL     1       0.867  22.726  24.410  1.00  0.00    -0.000 C 
BRANCH  10  11
ATOM     11  C   UNL     1       1.573  22.689  25.773  1.00  0.00    -0.000 C 
BRANCH  11  12
ATOM     12  C   UNL     1       1.126  23.826  26.710  1.00  0.00    -0.000 C 
BRANCH  12  13
ATOM     13  C   UNL     1      -0.073  24.648  26.206  1.00  0.00    -0.003 C 
ATOM     14  C   UNL     1       0.310  26.060  25.764  1.00  0.00     0.004 C 
ENDBRANCH  12  13
ENDBRANCH  11  12
ENDBRANCH  10  11
ENDBRANCH   9  10
ENDBRANCH   1   9
TORSDOF 10
ENDMDL
MODEL 6
REMARK VINA RESULT:    -3.412      0.898      1.789
REMARK INTER + INTRA:          -6.528
REMARK INTER:                  -5.509
REMARK INTRA:                  -1.019
REMARK UNBOUND:                -1.122
REMARK SMILES CCCCCCCCCCCC(=O)[O-]
REMARK SMILES IDX 7 1 8 2 9 3 10 4 11 5 12 6 13 7 14 8 6 9 5 10 4 11 3 12 2 13
REMARK SMILES IDX 1 14
REMARK H PARENT
REMARK Flexibility Score: inf
ROOT
ATOM      1  C   UNL     1       3.056  24.019  22.462  1.00  0.00     0.000 C 
ENDROOT
BRANCH   1   2
ATOM      2  C   UNL     1       1.689  23.421  22.852  1.00  0.00     0.000 C 
BRANCH   2   3
ATOM      3  C   UNL     1       1.704  22.510  24.093  1.00  0.00     0.000 C 
BRANCH   3   4
ATOM      4  C   UNL     1       0.785  23.019  25.216  1.00  0.00     0.006 C 
BRANCH   4   5
ATOM      5  C   UNL     1       1.145  24.445  25.654  1.00  0.00     0.053 C 
BRANCH   5   6
ATOM      6  C   UNL     1      -0.044  25.172  26.202  1.00  0.00     0.041 C 
ATOM      7  O   UNL     1      -0.039  26.428  26.280  1.00  0.00    -0.550 OA
ATOM      8  O   UNL     1      -1.146  24.459  26.660  1.00  0.00    -0.550 OA
ENDBRANCH   5   6
ENDBRANCH   4   5
ENDBRANCH   3   4
ENDBRANCH   2   3
ENDBRANCH   1   2
BRANCH   1   9
ATOM      9  C   UNL     1       3.944  24.446  23.645  1.00  0.00     0.000 C 
BRANCH   9  10
ATOM     10  C   UNL     1       5.425  24.097  23.436  1.00  0.00    -0.000 C 
BRANCH  10  11
ATOM     11  C   UNL     1       6.259  24.493  24.664  1.00  0.00    -0.000 C 
BRANCH  11  12
ATOM     12  C   UNL     1       5.448  24.471  25.972  1.00  0.00    -0.000 C 
BRANCH  12  13
ATOM     13  C   UNL     1       5.515  23.147  26.754  1.00  0.00    -0.003 C 
ATOM     14  C   UNL     1       4.157  22.458  26.885  1.00  0.00     0.004 C 
ENDBRANCH  12  13
ENDBRANCH  11  12
ENDBRANCH  10  11
ENDBRANCH   9  10
ENDBRANCH   1   9
TORSDOF 10
ENDMDL
MODEL 7
REMARK VINA RESULT:    -3.411      3.034      4.762
REMARK INTER + INTRA:          -6.526
REMARK INTER:                  -5.206
REMARK INTRA:                  -1.321
REMARK UNBOUND:                -1.122
REMARK SMILES CCCCCCCCCCCC(=O)[O-]
REMARK SMILES IDX 7 1 8 2 9 3 10 4 11 5 12 6 13 7 14 8 6 9 5 10 4 11 3 12 2 13
REMARK SMILES IDX 1 14
REMARK H PARENT
REMARK Flexibility Score: inf
ROOT
ATOM      1  C   UNL     1       0.903  22.852  25.839  1.00  0.00     0.000 C 
ENDROOT
BRANCH   1   2
ATOM      2  C   UNL     1       2.182  22.089  26.243  1.00  0.00     0.000 C 
BRANCH   2   3
ATOM      3  C   UNL     1       3.168  22.881  27.119  1.00  0.00     0.000 C 
BRANCH   3   4
ATOM      4  C   UNL     1       4.580  22.948  26.515  1.00  0.00     0.006 C 
BRANCH   4   5
ATOM      5  C   UNL     1       4.722  24.097  25.507  1.00  0.00     0.053 C 
BRANCH   5   6
ATOM      6  C   UNL     1       5.957  23.951  24.672  1.00  0.00     0.041 C 
ATOM      7  O   UNL     1       6.827  23.092  24.971  1.00  0.00    -0.550 OA
ATOM      8  O   UNL     1       6.162  24.790  23.583  1.00  0.00    -0.550 OA
ENDBRANCH   5   6
ENDBRANCH   4   5
ENDBRANCH   3   4
ENDBRANCH   2   3
ENDBRANCH   1   2
BRANCH   1   9
ATOM      9  C   UNL     1       0.853  24.324  26.287  1.00  0.00     0.000 C 
BRANCH   9  10
ATOM     10  C   UNL     1       1.209  25.304  25.159  1.00  0.00    -0.000 C 
BRANCH  10  11
ATOM     11  C   UNL     1       1.135  24.613  23.789  1.00  0.00    -0.000 C 
BRANCH  11  12
ATOM     12  C   UNL     1       2.396  24.841  22.935  1.00  0.00    -0.000 C 
BRANCH  12  13
ATOM     13  C   UNL     1       2.696  23.730  21.913  1.00  0.00    -0.003 C 
ATOM     14  C   UNL     1       1.789  22.509  22.070  1.00  0.00     0.004 C 
ENDBRANCH  12  13
ENDBRANCH  11  12
ENDBRANCH  10  11
ENDBRANCH   9  10
ENDBRANCH   1   9
TORSDOF 10
ENDMDL
MODEL 8
REMARK VINA RESULT:    -3.406      3.977      5.644
REMARK INTER + INTRA:          -6.519
REMARK INTER:                  -6.002
REMARK INTRA:                  -0.517
REMARK UNBOUND:                -1.122
REMARK SMILES CCCCCCCCCCCC(=O)[O-]
REMARK SMILES IDX 7 1 8 2 9 3 10 4 11 5 12 6 13 7 14 8 6 9 5 10 4 11 3 12 2 13
REMARK SMILES IDX 1 14
REMARK H PARENT
REMARK Flexibility Score: inf
ROOT
ATOM      1  C   UNL     1       2.353  25.020  22.608  1.00  0.00     0.000 C 
ENDROOT
BRANCH   1   2
ATOM      2  C   UNL     1       2.034  23.602  22.092  1.00  0.00     0.000 C 
BRANCH   2   3
ATOM      3  C   UNL     1       1.630  22.587  23.176  1.00  0.00     0.000 C 
BRANCH   3   4
ATOM      4  C   UNL     1       1.149  23.261  24.472  1.00  0.00     0.006 C 
BRANCH   4   5
ATOM      5  C   UNL     1       1.589  22.486  25.722  1.00  0.00     0.053 C 
BRANCH   5   6
ATOM      6  C   UNL     1       3.012  22.780  26.083  1.00  0.00     0.041 C 
ATOM      7  O   UNL     1       3.686  21.943  26.739  1.00  0.00    -0.550 OA
ATOM      8  O   UNL     1       3.583  23.996  25.726  1.00  0.00    -0.550 OA
ENDBRANCH   5   6
ENDBRANCH   4   5
ENDBRANCH   3   4
ENDBRANCH   2   3
ENDBRANCH   1   2
BRANCH   1   9
ATOM      9  C   UNL     1       1.791  26.169  21.751  1.00  0.00     0.000 C 
BRANCH   9  10
ATOM     10  C   UNL     1       1.014  27.205  22.576  1.00  0.00    -0.000 C 
BRANCH  10  11
ATOM     11  C   UNL     1       0.709  28.456  21.738  1.00  0.00    -0.000 C 
BRANCH  11  12
ATOM     12  C   UNL     1      -0.492  28.266  20.793  1.00  0.00    -0.000 C 
BRANCH  12  13
ATOM     13  C   UNL     1      -1.282  29.550  20.484  1.00  0.00    -0.003 C 
ATOM     14  C   UNL     1      -0.412  30.664  19.901  1.00  0.00     0.004 C 
ENDBRANCH  12  13
ENDBRANCH  11  12
ENDBRANCH  10  11
ENDBRANCH   9  10
ENDBRANCH   1   9
TORSDOF 10
ENDMDL
MODEL 9
REMARK VINA RESULT:    -3.301      2.376      5.019
REMARK INTER + INTRA:          -6.353
REMARK INTER:                  -5.282
REMARK INTRA:                  -1.071
REMARK UNBOUND:                -1.122
REMARK SMILES CCCCCCCCCCCC(=O)[O-]
REMARK SMILES IDX 7 1 8 2 9 3 10 4 11 5 12 6 13 7 14 8 6 9 5 10 4 11 3 12 2 13
REMARK SMILES IDX 1 14
REMARK H PARENT
REMARK Flexibility Score: inf
ROOT
ATOM      1  C   UNL     1       4.306  23.163  26.730  1.00  0.00     0.000 C 
ENDROOT
BRANCH   1   2
ATOM      2  C   UNL     1       4.755  24.387  25.906  1.00  0.00     0.000 C 
BRANCH   2   3
ATOM      3  C   UNL     1       5.556  24.060  24.633  1.00  0.00     0.000 C 
BRANCH   3   4
ATOM      4  C   UNL     1       4.685  24.055  23.366  1.00  0.00     0.006 C 
BRANCH   4   5
ATOM      5  C   UNL     1       3.289  24.636  23.625  1.00  0.00     0.053 C 
BRANCH   5   6
ATOM      6  C   UNL     1       2.463  24.668  22.376  1.00  0.00     0.041 C 
ATOM      7  O   UNL     1       2.166  23.597  21.784  1.00  0.00    -0.550 OA
ATOM      8  O   UNL     1       2.050  25.885  21.846  1.00  0.00    -0.550 OA
ENDBRANCH   5   6
ENDBRANCH   4   5
ENDBRANCH   3   4
ENDBRANCH   2   3
ENDBRANCH   1   2
BRANCH   1   9
ATOM      9  C   UNL     1       2.798  23.094  27.030  1.00  0.00     0.000 C 
BRANCH   9  10
ATOM     10  C   UNL     1       2.038  22.171  26.066  1.00  0.00    -0.000 C 
BRANCH  10  11
ATOM     11  C   UNL     1       0.784  22.866  25.516  1.00  0.00    -0.000 C 
BRANCH  11  12
ATOM     12  C   UNL     1      -0.177  23.333  26.625  1.00  0.00    -0.000 C 
BRANCH  12  13
ATOM     13  C   UNL     1      -0.504  24.837  26.609  1.00  0.00    -0.003 C 
ATOM     14  C   UNL     1       0.341  25.623  25.607  1.00  0.00     0.004 C 
ENDBRANCH  12  13
ENDBRANCH  11  12
ENDBRANCH  10  11
ENDBRANCH   9  10
ENDBRANCH   1   9
TORSDOF 10
ENDMDL
