MODEL 1
REMARK VINA RESULT:    -4.101      0.000      0.000
REMARK INTER + INTRA:          -5.850
REMARK INTER:                  -5.779
REMARK INTRA:                  -0.072
REMARK UNBOUND:                -0.072
REMARK SMILES CC1=CCC(=C(C)C)C(=O)CC(C)=CCC1
REMARK SMILES IDX 12 1 14 2 13 3 15 4 16 5 2 6 1 7 3 8 11 10 9 11 10 12 5 13
REMARK SMILES IDX 6 14 7 15 8 16 4 17
REMARK H PARENT
REMARK Flexibility Score: 60.00
ROOT
ATOM      1  C   UNL     1      16.260  17.273  12.499  1.00  0.00    -0.070 C 
ATOM      2  C   UNL     1      16.917  17.128  11.325  1.00  0.00    -0.027 C 
ATOM      3  C   UNL     1      14.776  17.010  12.518  1.00  0.00     0.039 C 
ENDROOT
BRANCH   2   4
ATOM      4  C   UNL     1      18.363  17.489  11.095  1.00  0.00     0.032 C 
BRANCH   4   5
ATOM      5  C   UNL     1      19.246  16.253  11.294  1.00  0.00     0.034 C 
BRANCH   5   6
ATOM      6  C   UNL     1      20.573  16.587  11.947  1.00  0.00    -0.077 C 
ATOM      7  C   UNL     1      21.629  17.282  11.125  1.00  0.00     0.039 C 
ATOM      8  C   UNL     1      20.841  16.359  13.257  1.00  0.00    -0.023 CG0
ATOM      9  G   UNL     1      19.972  15.628  14.264  1.00  0.00     0.000 G0
ENDBRANCH   5   6
ENDBRANCH   4   5
ENDBRANCH   2   4
BRANCH   1  10
ATOM     10  C   UNL     1      16.942  17.665  13.795  1.00  0.00     0.111 C 
BRANCH  10  11
ATOM     11  C   UNL     1      17.548  16.472  14.495  1.00  0.00     0.163 C 
ATOM     12  O   UNL     1      16.821  15.449  14.616  1.00  0.00    -0.294 OA
BRANCH  11  13
ATOM     13  C   UNL     1      18.951  16.439  15.025  1.00  0.00    -0.002 C 
ATOM     14  C   UNL     1      19.249  16.992  16.241  1.00  0.00    -0.069 C 
ATOM     15  C   UNL     1      20.587  16.778  16.913  1.00  0.00     0.039 C 
ATOM     16  C   UNL     1      18.270  17.893  16.959  1.00  0.00     0.039 C 
BRANCH  13  17
ATOM     17  C   UNL     1      19.982  15.618  14.258  1.00  0.00     0.066 CG0
ATOM     18  G   UNL     1      20.832  16.369  13.250  1.00  0.00     0.000 G0
ENDBRANCH  13  17
ENDBRANCH  11  13
ENDBRANCH  10  11
ENDBRANCH   1  10
TORSDOF 0
ENDMDL
MODEL 2
REMARK VINA RESULT:    -3.995      1.271      3.879
REMARK INTER + INTRA:          -5.702
REMARK INTER:                  -6.084
REMARK INTRA:                   0.382
REMARK UNBOUND:                -0.072
REMARK SMILES CC1=CCC(=C(C)C)C(=O)CC(C)=CCC1
REMARK SMILES IDX 12 1 14 2 13 3 15 4 16 5 2 6 1 7 3 8 11 10 9 11 10 12 5 13
REMARK SMILES IDX 6 14 7 15 8 16 4 17
REMARK H PARENT
REMARK Flexibility Score: 60.00
ROOT
ATOM      1  C   UNL     1      17.624  17.678  16.493  1.00  0.00    -0.070 C 
ATOM      2  C   UNL     1      18.814  17.498  17.112  1.00  0.00    -0.027 C 
ATOM      3  C   UNL     1      16.376  17.668  17.339  1.00  0.00     0.039 C 
ENDROOT
BRANCH   2   4
ATOM      4  C   UNL     1      20.137  17.335  16.408  1.00  0.00     0.032 C 
BRANCH   4   5
ATOM      5  C   UNL     1      20.144  16.025  15.612  1.00  0.00     0.034 C 
BRANCH   5   6
ATOM      6  C   UNL     1      20.743  16.190  14.229  1.00  0.00    -0.077 C 
ATOM      7  C   UNL     1      22.134  16.760  14.107  1.00  0.00     0.039 C 
ATOM      8  C   UNL     1      20.124  15.785  13.091  1.00  0.00    -0.023 CG0
ATOM      9  G   UNL     1      18.714  15.241  12.951  1.00  0.00     0.000 G0
ENDBRANCH   5   6
ENDBRANCH   4   5
ENDBRANCH   2   4
BRANCH   1  10
ATOM     10  C   UNL     1      17.485  17.909  15.001  1.00  0.00     0.111 C 
BRANCH  10  11
ATOM     11  C   UNL     1      17.038  16.662  14.278  1.00  0.00     0.163 C 
ATOM     12  O   UNL     1      16.156  15.958  14.840  1.00  0.00    -0.294 OA
BRANCH  11  13
ATOM     13  C   UNL     1      17.567  16.239  12.938  1.00  0.00    -0.002 C 
ATOM     14  C   UNL     1      17.144  16.862  11.796  1.00  0.00    -0.069 C 
ATOM     15  C   UNL     1      17.816  16.631  10.460  1.00  0.00     0.039 C 
ATOM     16  C   UNL     1      15.943  17.781  11.796  1.00  0.00     0.039 C 
BRANCH  13  17
ATOM     17  C   UNL     1      18.713  15.234  12.910  1.00  0.00     0.066 CG0
ATOM     18  G   UNL     1      20.112  15.798  13.074  1.00  0.00     0.000 G0
ENDBRANCH  13  17
ENDBRANCH  11  13
ENDBRANCH  10  11
ENDBRANCH   1  10
TORSDOF 0
ENDMDL
MODEL 3
REMARK VINA RESULT:    -3.779     10.317     12.868
REMARK INTER + INTRA:          -5.397
REMARK INTER:                  -5.432
REMARK INTRA:                   0.035
REMARK UNBOUND:                -0.072
REMARK SMILES CC1=CCC(=C(C)C)C(=O)CC(C)=CCC1
REMARK SMILES IDX 12 1 14 2 13 3 15 4 16 5 2 6 1 7 3 8 11 10 9 11 10 12 5 13
REMARK SMILES IDX 6 14 7 15 8 16 4 17
REMARK H PARENT
REMARK Flexibility Score: 60.00
ROOT
ATOM      1  C   UNL     1      14.419  17.945  23.504  1.00  0.00    -0.070 C 
ATOM      2  C   UNL     1      14.902  17.124  24.465  1.00  0.00    -0.027 C 
ATOM      3  C   UNL     1      15.383  18.472  22.471  1.00  0.00     0.039 C 
ENDROOT
BRANCH   2   4
ATOM      4  C   UNL     1      14.115  16.628  25.651  1.00  0.00     0.032 C 
BRANCH   4   5
ATOM      5  C   UNL     1      13.816  15.133  25.489  1.00  0.00     0.034 C 
BRANCH   5   6
ATOM      6  C   UNL     1      12.341  14.817  25.635  1.00  0.00    -0.077 C 
ATOM      7  C   UNL     1      11.808  14.468  27.002  1.00  0.00     0.039 C 
ATOM      8  C   UNL     1      11.452  14.899  24.613  1.00  0.00    -0.023 CG0
ATOM      9  G   UNL     1      11.750  15.171  23.150  1.00  0.00     0.000 G0
ENDBRANCH   5   6
ENDBRANCH   4   5
ENDBRANCH   2   4
BRANCH   1  10
ATOM     10  C   UNL     1      12.960  18.341  23.400  1.00  0.00     0.111 C 
BRANCH  10  11
ATOM     11  C   UNL     1      12.247  17.585  22.305  1.00  0.00     0.163 C 
ATOM     12  O   UNL     1      12.542  17.885  21.116  1.00  0.00    -0.294 OA
BRANCH  11  13
ATOM     13  C   UNL     1      11.240  16.501  22.558  1.00  0.00    -0.002 C 
ATOM     14  C   UNL     1       9.947  16.640  22.132  1.00  0.00    -0.069 C 
ATOM     15  C   UNL     1       8.967  15.488  22.157  1.00  0.00     0.039 C 
ATOM     16  C   UNL     1       9.410  17.972  21.659  1.00  0.00     0.039 C 
BRANCH  13  17
ATOM     17  C   UNL     1      11.744  15.181  23.131  1.00  0.00     0.066 CG0
ATOM     18  G   UNL     1      11.436  14.917  24.594  1.00  0.00     0.000 G0
ENDBRANCH  13  17
ENDBRANCH  11  13
ENDBRANCH  10  11
ENDBRANCH   1  10
TORSDOF 0
ENDMDL
MODEL 4
REMARK VINA RESULT:    -3.742      9.808     10.923
REMARK INTER + INTRA:          -5.345
REMARK INTER:                  -5.696
REMARK INTRA:                   0.351
REMARK UNBOUND:                -0.072
REMARK SMILES CC1=CCC(=C(C)C)C(=O)CC(C)=CCC1
REMARK SMILES IDX 12 1 14 2 13 3 15 4 16 5 2 6 1 7 3 8 11 10 9 11 10 12 5 13
REMARK SMILES IDX 6 14 7 15 8 16 4 17
REMARK H PARENT
REMARK Flexibility Score: 60.00
ROOT
ATOM      1  C   UNL     1      17.175  16.632  23.832  1.00  0.00    -0.070 C 
ATOM      2  C   UNL     1      16.396  15.536  23.984  1.00  0.00    -0.027 C 
ATOM      3  C   UNL     1      16.618  17.796  23.053  1.00  0.00     0.039 C 
ENDROOT
BRANCH   2   4
ATOM      4  C   UNL     1      16.845  14.236  24.602  1.00  0.00     0.032 C 
BRANCH   4   5
ATOM      5  C   UNL     1      17.854  13.543  23.679  1.00  0.00     0.034 C 
BRANCH   5   6
ATOM      6  C   UNL     1      19.064  13.023  24.429  1.00  0.00    -0.077 C 
ATOM      7  C   UNL     1      18.852  12.030  25.545  1.00  0.00     0.039 C 
ATOM      8  C   UNL     1      20.342  13.346  24.107  1.00  0.00    -0.023 CG0
ATOM      9  G   UNL     1      20.806  14.357  23.074  1.00  0.00     0.000 G0
ENDBRANCH   5   6
ENDBRANCH   4   5
ENDBRANCH   2   4
BRANCH   1  10
ATOM     10  C   UNL     1      18.566  16.755  24.422  1.00  0.00     0.111 C 
BRANCH  10  11
ATOM     11  C   UNL     1      19.638  16.654  23.363  1.00  0.00     0.163 C 
ATOM     12  O   UNL     1      19.469  17.329  22.311  1.00  0.00    -0.294 OA
BRANCH  11  13
ATOM     13  C   UNL     1      20.878  15.822  23.507  1.00  0.00    -0.002 C 
ATOM     14  C   UNL     1      21.973  16.315  24.164  1.00  0.00    -0.069 C 
ATOM     15  C   UNL     1      23.148  15.438  24.534  1.00  0.00     0.039 C 
ATOM     16  C   UNL     1      22.092  17.782  24.512  1.00  0.00     0.039 C 
BRANCH  13  17
ATOM     17  C   UNL     1      20.813  14.363  23.068  1.00  0.00     0.066 CG0
ATOM     18  G   UNL     1      20.327  13.366  24.103  1.00  0.00     0.000 G0
ENDBRANCH  13  17
ENDBRANCH  11  13
ENDBRANCH  10  11
ENDBRANCH   1  10
TORSDOF 0
ENDMDL
MODEL 5
REMARK VINA RESULT:    -3.721     10.089     11.942
REMARK INTER + INTRA:          -5.315
REMARK INTER:                  -5.557
REMARK INTRA:                   0.242
REMARK UNBOUND:                -0.072
REMARK SMILES CC1=CCC(=C(C)C)C(=O)CC(C)=CCC1
REMARK SMILES IDX 12 1 14 2 13 3 15 4 16 5 2 6 1 7 3 8 11 10 9 11 10 12 5 13
REMARK SMILES IDX 6 14 7 15 8 16 4 17
REMARK H PARENT
REMARK Flexibility Score: 60.00
ROOT
ATOM      1  C   UNL     1      19.523  13.370  26.288  1.00  0.00    -0.070 C 
ATOM      2  C   UNL     1      18.488  14.027  26.861  1.00  0.00    -0.027 C 
ATOM      3  C   UNL     1      20.826  13.301  27.044  1.00  0.00     0.039 C 
ENDROOT
BRANCH   2   4
ATOM      4  C   UNL     1      17.171  14.316  26.187  1.00  0.00     0.032 C 
BRANCH   4   5
ATOM      5  C   UNL     1      17.004  15.828  26.000  1.00  0.00     0.034 C 
BRANCH   5   6
ATOM      6  C   UNL     1      16.985  16.233  24.539  1.00  0.00    -0.077 C 
ATOM      7  C   UNL     1      15.653  16.476  23.874  1.00  0.00     0.039 C 
ATOM      8  C   UNL     1      18.106  16.461  23.810  1.00  0.00    -0.023 CG0
ATOM      9  G   UNL     1      19.545  16.232  24.234  1.00  0.00     0.000 G0
ENDBRANCH   5   6
ENDBRANCH   4   5
ENDBRANCH   2   4
BRANCH   1  10
ATOM     10  C   UNL     1      19.433  12.684  24.939  1.00  0.00     0.111 C 
BRANCH  10  11
ATOM     11  C   UNL     1      19.361  13.679  23.805  1.00  0.00     0.163 C 
ATOM     12  O   UNL     1      18.536  13.437  22.882  1.00  0.00    -0.294 OA
BRANCH  11  13
ATOM     13  C   UNL     1      20.191  14.927  23.735  1.00  0.00    -0.002 C 
ATOM     14  C   UNL     1      21.406  14.920  23.106  1.00  0.00    -0.069 C 
ATOM     15  C   UNL     1      22.164  16.195  22.810  1.00  0.00     0.039 C 
ATOM     16  C   UNL     1      22.085  13.626  22.715  1.00  0.00     0.039 C 
BRANCH  13  17
ATOM     17  C   UNL     1      19.561  16.229  24.219  1.00  0.00     0.066 CG0
ATOM     18  G   UNL     1      18.119  16.474  23.814  1.00  0.00     0.000 G0
ENDBRANCH  13  17
ENDBRANCH  11  13
ENDBRANCH  10  11
ENDBRANCH   1  10
TORSDOF 0
ENDMDL
MODEL 6
REMARK VINA RESULT:    -3.606     10.166     12.054
REMARK INTER + INTRA:          -5.153
REMARK INTER:                  -5.878
REMARK INTRA:                   0.725
REMARK UNBOUND:                -0.072
REMARK SMILES CC1=CCC(=C(C)C)C(=O)CC(C)=CCC1
REMARK SMILES IDX 12 1 14 2 13 3 15 4 16 5 2 6 1 7 3 8 11 10 9 11 10 12 5 13
REMARK SMILES IDX 6 14 7 15 8 16 4 17
REMARK H PARENT
REMARK Flexibility Score: 60.00
ROOT
ATOM      1  C   UNL     1      19.228  13.383  26.086  1.00  0.00    -0.070 C 
ATOM      2  C   UNL     1      20.580  13.412  26.135  1.00  0.00    -0.027 C 
ATOM      3  C   UNL     1      18.559  12.098  25.670  1.00  0.00     0.039 C 
ENDROOT
BRANCH   2   4
ATOM      4  C   UNL     1      21.409  14.646  26.386  1.00  0.00     0.032 C 
BRANCH   4   5
ATOM      5  C   UNL     1      21.672  15.374  25.064  1.00  0.00     0.034 C 
BRANCH   5   6
ATOM      6  C   UNL     1      21.034  16.748  25.021  1.00  0.00    -0.077 C 
ATOM      7  C   UNL     1      21.762  17.903  25.663  1.00  0.00     0.039 C 
ATOM      8  C   UNL     1      19.872  17.016  24.373  1.00  0.00    -0.023 CG0
ATOM      9  G   UNL     1      18.936  16.023  23.709  1.00  0.00     0.000 G0
ENDBRANCH   5   6
ENDBRANCH   4   5
ENDBRANCH   2   4
BRANCH   1  10
ATOM     10  C   UNL     1      18.354  14.569  26.448  1.00  0.00     0.111 C 
BRANCH  10  11
ATOM     11  C   UNL     1      17.335  14.865  25.375  1.00  0.00     0.163 C 
ATOM     12  O   UNL     1      16.248  14.227  25.425  1.00  0.00    -0.294 OA
BRANCH  11  13
ATOM     13  C   UNL     1      17.539  15.877  24.286  1.00  0.00    -0.002 C 
ATOM     14  C   UNL     1      16.538  16.748  23.949  1.00  0.00    -0.069 C 
ATOM     15  C   UNL     1      16.775  17.925  23.030  1.00  0.00     0.039 C 
ATOM     16  C   UNL     1      15.121  16.550  24.439  1.00  0.00     0.039 C 
BRANCH  13  17
ATOM     17  C   UNL     1      18.941  16.024  23.704  1.00  0.00     0.066 CG0
ATOM     18  G   UNL     1      19.854  17.027  24.384  1.00  0.00     0.000 G0
ENDBRANCH  13  17
ENDBRANCH  11  13
ENDBRANCH  10  11
ENDBRANCH   1  10
TORSDOF 0
ENDMDL
MODEL 7
REMARK VINA RESULT:    -3.567     10.415     11.575
REMARK INTER + INTRA:          -5.098
REMARK INTER:                  -4.997
REMARK INTRA:                  -0.102
REMARK UNBOUND:                -0.072
REMARK SMILES CC1=CCC(=C(C)C)C(=O)CC(C)=CCC1
REMARK SMILES IDX 12 1 14 2 13 3 15 4 16 5 2 6 1 7 3 8 11 10 9 11 10 12 5 13
REMARK SMILES IDX 6 14 7 15 8 16 4 17
REMARK H PARENT
REMARK Flexibility Score: 60.00
ROOT
ATOM      1  C   UNL     1      20.103  17.009  24.091  1.00  0.00    -0.070 C 
ATOM      2  C   UNL     1      20.950  15.974  23.887  1.00  0.00    -0.027 C 
ATOM      3  C   UNL     1      20.426  18.330  23.441  1.00  0.00     0.039 C 
ENDROOT
BRANCH   2   4
ATOM      4  C   UNL     1      20.860  14.636  24.574  1.00  0.00     0.032 C 
BRANCH   4   5
ATOM      5  C   UNL     1      20.059  13.659  23.706  1.00  0.00     0.034 C 
BRANCH   5   6
ATOM      6  C   UNL     1      19.035  12.878  24.506  1.00  0.00    -0.077 C 
ATOM      7  C   UNL     1      19.516  11.773  25.414  1.00  0.00     0.039 C 
ATOM      8  C   UNL     1      17.708  13.162  24.507  1.00  0.00    -0.023 CG0
ATOM      9  G   UNL     1      16.982  14.178  23.644  1.00  0.00     0.000 G0
ENDBRANCH   5   6
ENDBRANCH   4   5
ENDBRANCH   2   4
BRANCH   1  10
ATOM     10  C   UNL     1      18.838  16.901  24.920  1.00  0.00     0.111 C 
BRANCH  10  11
ATOM     11  C   UNL     1      17.622  16.649  24.061  1.00  0.00     0.163 C 
ATOM     12  O   UNL     1      17.433  17.432  23.091  1.00  0.00    -0.294 OA
BRANCH  11  13
ATOM     13  C   UNL     1      16.659  15.521  24.289  1.00  0.00    -0.002 C 
ATOM     14  C   UNL     1      15.462  15.744  24.913  1.00  0.00    -0.069 C 
ATOM     15  C   UNL     1      14.371  14.697  24.955  1.00  0.00     0.039 C 
ATOM     16  C   UNL     1      15.182  17.039  25.644  1.00  0.00     0.039 C 
BRANCH  13  17
ATOM     17  C   UNL     1      16.973  14.175  23.645  1.00  0.00     0.066 CG0
ATOM     18  G   UNL     1      17.711  13.168  24.508  1.00  0.00     0.000 G0
ENDBRANCH  13  17
ENDBRANCH  11  13
ENDBRANCH  10  11
ENDBRANCH   1  10
TORSDOF 0
ENDMDL
MODEL 8
REMARK VINA RESULT:    -3.517      1.722      4.562
REMARK INTER + INTRA:          -5.029
REMARK INTER:                  -4.892
REMARK INTRA:                  -0.136
REMARK UNBOUND:                -0.072
REMARK SMILES CC1=CCC(=C(C)C)C(=O)CC(C)=CCC1
REMARK SMILES IDX 12 1 14 2 13 3 15 4 16 5 2 6 1 7 3 8 11 10 9 11 10 12 5 13
REMARK SMILES IDX 6 14 7 15 8 16 4 17
REMARK H PARENT
REMARK Flexibility Score: 60.00
ROOT
ATOM      1  C   UNL     1      19.680  17.351  16.823  1.00  0.00    -0.070 C 
ATOM      2  C   UNL     1      18.344  17.538  16.724  1.00  0.00    -0.027 C 
ATOM      3  C   UNL     1      20.247  16.975  18.168  1.00  0.00     0.039 C 
ENDROOT
BRANCH   2   4
ATOM      4  C   UNL     1      17.633  18.056  15.500  1.00  0.00     0.032 C 
BRANCH   4   5
ATOM      5  C   UNL     1      16.959  16.895  14.760  1.00  0.00     0.034 C 
BRANCH   5   6
ATOM      6  C   UNL     1      17.155  16.972  13.258  1.00  0.00    -0.077 C 
ATOM      7  C   UNL     1      16.241  17.864  12.456  1.00  0.00     0.039 C 
ATOM      8  C   UNL     1      18.156  16.338  12.599  1.00  0.00    -0.023 CG0
ATOM      9  G   UNL     1      19.157  15.350  13.170  1.00  0.00     0.000 G0
ENDBRANCH   5   6
ENDBRANCH   4   5
ENDBRANCH   2   4
BRANCH   1  10
ATOM     10  C   UNL     1      20.630  17.477  15.648  1.00  0.00     0.111 C 
BRANCH  10  11
ATOM     11  C   UNL     1      20.860  16.151  14.964  1.00  0.00     0.163 C 
ATOM     12  O   UNL     1      21.327  15.216  15.670  1.00  0.00    -0.294 OA
BRANCH  11  13
ATOM     13  C   UNL     1      20.547  15.890  13.520  1.00  0.00    -0.002 C 
ATOM     14  C   UNL     1      21.525  15.986  12.568  1.00  0.00    -0.069 C 
ATOM     15  C   UNL     1      21.312  15.510  11.148  1.00  0.00     0.039 C 
ATOM     16  C   UNL     1      22.862  16.623  12.871  1.00  0.00     0.039 C 
BRANCH  13  17
ATOM     17  C   UNL     1      19.165  15.342  13.179  1.00  0.00     0.066 CG0
ATOM     18  G   UNL     1      18.170  16.330  12.597  1.00  0.00     0.000 G0
ENDBRANCH  13  17
ENDBRANCH  11  13
ENDBRANCH  10  11
ENDBRANCH   1  10
TORSDOF 0
ENDMDL
MODEL 9
REMARK VINA RESULT:    -3.516      1.510      3.884
REMARK INTER + INTRA:          -5.026
REMARK INTER:                  -5.418
REMARK INTRA:                   0.392
REMARK UNBOUND:                -0.072
REMARK SMILES CC1=CCC(=C(C)C)C(=O)CC(C)=CCC1
REMARK SMILES IDX 12 1 14 2 13 3 15 4 16 5 2 6 1 7 3 8 11 10 9 11 10 12 5 13
REMARK SMILES IDX 6 14 7 15 8 16 4 17
REMARK H PARENT
REMARK Flexibility Score: 60.00
ROOT
ATOM      1  C   UNL     1      16.660  17.505  12.261  1.00  0.00    -0.070 C 
ATOM      2  C   UNL     1      16.360  17.346  13.570  1.00  0.00    -0.027 C 
ATOM      3  C   UNL     1      15.545  17.371  11.255  1.00  0.00     0.039 C 
ENDROOT
BRANCH   2   4
ATOM      4  C   UNL     1      17.370  17.301  14.689  1.00  0.00     0.032 C 
BRANCH   4   5
ATOM      5  C   UNL     1      18.170  15.997  14.615  1.00  0.00     0.034 C 
BRANCH   5   6
ATOM      6  C   UNL     1      19.663  16.223  14.747  1.00  0.00    -0.077 C 
ATOM      7  C   UNL     1      20.189  16.863  16.007  1.00  0.00     0.039 C 
ATOM      8  C   UNL     1      20.567  15.816  13.821  1.00  0.00    -0.023 CG0
ATOM      9  G   UNL     1      20.285  15.207  12.460  1.00  0.00     0.000 G0
ENDBRANCH   5   6
ENDBRANCH   4   5
ENDBRANCH   2   4
BRANCH   1  10
ATOM     10  C   UNL     1      18.052  17.833  11.758  1.00  0.00     0.111 C 
BRANCH  10  11
ATOM     11  C   UNL     1      18.678  16.666  11.033  1.00  0.00     0.163 C 
ATOM     12  O   UNL     1      17.981  16.102  10.146  1.00  0.00    -0.294 OA
BRANCH  11  13
ATOM     13  C   UNL     1      20.069  16.168  11.297  1.00  0.00    -0.002 C 
ATOM     14  C   UNL     1      21.136  16.696  10.622  1.00  0.00    -0.069 C 
ATOM     15  C   UNL     1      22.564  16.394  11.018  1.00  0.00     0.039 C 
ATOM     16  C   UNL     1      20.945  17.573   9.405  1.00  0.00     0.039 C 
BRANCH  13  17
ATOM     17  C   UNL     1      20.271  15.201  12.458  1.00  0.00     0.066 CG0
ATOM     18  G   UNL     1      20.566  15.821  13.812  1.00  0.00     0.000 G0
ENDBRANCH  13  17
ENDBRANCH  11  13
ENDBRANCH  10  11
ENDBRANCH   1  10
TORSDOF 0
ENDMDL
