MODEL 1
REMARK VINA RESULT:    -3.326      0.000      0.000
REMARK INTER + INTRA:          -6.827
REMARK INTER:                  -5.271
REMARK INTRA:                  -1.556
REMARK UNBOUND:                -1.556
REMARK SMILES CCCCCCCCCCCC=O
REMARK SMILES IDX 7 1 6 2 5 3 4 4 3 5 2 6 1 7 8 8 9 9 10 10 11 11 12 12 13 13
REMARK H PARENT
REMARK Flexibility Score: inf
ROOT
ATOM      1  C   UNL     1      -1.712   8.332   6.689  1.00  0.00     0.000 C 
ENDROOT
BRANCH   1   2
ATOM      2  C   UNL     1      -0.477   7.992   7.540  1.00  0.00     0.000 C 
BRANCH   2   3
ATOM      3  C   UNL     1      -0.019   6.533   7.369  1.00  0.00    -0.000 C 
BRANCH   3   4
ATOM      4  C   UNL     1       1.457   6.398   6.937  1.00  0.00    -0.000 C 
BRANCH   4   5
ATOM      5  C   UNL     1       2.140   7.766   6.769  1.00  0.00    -0.000 C 
BRANCH   5   6
ATOM      6  C   UNL     1       2.468   8.087   5.303  1.00  0.00    -0.003 C 
ATOM      7  C   UNL     1       1.964   9.464   4.871  1.00  0.00     0.004 C 
ENDBRANCH   5   6
ENDBRANCH   4   5
ENDBRANCH   3   4
ENDBRANCH   2   3
ENDBRANCH   1   2
BRANCH   1   8
ATOM      8  C   UNL     1      -1.936   7.330   5.546  1.00  0.00     0.000 C 
BRANCH   8   9
ATOM      9  C   UNL     1      -1.970   8.009   4.166  1.00  0.00     0.000 C 
BRANCH   9  10
ATOM     10  C   UNL     1      -0.765   7.626   3.291  1.00  0.00     0.008 C 
BRANCH  10  11
ATOM     11  C   UNL     1      -0.275   6.196   3.555  1.00  0.00     0.072 C 
BRANCH  11  12
ATOM     12  C   UNL     1      -0.933   5.226   2.621  1.00  0.00     0.224 C 
ATOM     13  O   UNL     1      -1.100   5.514   1.446  1.00  0.00    -0.303 OA
ENDBRANCH  11  12
ENDBRANCH  10  11
ENDBRANCH   9  10
ENDBRANCH   8   9
ENDBRANCH   1   8
TORSDOF 10
ENDMDL
MODEL 2
REMARK VINA RESULT:    -3.136      2.110      4.319
REMARK INTER + INTRA:          -6.526
REMARK INTER:                  -5.047
REMARK INTRA:                  -1.479
REMARK UNBOUND:                -1.556
REMARK SMILES CCCCCCCCCCCC=O
REMARK SMILES IDX 7 1 6 2 5 3 4 4 3 5 2 6 1 7 8 8 9 9 10 10 11 11 12 12 13 13
REMARK H PARENT
REMARK Flexibility Score: inf
ROOT
ATOM      1  C   UNL     1      -0.178   6.460   6.751  1.00  0.00     0.000 C 
ENDROOT
BRANCH   1   2
ATOM      2  C   UNL     1      -0.999   7.720   7.069  1.00  0.00     0.000 C 
BRANCH   2   3
ATOM      3  C   UNL     1      -2.195   7.909   6.119  1.00  0.00    -0.000 C 
BRANCH   3   4
ATOM      4  C   UNL     1      -2.114   7.037   4.847  1.00  0.00    -0.000 C 
BRANCH   4   5
ATOM      5  C   UNL     1      -1.708   7.853   3.608  1.00  0.00    -0.000 C 
BRANCH   5   6
ATOM      6  C   UNL     1      -0.941   7.016   2.574  1.00  0.00    -0.003 C 
ATOM      7  C   UNL     1      -0.538   5.641   3.107  1.00  0.00     0.004 C 
ENDBRANCH   5   6
ENDBRANCH   4   5
ENDBRANCH   3   4
ENDBRANCH   2   3
ENDBRANCH   1   2
BRANCH   1   8
ATOM      8  C   UNL     1       1.331   6.740   6.686  1.00  0.00     0.000 C 
BRANCH   8   9
ATOM      9  C   UNL     1       1.750   7.407   5.364  1.00  0.00     0.000 C 
BRANCH   9  10
ATOM     10  C   UNL     1       2.126   8.887   5.543  1.00  0.00     0.008 C 
BRANCH  10  11
ATOM     11  C   UNL     1       1.297   9.818   4.648  1.00  0.00     0.072 C 
BRANCH  11  12
ATOM     12  C   UNL     1       2.021  10.113   3.369  1.00  0.00     0.224 C 
ATOM     13  O   UNL     1       3.077  10.726   3.383  1.00  0.00    -0.303 OA
ENDBRANCH  11  12
ENDBRANCH  10  11
ENDBRANCH   9  10
ENDBRANCH   8   9
ENDBRANCH   1   8
TORSDOF 10
ENDMDL
MODEL 3
REMARK VINA RESULT:    -3.106     16.358     17.506
REMARK INTER + INTRA:          -6.478
REMARK INTER:                  -5.247
REMARK INTRA:                  -1.231
REMARK UNBOUND:                -1.556
REMARK SMILES CCCCCCCCCCCC=O
REMARK SMILES IDX 7 1 6 2 5 3 4 4 3 5 2 6 1 7 8 8 9 9 10 10 11 11 12 12 13 13
REMARK H PARENT
REMARK Flexibility Score: inf
ROOT
ATOM      1  C   UNL     1       8.240   1.146  -9.608  1.00  0.00     0.000 C 
ENDROOT
BRANCH   1   2
ATOM      2  C   UNL     1       7.073   0.599  -8.770  1.00  0.00     0.000 C 
BRANCH   2   3
ATOM      3  C   UNL     1       7.496   0.200  -7.345  1.00  0.00    -0.000 C 
BRANCH   3   4
ATOM      4  C   UNL     1       7.994  -1.257  -7.236  1.00  0.00    -0.000 C 
BRANCH   4   5
ATOM      5  C   UNL     1       9.388  -1.347  -6.593  1.00  0.00    -0.000 C 
BRANCH   5   6
ATOM      6  C   UNL     1       9.864  -0.004  -6.019  1.00  0.00    -0.003 C 
ATOM      7  C   UNL     1      11.387   0.109  -5.963  1.00  0.00     0.004 C 
ENDBRANCH   5   6
ENDBRANCH   4   5
ENDBRANCH   3   4
ENDBRANCH   2   3
ENDBRANCH   1   2
BRANCH   1   8
ATOM      8  C   UNL     1       9.121   2.128  -8.822  1.00  0.00     0.000 C 
BRANCH   8   9
ATOM      9  C   UNL     1      10.607   2.025  -9.208  1.00  0.00     0.000 C 
BRANCH   9  10
ATOM     10  C   UNL     1      11.514   2.862  -8.291  1.00  0.00     0.008 C 
BRANCH  10  11
ATOM     11  C   UNL     1      10.735   3.550  -7.161  1.00  0.00     0.072 C 
BRANCH  11  12
ATOM     12  C   UNL     1      11.482   4.744  -6.648  1.00  0.00     0.224 C 
ATOM     13  O   UNL     1      10.924   5.565  -5.938  1.00  0.00    -0.303 OA
ENDBRANCH  11  12
ENDBRANCH  10  11
ENDBRANCH   9  10
ENDBRANCH   8   9
ENDBRANCH   1   8
TORSDOF 10
ENDMDL
MODEL 4
REMARK VINA RESULT:    -3.040     15.996     17.248
REMARK INTER + INTRA:          -6.374
REMARK INTER:                  -5.184
REMARK INTRA:                  -1.190
REMARK UNBOUND:                -1.556
REMARK SMILES CCCCCCCCCCCC=O
REMARK SMILES IDX 7 1 6 2 5 3 4 4 3 5 2 6 1 7 8 8 9 9 10 10 11 11 12 12 13 13
REMARK H PARENT
REMARK Flexibility Score: inf
ROOT
ATOM      1  C   UNL     1       9.162  -0.113  -6.951  1.00  0.00     0.000 C 
ENDROOT
BRANCH   1   2
ATOM      2  C   UNL     1       9.080   1.355  -6.500  1.00  0.00     0.000 C 
BRANCH   2   3
ATOM      3  C   UNL     1       9.967   2.288  -7.343  1.00  0.00    -0.000 C 
BRANCH   3   4
ATOM      4  C   UNL     1      10.852   1.542  -8.363  1.00  0.00    -0.000 C 
BRANCH   4   5
ATOM      5  C   UNL     1      10.592   2.006  -9.806  1.00  0.00    -0.000 C 
BRANCH   5   6
ATOM      6  C   UNL     1       9.486   1.194 -10.499  1.00  0.00    -0.003 C 
ATOM      7  C   UNL     1       8.318   2.063 -10.963  1.00  0.00     0.004 C 
ENDBRANCH   5   6
ENDBRANCH   4   5
ENDBRANCH   3   4
ENDBRANCH   2   3
ENDBRANCH   1   2
BRANCH   1   8
ATOM      8  C   UNL     1       7.838  -0.625  -7.537  1.00  0.00     0.000 C 
BRANCH   8   9
ATOM      9  C   UNL     1       6.848   0.513  -7.841  1.00  0.00     0.000 C 
BRANCH   9  10
ATOM     10  C   UNL     1       5.510  -0.001  -8.396  1.00  0.00     0.008 C 
BRANCH  10  11
ATOM     11  C   UNL     1       5.111   0.692  -9.706  1.00  0.00     0.072 C 
BRANCH  11  12
ATOM     12  C   UNL     1       3.640   0.975  -9.733  1.00  0.00     0.224 C 
ATOM     13  O   UNL     1       3.109   1.581  -8.815  1.00  0.00    -0.303 OA
ENDBRANCH  11  12
ENDBRANCH  10  11
ENDBRANCH   9  10
ENDBRANCH   8   9
ENDBRANCH   1   8
TORSDOF 10
ENDMDL
MODEL 5
REMARK VINA RESULT:    -3.030      1.941      4.762
REMARK INTER + INTRA:          -6.357
REMARK INTER:                  -5.167
REMARK INTRA:                  -1.190
REMARK UNBOUND:                -1.556
REMARK SMILES CCCCCCCCCCCC=O
REMARK SMILES IDX 7 1 6 2 5 3 4 4 3 5 2 6 1 7 8 8 9 9 10 10 11 11 12 12 13 13
REMARK H PARENT
REMARK Flexibility Score: inf
ROOT
ATOM      1  C   UNL     1       1.780   9.996   4.095  1.00  0.00     0.000 C 
ENDROOT
BRANCH   1   2
ATOM      2  C   UNL     1       0.556   9.767   3.193  1.00  0.00     0.000 C 
BRANCH   2   3
ATOM      3  C   UNL     1      -0.772   9.798   3.969  1.00  0.00    -0.000 C 
BRANCH   3   4
ATOM      4  C   UNL     1      -1.620   8.521   3.788  1.00  0.00    -0.000 C 
BRANCH   4   5
ATOM      5  C   UNL     1      -0.964   7.520   2.823  1.00  0.00    -0.000 C 
BRANCH   5   6
ATOM      6  C   UNL     1      -0.756   6.136   3.457  1.00  0.00    -0.003 C 
ATOM      7  C   UNL     1      -0.621   5.023   2.418  1.00  0.00     0.004 C 
ENDBRANCH   5   6
ENDBRANCH   4   5
ENDBRANCH   3   4
ENDBRANCH   2   3
ENDBRANCH   1   2
BRANCH   1   8
ATOM      8  C   UNL     1       1.661   9.274   5.446  1.00  0.00     0.000 C 
BRANCH   8   9
ATOM      9  C   UNL     1       2.009   7.779   5.348  1.00  0.00     0.000 C 
BRANCH   9  10
ATOM     10  C   UNL     1       1.917   7.061   6.705  1.00  0.00     0.008 C 
BRANCH  10  11
ATOM     11  C   UNL     1       0.602   6.287   6.873  1.00  0.00     0.072 C 
BRANCH  11  12
ATOM     12  C   UNL     1      -0.426   7.126   7.569  1.00  0.00     0.224 C 
ATOM     13  O   UNL     1      -1.467   7.425   7.005  1.00  0.00    -0.303 OA
ENDBRANCH  11  12
ENDBRANCH  10  11
ENDBRANCH   9  10
ENDBRANCH   8   9
ENDBRANCH   1   8
TORSDOF 10
ENDMDL
MODEL 6
REMARK VINA RESULT:    -3.020     16.345     17.815
REMARK INTER + INTRA:          -6.342
REMARK INTER:                  -5.198
REMARK INTRA:                  -1.144
REMARK UNBOUND:                -1.556
REMARK SMILES CCCCCCCCCCCC=O
REMARK SMILES IDX 7 1 6 2 5 3 4 4 3 5 2 6 1 7 8 8 9 9 10 10 11 11 12 12 13 13
REMARK H PARENT
REMARK Flexibility Score: inf
ROOT
ATOM      1  C   UNL     1      10.816   2.471  -6.392  1.00  0.00     0.000 C 
ENDROOT
BRANCH   1   2
ATOM      2  C   UNL     1       9.988   1.337  -5.764  1.00  0.00     0.000 C 
BRANCH   2   3
ATOM      3  C   UNL     1       8.746   0.973  -6.598  1.00  0.00    -0.000 C 
BRANCH   3   4
ATOM      4  C   UNL     1       8.641  -0.533  -6.919  1.00  0.00    -0.000 C 
BRANCH   4   5
ATOM      5  C   UNL     1       7.491  -0.840  -7.893  1.00  0.00    -0.000 C 
BRANCH   5   6
ATOM      6  C   UNL     1       6.452   0.289  -7.957  1.00  0.00    -0.003 C 
ATOM      7  C   UNL     1       5.825   0.439  -9.343  1.00  0.00     0.004 C 
ENDBRANCH   5   6
ENDBRANCH   4   5
ENDBRANCH   3   4
ENDBRANCH   2   3
ENDBRANCH   1   2
BRANCH   1   8
ATOM      8  C   UNL     1      10.294   2.886  -7.775  1.00  0.00     0.000 C 
BRANCH   8   9
ATOM      9  C   UNL     1      11.325   2.644  -8.891  1.00  0.00     0.000 C 
BRANCH   9  10
ATOM     10  C   UNL     1      10.787   1.727 -10.002  1.00  0.00     0.008 C 
BRANCH  10  11
ATOM     11  C   UNL     1       9.256   1.761 -10.104  1.00  0.00     0.072 C 
BRANCH  11  12
ATOM     12  C   UNL     1       8.821   2.096 -11.499  1.00  0.00     0.224 C 
ATOM     13  O   UNL     1       9.380   2.984 -12.125  1.00  0.00    -0.303 OA
ENDBRANCH  11  12
ENDBRANCH  10  11
ENDBRANCH   9  10
ENDBRANCH   8   9
ENDBRANCH   1   8
TORSDOF 10
ENDMDL
MODEL 7
REMARK VINA RESULT:    -2.992      1.425      3.038
REMARK INTER + INTRA:          -6.297
REMARK INTER:                  -4.804
REMARK INTRA:                  -1.494
REMARK UNBOUND:                -1.556
REMARK SMILES CCCCCCCCCCCC=O
REMARK SMILES IDX 7 1 6 2 5 3 4 4 3 5 2 6 1 7 8 8 9 9 10 10 11 11 12 12 13 13
REMARK H PARENT
REMARK Flexibility Score: inf
ROOT
ATOM      1  C   UNL     1       0.060   6.754   7.122  1.00  0.00     0.000 C 
ENDROOT
BRANCH   1   2
ATOM      2  C   UNL     1      -0.763   7.710   8.001  1.00  0.00     0.000 C 
BRANCH   2   3
ATOM      3  C   UNL     1      -2.095   8.121   7.351  1.00  0.00    -0.000 C 
BRANCH   3   4
ATOM      4  C   UNL     1      -1.991   9.397   6.489  1.00  0.00    -0.000 C 
BRANCH   4   5
ATOM      5  C   UNL     1      -2.551   9.188   5.072  1.00  0.00    -0.000 C 
BRANCH   5   6
ATOM      6  C   UNL     1      -1.870  10.086   4.028  1.00  0.00    -0.003 C 
ATOM      7  C   UNL     1      -0.505  10.598   4.487  1.00  0.00     0.004 C 
ENDBRANCH   5   6
ENDBRANCH   4   5
ENDBRANCH   3   4
ENDBRANCH   2   3
ENDBRANCH   1   2
BRANCH   1   8
ATOM      8  C   UNL     1       1.123   7.486   6.289  1.00  0.00     0.000 C 
BRANCH   8   9
ATOM      9  C   UNL     1       0.942   7.266   4.777  1.00  0.00     0.000 C 
BRANCH   9  10
ATOM     10  C   UNL     1      -0.192   6.278   4.456  1.00  0.00     0.008 C 
BRANCH  10  11
ATOM     11  C   UNL     1      -0.860   6.568   3.105  1.00  0.00     0.072 C 
BRANCH  11  12
ATOM     12  C   UNL     1      -0.830   5.355   2.225  1.00  0.00     0.224 C 
ATOM     13  O   UNL     1      -0.066   4.433   2.466  1.00  0.00    -0.303 OA
ENDBRANCH  11  12
ENDBRANCH  10  11
ENDBRANCH   9  10
ENDBRANCH   8   9
ENDBRANCH   1   8
TORSDOF 10
ENDMDL
MODEL 8
REMARK VINA RESULT:    -2.989     13.035     14.709
REMARK INTER + INTRA:          -6.292
REMARK INTER:                  -5.589
REMARK INTRA:                  -0.703
REMARK UNBOUND:                -1.556
REMARK SMILES CCCCCCCCCCCC=O
REMARK SMILES IDX 7 1 6 2 5 3 4 4 3 5 2 6 1 7 8 8 9 9 10 10 11 11 12 12 13 13
REMARK H PARENT
REMARK Flexibility Score: inf
ROOT
ATOM      1  C   UNL     1       8.343  -3.501  -0.413  1.00  0.00     0.000 C 
ENDROOT
BRANCH   1   2
ATOM      2  C   UNL     1       9.023  -2.503   0.538  1.00  0.00     0.000 C 
BRANCH   2   3
ATOM      3  C   UNL     1       8.914  -2.918   2.016  1.00  0.00    -0.000 C 
BRANCH   3   4
ATOM      4  C   UNL     1       7.459  -3.020   2.521  1.00  0.00    -0.000 C 
BRANCH   4   5
ATOM      5  C   UNL     1       6.838  -1.638   2.785  1.00  0.00    -0.000 C 
BRANCH   5   6
ATOM      6  C   UNL     1       6.607  -1.368   4.280  1.00  0.00    -0.003 C 
ATOM      7  C   UNL     1       6.765   0.107   4.646  1.00  0.00     0.004 C 
ENDBRANCH   5   6
ENDBRANCH   4   5
ENDBRANCH   3   4
ENDBRANCH   2   3
ENDBRANCH   1   2
BRANCH   1   8
ATOM      8  C   UNL     1       9.297  -4.605  -0.891  1.00  0.00     0.000 C 
BRANCH   8   9
ATOM      9  C   UNL     1       9.031  -5.954  -0.201  1.00  0.00     0.000 C 
BRANCH   9  10
ATOM     10  C   UNL     1       8.173  -6.898  -1.059  1.00  0.00     0.008 C 
BRANCH  10  11
ATOM     11  C   UNL     1       6.908  -7.370  -0.329  1.00  0.00     0.072 C 
BRANCH  11  12
ATOM     12  C   UNL     1       6.731  -6.632   0.964  1.00  0.00     0.224 C 
ATOM     13  O   UNL     1       5.781  -5.881   1.123  1.00  0.00    -0.303 OA
ENDBRANCH  11  12
ENDBRANCH  10  11
ENDBRANCH   9  10
ENDBRANCH   8   9
ENDBRANCH   1   8
TORSDOF 10
ENDMDL
MODEL 9
REMARK VINA RESULT:    -2.977     15.260     16.656
REMARK INTER + INTRA:          -6.273
REMARK INTER:                  -5.382
REMARK INTRA:                  -0.891
REMARK UNBOUND:                -1.556
REMARK SMILES CCCCCCCCCCCC=O
REMARK SMILES IDX 7 1 6 2 5 3 4 4 3 5 2 6 1 7 8 8 9 9 10 10 11 11 12 12 13 13
REMARK H PARENT
REMARK Flexibility Score: inf
ROOT
ATOM      1  C   UNL     1       7.418  -0.946  -7.664  1.00  0.00     0.000 C 
ENDROOT
BRANCH   1   2
ATOM      2  C   UNL     1       8.747  -0.548  -7.001  1.00  0.00     0.000 C 
BRANCH   2   3
ATOM      3  C   UNL     1       8.765   0.919  -6.535  1.00  0.00    -0.000 C 
BRANCH   3   4
ATOM      4  C   UNL     1      10.093   1.645  -6.837  1.00  0.00    -0.000 C 
BRANCH   4   5
ATOM      5  C   UNL     1       9.987   2.561  -8.068  1.00  0.00    -0.000 C 
BRANCH   5   6
ATOM      6  C   UNL     1      10.192   1.803  -9.389  1.00  0.00    -0.003 C 
ATOM      7  C   UNL     1       8.984   1.898 -10.320  1.00  0.00     0.004 C 
ENDBRANCH   5   6
ENDBRANCH   4   5
ENDBRANCH   3   4
ENDBRANCH   2   3
ENDBRANCH   1   2
BRANCH   1   8
ATOM      8  C   UNL     1       6.522   0.265  -7.964  1.00  0.00     0.000 C 
BRANCH   8   9
ATOM      9  C   UNL     1       5.827   0.159  -9.333  1.00  0.00     0.000 C 
BRANCH   9  10
ATOM     10  C   UNL     1       4.305  -0.014  -9.210  1.00  0.00     0.008 C 
BRANCH  10  11
ATOM     11  C   UNL     1       3.560   1.328  -9.174  1.00  0.00     0.072 C 
BRANCH  11  12
ATOM     12  C   UNL     1       2.196   1.165  -8.576  1.00  0.00     0.224 C 
ATOM     13  O   UNL     1       1.595   2.132  -8.133  1.00  0.00    -0.303 OA
ENDBRANCH  11  12
ENDBRANCH  10  11
ENDBRANCH   9  10
ENDBRANCH   8   9
ENDBRANCH   1   8
TORSDOF 10
ENDMDL
