MODEL 1
REMARK VINA RESULT:    -3.780      0.000      0.000
REMARK INTER + INTRA:          -4.476
REMARK INTER:                  -4.443
REMARK INTRA:                  -0.034
REMARK UNBOUND:                -0.034
REMARK SMILES O=C([O-])CCC(=O)[O-]
REMARK SMILES IDX 4 1 2 2 1 3 3 4 5 5 6 6 7 7 8 8
REMARK H PARENT
REMARK Flexibility Score: inf
ROOT
ATOM      1  C   UNL     1       3.163 -36.338  16.515  1.00  0.00     0.059 C 
ENDROOT
BRANCH   1   2
ATOM      2  C   UNL     1       3.105 -36.895  15.128  1.00  0.00     0.042 C 
ATOM      3  O   UNL     1       2.357 -36.367  14.264  1.00  0.00    -0.550 OA
ATOM      4  O   UNL     1       3.914 -37.967  14.775  1.00  0.00    -0.550 OA
ENDBRANCH   1   2
BRANCH   1   5
ATOM      5  C   UNL     1       3.131 -37.467  17.547  1.00  0.00     0.059 C 
BRANCH   5   6
ATOM      6  C   UNL     1       3.443 -36.938  18.911  1.00  0.00     0.042 C 
ATOM      7  O   UNL     1       2.827 -37.380  19.918  1.00  0.00    -0.550 OA
ATOM      8  O   UNL     1       4.446 -35.992  19.079  1.00  0.00    -0.550 OA
ENDBRANCH   5   6
ENDBRANCH   1   5
TORSDOF 3
ENDMDL
MODEL 2
REMARK VINA RESULT:    -3.756      1.180      4.241
REMARK INTER + INTRA:          -4.449
REMARK INTER:                  -4.419
REMARK INTRA:                  -0.030
REMARK UNBOUND:                -0.034
REMARK SMILES O=C([O-])CCC(=O)[O-]
REMARK SMILES IDX 4 1 2 2 1 3 3 4 5 5 6 6 7 7 8 8
REMARK H PARENT
REMARK Flexibility Score: inf
ROOT
ATOM      1  C   UNL     1       3.384 -37.381  18.356  1.00  0.00     0.059 C 
ENDROOT
BRANCH   1   2
ATOM      2  C   UNL     1       4.221 -36.993  19.534  1.00  0.00     0.042 C 
ATOM      3  O   UNL     1       3.910 -35.991  20.230  1.00  0.00    -0.550 OA
ATOM      4  O   UNL     1       5.317 -37.767  19.892  1.00  0.00    -0.550 OA
ENDBRANCH   1   2
BRANCH   1   5
ATOM      5  C   UNL     1       3.504 -36.334  17.247  1.00  0.00     0.059 C 
BRANCH   5   6
ATOM      6  C   UNL     1       2.972 -36.875  15.957  1.00  0.00     0.042 C 
ATOM      7  O   UNL     1       3.566 -37.821  15.374  1.00  0.00    -0.550 OA
ATOM      8  O   UNL     1       1.794 -36.369  15.423  1.00  0.00    -0.550 OA
ENDBRANCH   5   6
ENDBRANCH   1   5
TORSDOF 3
ENDMDL
MODEL 3
REMARK VINA RESULT:    -3.755      1.176      1.698
REMARK INTER + INTRA:          -4.447
REMARK INTER:                  -4.417
REMARK INTRA:                  -0.030
REMARK UNBOUND:                -0.034
REMARK SMILES O=C([O-])CCC(=O)[O-]
REMARK SMILES IDX 4 1 2 2 1 3 3 4 5 5 6 6 7 7 8 8
REMARK H PARENT
REMARK Flexibility Score: inf
ROOT
ATOM      1  C   UNL     1       3.483 -36.336  17.249  1.00  0.00     0.059 C 
ENDROOT
BRANCH   1   2
ATOM      2  C   UNL     1       2.962 -36.891  15.961  1.00  0.00     0.042 C 
ATOM      3  O   UNL     1       3.552 -37.852  15.400  1.00  0.00    -0.550 OA
ATOM      4  O   UNL     1       1.797 -36.380  15.405  1.00  0.00    -0.550 OA
ENDBRANCH   1   2
BRANCH   1   5
ATOM      5  C   UNL     1       3.347 -37.367  18.370  1.00  0.00     0.059 C 
BRANCH   5   6
ATOM      6  C   UNL     1       4.202 -36.985  19.538  1.00  0.00     0.042 C 
ATOM      7  O   UNL     1       3.897 -35.990  20.247  1.00  0.00    -0.550 OA
ATOM      8  O   UNL     1       5.306 -37.758  19.874  1.00  0.00    -0.550 OA
ENDBRANCH   5   6
ENDBRANCH   1   5
TORSDOF 3
ENDMDL
MODEL 4
REMARK VINA RESULT:    -3.754      0.153      4.262
REMARK INTER + INTRA:          -4.446
REMARK INTER:                  -4.411
REMARK INTRA:                  -0.035
REMARK UNBOUND:                -0.034
REMARK SMILES O=C([O-])CCC(=O)[O-]
REMARK SMILES IDX 4 1 2 2 1 3 3 4 5 5 6 6 7 7 8 8
REMARK H PARENT
REMARK Flexibility Score: inf
ROOT
ATOM      1  C   UNL     1       3.104 -37.493  17.441  1.00  0.00     0.059 C 
ENDROOT
BRANCH   1   2
ATOM      2  C   UNL     1       3.392 -37.006  18.826  1.00  0.00     0.042 C 
ATOM      3  O   UNL     1       4.281 -36.135  19.019  1.00  0.00    -0.550 OA
ATOM      4  O   UNL     1       2.645 -37.478  19.898  1.00  0.00    -0.550 OA
ENDBRANCH   1   2
BRANCH   1   5
ATOM      5  C   UNL     1       3.162 -36.335  16.444  1.00  0.00     0.059 C 
BRANCH   5   6
ATOM      6  C   UNL     1       3.113 -36.851  15.040  1.00  0.00     0.042 C 
ATOM      7  O   UNL     1       2.297 -36.361  14.214  1.00  0.00    -0.550 OA
ATOM      8  O   UNL     1       4.000 -37.838  14.629  1.00  0.00    -0.550 OA
ENDBRANCH   5   6
ENDBRANCH   1   5
TORSDOF 3
ENDMDL
MODEL 5
REMARK VINA RESULT:    -3.687      2.557      4.397
REMARK INTER + INTRA:          -4.367
REMARK INTER:                  -4.259
REMARK INTRA:                  -0.107
REMARK UNBOUND:                -0.034
REMARK SMILES O=C([O-])CCC(=O)[O-]
REMARK SMILES IDX 4 1 2 2 1 3 3 4 5 5 6 6 7 7 8 8
REMARK H PARENT
REMARK Flexibility Score: inf
ROOT
ATOM      1  C   UNL     1       4.729 -37.235  19.721  1.00  0.00     0.059 C 
ENDROOT
BRANCH   1   2
ATOM      2  C   UNL     1       5.394 -35.915  19.957  1.00  0.00     0.042 C 
ATOM      3  O   UNL     1       5.290 -34.993  19.106  1.00  0.00    -0.550 OA
ATOM      4  O   UNL     1       6.086 -35.687  21.139  1.00  0.00    -0.550 OA
ENDBRANCH   1   2
BRANCH   1   5
ATOM      5  C   UNL     1       3.227 -37.133  19.985  1.00  0.00     0.059 C 
BRANCH   5   6
ATOM      6  C   UNL     1       2.454 -37.501  18.758  1.00  0.00     0.042 C 
ATOM      7  O   UNL     1       3.024 -37.527  17.635  1.00  0.00    -0.550 OA
ATOM      8  O   UNL     1       1.116 -37.862  18.860  1.00  0.00    -0.550 OA
ENDBRANCH   5   6
ENDBRANCH   1   5
TORSDOF 3
ENDMDL
MODEL 6
REMARK VINA RESULT:    -3.675      2.514      3.428
REMARK INTER + INTRA:          -4.353
REMARK INTER:                  -4.246
REMARK INTRA:                  -0.107
REMARK UNBOUND:                -0.034
REMARK SMILES O=C([O-])CCC(=O)[O-]
REMARK SMILES IDX 4 1 2 2 1 3 3 4 5 5 6 6 7 7 8 8
REMARK H PARENT
REMARK Flexibility Score: inf
ROOT
ATOM      1  C   UNL     1       3.208 -37.131  19.911  1.00  0.00     0.059 C 
ENDROOT
BRANCH   1   2
ATOM      2  C   UNL     1       2.431 -37.498  18.687  1.00  0.00     0.042 C 
ATOM      3  O   UNL     1       2.995 -37.519  17.561  1.00  0.00    -0.550 OA
ATOM      4  O   UNL     1       1.096 -37.864  18.795  1.00  0.00    -0.550 OA
ENDBRANCH   1   2
BRANCH   1   5
ATOM      5  C   UNL     1       4.710 -37.201  19.633  1.00  0.00     0.059 C 
BRANCH   5   6
ATOM      6  C   UNL     1       5.350 -35.871  19.880  1.00  0.00     0.042 C 
ATOM      7  O   UNL     1       5.212 -34.937  19.046  1.00  0.00    -0.550 OA
ATOM      8  O   UNL     1       6.058 -35.647  21.054  1.00  0.00    -0.550 OA
ENDBRANCH   5   6
ENDBRANCH   1   5
TORSDOF 3
ENDMDL
MODEL 7
REMARK VINA RESULT:    -3.511      2.146      4.547
REMARK INTER + INTRA:          -4.161
REMARK INTER:                  -4.124
REMARK INTRA:                  -0.037
REMARK UNBOUND:                -0.034
REMARK SMILES O=C([O-])CCC(=O)[O-]
REMARK SMILES IDX 4 1 2 2 1 3 3 4 5 5 6 6 7 7 8 8
REMARK H PARENT
REMARK Flexibility Score: inf
ROOT
ATOM      1  C   UNL     1       4.497 -36.110  19.260  1.00  0.00     0.059 C 
ENDROOT
BRANCH   1   2
ATOM      2  C   UNL     1       5.310 -36.568  20.430  1.00  0.00     0.042 C 
ATOM      3  O   UNL     1       5.366 -37.791  20.723  1.00  0.00    -0.550 OA
ATOM      4  O   UNL     1       6.046 -35.649  21.167  1.00  0.00    -0.550 OA
ENDBRANCH   1   2
BRANCH   1   5
ATOM      5  C   UNL     1       3.624 -37.250  18.736  1.00  0.00     0.059 C 
BRANCH   5   6
ATOM      6  C   UNL     1       2.909 -36.832  17.490  1.00  0.00     0.042 C 
ATOM      7  O   UNL     1       1.685 -37.091  17.345  1.00  0.00    -0.550 OA
ATOM      8  O   UNL     1       3.582 -36.114  16.509  1.00  0.00    -0.550 OA
ENDBRANCH   5   6
ENDBRANCH   1   5
TORSDOF 3
ENDMDL
