MODEL 1
REMARK VINA RESULT:    -4.859      0.000      0.000
REMARK INTER + INTRA:          -8.472
REMARK INTER:                  -7.416
REMARK INTRA:                  -1.056
REMARK UNBOUND:                -1.056
REMARK SMILES OC[C@@H]1O[C@@](CO)(O[C@H]2O[C@H](CO)[C@@H](O)[C@@H](O)[C@@H]2O)[C@@H](O)[C@H]1O
REMARK SMILES IDX 8 1 9 2 11 3 14 4 10 5 16 6 18 7 12 8 13 9 15 11 17 13 19 15
REMARK SMILES IDX 5 17 20 18 4 19 22 20 3 21 6 22 7 23 21 25 23 27 2 29 1 30
REMARK H PARENT 13 10 15 12 17 14 19 16 7 24 21 26 23 28 1 31
REMARK Flexibility Score: inf
ROOT
ATOM      1  O   UNL     1     -17.180  -5.667  19.717  1.00  0.00    -0.313 OA
ENDROOT
BRANCH   1   2
ATOM      2  C   UNL     1     -17.123  -4.466  20.477  1.00  0.00     0.285 C 
ATOM      3  C   UNL     1     -19.439  -4.086  20.298  1.00  0.00     0.178 C 
ATOM      4  C   UNL     1     -19.697  -4.320  21.805  1.00  0.00     0.177 C 
ATOM      5  O   UNL     1     -18.141  -3.555  20.089  1.00  0.00    -0.341 OA
ATOM      6  C   UNL     1     -18.607  -5.226  22.416  1.00  0.00     0.179 C 
ATOM      7  C   UNL     1     -17.194  -4.777  21.986  1.00  0.00     0.202 C 
BRANCH   3   8
ATOM      8  C   UNL     1     -20.458  -3.097  19.719  1.00  0.00     0.191 C 
BRANCH   8   9
ATOM      9  O   UNL     1     -21.648  -3.771  19.415  1.00  0.00    -0.394 OA
ATOM     10  H   UNL     1     -21.433  -4.739  19.450  1.00  0.00     0.210 HD
ENDBRANCH   8   9
ENDBRANCH   3   8
BRANCH   4  11
ATOM     11  O   UNL     1     -20.956  -4.913  22.005  1.00  0.00    -0.387 OA
ATOM     12  H   UNL     1     -21.184  -5.409  21.175  1.00  0.00     0.211 HD
ENDBRANCH   4  11
BRANCH   6  13
ATOM     13  O   UNL     1     -18.819  -6.590  22.133  1.00  0.00    -0.387 OA
ATOM     14  H   UNL     1     -19.245  -6.667  21.243  1.00  0.00     0.211 HD
ENDBRANCH   6  13
BRANCH   7  15
ATOM     15  O   UNL     1     -16.829  -3.623  22.700  1.00  0.00    -0.385 OA
ATOM     16  H   UNL     1     -16.639  -2.916  22.030  1.00  0.00     0.211 HD
ENDBRANCH   7  15
ENDBRANCH   1   2
BRANCH   1  17
ATOM     17  C   UNL     1     -16.054  -5.877  18.864  1.00  0.00     0.224 C 
ATOM     18  C   UNL     1     -16.550  -6.446  17.521  1.00  0.00     0.208 C 
ATOM     19  O   UNL     1     -15.342  -4.675  18.591  1.00  0.00    -0.337 OA
ATOM     20  C   UNL     1     -15.564  -5.866  16.537  1.00  0.00     0.180 C 
ATOM     21  C   UNL     1     -15.191  -4.545  17.195  1.00  0.00     0.179 C 
BRANCH  17  22
ATOM     22  C   UNL     1     -15.095  -6.898  19.527  1.00  0.00     0.225 C 
BRANCH  22  23
ATOM     23  O   UNL     1     -14.372  -6.321  20.581  1.00  0.00    -0.391 OA
ATOM     24  H   UNL     1     -14.869  -5.507  20.856  1.00  0.00     0.210 HD
ENDBRANCH  22  23
ENDBRANCH  17  22
BRANCH  18  25
ATOM     25  O   UNL     1     -17.851  -5.982  17.244  1.00  0.00    -0.385 OA
ATOM     26  H   UNL     1     -18.482  -6.674  17.579  1.00  0.00     0.211 HD
ENDBRANCH  18  25
BRANCH  20  27
ATOM     27  O   UNL     1     -16.131  -5.655  15.269  1.00  0.00    -0.387 OA
ATOM     28  H   UNL     1     -16.679  -6.459  15.070  1.00  0.00     0.211 HD
ENDBRANCH  20  27
BRANCH  21  29
ATOM     29  C   UNL     1     -13.753  -4.119  16.874  1.00  0.00     0.191 C 
BRANCH  29  30
ATOM     30  O   UNL     1     -12.875  -5.209  16.968  1.00  0.00    -0.394 OA
ATOM     31  H   UNL     1     -12.113  -4.912  17.529  1.00  0.00     0.210 HD
ENDBRANCH  29  30
ENDBRANCH  21  29
ENDBRANCH   1  17
TORSDOF 13
ENDMDL
MODEL 2
REMARK VINA RESULT:    -4.793      2.515      3.642
REMARK INTER + INTRA:          -8.371
REMARK INTER:                  -7.242
REMARK INTRA:                  -1.129
REMARK UNBOUND:                -1.056
REMARK SMILES OC[C@@H]1O[C@@](CO)(O[C@H]2O[C@H](CO)[C@@H](O)[C@@H](O)[C@@H]2O)[C@@H](O)[C@H]1O
REMARK SMILES IDX 8 1 9 2 11 3 14 4 10 5 16 6 18 7 12 8 13 9 15 11 17 13 19 15
REMARK SMILES IDX 5 17 20 18 4 19 22 20 3 21 6 22 7 23 21 25 23 27 2 29 1 30
REMARK H PARENT 13 10 15 12 17 14 19 16 7 24 21 26 23 28 1 31
REMARK Flexibility Score: inf
ROOT
ATOM      1  O   UNL     1     -18.103  -4.909  17.408  1.00  0.00    -0.313 OA
ENDROOT
BRANCH   1   2
ATOM      2  C   UNL     1     -19.079  -4.343  18.275  1.00  0.00     0.285 C 
ATOM      3  C   UNL     1     -20.509  -3.757  16.500  1.00  0.00     0.178 C 
ATOM      4  C   UNL     1     -21.601  -4.772  16.910  1.00  0.00     0.177 C 
ATOM      5  O   UNL     1     -19.799  -3.298  17.639  1.00  0.00    -0.341 OA
ATOM      6  C   UNL     1     -20.994  -5.943  17.710  1.00  0.00     0.179 C 
ATOM      7  C   UNL     1     -20.029  -5.438  18.805  1.00  0.00     0.202 C 
BRANCH   3   8
ATOM      8  C   UNL     1     -21.130  -2.540  15.804  1.00  0.00     0.191 C 
BRANCH   8   9
ATOM      9  O   UNL     1     -21.518  -2.889  14.503  1.00  0.00    -0.394 OA
ATOM     10  H   UNL     1     -20.745  -3.366  14.104  1.00  0.00     0.210 HD
ENDBRANCH   8   9
ENDBRANCH   3   8
BRANCH   4  11
ATOM     11  O   UNL     1     -22.257  -5.280  15.774  1.00  0.00    -0.387 OA
ATOM     12  H   UNL     1     -23.106  -5.691  16.083  1.00  0.00     0.211 HD
ENDBRANCH   4  11
BRANCH   6  13
ATOM     13  O   UNL     1     -20.371  -6.896  16.880  1.00  0.00    -0.387 OA
ATOM     14  H   UNL     1     -20.567  -7.800  17.231  1.00  0.00     0.211 HD
ENDBRANCH   6  13
BRANCH   7  15
ATOM     15  O   UNL     1     -20.769  -4.909  19.877  1.00  0.00    -0.385 OA
ATOM     16  H   UNL     1     -20.325  -5.211  20.711  1.00  0.00     0.211 HD
ENDBRANCH   7  15
ENDBRANCH   1   2
BRANCH   1  17
ATOM     17  C   UNL     1     -16.753  -4.679  17.815  1.00  0.00     0.224 C 
ATOM     18  C   UNL     1     -15.819  -5.529  16.932  1.00  0.00     0.208 C 
ATOM     19  O   UNL     1     -16.363  -3.317  17.676  1.00  0.00    -0.337 OA
ATOM     20  C   UNL     1     -14.583  -4.668  16.840  1.00  0.00     0.180 C 
ATOM     21  C   UNL     1     -15.162  -3.263  16.939  1.00  0.00     0.179 C 
BRANCH  17  22
ATOM     22  C   UNL     1     -16.586  -5.108  19.294  1.00  0.00     0.225 C 
BRANCH  22  23
ATOM     23  O   UNL     1     -16.161  -4.042  20.098  1.00  0.00    -0.391 OA
ATOM     24  H   UNL     1     -16.815  -3.966  20.841  1.00  0.00     0.210 HD
ENDBRANCH  22  23
ENDBRANCH  17  22
BRANCH  18  25
ATOM     25  O   UNL     1     -16.386  -5.712  15.655  1.00  0.00    -0.385 OA
ATOM     26  H   UNL     1     -15.649  -5.614  14.995  1.00  0.00     0.211 HD
ENDBRANCH  18  25
BRANCH  20  27
ATOM     27  O   UNL     1     -13.893  -4.845  15.630  1.00  0.00    -0.387 OA
ATOM     28  H   UNL     1     -13.553  -3.949  15.368  1.00  0.00     0.211 HD
ENDBRANCH  20  27
BRANCH  21  29
ATOM     29  C   UNL     1     -14.195  -2.279  17.609  1.00  0.00     0.191 C 
BRANCH  29  30
ATOM     30  O   UNL     1     -14.009  -2.603  18.960  1.00  0.00    -0.394 OA
ATOM     31  H   UNL     1     -13.917  -1.744  19.449  1.00  0.00     0.210 HD
ENDBRANCH  29  30
ENDBRANCH  21  29
ENDBRANCH   1  17
TORSDOF 13
ENDMDL
MODEL 3
REMARK VINA RESULT:    -4.757      2.570      5.853
REMARK INTER + INTRA:          -8.317
REMARK INTER:                  -6.878
REMARK INTRA:                  -1.439
REMARK UNBOUND:                -1.056
REMARK SMILES OC[C@@H]1O[C@@](CO)(O[C@H]2O[C@H](CO)[C@@H](O)[C@@H](O)[C@@H]2O)[C@@H](O)[C@H]1O
REMARK SMILES IDX 8 1 9 2 11 3 14 4 10 5 16 6 18 7 12 8 13 9 15 11 17 13 19 15
REMARK SMILES IDX 5 17 20 18 4 19 22 20 3 21 6 22 7 23 21 25 23 27 2 29 1 30
REMARK H PARENT 13 10 15 12 17 14 19 16 7 24 21 26 23 28 1 31
REMARK Flexibility Score: inf
ROOT
ATOM      1  O   UNL     1     -18.840  -4.709  18.306  1.00  0.00    -0.313 OA
ENDROOT
BRANCH   1   2
ATOM      2  C   UNL     1     -17.781  -4.724  17.356  1.00  0.00     0.285 C 
ATOM      3  C   UNL     1     -16.247  -3.746  18.850  1.00  0.00     0.178 C 
ATOM      4  C   UNL     1     -15.376  -5.020  18.949  1.00  0.00     0.177 C 
ATOM      5  O   UNL     1     -16.866  -3.661  17.577  1.00  0.00    -0.341 OA
ATOM      6  C   UNL     1     -16.206  -6.283  18.635  1.00  0.00     0.179 C 
ATOM      7  C   UNL     1     -17.066  -6.091  17.366  1.00  0.00     0.202 C 
BRANCH   3   8
ATOM      8  C   UNL     1     -15.396  -2.487  19.052  1.00  0.00     0.191 C 
BRANCH   8   9
ATOM      9  O   UNL     1     -14.070  -2.751  18.683  1.00  0.00    -0.394 OA
ATOM     10  H   UNL     1     -13.692  -1.886  18.375  1.00  0.00     0.210 HD
ENDBRANCH   8   9
ENDBRANCH   3   8
BRANCH   4  11
ATOM     11  O   UNL     1     -14.820  -5.141  20.235  1.00  0.00    -0.387 OA
ATOM     12  H   UNL     1     -13.839  -5.245  20.124  1.00  0.00     0.211 HD
ENDBRANCH   4  11
BRANCH   6  13
ATOM     13  O   UNL     1     -16.994  -6.695  19.728  1.00  0.00    -0.387 OA
ATOM     14  H   UNL     1     -17.467  -7.528  19.483  1.00  0.00     0.211 HD
ENDBRANCH   6  13
BRANCH   7  15
ATOM     15  O   UNL     1     -16.247  -6.178  16.227  1.00  0.00    -0.385 OA
ATOM     16  H   UNL     1     -15.746  -5.324  16.165  1.00  0.00     0.211 HD
ENDBRANCH   7  15
ENDBRANCH   1   2
BRANCH   1  17
ATOM     17  C   UNL     1     -20.098  -4.289  17.776  1.00  0.00     0.224 C 
ATOM     18  C   UNL     1     -20.573  -3.048  18.556  1.00  0.00     0.208 C 
ATOM     19  O   UNL     1     -20.023  -3.937  16.400  1.00  0.00    -0.337 OA
ATOM     20  C   UNL     1     -21.324  -2.270  17.503  1.00  0.00     0.180 C 
ATOM     21  C   UNL     1     -20.583  -2.654  16.229  1.00  0.00     0.179 C 
BRANCH  17  22
ATOM     22  C   UNL     1     -21.132  -5.429  17.955  1.00  0.00     0.225 C 
BRANCH  22  23
ATOM     23  O   UNL     1     -21.430  -6.054  16.736  1.00  0.00    -0.391 OA
ATOM     24  H   UNL     1     -21.759  -5.345  16.124  1.00  0.00     0.210 HD
ENDBRANCH  22  23
ENDBRANCH  17  22
BRANCH  18  25
ATOM     25  O   UNL     1     -19.467  -2.308  19.018  1.00  0.00    -0.385 OA
ATOM     26  H   UNL     1     -19.746  -1.870  19.865  1.00  0.00     0.211 HD
ENDBRANCH  18  25
BRANCH  20  27
ATOM     27  O   UNL     1     -21.269  -0.883  17.719  1.00  0.00    -0.387 OA
ATOM     28  H   UNL     1     -21.730  -0.461  16.948  1.00  0.00     0.211 HD
ENDBRANCH  20  27
BRANCH  21  29
ATOM     29  C   UNL     1     -21.500  -2.655  15.000  1.00  0.00     0.191 C 
BRANCH  29  30
ATOM     30  O   UNL     1     -22.222  -3.855  14.916  1.00  0.00    -0.394 OA
ATOM     31  H   UNL     1     -21.765  -4.504  15.511  1.00  0.00     0.210 HD
ENDBRANCH  29  30
ENDBRANCH  21  29
ENDBRANCH   1  17
TORSDOF 13
ENDMDL
MODEL 4
REMARK VINA RESULT:    -4.740     11.746     14.625
REMARK INTER + INTRA:          -8.290
REMARK INTER:                  -7.234
REMARK INTRA:                  -1.056
REMARK UNBOUND:                -1.056
REMARK SMILES OC[C@@H]1O[C@@](CO)(O[C@H]2O[C@H](CO)[C@@H](O)[C@@H](O)[C@@H]2O)[C@@H](O)[C@H]1O
REMARK SMILES IDX 8 1 9 2 11 3 14 4 10 5 16 6 18 7 12 8 13 9 15 11 17 13 19 15
REMARK SMILES IDX 5 17 20 18 4 19 22 20 3 21 6 22 7 23 21 25 23 27 2 29 1 30
REMARK H PARENT 13 10 15 12 17 14 19 16 7 24 21 26 23 28 1 31
REMARK Flexibility Score: inf
ROOT
ATOM      1  O   UNL     1     -16.065   3.034  29.611  1.00  0.00    -0.313 OA
ENDROOT
BRANCH   1   2
ATOM      2  C   UNL     1     -15.531   2.414  30.774  1.00  0.00     0.285 C 
ATOM      3  C   UNL     1     -17.607   1.504  31.407  1.00  0.00     0.178 C 
ATOM      4  C   UNL     1     -17.160   0.045  31.152  1.00  0.00     0.177 C 
ATOM      5  O   UNL     1     -16.504   2.303  31.802  1.00  0.00    -0.341 OA
ATOM      6  C   UNL     1     -16.019  -0.009  30.115  1.00  0.00     0.179 C 
ATOM      7  C   UNL     1     -14.927   1.038  30.423  1.00  0.00     0.202 C 
BRANCH   3   8
ATOM      8  C   UNL     1     -18.662   1.564  32.518  1.00  0.00     0.191 C 
BRANCH   8   9
ATOM      9  O   UNL     1     -18.369   2.622  33.389  1.00  0.00    -0.394 OA
ATOM     10  H   UNL     1     -19.222   2.851  33.841  1.00  0.00     0.210 HD
ENDBRANCH   8   9
ENDBRANCH   3   8
BRANCH   4  11
ATOM     11  O   UNL     1     -18.240  -0.730  30.692  1.00  0.00    -0.387 OA
ATOM     12  H   UNL     1     -17.858  -1.495  30.187  1.00  0.00     0.211 HD
ENDBRANCH   4  11
BRANCH   6  13
ATOM     13  O   UNL     1     -16.487   0.114  28.792  1.00  0.00    -0.387 OA
ATOM     14  H   UNL     1     -17.295  -0.446  28.688  1.00  0.00     0.211 HD
ENDBRANCH   6  13
BRANCH   7  15
ATOM     15  O   UNL     1     -14.147   0.600  31.508  1.00  0.00    -0.385 OA
ATOM     16  H   UNL     1     -14.456   1.102  32.307  1.00  0.00     0.211 HD
ENDBRANCH   7  15
ENDBRANCH   1   2
BRANCH   1  17
ATOM     17  C   UNL     1     -15.731   4.416  29.476  1.00  0.00     0.224 C 
ATOM     18  C   UNL     1     -17.033   5.241  29.470  1.00  0.00     0.208 C 
ATOM     19  O   UNL     1     -14.919   4.890  30.544  1.00  0.00    -0.337 OA
ATOM     20  C   UNL     1     -16.606   6.527  30.135  1.00  0.00     0.180 C 
ATOM     21  C   UNL     1     -15.511   6.052  31.081  1.00  0.00     0.179 C 
BRANCH  17  22
ATOM     22  C   UNL     1     -14.985   4.630  28.135  1.00  0.00     0.225 C 
BRANCH  22  23
ATOM     23  O   UNL     1     -13.605   4.785  28.328  1.00  0.00    -0.391 OA
ATOM     24  H   UNL     1     -13.471   4.969  29.294  1.00  0.00     0.210 HD
ENDBRANCH  22  23
ENDBRANCH  17  22
BRANCH  18  25
ATOM     25  O   UNL     1     -18.024   4.597  30.235  1.00  0.00    -0.385 OA
ATOM     26  H   UNL     1     -18.341   3.820  29.702  1.00  0.00     0.211 HD
ENDBRANCH  18  25
BRANCH  20  27
ATOM     27  O   UNL     1     -17.654   7.138  30.843  1.00  0.00    -0.387 OA
ATOM     28  H   UNL     1     -17.679   6.705  31.736  1.00  0.00     0.211 HD
ENDBRANCH  20  27
BRANCH  21  29
ATOM     29  C   UNL     1     -14.433   7.118  31.308  1.00  0.00     0.191 C 
BRANCH  29  30
ATOM     30  O   UNL     1     -14.843   8.046  32.276  1.00  0.00    -0.394 OA
ATOM     31  H   UNL     1     -14.042   8.581  32.515  1.00  0.00     0.210 HD
ENDBRANCH  29  30
ENDBRANCH  21  29
ENDBRANCH   1  17
TORSDOF 13
ENDMDL
MODEL 5
REMARK VINA RESULT:    -4.725      1.132      2.248
REMARK INTER + INTRA:          -8.268
REMARK INTER:                  -7.381
REMARK INTRA:                  -0.887
REMARK UNBOUND:                -1.056
REMARK SMILES OC[C@@H]1O[C@@](CO)(O[C@H]2O[C@H](CO)[C@@H](O)[C@@H](O)[C@@H]2O)[C@@H](O)[C@H]1O
REMARK SMILES IDX 8 1 9 2 11 3 14 4 10 5 16 6 18 7 12 8 13 9 15 11 17 13 19 15
REMARK SMILES IDX 5 17 20 18 4 19 22 20 3 21 6 22 7 23 21 25 23 27 2 29 1 30
REMARK H PARENT 13 10 15 12 17 14 19 16 7 24 21 26 23 28 1 31
REMARK Flexibility Score: inf
ROOT
ATOM      1  O   UNL     1     -17.485  -5.430  19.405  1.00  0.00    -0.313 OA
ENDROOT
BRANCH   1   2
ATOM      2  C   UNL     1     -17.509  -5.797  20.779  1.00  0.00     0.285 C 
ATOM      3  C   UNL     1     -17.497  -3.562  21.515  1.00  0.00     0.178 C 
ATOM      4  C   UNL     1     -18.932  -3.637  22.088  1.00  0.00     0.177 C 
ATOM      5  O   UNL     1     -16.862  -4.828  21.590  1.00  0.00    -0.341 OA
ATOM      6  C   UNL     1     -19.755  -4.728  21.372  1.00  0.00     0.179 C 
ATOM      7  C   UNL     1     -18.958  -6.045  21.247  1.00  0.00     0.202 C 
BRANCH   3   8
ATOM      8  C   UNL     1     -16.648  -2.556  22.302  1.00  0.00     0.191 C 
BRANCH   8   9
ATOM      9  O   UNL     1     -17.286  -2.245  23.510  1.00  0.00    -0.394 OA
ATOM     10  H   UNL     1     -17.538  -3.113  23.920  1.00  0.00     0.210 HD
ENDBRANCH   8   9
ENDBRANCH   3   8
BRANCH   4  11
ATOM     11  O   UNL     1     -19.585  -2.399  21.948  1.00  0.00    -0.387 OA
ATOM     12  H   UNL     1     -18.883  -1.697  21.924  1.00  0.00     0.211 HD
ENDBRANCH   4  11
BRANCH   6  13
ATOM     13  O   UNL     1     -20.240  -4.302  20.120  1.00  0.00    -0.387 OA
ATOM     14  H   UNL     1     -19.645  -3.592  19.774  1.00  0.00     0.211 HD
ENDBRANCH   6  13
BRANCH   7  15
ATOM     15  O   UNL     1     -18.923  -6.694  22.493  1.00  0.00    -0.385 OA
ATOM     16  H   UNL     1     -19.178  -6.021  23.177  1.00  0.00     0.211 HD
ENDBRANCH   7  15
ENDBRANCH   1   2
BRANCH   1  17
ATOM     17  C   UNL     1     -16.262  -5.738  18.736  1.00  0.00     0.224 C 
ATOM     18  C   UNL     1     -16.589  -6.459  17.414  1.00  0.00     0.208 C 
ATOM     19  O   UNL     1     -15.502  -4.576  18.421  1.00  0.00    -0.337 OA
ATOM     20  C   UNL     1     -15.475  -5.998  16.506  1.00  0.00     0.180 C 
ATOM     21  C   UNL     1     -15.169  -4.610  17.051  1.00  0.00     0.179 C 
BRANCH  17  22
ATOM     22  C   UNL     1     -15.413  -6.675  19.631  1.00  0.00     0.225 C 
BRANCH  22  23
ATOM     23  O   UNL     1     -14.384  -5.979  20.281  1.00  0.00    -0.391 OA
ATOM     24  H   UNL     1     -13.641  -6.624  20.412  1.00  0.00     0.210 HD
ENDBRANCH  22  23
ENDBRANCH  17  22
BRANCH  18  25
ATOM     25  O   UNL     1     -17.836  -6.031  16.918  1.00  0.00    -0.385 OA
ATOM     26  H   UNL     1     -17.649  -5.419  16.158  1.00  0.00     0.211 HD
ENDBRANCH  18  25
BRANCH  20  27
ATOM     27  O   UNL     1     -15.870  -5.936  15.160  1.00  0.00    -0.387 OA
ATOM     28  H   UNL     1     -16.832  -6.180  15.139  1.00  0.00     0.211 HD
ENDBRANCH  20  27
BRANCH  21  29
ATOM     29  C   UNL     1     -13.696  -4.224  16.873  1.00  0.00     0.191 C 
BRANCH  29  30
ATOM     30  O   UNL     1     -12.875  -5.361  16.899  1.00  0.00    -0.394 OA
ATOM     31  H   UNL     1     -12.252  -5.279  16.131  1.00  0.00     0.210 HD
ENDBRANCH  29  30
ENDBRANCH  21  29
ENDBRANCH   1  17
TORSDOF 13
ENDMDL
MODEL 6
REMARK VINA RESULT:    -4.725      1.785      6.099
REMARK INTER + INTRA:          -8.268
REMARK INTER:                  -7.107
REMARK INTRA:                  -1.161
REMARK UNBOUND:                -1.056
REMARK SMILES OC[C@@H]1O[C@@](CO)(O[C@H]2O[C@H](CO)[C@@H](O)[C@@H](O)[C@@H]2O)[C@@H](O)[C@H]1O
REMARK SMILES IDX 8 1 9 2 11 3 14 4 10 5 16 6 18 7 12 8 13 9 15 11 17 13 19 15
REMARK SMILES IDX 5 17 20 18 4 19 22 20 3 21 6 22 7 23 21 25 23 27 2 29 1 30
REMARK H PARENT 13 10 15 12 17 14 19 16 7 24 21 26 23 28 1 31
REMARK Flexibility Score: inf
ROOT
ATOM      1  O   UNL     1     -16.915  -5.443  18.435  1.00  0.00    -0.313 OA
ENDROOT
BRANCH   1   2
ATOM      2  C   UNL     1     -16.898  -5.016  17.078  1.00  0.00     0.285 C 
ATOM      3  C   UNL     1     -15.386  -3.265  17.506  1.00  0.00     0.178 C 
ATOM      4  C   UNL     1     -14.244  -3.915  16.690  1.00  0.00     0.177 C 
ATOM      5  O   UNL     1     -16.649  -3.622  16.972  1.00  0.00    -0.341 OA
ATOM      6  C   UNL     1     -14.419  -5.447  16.621  1.00  0.00     0.179 C 
ATOM      7  C   UNL     1     -15.871  -5.833  16.267  1.00  0.00     0.202 C 
BRANCH   3   8
ATOM      8  C   UNL     1     -15.272  -1.736  17.480  1.00  0.00     0.191 C 
BRANCH   8   9
ATOM      9  O   UNL     1     -14.411  -1.310  18.501  1.00  0.00    -0.394 OA
ATOM     10  H   UNL     1     -13.657  -1.954  18.512  1.00  0.00     0.210 HD
ENDBRANCH   8   9
ENDBRANCH   3   8
BRANCH   4  11
ATOM     11  O   UNL     1     -12.994  -3.618  17.264  1.00  0.00    -0.387 OA
ATOM     12  H   UNL     1     -12.834  -2.647  17.134  1.00  0.00     0.211 HD
ENDBRANCH   4  11
BRANCH   6  13
ATOM     13  O   UNL     1     -13.991  -6.091  17.798  1.00  0.00    -0.387 OA
ATOM     14  H   UNL     1     -13.282  -5.545  18.220  1.00  0.00     0.211 HD
ENDBRANCH   6  13
BRANCH   7  15
ATOM     15  O   UNL     1     -16.098  -5.607  14.898  1.00  0.00    -0.385 OA
ATOM     16  H   UNL     1     -15.220  -5.383  14.493  1.00  0.00     0.211 HD
ENDBRANCH   7  15
ENDBRANCH   1   2
BRANCH   1  17
ATOM     17  C   UNL     1     -18.213  -5.460  19.030  1.00  0.00     0.224 C 
ATOM     18  C   UNL     1     -18.255  -6.577  20.091  1.00  0.00     0.208 C 
ATOM     19  O   UNL     1     -18.536  -4.233  19.675  1.00  0.00    -0.337 OA
ATOM     20  C   UNL     1     -19.198  -6.009  21.123  1.00  0.00     0.180 C 
ATOM     21  C   UNL     1     -18.956  -4.511  20.992  1.00  0.00     0.179 C 
BRANCH  17  22
ATOM     22  C   UNL     1     -19.270  -5.755  17.937  1.00  0.00     0.225 C 
BRANCH  22  23
ATOM     23  O   UNL     1     -19.569  -7.123  17.861  1.00  0.00    -0.391 OA
ATOM     24  H   UNL     1     -18.760  -7.573  17.505  1.00  0.00     0.210 HD
ENDBRANCH  22  23
ENDBRANCH  17  22
BRANCH  18  25
ATOM     25  O   UNL     1     -16.977  -6.771  20.648  1.00  0.00    -0.385 OA
ATOM     26  H   UNL     1     -16.467  -5.930  20.502  1.00  0.00     0.211 HD
ENDBRANCH  18  25
BRANCH  20  27
ATOM     27  O   UNL     1     -18.904  -6.455  22.422  1.00  0.00    -0.387 OA
ATOM     28  H   UNL     1     -17.914  -6.466  22.497  1.00  0.00     0.211 HD
ENDBRANCH  20  27
BRANCH  21  29
ATOM     29  C   UNL     1     -20.209  -3.687  21.314  1.00  0.00     0.191 C 
BRANCH  29  30
ATOM     30  O   UNL     1     -21.108  -4.429  22.093  1.00  0.00    -0.394 OA
ATOM     31  H   UNL     1     -20.680  -4.555  22.979  1.00  0.00     0.210 HD
ENDBRANCH  29  30
ENDBRANCH  21  29
ENDBRANCH   1  17
TORSDOF 13
ENDMDL
MODEL 7
REMARK VINA RESULT:    -4.701      2.525      5.953
REMARK INTER + INTRA:          -8.230
REMARK INTER:                  -7.087
REMARK INTRA:                  -1.143
REMARK UNBOUND:                -1.056
REMARK SMILES OC[C@@H]1O[C@@](CO)(O[C@H]2O[C@H](CO)[C@@H](O)[C@@H](O)[C@@H]2O)[C@@H](O)[C@H]1O
REMARK SMILES IDX 8 1 9 2 11 3 14 4 10 5 16 6 18 7 12 8 13 9 15 11 17 13 19 15
REMARK SMILES IDX 5 17 20 18 4 19 22 20 3 21 6 22 7 23 21 25 23 27 2 29 1 30
REMARK H PARENT 13 10 15 12 17 14 19 16 7 24 21 26 23 28 1 31
REMARK Flexibility Score: inf
ROOT
ATOM      1  O   UNL     1     -19.209  -4.340  18.204  1.00  0.00    -0.313 OA
ENDROOT
BRANCH   1   2
ATOM      2  C   UNL     1     -18.743  -5.608  18.649  1.00  0.00     0.285 C 
ATOM      3  C   UNL     1     -16.641  -5.346  17.623  1.00  0.00     0.178 C 
ATOM      4  C   UNL     1     -15.882  -5.263  18.968  1.00  0.00     0.177 C 
ATOM      5  O   UNL     1     -17.794  -6.161  17.749  1.00  0.00    -0.341 OA
ATOM      6  C   UNL     1     -16.809  -4.764  20.096  1.00  0.00     0.179 C 
ATOM      7  C   UNL     1     -18.167  -5.500  20.076  1.00  0.00     0.202 C 
BRANCH   3   8
ATOM      8  C   UNL     1     -15.749  -5.947  16.530  1.00  0.00     0.191 C 
BRANCH   8   9
ATOM      9  O   UNL     1     -16.264  -5.618  15.269  1.00  0.00    -0.394 OA
ATOM     10  H   UNL     1     -16.849  -6.376  15.005  1.00  0.00     0.210 HD
ENDBRANCH   8   9
ENDBRANCH   3   8
BRANCH   4  11
ATOM     11  O   UNL     1     -14.779  -4.397  18.861  1.00  0.00    -0.387 OA
ATOM     12  H   UNL     1     -14.021  -4.928  18.500  1.00  0.00     0.211 HD
ENDBRANCH   4  11
BRANCH   6  13
ATOM     13  O   UNL     1     -16.986  -3.366  20.070  1.00  0.00    -0.387 OA
ATOM     14  H   UNL     1     -17.296  -3.102  19.169  1.00  0.00     0.211 HD
ENDBRANCH   6  13
BRANCH   7  15
ATOM     15  O   UNL     1     -18.006  -6.797  20.594  1.00  0.00    -0.385 OA
ATOM     16  H   UNL     1     -18.701  -6.918  21.292  1.00  0.00     0.211 HD
ENDBRANCH   7  15
ENDBRANCH   1   2
BRANCH   1  17
ATOM     17  C   UNL     1     -20.622  -4.269  18.008  1.00  0.00     0.224 C 
ATOM     18  C   UNL     1     -20.908  -3.377  16.785  1.00  0.00     0.208 C 
ATOM     19  O   UNL     1     -21.206  -5.543  17.764  1.00  0.00    -0.337 OA
ATOM     20  C   UNL     1     -22.154  -4.004  16.209  1.00  0.00     0.180 C 
ATOM     21  C   UNL     1     -21.984  -5.468  16.591  1.00  0.00     0.179 C 
BRANCH  17  22
ATOM     22  C   UNL     1     -21.278  -3.639  19.262  1.00  0.00     0.225 C 
BRANCH  22  23
ATOM     23  O   UNL     1     -21.980  -4.592  20.014  1.00  0.00    -0.391 OA
ATOM     24  H   UNL     1     -22.831  -4.765  19.534  1.00  0.00     0.210 HD
ENDBRANCH  22  23
ENDBRANCH  17  22
BRANCH  18  25
ATOM     25  O   UNL     1     -19.846  -3.457  15.863  1.00  0.00    -0.385 OA
ATOM     26  H   UNL     1     -20.229  -3.796  15.010  1.00  0.00     0.211 HD
ENDBRANCH  18  25
BRANCH  20  27
ATOM     27  O   UNL     1     -22.236  -3.853  14.814  1.00  0.00    -0.387 OA
ATOM     28  H   UNL     1     -22.249  -2.876  14.639  1.00  0.00     0.211 HD
ENDBRANCH  20  27
BRANCH  21  29
ATOM     29  C   UNL     1     -23.328  -6.170  16.822  1.00  0.00     0.191 C 
BRANCH  29  30
ATOM     30  O   UNL     1     -23.652  -6.193  18.186  1.00  0.00    -0.394 OA
ATOM     31  H   UNL     1     -24.514  -5.712  18.282  1.00  0.00     0.210 HD
ENDBRANCH  29  30
ENDBRANCH  21  29
ENDBRANCH   1  17
TORSDOF 13
ENDMDL
MODEL 8
REMARK VINA RESULT:    -4.612      2.793      4.676
REMARK INTER + INTRA:          -8.095
REMARK INTER:                  -6.803
REMARK INTRA:                  -1.292
REMARK UNBOUND:                -1.056
REMARK SMILES OC[C@@H]1O[C@@](CO)(O[C@H]2O[C@H](CO)[C@@H](O)[C@@H](O)[C@@H]2O)[C@@H](O)[C@H]1O
REMARK SMILES IDX 8 1 9 2 11 3 14 4 10 5 16 6 18 7 12 8 13 9 15 11 17 13 19 15
REMARK SMILES IDX 5 17 20 18 4 19 22 20 3 21 6 22 7 23 21 25 23 27 2 29 1 30
REMARK H PARENT 13 10 15 12 17 14 19 16 7 24 21 26 23 28 1 31
REMARK Flexibility Score: inf
ROOT
ATOM      1  O   UNL     1     -15.984  -3.489  18.172  1.00  0.00    -0.313 OA
ENDROOT
BRANCH   1   2
ATOM      2  C   UNL     1     -16.087  -4.409  19.253  1.00  0.00     0.285 C 
ATOM      3  C   UNL     1     -18.351  -4.878  18.815  1.00  0.00     0.178 C 
ATOM      4  C   UNL     1     -18.070  -6.337  18.385  1.00  0.00     0.177 C 
ATOM      5  O   UNL     1     -17.404  -4.450  19.780  1.00  0.00    -0.341 OA
ATOM      6  C   UNL     1     -16.624  -6.492  17.870  1.00  0.00     0.179 C 
ATOM      7  C   UNL     1     -15.612  -5.810  18.816  1.00  0.00     0.202 C 
BRANCH   3   8
ATOM      8  C   UNL     1     -19.750  -4.750  19.430  1.00  0.00     0.191 C 
BRANCH   8   9
ATOM      9  O   UNL     1     -20.703  -4.627  18.410  1.00  0.00    -0.394 OA
ATOM     10  H   UNL     1     -21.589  -4.698  18.851  1.00  0.00     0.210 HD
ENDBRANCH   8   9
ENDBRANCH   3   8
BRANCH   4  11
ATOM     11  O   UNL     1     -18.966  -6.736  17.376  1.00  0.00    -0.387 OA
ATOM     12  H   UNL     1     -18.764  -6.190  16.571  1.00  0.00     0.211 HD
ENDBRANCH   4  11
BRANCH   6  13
ATOM     13  O   UNL     1     -16.473  -6.037  16.545  1.00  0.00    -0.387 OA
ATOM     14  H   UNL     1     -16.363  -5.054  16.558  1.00  0.00     0.211 HD
ENDBRANCH   6  13
BRANCH   7  15
ATOM     15  O   UNL     1     -15.435  -6.602  19.964  1.00  0.00    -0.385 OA
ATOM     16  H   UNL     1     -15.209  -5.985  20.709  1.00  0.00     0.211 HD
ENDBRANCH   7  15
ENDBRANCH   1   2
BRANCH   1  17
ATOM     17  C   UNL     1     -15.354  -2.253  18.510  1.00  0.00     0.224 C 
ATOM     18  C   UNL     1     -16.333  -1.101  18.210  1.00  0.00     0.208 C 
ATOM     19  O   UNL     1     -15.000  -2.177  19.886  1.00  0.00    -0.337 OA
ATOM     20  C   UNL     1     -15.984  -0.091  19.275  1.00  0.00     0.180 C 
ATOM     21  C   UNL     1     -15.519  -0.980  20.421  1.00  0.00     0.179 C 
BRANCH  17  22
ATOM     22  C   UNL     1     -14.081  -2.077  17.645  1.00  0.00     0.225 C 
BRANCH  22  23
ATOM     23  O   UNL     1     -13.291  -3.236  17.643  1.00  0.00    -0.391 OA
ATOM     24  H   UNL     1     -13.900  -3.996  17.833  1.00  0.00     0.210 HD
ENDBRANCH  22  23
ENDBRANCH  17  22
BRANCH  18  25
ATOM     25  O   UNL     1     -17.663  -1.538  18.364  1.00  0.00    -0.385 OA
ATOM     26  H   UNL     1     -17.871  -1.496  19.335  1.00  0.00     0.211 HD
ENDBRANCH  18  25
BRANCH  20  27
ATOM     27  O   UNL     1     -17.088   0.689  19.658  1.00  0.00    -0.387 OA
ATOM     28  H   UNL     1     -17.849   0.392  19.094  1.00  0.00     0.211 HD
ENDBRANCH  20  27
BRANCH  21  29
ATOM     29  C   UNL     1     -14.451  -0.302  21.289  1.00  0.00     0.191 C 
BRANCH  29  30
ATOM     30  O   UNL     1     -14.505   1.093  21.149  1.00  0.00    -0.394 OA
ATOM     31  H   UNL     1     -15.441   1.318  20.908  1.00  0.00     0.210 HD
ENDBRANCH  29  30
ENDBRANCH  21  29
ENDBRANCH   1  17
TORSDOF 13
ENDMDL
MODEL 9
REMARK VINA RESULT:    -4.562      3.139      5.777
REMARK INTER + INTRA:          -8.019
REMARK INTER:                  -7.005
REMARK INTRA:                  -1.013
REMARK UNBOUND:                -1.056
REMARK SMILES OC[C@@H]1O[C@@](CO)(O[C@H]2O[C@H](CO)[C@@H](O)[C@@H](O)[C@@H]2O)[C@@H](O)[C@H]1O
REMARK SMILES IDX 8 1 9 2 11 3 14 4 10 5 16 6 18 7 12 8 13 9 15 11 17 13 19 15
REMARK SMILES IDX 5 17 20 18 4 19 22 20 3 21 6 22 7 23 21 25 23 27 2 29 1 30
REMARK H PARENT 13 10 15 12 17 14 19 16 7 24 21 26 23 28 1 31
REMARK Flexibility Score: inf
ROOT
ATOM      1  O   UNL     1     -15.672  -2.728  17.260  1.00  0.00    -0.313 OA
ENDROOT
BRANCH   1   2
ATOM      2  C   UNL     1     -14.811  -3.721  17.804  1.00  0.00     0.285 C 
ATOM      3  C   UNL     1     -16.587  -4.922  18.775  1.00  0.00     0.178 C 
ATOM      4  C   UNL     1     -16.411  -6.138  17.836  1.00  0.00     0.177 C 
ATOM      5  O   UNL     1     -15.343  -4.277  18.997  1.00  0.00    -0.341 OA
ATOM      6  C   UNL     1     -15.744  -5.720  16.509  1.00  0.00     0.179 C 
ATOM      7  C   UNL     1     -14.517  -4.814  16.756  1.00  0.00     0.202 C 
BRANCH   3   8
ATOM      8  C   UNL     1     -17.147  -5.359  20.134  1.00  0.00     0.191 C 
BRANCH   8   9
ATOM      9  O   UNL     1     -16.879  -6.719  20.338  1.00  0.00    -0.394 OA
ATOM     10  H   UNL     1     -17.421  -6.992  21.123  1.00  0.00     0.210 HD
ENDBRANCH   8   9
ENDBRANCH   3   8
BRANCH   4  11
ATOM     11  O   UNL     1     -17.655  -6.734  17.559  1.00  0.00    -0.387 OA
ATOM     12  H   UNL     1     -18.329  -6.005  17.525  1.00  0.00     0.211 HD
ENDBRANCH   4  11
BRANCH   6  13
ATOM     13  O   UNL     1     -16.652  -5.118  15.616  1.00  0.00    -0.387 OA
ATOM     14  H   UNL     1     -16.143  -4.587  14.955  1.00  0.00     0.211 HD
ENDBRANCH   6  13
BRANCH   7  15
ATOM     15  O   UNL     1     -13.440  -5.595  17.212  1.00  0.00    -0.385 OA
ATOM     16  H   UNL     1     -13.819  -6.459  17.518  1.00  0.00     0.211 HD
ENDBRANCH   7  15
ENDBRANCH   1   2
BRANCH   1  17
ATOM     17  C   UNL     1     -15.419  -1.405  17.734  1.00  0.00     0.224 C 
ATOM     18  C   UNL     1     -16.740  -0.612  17.718  1.00  0.00     0.208 C 
ATOM     19  O   UNL     1     -14.916  -1.388  19.065  1.00  0.00    -0.337 OA
ATOM     20  C   UNL     1     -16.577   0.316  18.896  1.00  0.00     0.180 C 
ATOM     21  C   UNL     1     -15.702  -0.504  19.834  1.00  0.00     0.179 C 
BRANCH  17  22
ATOM     22  C   UNL     1     -14.398  -0.714  16.795  1.00  0.00     0.225 C 
BRANCH  22  23
ATOM     23  O   UNL     1     -15.035   0.102  15.849  1.00  0.00    -0.391 OA
ATOM     24  H   UNL     1     -15.104   1.006  16.253  1.00  0.00     0.210 HD
ENDBRANCH  22  23
ENDBRANCH  17  22
BRANCH  18  25
ATOM     25  O   UNL     1     -17.832  -1.478  17.922  1.00  0.00    -0.385 OA
ATOM     26  H   UNL     1     -18.641  -0.907  18.006  1.00  0.00     0.211 HD
ENDBRANCH  18  25
BRANCH  20  27
ATOM     27  O   UNL     1     -17.804   0.636  19.502  1.00  0.00    -0.387 OA
ATOM     28  H   UNL     1     -18.004  -0.103  20.134  1.00  0.00     0.211 HD
ENDBRANCH  20  27
BRANCH  21  29
ATOM     29  C   UNL     1     -14.788   0.375  20.697  1.00  0.00     0.191 C 
BRANCH  29  30
ATOM     30  O   UNL     1     -15.455   1.538  21.108  1.00  0.00    -0.394 OA
ATOM     31  H   UNL     1     -15.972   1.296  21.920  1.00  0.00     0.210 HD
ENDBRANCH  29  30
ENDBRANCH  21  29
ENDBRANCH   1  17
TORSDOF 13
ENDMDL
