MODEL 1
REMARK VINA RESULT:    -7.367      0.000      0.000
REMARK INTER + INTRA:          -8.749
REMARK INTER:                  -8.444
REMARK INTRA:                  -0.306
REMARK UNBOUND:                -0.306
REMARK SMILES O=C1C[C@H](c2ccc(O)cc2)Oc2cc(O)cc(O)c21
REMARK SMILES IDX 3 1 4 2 12 3 13 4 14 5 15 6 17 7 18 8 20 9 2 10 1 11 5 12
REMARK SMILES IDX 6 13 11 14 7 15 10 16 8 17 9 18 19 20 16 22
REMARK H PARENT 9 19 19 21 16 23
REMARK Flexibility Score: inf
ROOT
ATOM      1  C   UNL     1      -6.936  25.076  33.431  1.00  0.00     0.131 C 
ATOM      2  C   UNL     1      -7.209  26.025  34.606  1.00  0.00     0.211 C 
ATOM      3  O   UNL     1      -7.367  25.287  35.822  1.00  0.00    -0.484 OA
ATOM      4  C   UNL     1      -8.049  24.062  35.880  1.00  0.00     0.138 A 
ATOM      5  C   UNL     1      -8.403  23.544  37.127  1.00  0.00     0.093 A 
ATOM      6  C   UNL     1      -9.097  22.333  37.216  1.00  0.00     0.123 A 
ATOM      7  C   UNL     1      -9.409  21.626  36.054  1.00  0.00     0.093 A 
ATOM      8  C   UNL     1      -9.029  22.108  34.795  1.00  0.00     0.133 A 
ATOM      9  C   UNL     1      -8.367  23.361  34.697  1.00  0.00     0.102 A 
ATOM     10  C   UNL     1      -7.981  23.999  33.415  1.00  0.00     0.174 C 
ATOM     11  O   UNL     1      -8.544  23.702  32.329  1.00  0.00    -0.294 OA
ENDROOT
BRANCH   2  12
ATOM     12  C   UNL     1      -6.091  27.028  34.754  1.00  0.00    -0.007 A 
ATOM     13  C   UNL     1      -6.013  27.850  35.892  1.00  0.00     0.011 A 
ATOM     14  C   UNL     1      -5.083  27.111  33.778  1.00  0.00     0.011 A 
ATOM     15  C   UNL     1      -4.959  28.755  36.039  1.00  0.00     0.046 A 
ATOM     16  C   UNL     1      -4.029  28.019  33.928  1.00  0.00     0.046 A 
ATOM     17  C   UNL     1      -3.965  28.844  35.055  1.00  0.00     0.115 A 
BRANCH  17  18
ATOM     18  O   UNL     1      -2.909  29.743  35.190  1.00  0.00    -0.508 OA
ATOM     19  H   UNL     1      -2.196  29.619  35.900  1.00  0.00     0.293 HD
ENDBRANCH  17  18
ENDBRANCH   2  12
BRANCH   8  20
ATOM     20  O   UNL     1      -9.296  21.297  33.690  1.00  0.00    -0.507 OA
ATOM     21  H   UNL     1      -8.583  20.892  33.102  1.00  0.00     0.293 HD
ENDBRANCH   8  20
BRANCH   6  22
ATOM     22  O   UNL     1      -9.472  21.820  38.456  1.00  0.00    -0.508 OA
ATOM     23  H   UNL     1     -10.169  21.089  38.538  1.00  0.00     0.293 HD
ENDBRANCH   6  22
TORSDOF 4
ENDMDL
MODEL 2
REMARK VINA RESULT:    -5.986      1.858      7.308
REMARK INTER + INTRA:          -7.167
REMARK INTER:                  -6.873
REMARK INTRA:                  -0.293
REMARK UNBOUND:                -0.306
REMARK SMILES O=C1C[C@H](c2ccc(O)cc2)Oc2cc(O)cc(O)c21
REMARK SMILES IDX 3 1 4 2 12 3 13 4 14 5 15 6 17 7 18 8 20 9 2 10 1 11 5 12
REMARK SMILES IDX 6 13 11 14 7 15 10 16 8 17 9 18 19 20 16 22
REMARK H PARENT 9 19 19 21 16 23
REMARK Flexibility Score: inf
ROOT
ATOM      1  C   UNL     1      -6.547  26.636  35.198  1.00  0.00     0.131 C 
ATOM      2  C   UNL     1      -6.644  26.023  33.795  1.00  0.00     0.211 C 
ATOM      3  O   UNL     1      -5.343  25.697  33.297  1.00  0.00    -0.484 OA
ATOM      4  C   UNL     1      -4.226  26.518  33.507  1.00  0.00     0.138 A 
ATOM      5  C   UNL     1      -3.066  26.285  32.766  1.00  0.00     0.093 A 
ATOM      6  C   UNL     1      -1.941  27.096  32.941  1.00  0.00     0.123 A 
ATOM      7  C   UNL     1      -1.970  28.126  33.884  1.00  0.00     0.093 A 
ATOM      8  C   UNL     1      -3.108  28.353  34.666  1.00  0.00     0.133 A 
ATOM      9  C   UNL     1      -4.269  27.562  34.457  1.00  0.00     0.102 A 
ATOM     10  C   UNL     1      -5.551  27.759  35.177  1.00  0.00     0.174 C 
ATOM     11  O   UNL     1      -5.847  28.856  35.718  1.00  0.00    -0.294 OA
ENDROOT
BRANCH   2  12
ATOM     12  C   UNL     1      -7.515  24.790  33.810  1.00  0.00    -0.007 A 
ATOM     13  C   UNL     1      -7.838  24.128  32.612  1.00  0.00     0.011 A 
ATOM     14  C   UNL     1      -7.964  24.257  35.031  1.00  0.00     0.011 A 
ATOM     15  C   UNL     1      -8.618  22.969  32.635  1.00  0.00     0.046 A 
ATOM     16  C   UNL     1      -8.744  23.097  35.049  1.00  0.00     0.046 A 
ATOM     17  C   UNL     1      -9.076  22.451  33.854  1.00  0.00     0.115 A 
BRANCH  17  18
ATOM     18  O   UNL     1      -9.854  21.296  33.889  1.00  0.00    -0.508 OA
ATOM     19  H   UNL     1      -9.626  20.523  34.503  1.00  0.00     0.293 HD
ENDBRANCH  17  18
ENDBRANCH   2  12
BRANCH   8  20
ATOM     20  O   UNL     1      -3.025  29.340  35.650  1.00  0.00    -0.507 OA
ATOM     21  H   UNL     1      -2.370  29.318  36.418  1.00  0.00     0.293 HD
ENDBRANCH   8  20
BRANCH   6  22
ATOM     22  O   UNL     1      -0.787  26.882  32.191  1.00  0.00    -0.508 OA
ATOM     23  H   UNL     1      -0.436  27.582  31.546  1.00  0.00     0.293 HD
ENDBRANCH   6  22
TORSDOF 4
ENDMDL
MODEL 3
REMARK VINA RESULT:    -5.856      2.156      6.969
REMARK INTER + INTRA:          -7.018
REMARK INTER:                  -6.733
REMARK INTRA:                  -0.285
REMARK UNBOUND:                -0.306
REMARK SMILES O=C1C[C@H](c2ccc(O)cc2)Oc2cc(O)cc(O)c21
REMARK SMILES IDX 3 1 4 2 12 3 13 4 14 5 15 6 17 7 18 8 20 9 2 10 1 11 5 12
REMARK SMILES IDX 6 13 11 14 7 15 10 16 8 17 9 18 19 20 16 22
REMARK H PARENT 9 19 19 21 16 23
REMARK Flexibility Score: inf
ROOT
ATOM      1  C   UNL     1      -6.323  26.866  35.353  1.00  0.00     0.131 C 
ATOM      2  C   UNL     1      -6.714  25.632  34.529  1.00  0.00     0.211 C 
ATOM      3  O   UNL     1      -5.546  24.958  34.049  1.00  0.00    -0.484 OA
ATOM      4  C   UNL     1      -4.414  25.643  33.586  1.00  0.00     0.138 A 
ATOM      5  C   UNL     1      -3.436  24.938  32.882  1.00  0.00     0.093 A 
ATOM      6  C   UNL     1      -2.303  25.597  32.395  1.00  0.00     0.123 A 
ATOM      7  C   UNL     1      -2.136  26.960  32.641  1.00  0.00     0.093 A 
ATOM      8  C   UNL     1      -3.084  27.680  33.378  1.00  0.00     0.133 A 
ATOM      9  C   UNL     1      -4.259  27.025  33.834  1.00  0.00     0.102 A 
ATOM     10  C   UNL     1      -5.360  27.702  34.562  1.00  0.00     0.174 C 
ATOM     11  O   UNL     1      -5.539  28.946  34.488  1.00  0.00    -0.294 OA
ENDROOT
BRANCH   2  12
ATOM     12  C   UNL     1      -7.556  24.686  35.349  1.00  0.00    -0.007 A 
ATOM     13  C   UNL     1      -8.322  23.686  34.725  1.00  0.00     0.011 A 
ATOM     14  C   UNL     1      -7.537  24.759  36.752  1.00  0.00     0.011 A 
ATOM     15  C   UNL     1      -9.075  22.792  35.491  1.00  0.00     0.046 A 
ATOM     16  C   UNL     1      -8.291  23.863  37.516  1.00  0.00     0.046 A 
ATOM     17  C   UNL     1      -9.064  22.880  36.890  1.00  0.00     0.115 A 
BRANCH  17  18
ATOM     18  O   UNL     1      -9.811  21.995  37.664  1.00  0.00    -0.508 OA
ATOM     19  H   UNL     1     -10.145  22.250  38.586  1.00  0.00     0.293 HD
ENDBRANCH  17  18
ENDBRANCH   2  12
BRANCH   8  20
ATOM     20  O   UNL     1      -2.798  29.017  33.661  1.00  0.00    -0.507 OA
ATOM     21  H   UNL     1      -2.038  29.319  34.253  1.00  0.00     0.293 HD
ENDBRANCH   8  20
BRANCH   6  22
ATOM     22  O   UNL     1      -1.334  24.903  31.674  1.00  0.00    -0.508 OA
ATOM     23  H   UNL     1      -0.819  25.343  30.920  1.00  0.00     0.293 HD
ENDBRANCH   6  22
TORSDOF 4
ENDMDL
MODEL 4
REMARK VINA RESULT:    -5.685      3.807      6.033
REMARK INTER + INTRA:          -6.822
REMARK INTER:                  -6.507
REMARK INTRA:                  -0.314
REMARK UNBOUND:                -0.306
REMARK SMILES O=C1C[C@H](c2ccc(O)cc2)Oc2cc(O)cc(O)c21
REMARK SMILES IDX 3 1 4 2 12 3 13 4 14 5 15 6 17 7 18 8 20 9 2 10 1 11 5 12
REMARK SMILES IDX 6 13 11 14 7 15 10 16 8 17 9 18 19 20 16 22
REMARK H PARENT 9 19 19 21 16 23
REMARK Flexibility Score: inf
ROOT
ATOM      1  C   UNL     1      -3.935  26.912  32.135  1.00  0.00     0.131 C 
ATOM      2  C   UNL     1      -3.968  25.380  32.048  1.00  0.00     0.211 C 
ATOM      3  O   UNL     1      -5.252  24.882  32.438  1.00  0.00    -0.484 OA
ATOM      4  C   UNL     1      -5.985  25.430  33.500  1.00  0.00     0.138 A 
ATOM      5  C   UNL     1      -7.084  24.728  33.997  1.00  0.00     0.093 A 
ATOM      6  C   UNL     1      -7.826  25.241  35.066  1.00  0.00     0.123 A 
ATOM      7  C   UNL     1      -7.481  26.476  35.618  1.00  0.00     0.093 A 
ATOM      8  C   UNL     1      -6.406  27.216  35.110  1.00  0.00     0.133 A 
ATOM      9  C   UNL     1      -5.622  26.676  34.056  1.00  0.00     0.102 A 
ATOM     10  C   UNL     1      -4.422  27.339  33.488  1.00  0.00     0.174 C 
ATOM     11  O   UNL     1      -3.775  28.205  34.133  1.00  0.00    -0.294 OA
ENDROOT
BRANCH   2  12
ATOM     12  C   UNL     1      -3.637  24.917  30.651  1.00  0.00    -0.007 A 
ATOM     13  C   UNL     1      -2.665  25.587  29.886  1.00  0.00     0.011 A 
ATOM     14  C   UNL     1      -4.258  23.773  30.120  1.00  0.00     0.011 A 
ATOM     15  C   UNL     1      -2.340  25.134  28.605  1.00  0.00     0.046 A 
ATOM     16  C   UNL     1      -3.930  23.323  28.837  1.00  0.00     0.046 A 
ATOM     17  C   UNL     1      -2.973  24.002  28.075  1.00  0.00     0.115 A 
BRANCH  17  18
ATOM     18  O   UNL     1      -2.657  23.542  26.799  1.00  0.00    -0.508 OA
ATOM     19  H   UNL     1      -3.251  22.879  26.313  1.00  0.00     0.293 HD
ENDBRANCH  17  18
ENDBRANCH   2  12
BRANCH   8  20
ATOM     20  O   UNL     1      -6.185  28.482  35.655  1.00  0.00    -0.507 OA
ATOM     21  H   UNL     1      -5.649  28.650  36.494  1.00  0.00     0.293 HD
ENDBRANCH   8  20
BRANCH   6  22
ATOM     22  O   UNL     1      -8.911  24.536  35.580  1.00  0.00    -0.508 OA
ATOM     23  H   UNL     1      -9.731  24.340  35.018  1.00  0.00     0.293 HD
ENDBRANCH   6  22
TORSDOF 4
ENDMDL
MODEL 5
REMARK VINA RESULT:    -5.646      1.637      2.403
REMARK INTER + INTRA:          -6.777
REMARK INTER:                  -6.482
REMARK INTRA:                  -0.296
REMARK UNBOUND:                -0.306
REMARK SMILES O=C1C[C@H](c2ccc(O)cc2)Oc2cc(O)cc(O)c21
REMARK SMILES IDX 3 1 4 2 12 3 13 4 14 5 15 6 17 7 18 8 20 9 2 10 1 11 5 12
REMARK SMILES IDX 6 13 11 14 7 15 10 16 8 17 9 18 19 20 16 22
REMARK H PARENT 9 19 19 21 16 23
REMARK Flexibility Score: inf
ROOT
ATOM      1  C   UNL     1      -5.108  26.130  32.725  1.00  0.00     0.131 C 
ATOM      2  C   UNL     1      -5.306  27.279  33.723  1.00  0.00     0.211 C 
ATOM      3  O   UNL     1      -5.816  26.785  34.965  1.00  0.00    -0.484 OA
ATOM      4  C   UNL     1      -6.780  25.769  35.035  1.00  0.00     0.138 A 
ATOM      5  C   UNL     1      -7.429  25.534  36.249  1.00  0.00     0.093 A 
ATOM      6  C   UNL     1      -8.405  24.538  36.346  1.00  0.00     0.123 A 
ATOM      7  C   UNL     1      -8.710  23.756  35.231  1.00  0.00     0.093 A 
ATOM      8  C   UNL     1      -8.045  23.947  34.015  1.00  0.00     0.133 A 
ATOM      9  C   UNL     1      -7.087  24.989  33.898  1.00  0.00     0.102 A 
ATOM     10  C   UNL     1      -6.373  25.327  32.643  1.00  0.00     0.174 C 
ATOM     11  O   UNL     1      -6.828  25.007  31.514  1.00  0.00    -0.294 OA
ENDROOT
BRANCH   2  12
ATOM     12  C   UNL     1      -4.008  28.015  33.955  1.00  0.00    -0.007 A 
ATOM     13  C   UNL     1      -3.965  29.141  34.797  1.00  0.00     0.011 A 
ATOM     14  C   UNL     1      -2.817  27.547  33.374  1.00  0.00     0.011 A 
ATOM     15  C   UNL     1      -2.755  29.799  35.033  1.00  0.00     0.046 A 
ATOM     16  C   UNL     1      -1.608  28.208  33.613  1.00  0.00     0.046 A 
ATOM     17  C   UNL     1      -1.574  29.336  34.439  1.00  0.00     0.115 A 
BRANCH  17  18
ATOM     18  O   UNL     1      -0.361  29.985  34.667  1.00  0.00    -0.508 OA
ATOM     19  H   UNL     1       0.462  29.777  34.114  1.00  0.00     0.293 HD
ENDBRANCH  17  18
ENDBRANCH   2  12
BRANCH   8  20
ATOM     20  O   UNL     1      -8.341  23.063  32.975  1.00  0.00    -0.507 OA
ATOM     21  H   UNL     1      -8.113  22.080  32.988  1.00  0.00     0.293 HD
ENDBRANCH   8  20
BRANCH   6  22
ATOM     22  O   UNL     1      -9.072  24.312  37.549  1.00  0.00    -0.508 OA
ATOM     23  H   UNL     1      -9.693  25.006  37.949  1.00  0.00     0.293 HD
ENDBRANCH   6  22
TORSDOF 4
ENDMDL
MODEL 6
REMARK VINA RESULT:    -5.582      3.312      5.519
REMARK INTER + INTRA:          -6.703
REMARK INTER:                  -6.392
REMARK INTRA:                  -0.311
REMARK UNBOUND:                -0.306
REMARK SMILES O=C1C[C@H](c2ccc(O)cc2)Oc2cc(O)cc(O)c21
REMARK SMILES IDX 3 1 4 2 12 3 13 4 14 5 15 6 17 7 18 8 20 9 2 10 1 11 5 12
REMARK SMILES IDX 6 13 11 14 7 15 10 16 8 17 9 18 19 20 16 22
REMARK H PARENT 9 19 19 21 16 23
REMARK Flexibility Score: inf
ROOT
ATOM      1  C   UNL     1      -4.273  29.081  35.230  1.00  0.00     0.131 C 
ATOM      2  C   UNL     1      -2.998  28.377  34.746  1.00  0.00     0.211 C 
ATOM      3  O   UNL     1      -3.261  27.618  33.562  1.00  0.00    -0.484 OA
ATOM      4  C   UNL     1      -4.445  26.888  33.379  1.00  0.00     0.138 A 
ATOM      5  C   UNL     1      -4.514  25.959  32.339  1.00  0.00     0.093 A 
ATOM      6  C   UNL     1      -5.675  25.206  32.141  1.00  0.00     0.123 A 
ATOM      7  C   UNL     1      -6.780  25.406  32.969  1.00  0.00     0.093 A 
ATOM      8  C   UNL     1      -6.748  26.360  33.994  1.00  0.00     0.133 A 
ATOM      9  C   UNL     1      -5.554  27.093  34.229  1.00  0.00     0.102 A 
ATOM     10  C   UNL     1      -5.384  28.076  35.326  1.00  0.00     0.174 C 
ATOM     11  O   UNL     1      -6.107  28.053  36.356  1.00  0.00    -0.294 OA
ENDROOT
BRANCH   2  12
ATOM     12  C   UNL     1      -1.901  29.380  34.483  1.00  0.00    -0.007 A 
ATOM     13  C   UNL     1      -1.849  30.588  35.201  1.00  0.00     0.011 A 
ATOM     14  C   UNL     1      -0.886  29.089  33.556  1.00  0.00     0.011 A 
ATOM     15  C   UNL     1      -0.813  31.498  34.976  1.00  0.00     0.046 A 
ATOM     16  C   UNL     1       0.149  30.002  33.333  1.00  0.00     0.046 A 
ATOM     17  C   UNL     1       0.188  31.209  34.039  1.00  0.00     0.115 A 
BRANCH  17  18
ATOM     18  O   UNL     1       1.225  32.110  33.806  1.00  0.00    -0.508 OA
ATOM     19  H   UNL     1       1.043  33.075  33.559  1.00  0.00     0.293 HD
ENDBRANCH  17  18
ENDBRANCH   2  12
BRANCH   8  20
ATOM     20  O   UNL     1      -7.924  26.566  34.717  1.00  0.00    -0.507 OA
ATOM     21  H   UNL     1      -8.381  27.461  34.809  1.00  0.00     0.293 HD
ENDBRANCH   8  20
BRANCH   6  22
ATOM     22  O   UNL     1      -5.743  24.263  31.118  1.00  0.00    -0.508 OA
ATOM     23  H   UNL     1      -4.907  23.897  30.678  1.00  0.00     0.293 HD
ENDBRANCH   6  22
TORSDOF 4
ENDMDL
MODEL 7
REMARK VINA RESULT:    -5.451      4.065      6.075
REMARK INTER + INTRA:          -6.553
REMARK INTER:                  -6.245
REMARK INTRA:                  -0.308
REMARK UNBOUND:                -0.306
REMARK SMILES O=C1C[C@H](c2ccc(O)cc2)Oc2cc(O)cc(O)c21
REMARK SMILES IDX 3 1 4 2 12 3 13 4 14 5 15 6 17 7 18 8 20 9 2 10 1 11 5 12
REMARK SMILES IDX 6 13 11 14 7 15 10 16 8 17 9 18 19 20 16 22
REMARK H PARENT 9 19 19 21 16 23
REMARK Flexibility Score: inf
ROOT
ATOM      1  C   UNL     1      -5.315  24.617  31.730  1.00  0.00     0.131 C 
ATOM      2  C   UNL     1      -4.204  25.633  31.436  1.00  0.00     0.211 C 
ATOM      3  O   UNL     1      -3.820  26.318  32.632  1.00  0.00    -0.484 OA
ATOM      4  C   UNL     1      -4.747  26.722  33.603  1.00  0.00     0.138 A 
ATOM      5  C   UNL     1      -4.342  27.619  34.594  1.00  0.00     0.093 A 
ATOM      6  C   UNL     1      -5.248  28.051  35.567  1.00  0.00     0.123 A 
ATOM      7  C   UNL     1      -6.555  27.559  35.564  1.00  0.00     0.093 A 
ATOM      8  C   UNL     1      -6.971  26.629  34.604  1.00  0.00     0.133 A 
ATOM      9  C   UNL     1      -6.068  26.224  33.585  1.00  0.00     0.102 A 
ATOM     10  C   UNL     1      -6.421  25.299  32.480  1.00  0.00     0.174 C 
ATOM     11  O   UNL     1      -7.614  25.118  32.121  1.00  0.00    -0.294 OA
ENDROOT
BRANCH   2  12
ATOM     12  C   UNL     1      -3.004  24.951  30.823  1.00  0.00    -0.007 A 
ATOM     13  C   UNL     1      -3.142  23.716  30.165  1.00  0.00     0.011 A 
ATOM     14  C   UNL     1      -1.745  25.573  30.856  1.00  0.00     0.011 A 
ATOM     15  C   UNL     1      -2.035  23.104  29.572  1.00  0.00     0.046 A 
ATOM     16  C   UNL     1      -0.638  24.958  30.262  1.00  0.00     0.046 A 
ATOM     17  C   UNL     1      -0.778  23.723  29.622  1.00  0.00     0.115 A 
BRANCH  17  18
ATOM     18  O   UNL     1       0.334  23.123  29.035  1.00  0.00    -0.508 OA
ATOM     19  H   UNL     1       0.437  23.071  28.028  1.00  0.00     0.293 HD
ENDBRANCH  17  18
ENDBRANCH   2  12
BRANCH   8  20
ATOM     20  O   UNL     1      -8.264  26.115  34.726  1.00  0.00    -0.507 OA
ATOM     21  H   UNL     1      -8.483  25.129  34.720  1.00  0.00     0.293 HD
ENDBRANCH   8  20
BRANCH   6  22
ATOM     22  O   UNL     1      -4.858  28.962  36.546  1.00  0.00    -0.508 OA
ATOM     23  H   UNL     1      -4.804  29.955  36.354  1.00  0.00     0.293 HD
ENDBRANCH   6  22
TORSDOF 4
ENDMDL
MODEL 8
REMARK VINA RESULT:    -5.436      4.650      7.500
REMARK INTER + INTRA:          -6.536
REMARK INTER:                  -6.215
REMARK INTRA:                  -0.321
REMARK UNBOUND:                -0.306
REMARK SMILES O=C1C[C@H](c2ccc(O)cc2)Oc2cc(O)cc(O)c21
REMARK SMILES IDX 3 1 4 2 12 3 13 4 14 5 15 6 17 7 18 8 20 9 2 10 1 11 5 12
REMARK SMILES IDX 6 13 11 14 7 15 10 16 8 17 9 18 19 20 16 22
REMARK H PARENT 9 19 19 21 16 23
REMARK Flexibility Score: inf
ROOT
ATOM      1  C   UNL     1      -3.291  25.542  32.606  1.00  0.00     0.131 C 
ATOM      2  C   UNL     1      -4.618  25.670  31.846  1.00  0.00     0.211 C 
ATOM      3  O   UNL     1      -4.740  24.632  30.869  1.00  0.00    -0.484 OA
ATOM      4  C   UNL     1      -3.656  24.190  30.096  1.00  0.00     0.138 A 
ATOM      5  C   UNL     1      -3.903  23.383  28.984  1.00  0.00     0.093 A 
ATOM      6  C   UNL     1      -2.845  22.939  28.185  1.00  0.00     0.123 A 
ATOM      7  C   UNL     1      -1.534  23.280  28.521  1.00  0.00     0.093 A 
ATOM      8  C   UNL     1      -1.260  24.055  29.654  1.00  0.00     0.133 A 
ATOM      9  C   UNL     1      -2.335  24.548  30.440  1.00  0.00     0.102 A 
ATOM     10  C   UNL     1      -2.166  25.433  31.619  1.00  0.00     0.174 C 
ATOM     11  O   UNL     1      -1.133  26.133  31.781  1.00  0.00    -0.294 OA
ENDROOT
BRANCH   2  12
ATOM     12  C   UNL     1      -5.787  25.622  32.799  1.00  0.00    -0.007 A 
ATOM     13  C   UNL     1      -6.817  24.682  32.621  1.00  0.00     0.011 A 
ATOM     14  C   UNL     1      -5.828  26.481  33.910  1.00  0.00     0.011 A 
ATOM     15  C   UNL     1      -7.881  24.620  33.524  1.00  0.00     0.046 A 
ATOM     16  C   UNL     1      -6.895  26.417  34.813  1.00  0.00     0.046 A 
ATOM     17  C   UNL     1      -7.924  25.490  34.622  1.00  0.00     0.115 A 
BRANCH  17  18
ATOM     18  O   UNL     1      -8.980  25.439  35.529  1.00  0.00    -0.508 OA
ATOM     19  H   UNL     1      -9.670  26.180  35.582  1.00  0.00     0.293 HD
ENDBRANCH  17  18
ENDBRANCH   2  12
BRANCH   8  20
ATOM     20  O   UNL     1       0.082  24.273  29.973  1.00  0.00    -0.507 OA
ATOM     21  H   UNL     1       0.442  24.292  30.916  1.00  0.00     0.293 HD
ENDBRANCH   8  20
BRANCH   6  22
ATOM     22  O   UNL     1      -3.085  22.151  27.062  1.00  0.00    -0.508 OA
ATOM     23  H   UNL     1      -2.803  21.178  27.026  1.00  0.00     0.293 HD
ENDBRANCH   6  22
TORSDOF 4
ENDMDL
MODEL 9
REMARK VINA RESULT:    -5.333      2.976      8.377
REMARK INTER + INTRA:          -6.418
REMARK INTER:                  -6.118
REMARK INTRA:                  -0.300
REMARK UNBOUND:                -0.306
REMARK SMILES O=C1C[C@H](c2ccc(O)cc2)Oc2cc(O)cc(O)c21
REMARK SMILES IDX 3 1 4 2 12 3 13 4 14 5 15 6 17 7 18 8 20 9 2 10 1 11 5 12
REMARK SMILES IDX 6 13 11 14 7 15 10 16 8 17 9 18 19 20 16 22
REMARK H PARENT 9 19 19 21 16 23
REMARK Flexibility Score: inf
ROOT
ATOM      1  C   UNL     1      -3.675  29.083  34.779  1.00  0.00     0.131 C 
ATOM      2  C   UNL     1      -3.794  28.042  33.658  1.00  0.00     0.211 C 
ATOM      3  O   UNL     1      -2.663  27.167  33.662  1.00  0.00    -0.484 OA
ATOM      4  C   UNL     1      -1.359  27.617  33.913  1.00  0.00     0.138 A 
ATOM      5  C   UNL     1      -0.284  26.773  33.629  1.00  0.00     0.093 A 
ATOM      6  C   UNL     1       1.028  27.199  33.854  1.00  0.00     0.123 A 
ATOM      7  C   UNL     1       1.262  28.465  34.394  1.00  0.00     0.093 A 
ATOM      8  C   UNL     1       0.198  29.314  34.723  1.00  0.00     0.133 A 
ATOM      9  C   UNL     1      -1.134  28.903  34.452  1.00  0.00     0.102 A 
ATOM     10  C   UNL     1      -2.331  29.746  34.694  1.00  0.00     0.174 C 
ATOM     11  O   UNL     1      -2.255  31.000  34.775  1.00  0.00    -0.294 OA
ENDROOT
BRANCH   2  12
ATOM     12  C   UNL     1      -5.066  27.243  33.805  1.00  0.00    -0.007 A 
ATOM     13  C   UNL     1      -5.357  26.192  32.916  1.00  0.00     0.011 A 
ATOM     14  C   UNL     1      -5.947  27.505  34.868  1.00  0.00     0.011 A 
ATOM     15  C   UNL     1      -6.520  25.435  33.076  1.00  0.00     0.046 A 
ATOM     16  C   UNL     1      -7.110  26.745  35.025  1.00  0.00     0.046 A 
ATOM     17  C   UNL     1      -7.402  25.711  34.129  1.00  0.00     0.115 A 
BRANCH  17  18
ATOM     18  O   UNL     1      -8.565  24.963  34.298  1.00  0.00    -0.508 OA
ATOM     19  H   UNL     1      -9.102  25.006  35.157  1.00  0.00     0.293 HD
ENDBRANCH  17  18
ENDBRANCH   2  12
BRANCH   8  20
ATOM     20  O   UNL     1       0.511  30.525  35.345  1.00  0.00    -0.507 OA
ATOM     21  H   UNL     1       0.349  30.715  36.324  1.00  0.00     0.293 HD
ENDBRANCH   8  20
BRANCH   6  22
ATOM     22  O   UNL     1       2.106  26.370  33.553  1.00  0.00    -0.508 OA
ATOM     23  H   UNL     1       1.975  25.390  33.331  1.00  0.00     0.293 HD
ENDBRANCH   6  22
TORSDOF 4
ENDMDL
