MODEL 1
REMARK VINA RESULT:    -3.819      0.000      0.000
REMARK INTER + INTRA:          -7.062
REMARK INTER:                  -6.498
REMARK INTRA:                  -0.563
REMARK UNBOUND:                -0.563
REMARK SMILES CCCCCCCCCCCCCC(=O)[O-]
REMARK SMILES IDX 8 1 9 2 10 3 11 4 12 5 13 6 14 7 15 8 16 9 7 10 6 11 5 12
REMARK SMILES IDX 4 13 3 14 2 15 1 16
REMARK H PARENT
REMARK Flexibility Score: inf
ROOT
ATOM      1  C   UNL     1      11.892  -8.280   6.554  1.00  0.00     0.000 C 
ENDROOT
BRANCH   1   2
ATOM      2  C   UNL     1      13.219  -8.507   5.812  1.00  0.00     0.000 C 
BRANCH   2   3
ATOM      3  C   UNL     1      14.441  -8.386   6.741  1.00  0.00     0.000 C 
BRANCH   3   4
ATOM      4  C   UNL     1      15.670  -7.783   6.036  1.00  0.00     0.000 C 
BRANCH   4   5
ATOM      5  C   UNL     1      16.734  -7.187   6.975  1.00  0.00     0.006 C 
BRANCH   5   6
ATOM      6  C   UNL     1      18.164  -7.583   6.588  1.00  0.00     0.053 C 
BRANCH   6   7
ATOM      7  C   UNL     1      19.031  -7.663   7.804  1.00  0.00     0.041 C 
ATOM      8  O   UNL     1      19.057  -6.712   8.628  1.00  0.00    -0.550 OA
ATOM      9  O   UNL     1      19.774  -8.811   8.053  1.00  0.00    -0.550 OA
ENDBRANCH   6   7
ENDBRANCH   5   6
ENDBRANCH   4   5
ENDBRANCH   3   4
ENDBRANCH   2   3
ENDBRANCH   1   2
BRANCH   1  10
ATOM     10  C   UNL     1      10.727  -7.979   5.596  1.00  0.00     0.000 C 
BRANCH  10  11
ATOM     11  C   UNL     1       9.679  -9.107   5.558  1.00  0.00    -0.000 C 
BRANCH  11  12
ATOM     12  C   UNL     1       9.083  -9.496   6.926  1.00  0.00    -0.000 C 
BRANCH  12  13
ATOM     13  C   UNL     1       7.699  -8.895   7.230  1.00  0.00    -0.000 C 
BRANCH  13  14
ATOM     14  C   UNL     1       6.672  -9.172   6.124  1.00  0.00    -0.000 C 
BRANCH  14  15
ATOM     15  C   UNL     1       6.001  -7.874   5.661  1.00  0.00    -0.003 C 
ATOM     16  C   UNL     1       6.460  -6.685   6.500  1.00  0.00     0.004 C 
ENDBRANCH  14  15
ENDBRANCH  13  14
ENDBRANCH  12  13
ENDBRANCH  11  12
ENDBRANCH  10  11
ENDBRANCH   1  10
TORSDOF 12
ENDMDL
MODEL 2
REMARK VINA RESULT:    -3.708      1.043      1.873
REMARK INTER + INTRA:          -6.872
REMARK INTER:                  -6.055
REMARK INTRA:                  -0.817
REMARK UNBOUND:                -0.563
REMARK SMILES CCCCCCCCCCCCCC(=O)[O-]
REMARK SMILES IDX 8 1 9 2 10 3 11 4 12 5 13 6 14 7 15 8 16 9 7 10 6 11 5 12
REMARK SMILES IDX 4 13 3 14 2 15 1 16
REMARK H PARENT
REMARK Flexibility Score: inf
ROOT
ATOM      1  C   UNL     1      13.044  -8.286   6.189  1.00  0.00     0.000 C 
ENDROOT
BRANCH   1   2
ATOM      2  C   UNL     1      13.603  -7.794   4.843  1.00  0.00     0.000 C 
BRANCH   2   3
ATOM      3  C   UNL     1      15.128  -7.977   4.738  1.00  0.00     0.000 C 
BRANCH   3   4
ATOM      4  C   UNL     1      15.914  -6.871   5.464  1.00  0.00     0.000 C 
BRANCH   4   5
ATOM      5  C   UNL     1      16.660  -7.325   6.732  1.00  0.00     0.006 C 
BRANCH   5   6
ATOM      6  C   UNL     1      18.024  -7.957   6.430  1.00  0.00     0.053 C 
BRANCH   6   7
ATOM      7  C   UNL     1      18.936  -7.819   7.607  1.00  0.00     0.041 C 
ATOM      8  O   UNL     1      18.850  -6.815   8.361  1.00  0.00    -0.550 OA
ATOM      9  O   UNL     1      19.849  -8.825   7.901  1.00  0.00    -0.550 OA
ENDBRANCH   6   7
ENDBRANCH   5   6
ENDBRANCH   4   5
ENDBRANCH   3   4
ENDBRANCH   2   3
ENDBRANCH   1   2
BRANCH   1  10
ATOM     10  C   UNL     1      11.506  -8.283   6.222  1.00  0.00     0.000 C 
BRANCH  10  11
ATOM     11  C   UNL     1      10.887  -7.379   5.139  1.00  0.00    -0.000 C 
BRANCH  11  12
ATOM     12  C   UNL     1       9.639  -7.954   4.439  1.00  0.00    -0.000 C 
BRANCH  12  13
ATOM     13  C   UNL     1       8.780  -8.893   5.304  1.00  0.00    -0.000 C 
BRANCH  13  14
ATOM     14  C   UNL     1       7.812  -8.137   6.225  1.00  0.00    -0.000 C 
BRANCH  14  15
ATOM     15  C   UNL     1       7.733  -8.804   7.603  1.00  0.00    -0.003 C 
ATOM     16  C   UNL     1       8.498 -10.124   7.622  1.00  0.00     0.004 C 
ENDBRANCH  14  15
ENDBRANCH  13  14
ENDBRANCH  12  13
ENDBRANCH  11  12
ENDBRANCH  10  11
ENDBRANCH   1  10
TORSDOF 12
ENDMDL
MODEL 3
REMARK VINA RESULT:    -3.686      0.867      1.801
REMARK INTER + INTRA:          -6.835
REMARK INTER:                  -6.226
REMARK INTRA:                  -0.610
REMARK UNBOUND:                -0.563
REMARK SMILES CCCCCCCCCCCCCC(=O)[O-]
REMARK SMILES IDX 8 1 9 2 10 3 11 4 12 5 13 6 14 7 15 8 16 9 7 10 6 11 5 12
REMARK SMILES IDX 4 13 3 14 2 15 1 16
REMARK H PARENT
REMARK Flexibility Score: inf
ROOT
ATOM      1  C   UNL     1      13.672  -8.610   6.943  1.00  0.00     0.000 C 
ENDROOT
BRANCH   1   2
ATOM      2  C   UNL     1      15.135  -8.738   6.487  1.00  0.00     0.000 C 
BRANCH   2   3
ATOM      3  C   UNL     1      15.908  -7.413   6.611  1.00  0.00     0.000 C 
BRANCH   3   4
ATOM      4  C   UNL     1      16.952  -7.223   5.495  1.00  0.00     0.000 C 
BRANCH   4   5
ATOM      5  C   UNL     1      18.215  -8.093   5.628  1.00  0.00     0.006 C 
BRANCH   5   6
ATOM      6  C   UNL     1      19.365  -7.374   6.345  1.00  0.00     0.053 C 
BRANCH   6   7
ATOM      7  C   UNL     1      19.312  -7.644   7.815  1.00  0.00     0.041 C 
ATOM      8  O   UNL     1      18.859  -6.774   8.603  1.00  0.00    -0.550 OA
ATOM      9  O   UNL     1      19.721  -8.876   8.310  1.00  0.00    -0.550 OA
ENDBRANCH   6   7
ENDBRANCH   5   6
ENDBRANCH   4   5
ENDBRANCH   3   4
ENDBRANCH   2   3
ENDBRANCH   1   2
BRANCH   1  10
ATOM     10  C   UNL     1      12.731  -8.210   5.794  1.00  0.00     0.000 C 
BRANCH  10  11
ATOM     11  C   UNL     1      11.244  -8.281   6.188  1.00  0.00    -0.000 C 
BRANCH  11  12
ATOM     12  C   UNL     1      10.322  -8.956   5.152  1.00  0.00    -0.000 C 
BRANCH  12  13
ATOM     13  C   UNL     1       9.123  -9.717   5.743  1.00  0.00    -0.000 C 
BRANCH  13  14
ATOM     14  C   UNL     1       8.904  -9.422   7.234  1.00  0.00    -0.000 C 
BRANCH  14  15
ATOM     15  C   UNL     1       7.441  -9.058   7.512  1.00  0.00    -0.003 C 
ATOM     16  C   UNL     1       7.017  -7.827   6.717  1.00  0.00     0.004 C 
ENDBRANCH  14  15
ENDBRANCH  13  14
ENDBRANCH  12  13
ENDBRANCH  11  12
ENDBRANCH  10  11
ENDBRANCH   1  10
TORSDOF 12
ENDMDL
MODEL 4
REMARK VINA RESULT:    -3.656      4.761      9.223
REMARK INTER + INTRA:          -6.784
REMARK INTER:                  -6.097
REMARK INTRA:                  -0.687
REMARK UNBOUND:                -0.563
REMARK SMILES CCCCCCCCCCCCCC(=O)[O-]
REMARK SMILES IDX 8 1 9 2 10 3 11 4 12 5 13 6 14 7 15 8 16 9 7 10 6 11 5 12
REMARK SMILES IDX 4 13 3 14 2 15 1 16
REMARK H PARENT
REMARK Flexibility Score: inf
ROOT
ATOM      1  C   UNL     1      12.609  -7.902   5.357  1.00  0.00     0.000 C 
ENDROOT
BRANCH   1   2
ATOM      2  C   UNL     1      11.108  -7.569   5.337  1.00  0.00     0.000 C 
BRANCH   2   3
ATOM      3  C   UNL     1      10.292  -8.472   6.280  1.00  0.00     0.000 C 
BRANCH   3   4
ATOM      4  C   UNL     1       9.263  -9.340   5.534  1.00  0.00     0.000 C 
BRANCH   4   5
ATOM      5  C   UNL     1       7.935  -9.564   6.280  1.00  0.00     0.006 C 
BRANCH   5   6
ATOM      6  C   UNL     1       7.557  -8.393   7.195  1.00  0.00     0.053 C 
BRANCH   6   7
ATOM      7  C   UNL     1       6.636  -7.452   6.485  1.00  0.00     0.041 C 
ATOM      8  O   UNL     1       6.338  -6.345   7.003  1.00  0.00    -0.550 OA
ATOM      9  O   UNL     1       6.146  -7.778   5.226  1.00  0.00    -0.550 OA
ENDBRANCH   6   7
ENDBRANCH   5   6
ENDBRANCH   4   5
ENDBRANCH   3   4
ENDBRANCH   2   3
ENDBRANCH   1   2
BRANCH   1  10
ATOM     10  C   UNL     1      13.043  -8.585   6.665  1.00  0.00     0.000 C 
BRANCH  10  11
ATOM     11  C   UNL     1      14.564  -8.809   6.746  1.00  0.00    -0.000 C 
BRANCH  11  12
ATOM     12  C   UNL     1      15.364  -8.330   5.517  1.00  0.00    -0.000 C 
BRANCH  12  13
ATOM     13  C   UNL     1      16.278  -7.117   5.764  1.00  0.00    -0.000 C 
BRANCH  13  14
ATOM     14  C   UNL     1      16.870  -7.095   7.181  1.00  0.00    -0.000 C 
BRANCH  14  15
ATOM     15  C   UNL     1      18.352  -7.486   7.162  1.00  0.00    -0.003 C 
ATOM     16  C   UNL     1      19.022  -7.175   8.497  1.00  0.00     0.004 C 
ENDBRANCH  14  15
ENDBRANCH  13  14
ENDBRANCH  12  13
ENDBRANCH  11  12
ENDBRANCH  10  11
ENDBRANCH   1  10
TORSDOF 12
ENDMDL
MODEL 5
REMARK VINA RESULT:    -3.477      4.659      9.463
REMARK INTER + INTRA:          -6.479
REMARK INTER:                  -5.864
REMARK INTRA:                  -0.615
REMARK UNBOUND:                -0.563
REMARK SMILES CCCCCCCCCCCCCC(=O)[O-]
REMARK SMILES IDX 8 1 9 2 10 3 11 4 12 5 13 6 14 7 15 8 16 9 7 10 6 11 5 12
REMARK SMILES IDX 4 13 3 14 2 15 1 16
REMARK H PARENT
REMARK Flexibility Score: inf
ROOT
ATOM      1  C   UNL     1      12.953  -8.635   6.925  1.00  0.00     0.000 C 
ENDROOT
BRANCH   1   2
ATOM      2  C   UNL     1      12.591  -8.220   5.489  1.00  0.00     0.000 C 
BRANCH   2   3
ATOM      3  C   UNL     1      11.200  -8.723   5.064  1.00  0.00     0.000 C 
BRANCH   3   4
ATOM      4  C   UNL     1      10.080  -8.252   6.009  1.00  0.00     0.000 C 
BRANCH   4   5
ATOM      5  C   UNL     1       9.207  -9.375   6.598  1.00  0.00     0.006 C 
BRANCH   5   6
ATOM      6  C   UNL     1       8.055  -8.847   7.463  1.00  0.00     0.053 C 
BRANCH   6   7
ATOM      7  C   UNL     1       7.021  -8.186   6.608  1.00  0.00     0.041 C 
ATOM      8  O   UNL     1       6.626  -7.022   6.877  1.00  0.00    -0.550 OA
ATOM      9  O   UNL     1       6.528  -8.839   5.484  1.00  0.00    -0.550 OA
ENDBRANCH   6   7
ENDBRANCH   5   6
ENDBRANCH   4   5
ENDBRANCH   3   4
ENDBRANCH   2   3
ENDBRANCH   1   2
BRANCH   1  10
ATOM     10  C   UNL     1      14.451  -8.464   7.225  1.00  0.00     0.000 C 
BRANCH  10  11
ATOM     11  C   UNL     1      15.225  -7.820   6.060  1.00  0.00    -0.000 C 
BRANCH  11  12
ATOM     12  C   UNL     1      16.621  -7.273   6.421  1.00  0.00    -0.000 C 
BRANCH  12  13
ATOM     13  C   UNL     1      17.776  -7.806   5.555  1.00  0.00    -0.000 C 
BRANCH  13  14
ATOM     14  C   UNL     1      19.156  -7.367   6.064  1.00  0.00    -0.000 C 
BRANCH  14  15
ATOM     15  C   UNL     1      19.185  -7.318   7.596  1.00  0.00    -0.003 C 
ATOM     16  C   UNL     1      19.628  -8.656   8.182  1.00  0.00     0.004 C 
ENDBRANCH  14  15
ENDBRANCH  13  14
ENDBRANCH  12  13
ENDBRANCH  11  12
ENDBRANCH  10  11
ENDBRANCH   1  10
TORSDOF 12
ENDMDL
MODEL 6
REMARK VINA RESULT:    -3.476      4.332      9.578
REMARK INTER + INTRA:          -6.478
REMARK INTER:                  -5.494
REMARK INTRA:                  -0.984
REMARK UNBOUND:                -0.563
REMARK SMILES CCCCCCCCCCCCCC(=O)[O-]
REMARK SMILES IDX 8 1 9 2 10 3 11 4 12 5 13 6 14 7 15 8 16 9 7 10 6 11 5 12
REMARK SMILES IDX 4 13 3 14 2 15 1 16
REMARK H PARENT
REMARK Flexibility Score: inf
ROOT
ATOM      1  C   UNL     1      18.861  -7.540   8.373  1.00  0.00     0.000 C 
ENDROOT
BRANCH   1   2
ATOM      2  C   UNL     1      17.998  -7.065   7.192  1.00  0.00     0.000 C 
BRANCH   2   3
ATOM      3  C   UNL     1      16.491  -7.149   7.493  1.00  0.00     0.000 C 
BRANCH   3   4
ATOM      4  C   UNL     1      15.696  -7.846   6.374  1.00  0.00     0.000 C 
BRANCH   4   5
ATOM      5  C   UNL     1      14.319  -8.391   6.794  1.00  0.00     0.006 C 
BRANCH   5   6
ATOM      6  C   UNL     1      13.461  -8.832   5.601  1.00  0.00     0.053 C 
BRANCH   6   7
ATOM      7  C   UNL     1      12.227  -7.992   5.509  1.00  0.00     0.041 C 
ATOM      8  O   UNL     1      12.033  -7.257   4.505  1.00  0.00    -0.550 OA
ATOM      9  O   UNL     1      11.265  -8.059   6.509  1.00  0.00    -0.550 OA
ENDBRANCH   6   7
ENDBRANCH   5   6
ENDBRANCH   4   5
ENDBRANCH   3   4
ENDBRANCH   2   3
ENDBRANCH   1   2
BRANCH   1  10
ATOM     10  C   UNL     1      19.762  -8.730   8.002  1.00  0.00     0.000 C 
BRANCH  10  11
ATOM     11  C   UNL     1      19.521  -9.236   6.567  1.00  0.00    -0.000 C 
BRANCH  11  12
ATOM     12  C   UNL     1      20.570  -8.788   5.529  1.00  0.00    -0.000 C 
BRANCH  12  13
ATOM     13  C   UNL     1      19.994  -8.217   4.222  1.00  0.00    -0.000 C 
BRANCH  13  14
ATOM     14  C   UNL     1      19.938  -6.682   4.214  1.00  0.00    -0.000 C 
BRANCH  14  15
ATOM     15  C   UNL     1      21.097  -6.088   5.022  1.00  0.00    -0.003 C 
ATOM     16  C   UNL     1      22.334  -5.891   4.151  1.00  0.00     0.004 C 
ENDBRANCH  14  15
ENDBRANCH  13  14
ENDBRANCH  12  13
ENDBRANCH  11  12
ENDBRANCH  10  11
ENDBRANCH   1  10
TORSDOF 12
ENDMDL
MODEL 7
REMARK VINA RESULT:    -3.436      2.442      3.534
REMARK INTER + INTRA:          -6.410
REMARK INTER:                  -6.018
REMARK INTRA:                  -0.391
REMARK UNBOUND:                -0.563
REMARK SMILES CCCCCCCCCCCCCC(=O)[O-]
REMARK SMILES IDX 8 1 9 2 10 3 11 4 12 5 13 6 14 7 15 8 16 9 7 10 6 11 5 12
REMARK SMILES IDX 4 13 3 14 2 15 1 16
REMARK H PARENT
REMARK Flexibility Score: inf
ROOT
ATOM      1  C   UNL     1      15.172  -7.840   5.843  1.00  0.00     0.000 C 
ENDROOT
BRANCH   1   2
ATOM      2  C   UNL     1      16.113  -6.838   5.153  1.00  0.00     0.000 C 
BRANCH   2   3
ATOM      3  C   UNL     1      17.416  -7.496   4.663  1.00  0.00     0.000 C 
BRANCH   3   4
ATOM      4  C   UNL     1      18.382  -7.837   5.812  1.00  0.00     0.000 C 
BRANCH   4   5
ATOM      5  C   UNL     1      19.715  -7.068   5.794  1.00  0.00     0.006 C 
BRANCH   5   6
ATOM      6  C   UNL     1      20.049  -6.480   4.417  1.00  0.00     0.053 C 
BRANCH   6   7
ATOM      7  C   UNL     1      21.241  -5.581   4.509  1.00  0.00     0.041 C 
ATOM      8  O   UNL     1      21.103  -4.333   4.417  1.00  0.00    -0.550 OA
ATOM      9  O   UNL     1      22.500  -6.119   4.745  1.00  0.00    -0.550 OA
ENDBRANCH   6   7
ENDBRANCH   5   6
ENDBRANCH   4   5
ENDBRANCH   3   4
ENDBRANCH   2   3
ENDBRANCH   1   2
BRANCH   1  10
ATOM     10  C   UNL     1      13.804  -7.935   5.147  1.00  0.00     0.000 C 
BRANCH  10  11
ATOM     11  C   UNL     1      12.672  -8.341   6.109  1.00  0.00    -0.000 C 
BRANCH  11  12
ATOM     12  C   UNL     1      11.287  -7.746   5.781  1.00  0.00    -0.000 C 
BRANCH  12  13
ATOM     13  C   UNL     1      10.264  -8.745   5.213  1.00  0.00    -0.000 C 
BRANCH  13  14
ATOM     14  C   UNL     1       8.838  -8.494   5.723  1.00  0.00    -0.000 C 
BRANCH  14  15
ATOM     15  C   UNL     1       8.513  -9.403   6.913  1.00  0.00    -0.003 C 
ATOM     16  C   UNL     1       7.596  -8.701   7.911  1.00  0.00     0.004 C 
ENDBRANCH  14  15
ENDBRANCH  13  14
ENDBRANCH  12  13
ENDBRANCH  11  12
ENDBRANCH  10  11
ENDBRANCH   1  10
TORSDOF 12
ENDMDL
MODEL 8
REMARK VINA RESULT:    -3.118      2.587      4.713
REMARK INTER + INTRA:          -5.868
REMARK INTER:                  -5.211
REMARK INTRA:                  -0.657
REMARK UNBOUND:                -0.563
REMARK SMILES CCCCCCCCCCCCCC(=O)[O-]
REMARK SMILES IDX 8 1 9 2 10 3 11 4 12 5 13 6 14 7 15 8 16 9 7 10 6 11 5 12
REMARK SMILES IDX 4 13 3 14 2 15 1 16
REMARK H PARENT
REMARK Flexibility Score: inf
ROOT
ATOM      1  C   UNL     1      16.974  -7.284   5.266  1.00  0.00     0.000 C 
ENDROOT
BRANCH   1   2
ATOM      2  C   UNL     1      17.612  -7.844   6.549  1.00  0.00     0.000 C 
BRANCH   2   3
ATOM      3  C   UNL     1      19.083  -7.420   6.709  1.00  0.00     0.000 C 
BRANCH   3   4
ATOM      4  C   UNL     1      20.070  -8.564   6.417  1.00  0.00     0.000 C 
BRANCH   4   5
ATOM      5  C   UNL     1      20.982  -8.344   5.196  1.00  0.00     0.006 C 
BRANCH   5   6
ATOM      6  C   UNL     1      20.581  -7.121   4.361  1.00  0.00     0.053 C 
BRANCH   6   7
ATOM      7  C   UNL     1      21.552  -6.003   4.574  1.00  0.00     0.041 C 
ATOM      8  O   UNL     1      21.136  -4.834   4.783  1.00  0.00    -0.550 OA
ATOM      9  O   UNL     1      22.917  -6.262   4.591  1.00  0.00    -0.550 OA
ENDBRANCH   6   7
ENDBRANCH   5   6
ENDBRANCH   4   5
ENDBRANCH   3   4
ENDBRANCH   2   3
ENDBRANCH   1   2
BRANCH   1  10
ATOM     10  C   UNL     1      15.441  -7.400   5.273  1.00  0.00     0.000 C 
BRANCH  10  11
ATOM     11  C   UNL     1      14.938  -8.610   6.083  1.00  0.00    -0.000 C 
BRANCH  11  12
ATOM     12  C   UNL     1      13.473  -8.518   6.558  1.00  0.00    -0.000 C 
BRANCH  12  13
ATOM     13  C   UNL     1      12.416  -8.801   5.476  1.00  0.00    -0.000 C 
BRANCH  13  14
ATOM     14  C   UNL     1      11.743  -7.525   4.951  1.00  0.00    -0.000 C 
BRANCH  14  15
ATOM     15  C   UNL     1      10.216  -7.647   5.009  1.00  0.00    -0.003 C 
ATOM     16  C   UNL     1       9.785  -8.695   6.030  1.00  0.00     0.004 C 
ENDBRANCH  14  15
ENDBRANCH  13  14
ENDBRANCH  12  13
ENDBRANCH  11  12
ENDBRANCH  10  11
ENDBRANCH   1  10
TORSDOF 12
ENDMDL
