MODEL 1
REMARK VINA RESULT:    -3.661      0.000      0.000
REMARK INTER + INTRA:          -4.128
REMARK INTER:                  -4.089
REMARK INTRA:                  -0.038
REMARK UNBOUND:                -0.038
REMARK SMILES CCCC(=O)[O-]
REMARK SMILES IDX 3 1 4 2 5 3 6 4 2 5 1 6
REMARK H PARENT
REMARK Flexibility Score: inf
ROOT
ATOM      1  C   UNL     1     -18.083 -30.417  23.986  1.00  0.00     0.052 C 
ENDROOT
BRANCH   1   2
ATOM      2  C   UNL     1     -19.301 -31.223  23.656  1.00  0.00     0.041 C 
ATOM      3  O   UNL     1     -19.199 -32.275  22.970  1.00  0.00    -0.550 OA
ATOM      4  O   UNL     1     -20.547 -30.832  24.133  1.00  0.00    -0.550 OA
ENDBRANCH   1   2
BRANCH   1   5
ATOM      5  C   UNL     1     -16.793 -31.144  23.583  1.00  0.00     0.003 C 
ATOM      6  C   UNL     1     -16.085 -30.466  22.411  1.00  0.00     0.004 C 
ENDBRANCH   1   5
TORSDOF 2
ENDMDL
MODEL 2
REMARK VINA RESULT:    -3.621      0.122      1.328
REMARK INTER + INTRA:          -4.083
REMARK INTER:                  -4.046
REMARK INTRA:                  -0.038
REMARK UNBOUND:                -0.038
REMARK SMILES CCCC(=O)[O-]
REMARK SMILES IDX 3 1 4 2 5 3 6 4 2 5 1 6
REMARK H PARENT
REMARK Flexibility Score: inf
ROOT
ATOM      1  C   UNL     1     -18.209 -30.394  23.973  1.00  0.00     0.052 C 
ENDROOT
BRANCH   1   2
ATOM      2  C   UNL     1     -19.407 -31.241  23.674  1.00  0.00     0.041 C 
ATOM      3  O   UNL     1     -20.542 -30.909  24.107  1.00  0.00    -0.550 OA
ATOM      4  O   UNL     1     -19.277 -32.379  22.887  1.00  0.00    -0.550 OA
ENDBRANCH   1   2
BRANCH   1   5
ATOM      5  C   UNL     1     -16.899 -31.132  23.663  1.00  0.00     0.003 C 
ATOM      6  C   UNL     1     -16.132 -30.494  22.506  1.00  0.00     0.004 C 
ENDBRANCH   1   5
TORSDOF 2
ENDMDL
MODEL 3
REMARK VINA RESULT:    -3.504      2.442      3.262
REMARK INTER + INTRA:          -3.952
REMARK INTER:                  -3.906
REMARK INTRA:                  -0.046
REMARK UNBOUND:                -0.038
REMARK SMILES CCCC(=O)[O-]
REMARK SMILES IDX 3 1 4 2 5 3 6 4 2 5 1 6
REMARK H PARENT
REMARK Flexibility Score: inf
ROOT
ATOM      1  C   UNL     1     -16.932 -31.023  23.663  1.00  0.00     0.052 C 
ENDROOT
BRANCH   1   2
ATOM      2  C   UNL     1     -16.521 -30.362  22.385  1.00  0.00     0.041 C 
ATOM      3  O   UNL     1     -15.898 -31.014  21.505  1.00  0.00    -0.550 OA
ATOM      4  O   UNL     1     -16.854 -29.033  22.149  1.00  0.00    -0.550 OA
ENDBRANCH   1   2
BRANCH   1   5
ATOM      5  C   UNL     1     -18.249 -30.449  24.203  1.00  0.00     0.003 C 
ATOM      6  C   UNL     1     -19.472 -31.178  23.649  1.00  0.00     0.004 C 
ENDBRANCH   1   5
TORSDOF 2
ENDMDL
MODEL 4
REMARK VINA RESULT:    -3.465      1.156      1.805
REMARK INTER + INTRA:          -3.909
REMARK INTER:                  -3.898
REMARK INTRA:                  -0.011
REMARK UNBOUND:                -0.038
REMARK SMILES CCCC(=O)[O-]
REMARK SMILES IDX 3 1 4 2 5 3 6 4 2 5 1 6
REMARK H PARENT
REMARK Flexibility Score: inf
ROOT
ATOM      1  C   UNL     1     -19.053 -31.689  23.254  1.00  0.00     0.052 C 
ENDROOT
BRANCH   1   2
ATOM      2  C   UNL     1     -20.464 -31.371  23.643  1.00  0.00     0.041 C 
ATOM      3  O   UNL     1     -20.707 -30.408  24.417  1.00  0.00    -0.550 OA
ATOM      4  O   UNL     1     -21.515 -32.119  23.124  1.00  0.00    -0.550 OA
ENDBRANCH   1   2
BRANCH   1   5
ATOM      5  C   UNL     1     -18.061 -30.675  23.840  1.00  0.00     0.003 C 
ATOM      6  C   UNL     1     -16.611 -31.009  23.488  1.00  0.00     0.004 C 
ENDBRANCH   1   5
TORSDOF 2
ENDMDL
MODEL 5
REMARK VINA RESULT:    -3.238      1.990      3.196
REMARK INTER + INTRA:          -3.654
REMARK INTER:                  -3.643
REMARK INTRA:                  -0.011
REMARK UNBOUND:                -0.038
REMARK SMILES CCCC(=O)[O-]
REMARK SMILES IDX 3 1 4 2 5 3 6 4 2 5 1 6
REMARK H PARENT
REMARK Flexibility Score: inf
ROOT
ATOM      1  C   UNL     1     -18.629 -29.624  23.976  1.00  0.00     0.052 C 
ENDROOT
BRANCH   1   2
ATOM      2  C   UNL     1     -17.985 -30.930  23.628  1.00  0.00     0.041 C 
ATOM      3  O   UNL     1     -18.685 -31.892  23.213  1.00  0.00    -0.550 OA
ATOM      4  O   UNL     1     -16.606 -31.077  23.729  1.00  0.00    -0.550 OA
ENDBRANCH   1   2
BRANCH   1   5
ATOM      5  C   UNL     1     -19.844 -29.816  24.894  1.00  0.00     0.003 C 
ATOM      6  C   UNL     1     -19.705 -29.054  26.211  1.00  0.00     0.004 C 
ENDBRANCH   1   5
TORSDOF 2
ENDMDL
MODEL 6
REMARK VINA RESULT:    -3.110      9.056     10.108
REMARK INTER + INTRA:          -3.512
REMARK INTER:                  -3.450
REMARK INTRA:                  -0.062
REMARK UNBOUND:                -0.038
REMARK SMILES CCCC(=O)[O-]
REMARK SMILES IDX 3 1 4 2 5 3 6 4 2 5 1 6
REMARK H PARENT
REMARK Flexibility Score: inf
ROOT
ATOM      1  C   UNL     1     -28.052 -33.693  23.089  1.00  0.00     0.052 C 
ENDROOT
BRANCH   1   2
ATOM      2  C   UNL     1     -27.329 -32.992  24.197  1.00  0.00     0.041 C 
ATOM      3  O   UNL     1     -27.849 -32.910  25.341  1.00  0.00    -0.550 OA
ATOM      4  O   UNL     1     -26.065 -32.457  23.976  1.00  0.00    -0.550 OA
ENDBRANCH   1   2
BRANCH   1   5
ATOM      5  C   UNL     1     -28.367 -32.743  21.925  1.00  0.00     0.003 C 
ATOM      6  C   UNL     1     -29.478 -31.750  22.269  1.00  0.00     0.004 C 
ENDBRANCH   1   5
TORSDOF 2
ENDMDL
MODEL 7
REMARK VINA RESULT:    -3.099      7.696      8.793
REMARK INTER + INTRA:          -3.500
REMARK INTER:                  -3.438
REMARK INTRA:                  -0.062
REMARK UNBOUND:                -0.038
REMARK SMILES CCCC(=O)[O-]
REMARK SMILES IDX 3 1 4 2 5 3 6 4 2 5 1 6
REMARK H PARENT
REMARK Flexibility Score: inf
ROOT
ATOM      1  C   UNL     1     -26.493 -32.945  26.718  1.00  0.00     0.052 C 
ENDROOT
BRANCH   1   2
ATOM      2  C   UNL     1     -27.460 -32.412  25.706  1.00  0.00     0.041 C 
ATOM      3  O   UNL     1     -28.003 -31.289  25.878  1.00  0.00    -0.550 OA
ATOM      4  O   UNL     1     -27.736 -33.141  24.555  1.00  0.00    -0.550 OA
ENDBRANCH   1   2
BRANCH   1   5
ATOM      5  C   UNL     1     -25.151 -33.325  26.078  1.00  0.00     0.003 C 
ATOM      6  C   UNL     1     -24.483 -32.141  25.379  1.00  0.00     0.004 C 
ENDBRANCH   1   5
TORSDOF 2
ENDMDL
MODEL 8
REMARK VINA RESULT:    -3.050      2.956      3.899
REMARK INTER + INTRA:          -3.445
REMARK INTER:                  -3.424
REMARK INTRA:                  -0.021
REMARK UNBOUND:                -0.038
REMARK SMILES CCCC(=O)[O-]
REMARK SMILES IDX 3 1 4 2 5 3 6 4 2 5 1 6
REMARK H PARENT
REMARK Flexibility Score: inf
ROOT
ATOM      1  C   UNL     1     -16.219 -30.804  21.846  1.00  0.00     0.052 C 
ENDROOT
BRANCH   1   2
ATOM      2  C   UNL     1     -16.439 -29.459  21.226  1.00  0.00     0.041 C 
ATOM      3  O   UNL     1     -16.570 -28.439  21.953  1.00  0.00    -0.550 OA
ATOM      4  O   UNL     1     -16.466 -29.325  19.843  1.00  0.00    -0.550 OA
ENDBRANCH   1   2
BRANCH   1   5
ATOM      5  C   UNL     1     -16.526 -30.794  23.350  1.00  0.00     0.003 C 
ATOM      6  C   UNL     1     -17.994 -31.099  23.646  1.00  0.00     0.004 C 
ENDBRANCH   1   5
TORSDOF 2
ENDMDL
MODEL 9
REMARK VINA RESULT:    -3.007     10.462     11.346
REMARK INTER + INTRA:          -3.397
REMARK INTER:                  -3.358
REMARK INTRA:                  -0.039
REMARK UNBOUND:                -0.038
REMARK SMILES CCCC(=O)[O-]
REMARK SMILES IDX 3 1 4 2 5 3 6 4 2 5 1 6
REMARK H PARENT
REMARK Flexibility Score: inf
ROOT
ATOM      1  C   UNL     1     -29.688 -31.441  22.086  1.00  0.00     0.052 C 
ENDROOT
BRANCH   1   2
ATOM      2  C   UNL     1     -30.150 -30.676  23.287  1.00  0.00     0.041 C 
ATOM      3  O   UNL     1     -31.342 -30.276  23.364  1.00  0.00    -0.550 OA
ATOM      4  O   UNL     1     -29.274 -30.432  24.337  1.00  0.00    -0.550 OA
ENDBRANCH   1   2
BRANCH   1   5
ATOM      5  C   UNL     1     -28.233 -31.906  22.232  1.00  0.00     0.003 C 
ATOM      6  C   UNL     1     -28.129 -33.387  22.597  1.00  0.00     0.004 C 
ENDBRANCH   1   5
TORSDOF 2
ENDMDL
