MODEL 1
REMARK VINA RESULT:    -6.175      0.000      0.000
REMARK INTER + INTRA:          -7.393
REMARK INTER:                  -7.258
REMARK INTRA:                  -0.135
REMARK UNBOUND:                -0.135
REMARK SMILES O=C([O-])C=Cc1ccc(O)c(O)c1
REMARK SMILES IDX 6 1 13 2 7 3 11 4 8 5 9 6 5 7 4 8 2 9 1 10 3 11 12 12 10 14
REMARK H PARENT 12 13 10 15
REMARK Flexibility Score: inf
ROOT
ATOM      1  C   UNL     1     -21.148 -23.225 -45.317  1.00  0.00    -0.022 A 
ATOM      2  C   UNL     1     -21.547 -22.497 -44.184  1.00  0.00     0.058 A 
ATOM      3  C   UNL     1     -21.658 -24.525 -45.503  1.00  0.00     0.012 A 
ATOM      4  C   UNL     1     -22.457 -23.040 -43.265  1.00  0.00     0.157 A 
ATOM      5  C   UNL     1     -22.564 -25.067 -44.587  1.00  0.00     0.051 A 
ATOM      6  C   UNL     1     -22.969 -24.330 -43.470  1.00  0.00     0.157 A 
ENDROOT
BRANCH   1   7
ATOM      7  C   UNL     1     -20.176 -22.608 -46.253  1.00  0.00     0.010 C 
ATOM      8  C   UNL     1     -19.012 -23.175 -46.598  1.00  0.00     0.025 C 
BRANCH   8   9
ATOM      9  C   UNL     1     -18.082 -22.530 -47.539  1.00  0.00     0.064 C 
ATOM     10  O   UNL     1     -18.428 -22.365 -48.738  1.00  0.00    -0.545 OA
ATOM     11  O   UNL     1     -16.825 -22.102 -47.127  1.00  0.00    -0.545 OA
ENDBRANCH   8   9
ENDBRANCH   1   7
BRANCH   4  12
ATOM     12  O   UNL     1     -22.851 -22.302 -42.150  1.00  0.00    -0.504 OA
ATOM     13  H   UNL     1     -23.827 -22.206 -41.895  1.00  0.00     0.293 HD
ENDBRANCH   4  12
BRANCH   6  14
ATOM     14  O   UNL     1     -23.875 -24.900 -42.575  1.00  0.00    -0.504 OA
ATOM     15  H   UNL     1     -23.579 -25.532 -41.842  1.00  0.00     0.293 HD
ENDBRANCH   6  14
TORSDOF 4
ENDMDL
MODEL 2
REMARK VINA RESULT:    -6.103      0.844      1.837
REMARK INTER + INTRA:          -7.308
REMARK INTER:                  -7.182
REMARK INTRA:                  -0.126
REMARK UNBOUND:                -0.135
REMARK SMILES O=C([O-])C=Cc1ccc(O)c(O)c1
REMARK SMILES IDX 6 1 13 2 7 3 11 4 8 5 9 6 5 7 4 8 2 9 1 10 3 11 12 12 10 14
REMARK H PARENT 12 13 10 15
REMARK Flexibility Score: inf
ROOT
ATOM      1  C   UNL     1     -21.157 -23.025 -44.918  1.00  0.00    -0.022 A 
ATOM      2  C   UNL     1     -21.937 -24.192 -44.963  1.00  0.00     0.058 A 
ATOM      3  C   UNL     1     -21.203 -22.222 -43.761  1.00  0.00     0.012 A 
ATOM      4  C   UNL     1     -22.728 -24.571 -43.868  1.00  0.00     0.157 A 
ATOM      5  C   UNL     1     -21.991 -22.599 -42.669  1.00  0.00     0.051 A 
ATOM      6  C   UNL     1     -22.752 -23.771 -42.716  1.00  0.00     0.157 A 
ENDROOT
BRANCH   1   7
ATOM      7  C   UNL     1     -20.347 -22.664 -46.107  1.00  0.00     0.010 C 
ATOM      8  C   UNL     1     -19.055 -22.989 -46.253  1.00  0.00     0.025 C 
BRANCH   8   9
ATOM      9  C   UNL     1     -18.292 -22.620 -47.457  1.00  0.00     0.064 C 
ATOM     10  O   UNL     1     -18.836 -22.709 -48.588  1.00  0.00    -0.545 OA
ATOM     11  O   UNL     1     -16.979 -22.174 -47.366  1.00  0.00    -0.545 OA
ENDBRANCH   8   9
ENDBRANCH   1   7
BRANCH   4  12
ATOM     12  O   UNL     1     -23.489 -25.738 -43.924  1.00  0.00    -0.504 OA
ATOM     13  H   UNL     1     -23.207 -26.529 -44.490  1.00  0.00     0.293 HD
ENDBRANCH   4  12
BRANCH   6  14
ATOM     14  O   UNL     1     -23.528 -24.119 -41.610  1.00  0.00    -0.504 OA
ATOM     15  H   UNL     1     -24.306 -24.763 -41.682  1.00  0.00     0.293 HD
ENDBRANCH   6  14
TORSDOF 4
ENDMDL
MODEL 3
REMARK VINA RESULT:    -3.579      2.930      6.402
REMARK INTER + INTRA:          -4.341
REMARK INTER:                  -4.207
REMARK INTRA:                  -0.135
REMARK UNBOUND:                -0.135
REMARK SMILES O=C([O-])C=Cc1ccc(O)c(O)c1
REMARK SMILES IDX 6 1 13 2 7 3 11 4 8 5 9 6 5 7 4 8 2 9 1 10 3 11 12 12 10 14
REMARK H PARENT 12 13 10 15
REMARK Flexibility Score: inf
ROOT
ATOM      1  C   UNL     1     -22.776 -23.821 -43.029  1.00  0.00    -0.022 A 
ATOM      2  C   UNL     1     -23.053 -24.151 -44.367  1.00  0.00     0.058 A 
ATOM      3  C   UNL     1     -22.031 -22.657 -42.758  1.00  0.00     0.012 A 
ATOM      4  C   UNL     1     -22.621 -23.326 -45.414  1.00  0.00     0.157 A 
ATOM      5  C   UNL     1     -21.600 -21.833 -43.802  1.00  0.00     0.051 A 
ATOM      6  C   UNL     1     -21.893 -22.160 -45.130  1.00  0.00     0.157 A 
ENDROOT
BRANCH   1   7
ATOM      7  C   UNL     1     -23.247 -24.734 -41.959  1.00  0.00     0.010 C 
ATOM      8  C   UNL     1     -23.459 -26.045 -42.139  1.00  0.00     0.025 C 
BRANCH   8   9
ATOM      9  C   UNL     1     -23.916 -26.916 -41.044  1.00  0.00     0.064 C 
ATOM     10  O   UNL     1     -24.122 -26.424 -39.904  1.00  0.00    -0.545 OA
ATOM     11  O   UNL     1     -24.125 -28.275 -41.247  1.00  0.00    -0.545 OA
ENDBRANCH   8   9
ENDBRANCH   1   7
BRANCH   4  12
ATOM     12  O   UNL     1     -22.912 -23.661 -46.736  1.00  0.00    -0.504 OA
ATOM     13  H   UNL     1     -23.793 -23.406 -47.167  1.00  0.00     0.293 HD
ENDBRANCH   4  12
BRANCH   6  14
ATOM     14  O   UNL     1     -21.449 -21.317 -46.149  1.00  0.00    -0.504 OA
ATOM     15  H   UNL     1     -21.720 -21.455 -47.115  1.00  0.00     0.293 HD
ENDBRANCH   6  14
TORSDOF 4
ENDMDL
