MODEL 1
REMARK VINA RESULT:    -3.445      0.000      0.000
REMARK INTER + INTRA:          -4.096
REMARK INTER:                  -4.050
REMARK INTRA:                  -0.046
REMARK UNBOUND:                -0.046
REMARK SMILES O=C([O-])CCC(=O)[O-]
REMARK SMILES IDX 4 1 2 2 1 3 3 4 5 5 6 6 7 7 8 8
REMARK H PARENT
REMARK Flexibility Score: inf
ROOT
ATOM      1  C   UNL     1       5.651  -1.815  -6.196  1.00  0.00     0.059 C 
ENDROOT
BRANCH   1   2
ATOM      2  C   UNL     1       6.231  -3.013  -5.514  1.00  0.00     0.042 C 
ATOM      3  O   UNL     1       7.435  -3.014  -5.149  1.00  0.00    -0.550 OA
ATOM      4  O   UNL     1       5.427  -4.113  -5.238  1.00  0.00    -0.550 OA
ENDBRANCH   1   2
BRANCH   1   5
ATOM      5  C   UNL     1       6.279  -0.532  -5.650  1.00  0.00     0.059 C 
BRANCH   5   6
ATOM      6  C   UNL     1       5.220   0.406  -5.167  1.00  0.00     0.042 C 
ATOM      7  O   UNL     1       5.416   1.109  -4.141  1.00  0.00    -0.550 OA
ATOM      8  O   UNL     1       3.996   0.469  -5.822  1.00  0.00    -0.550 OA
ENDBRANCH   5   6
ENDBRANCH   1   5
TORSDOF 3
ENDMDL
MODEL 2
REMARK VINA RESULT:    -3.439      0.091      3.885
REMARK INTER + INTRA:          -4.088
REMARK INTER:                  -4.039
REMARK INTRA:                  -0.049
REMARK UNBOUND:                -0.046
REMARK SMILES O=C([O-])CCC(=O)[O-]
REMARK SMILES IDX 4 1 2 2 1 3 3 4 5 5 6 6 7 7 8 8
REMARK H PARENT
REMARK Flexibility Score: inf
ROOT
ATOM      1  C   UNL     1       6.266  -0.545  -5.675  1.00  0.00     0.059 C 
ENDROOT
BRANCH   1   2
ATOM      2  C   UNL     1       5.188   0.380  -5.207  1.00  0.00     0.042 C 
ATOM      3  O   UNL     1       5.366   1.095  -4.187  1.00  0.00    -0.550 OA
ATOM      4  O   UNL     1       4.005   0.489  -5.927  1.00  0.00    -0.550 OA
ENDBRANCH   1   2
BRANCH   1   5
ATOM      5  C   UNL     1       5.662  -1.838  -6.226  1.00  0.00     0.059 C 
BRANCH   5   6
ATOM      6  C   UNL     1       6.164  -3.020  -5.460  1.00  0.00     0.042 C 
ATOM      7  O   UNL     1       7.340  -3.031  -5.011  1.00  0.00    -0.550 OA
ATOM      8  O   UNL     1       5.350  -4.132  -5.285  1.00  0.00    -0.550 OA
ENDBRANCH   5   6
ENDBRANCH   1   5
TORSDOF 3
ENDMDL
MODEL 3
REMARK VINA RESULT:    -3.429      0.104      3.985
REMARK INTER + INTRA:          -4.077
REMARK INTER:                  -4.020
REMARK INTRA:                  -0.057
REMARK UNBOUND:                -0.046
REMARK SMILES O=C([O-])CCC(=O)[O-]
REMARK SMILES IDX 4 1 2 2 1 3 3 4 5 5 6 6 7 7 8 8
REMARK H PARENT
REMARK Flexibility Score: inf
ROOT
ATOM      1  C   UNL     1       6.285  -0.560  -5.722  1.00  0.00     0.059 C 
ENDROOT
BRANCH   1   2
ATOM      2  C   UNL     1       5.198   0.346  -5.237  1.00  0.00     0.042 C 
ATOM      3  O   UNL     1       4.082   0.365  -5.819  1.00  0.00    -0.550 OA
ATOM      4  O   UNL     1       5.401   1.135  -4.112  1.00  0.00    -0.550 OA
ENDBRANCH   1   2
BRANCH   1   5
ATOM      5  C   UNL     1       5.694  -1.864  -6.261  1.00  0.00     0.059 C 
BRANCH   5   6
ATOM      6  C   UNL     1       6.193  -3.032  -5.470  1.00  0.00     0.042 C 
ATOM      7  O   UNL     1       7.356  -3.020  -4.988  1.00  0.00    -0.550 OA
ATOM      8  O   UNL     1       5.391  -4.154  -5.307  1.00  0.00    -0.550 OA
ENDBRANCH   5   6
ENDBRANCH   1   5
TORSDOF 3
ENDMDL
MODEL 4
REMARK VINA RESULT:    -3.420      0.099      1.147
REMARK INTER + INTRA:          -4.067
REMARK INTER:                  -4.011
REMARK INTRA:                  -0.056
REMARK UNBOUND:                -0.046
REMARK SMILES O=C([O-])CCC(=O)[O-]
REMARK SMILES IDX 4 1 2 2 1 3 3 4 5 5 6 6 7 7 8 8
REMARK H PARENT
REMARK Flexibility Score: inf
ROOT
ATOM      1  C   UNL     1       5.660  -1.863  -6.249  1.00  0.00     0.059 C 
ENDROOT
BRANCH   1   2
ATOM      2  C   UNL     1       6.238  -3.036  -5.523  1.00  0.00     0.042 C 
ATOM      3  O   UNL     1       7.440  -3.020  -5.149  1.00  0.00    -0.550 OA
ATOM      4  O   UNL     1       5.435  -4.127  -5.214  1.00  0.00    -0.550 OA
ENDBRANCH   1   2
BRANCH   1   5
ATOM      5  C   UNL     1       6.257  -0.558  -5.721  1.00  0.00     0.059 C 
BRANCH   5   6
ATOM      6  C   UNL     1       5.186   0.317  -5.153  1.00  0.00     0.042 C 
ATOM      7  O   UNL     1       4.036   0.324  -5.665  1.00  0.00    -0.550 OA
ATOM      8  O   UNL     1       5.472   1.164  -4.088  1.00  0.00    -0.550 OA
ENDBRANCH   5   6
ENDBRANCH   1   5
TORSDOF 3
ENDMDL
MODEL 5
REMARK VINA RESULT:    -3.273      1.458      2.040
REMARK INTER + INTRA:          -3.893
REMARK INTER:                  -3.862
REMARK INTRA:                  -0.031
REMARK UNBOUND:                -0.046
REMARK SMILES O=C([O-])CCC(=O)[O-]
REMARK SMILES IDX 4 1 2 2 1 3 3 4 5 5 6 6 7 7 8 8
REMARK H PARENT
REMARK Flexibility Score: inf
ROOT
ATOM      1  C   UNL     1       6.888  -2.870  -5.214  1.00  0.00     0.059 C 
ENDROOT
BRANCH   1   2
ATOM      2  C   UNL     1       6.694  -4.353  -5.173  1.00  0.00     0.042 C 
ATOM      3  O   UNL     1       6.212  -4.957  -6.166  1.00  0.00    -0.550 OA
ATOM      4  O   UNL     1       7.093  -5.075  -4.055  1.00  0.00    -0.550 OA
ENDBRANCH   1   2
BRANCH   1   5
ATOM      5  C   UNL     1       5.784  -2.209  -6.041  1.00  0.00     0.059 C 
BRANCH   5   6
ATOM      6  C   UNL     1       5.564  -0.800  -5.590  1.00  0.00     0.042 C 
ATOM      7  O   UNL     1       4.442  -0.447  -5.141  1.00  0.00    -0.550 OA
ATOM      8  O   UNL     1       6.583   0.136  -5.710  1.00  0.00    -0.550 OA
ENDBRANCH   5   6
ENDBRANCH   1   5
TORSDOF 3
ENDMDL
MODEL 6
REMARK VINA RESULT:    -3.093      1.534      4.192
REMARK INTER + INTRA:          -3.682
REMARK INTER:                  -3.571
REMARK INTRA:                  -0.112
REMARK UNBOUND:                -0.046
REMARK SMILES O=C([O-])CCC(=O)[O-]
REMARK SMILES IDX 4 1 2 2 1 3 3 4 5 5 6 6 7 7 8 8
REMARK H PARENT
REMARK Flexibility Score: inf
ROOT
ATOM      1  C   UNL     1       4.572  -0.032  -5.475  1.00  0.00     0.059 C 
ENDROOT
BRANCH   1   2
ATOM      2  C   UNL     1       4.329   1.054  -6.474  1.00  0.00     0.042 C 
ATOM      3  O   UNL     1       4.451   2.262  -6.139  1.00  0.00    -0.550 OA
ATOM      4  O   UNL     1       4.017   0.732  -7.789  1.00  0.00    -0.550 OA
ENDBRANCH   1   2
BRANCH   1   5
ATOM      5  C   UNL     1       6.065  -0.355  -5.386  1.00  0.00     0.059 C 
BRANCH   5   6
ATOM      6  C   UNL     1       6.332  -1.740  -5.882  1.00  0.00     0.042 C 
ATOM      7  O   UNL     1       5.723  -2.179  -6.893  1.00  0.00    -0.550 OA
ATOM      8  O   UNL     1       7.219  -2.564  -5.199  1.00  0.00    -0.550 OA
ENDBRANCH   5   6
ENDBRANCH   1   5
TORSDOF 3
ENDMDL
MODEL 7
REMARK VINA RESULT:    -3.031      1.627      2.214
REMARK INTER + INTRA:          -3.609
REMARK INTER:                  -3.507
REMARK INTRA:                  -0.103
REMARK UNBOUND:                -0.046
REMARK SMILES O=C([O-])CCC(=O)[O-]
REMARK SMILES IDX 4 1 2 2 1 3 3 4 5 5 6 6 7 7 8 8
REMARK H PARENT
REMARK Flexibility Score: inf
ROOT
ATOM      1  C   UNL     1       5.270  -1.043  -5.625  1.00  0.00     0.059 C 
ENDROOT
BRANCH   1   2
ATOM      2  C   UNL     1       6.710  -1.404  -5.809  1.00  0.00     0.042 C 
ATOM      3  O   UNL     1       7.481  -0.633  -6.439  1.00  0.00    -0.550 OA
ATOM      4  O   UNL     1       7.213  -2.568  -5.242  1.00  0.00    -0.550 OA
ENDBRANCH   1   2
BRANCH   1   5
ATOM      5  C   UNL     1       5.131   0.431  -5.244  1.00  0.00     0.059 C 
BRANCH   5   6
ATOM      6  C   UNL     1       4.515   1.207  -6.365  1.00  0.00     0.042 C 
ATOM      7  O   UNL     1       4.178   0.624  -7.428  1.00  0.00    -0.550 OA
ATOM      8  O   UNL     1       4.358   2.583  -6.254  1.00  0.00    -0.550 OA
ENDBRANCH   5   6
ENDBRANCH   1   5
TORSDOF 3
ENDMDL
MODEL 8
REMARK VINA RESULT:    -2.967     12.146     13.172
REMARK INTER + INTRA:          -3.533
REMARK INTER:                  -3.413
REMARK INTRA:                  -0.120
REMARK UNBOUND:                -0.046
REMARK SMILES O=C([O-])CCC(=O)[O-]
REMARK SMILES IDX 4 1 2 2 1 3 3 4 5 5 6 6 7 7 8 8
REMARK H PARENT
REMARK Flexibility Score: inf
ROOT
ATOM      1  C   UNL     1      -0.441  -9.718   3.486  1.00  0.00     0.059 C 
ENDROOT
BRANCH   1   2
ATOM      2  C   UNL     1      -1.443  -8.711   3.018  1.00  0.00     0.042 C 
ATOM      3  O   UNL     1      -2.633  -8.765   3.427  1.00  0.00    -0.550 OA
ATOM      4  O   UNL     1      -1.053  -7.683   2.170  1.00  0.00    -0.550 OA
ENDBRANCH   1   2
BRANCH   1   5
ATOM      5  C   UNL     1       0.670  -9.036   4.286  1.00  0.00     0.059 C 
BRANCH   5   6
ATOM      6  C   UNL     1       1.954  -9.050   3.518  1.00  0.00     0.042 C 
ATOM      7  O   UNL     1       3.036  -8.750   4.087  1.00  0.00    -0.550 OA
ATOM      8  O   UNL     1       1.948  -9.349   2.161  1.00  0.00    -0.550 OA
ENDBRANCH   5   6
ENDBRANCH   1   5
TORSDOF 3
ENDMDL
MODEL 9
REMARK VINA RESULT:    -2.952     12.097     12.927
REMARK INTER + INTRA:          -3.516
REMARK INTER:                  -3.394
REMARK INTRA:                  -0.121
REMARK UNBOUND:                -0.046
REMARK SMILES O=C([O-])CCC(=O)[O-]
REMARK SMILES IDX 4 1 2 2 1 3 3 4 5 5 6 6 7 7 8 8
REMARK H PARENT
REMARK Flexibility Score: inf
ROOT
ATOM      1  C   UNL     1       0.695  -9.019   4.254  1.00  0.00     0.059 C 
ENDROOT
BRANCH   1   2
ATOM      2  C   UNL     1       1.977  -9.054   3.485  1.00  0.00     0.042 C 
ATOM      3  O   UNL     1       3.080  -8.998   4.089  1.00  0.00    -0.550 OA
ATOM      4  O   UNL     1       1.956  -9.199   2.104  1.00  0.00    -0.550 OA
ENDBRANCH   1   2
BRANCH   1   5
ATOM      5  C   UNL     1      -0.420  -9.712   3.469  1.00  0.00     0.059 C 
BRANCH   5   6
ATOM      6  C   UNL     1      -1.444  -8.716   3.024  1.00  0.00     0.042 C 
ATOM      7  O   UNL     1      -2.644  -8.837   3.385  1.00  0.00    -0.550 OA
ATOM      8  O   UNL     1      -1.082  -7.681   2.171  1.00  0.00    -0.550 OA
ENDBRANCH   5   6
ENDBRANCH   1   5
TORSDOF 3
ENDMDL
