MODEL 1
REMARK VINA RESULT:    -4.491      0.000      0.000
REMARK INTER + INTRA:          -9.727
REMARK INTER:                  -7.642
REMARK INTRA:                  -2.086
REMARK UNBOUND:                -2.086
REMARK SMILES CCCCCCCCCCCCCC(=O)[O-]
REMARK SMILES IDX 8 1 9 2 10 3 11 4 12 5 13 6 14 7 15 8 16 9 7 10 6 11 5 12
REMARK SMILES IDX 4 13 3 14 2 15 1 16
REMARK H PARENT
REMARK Flexibility Score: inf
ROOT
ATOM      1  C   UNL     1      62.269  29.830  24.598  1.00  0.00     0.000 C 
ENDROOT
BRANCH   1   2
ATOM      2  C   UNL     1      63.675  29.975  23.993  1.00  0.00     0.000 C 
BRANCH   2   3
ATOM      3  C   UNL     1      64.753  30.234  25.057  1.00  0.00     0.000 C 
BRANCH   3   4
ATOM      4  C   UNL     1      65.190  28.949  25.781  1.00  0.00     0.000 C 
BRANCH   4   5
ATOM      5  C   UNL     1      65.558  27.819  24.808  1.00  0.00     0.006 C 
BRANCH   5   6
ATOM      6  C   UNL     1      64.831  26.506  25.127  1.00  0.00     0.053 C 
BRANCH   6   7
ATOM      7  C   UNL     1      64.417  25.819  23.865  1.00  0.00     0.041 C 
ATOM      8  O   UNL     1      65.155  25.866  22.845  1.00  0.00    -0.550 OA
ATOM      9  O   UNL     1      63.193  25.166  23.797  1.00  0.00    -0.550 OA
ENDBRANCH   6   7
ENDBRANCH   5   6
ENDBRANCH   4   5
ENDBRANCH   3   4
ENDBRANCH   2   3
ENDBRANCH   1   2
BRANCH   1  10
ATOM     10  C   UNL     1      61.728  28.407  24.388  1.00  0.00     0.000 C 
BRANCH  10  11
ATOM     11  C   UNL     1      60.801  27.950  25.526  1.00  0.00    -0.000 C 
BRANCH  11  12
ATOM     12  C   UNL     1      61.509  27.021  26.527  1.00  0.00    -0.000 C 
BRANCH  12  13
ATOM     13  C   UNL     1      61.474  27.560  27.969  1.00  0.00    -0.000 C 
BRANCH  13  14
ATOM     14  C   UNL     1      62.607  28.542  28.331  1.00  0.00    -0.000 C 
BRANCH  14  15
ATOM     15  C   UNL     1      62.208  30.028  28.328  1.00  0.00    -0.003 C 
ATOM     16  C   UNL     1      63.409  30.968  28.430  1.00  0.00     0.004 C 
ENDBRANCH  14  15
ENDBRANCH  13  14
ENDBRANCH  12  13
ENDBRANCH  11  12
ENDBRANCH  10  11
ENDBRANCH   1  10
TORSDOF 12
ENDMDL
MODEL 2
REMARK VINA RESULT:    -4.463     12.646     14.693
REMARK INTER + INTRA:          -9.679
REMARK INTER:                  -7.860
REMARK INTRA:                  -1.819
REMARK UNBOUND:                -2.086
REMARK SMILES CCCCCCCCCCCCCC(=O)[O-]
REMARK SMILES IDX 8 1 9 2 10 3 11 4 12 5 13 6 14 7 15 8 16 9 7 10 6 11 5 12
REMARK SMILES IDX 4 13 3 14 2 15 1 16
REMARK H PARENT
REMARK Flexibility Score: inf
ROOT
ATOM      1  C   UNL     1      60.791  28.605  13.381  1.00  0.00     0.000 C 
ENDROOT
BRANCH   1   2
ATOM      2  C   UNL     1      62.183  28.671  12.733  1.00  0.00     0.000 C 
BRANCH   2   3
ATOM      3  C   UNL     1      63.185  29.487  13.565  1.00  0.00     0.000 C 
BRANCH   3   4
ATOM      4  C   UNL     1      62.569  30.776  14.136  1.00  0.00     0.000 C 
BRANCH   4   5
ATOM      5  C   UNL     1      62.560  31.927  13.118  1.00  0.00     0.006 C 
BRANCH   5   6
ATOM      6  C   UNL     1      61.142  32.318  12.686  1.00  0.00     0.053 C 
BRANCH   6   7
ATOM      7  C   UNL     1      60.323  32.709  13.875  1.00  0.00     0.041 C 
ATOM      8  O   UNL     1      60.643  33.715  14.563  1.00  0.00    -0.550 OA
ATOM      9  O   UNL     1      59.233  31.936  14.255  1.00  0.00    -0.550 OA
ENDBRANCH   6   7
ENDBRANCH   5   6
ENDBRANCH   4   5
ENDBRANCH   3   4
ENDBRANCH   2   3
ENDBRANCH   1   2
BRANCH   1  10
ATOM     10  C   UNL     1      59.695  28.469  12.313  1.00  0.00     0.000 C 
BRANCH  10  11
ATOM     11  C   UNL     1      59.904  29.420  11.123  1.00  0.00    -0.000 C 
BRANCH  11  12
ATOM     12  C   UNL     1      59.760  28.709   9.766  1.00  0.00    -0.000 C 
BRANCH  12  13
ATOM     13  C   UNL     1      61.108  28.226   9.200  1.00  0.00    -0.000 C 
BRANCH  13  14
ATOM     14  C   UNL     1      62.135  29.338   8.908  1.00  0.00    -0.000 C 
BRANCH  14  15
ATOM     15  C   UNL     1      63.575  29.027   9.355  1.00  0.00    -0.003 C 
ATOM     16  C   UNL     1      64.261  30.219  10.024  1.00  0.00     0.004 C 
ENDBRANCH  14  15
ENDBRANCH  13  14
ENDBRANCH  12  13
ENDBRANCH  11  12
ENDBRANCH  10  11
ENDBRANCH   1  10
TORSDOF 12
ENDMDL
MODEL 3
REMARK VINA RESULT:    -4.400      2.506      4.802
REMARK INTER + INTRA:          -9.572
REMARK INTER:                  -7.902
REMARK INTRA:                  -1.671
REMARK UNBOUND:                -2.086
REMARK SMILES CCCCCCCCCCCCCC(=O)[O-]
REMARK SMILES IDX 8 1 9 2 10 3 11 4 12 5 13 6 14 7 15 8 16 9 7 10 6 11 5 12
REMARK SMILES IDX 4 13 3 14 2 15 1 16
REMARK H PARENT
REMARK Flexibility Score: inf
ROOT
ATOM      1  C   UNL     1      61.908  28.366  24.219  1.00  0.00     0.000 C 
ENDROOT
BRANCH   1   2
ATOM      2  C   UNL     1      61.843  29.721  24.942  1.00  0.00     0.000 C 
BRANCH   2   3
ATOM      3  C   UNL     1      63.222  30.387  25.077  1.00  0.00     0.000 C 
BRANCH   3   4
ATOM      4  C   UNL     1      63.718  30.429  26.532  1.00  0.00     0.000 C 
BRANCH   4   5
ATOM      5  C   UNL     1      62.591  30.185  27.547  1.00  0.00     0.006 C 
BRANCH   5   6
ATOM      6  C   UNL     1      62.927  29.067  28.542  1.00  0.00     0.053 C 
BRANCH   6   7
ATOM      7  C   UNL     1      61.711  28.247  28.836  1.00  0.00     0.041 C 
ATOM      8  O   UNL     1      60.621  28.809  29.123  1.00  0.00    -0.550 OA
ATOM      9  O   UNL     1      61.792  26.860  28.842  1.00  0.00    -0.550 OA
ENDBRANCH   6   7
ENDBRANCH   5   6
ENDBRANCH   4   5
ENDBRANCH   3   4
ENDBRANCH   2   3
ENDBRANCH   1   2
BRANCH   1  10
ATOM     10  C   UNL     1      61.868  27.206  25.226  1.00  0.00     0.000 C 
BRANCH  10  11
ATOM     11  C   UNL     1      63.253  26.591  25.481  1.00  0.00    -0.000 C 
BRANCH  11  12
ATOM     12  C   UNL     1      63.763  25.769  24.284  1.00  0.00    -0.000 C 
BRANCH  12  13
ATOM     13  C   UNL     1      65.269  25.960  24.027  1.00  0.00    -0.000 C 
BRANCH  13  14
ATOM     14  C   UNL     1      65.623  26.894  22.852  1.00  0.00    -0.000 C 
BRANCH  14  15
ATOM     15  C   UNL     1      66.593  28.037  23.199  1.00  0.00    -0.003 C 
ATOM     16  C   UNL     1      66.319  28.658  24.568  1.00  0.00     0.004 C 
ENDBRANCH  14  15
ENDBRANCH  13  14
ENDBRANCH  12  13
ENDBRANCH  11  12
ENDBRANCH  10  11
ENDBRANCH   1  10
TORSDOF 12
ENDMDL
MODEL 4
REMARK VINA RESULT:    -4.352      1.015      2.320
REMARK INTER + INTRA:          -9.490
REMARK INTER:                  -7.777
REMARK INTRA:                  -1.713
REMARK UNBOUND:                -2.086
REMARK SMILES CCCCCCCCCCCCCC(=O)[O-]
REMARK SMILES IDX 8 1 9 2 10 3 11 4 12 5 13 6 14 7 15 8 16 9 7 10 6 11 5 12
REMARK SMILES IDX 4 13 3 14 2 15 1 16
REMARK H PARENT
REMARK Flexibility Score: inf
ROOT
ATOM      1  C   UNL     1      60.725  27.189  25.936  1.00  0.00     0.000 C 
ENDROOT
BRANCH   1   2
ATOM      2  C   UNL     1      61.135  28.210  24.864  1.00  0.00     0.000 C 
BRANCH   2   3
ATOM      3  C   UNL     1      62.447  28.934  25.206  1.00  0.00     0.000 C 
BRANCH   3   4
ATOM      4  C   UNL     1      63.463  28.896  24.051  1.00  0.00     0.000 C 
BRANCH   4   5
ATOM      5  C   UNL     1      64.859  28.447  24.508  1.00  0.00     0.006 C 
BRANCH   5   6
ATOM      6  C   UNL     1      64.847  27.060  25.162  1.00  0.00     0.053 C 
BRANCH   6   7
ATOM      7  C   UNL     1      64.602  26.001  24.135  1.00  0.00     0.041 C 
ATOM      8  O   UNL     1      65.493  25.719  23.290  1.00  0.00    -0.550 OA
ATOM      9  O   UNL     1      63.373  25.357  24.078  1.00  0.00    -0.550 OA
ENDBRANCH   6   7
ENDBRANCH   5   6
ENDBRANCH   4   5
ENDBRANCH   3   4
ENDBRANCH   2   3
ENDBRANCH   1   2
BRANCH   1  10
ATOM     10  C   UNL     1      61.735  27.175  27.094  1.00  0.00     0.000 C 
BRANCH  10  11
ATOM     11  C   UNL     1      61.083  27.468  28.455  1.00  0.00    -0.000 C 
BRANCH  11  12
ATOM     12  C   UNL     1      61.245  28.936  28.885  1.00  0.00    -0.000 C 
BRANCH  12  13
ATOM     13  C   UNL     1      62.719  29.380  28.951  1.00  0.00    -0.000 C 
BRANCH  13  14
ATOM     14  C   UNL     1      63.021  30.755  28.322  1.00  0.00    -0.000 C 
BRANCH  14  15
ATOM     15  C   UNL     1      64.485  31.215  28.435  1.00  0.00    -0.003 C 
ATOM     16  C   UNL     1      65.437  30.393  27.566  1.00  0.00     0.004 C 
ENDBRANCH  14  15
ENDBRANCH  13  14
ENDBRANCH  12  13
ENDBRANCH  11  12
ENDBRANCH  10  11
ENDBRANCH   1  10
TORSDOF 12
ENDMDL
MODEL 5
REMARK VINA RESULT:    -4.270      0.992      2.721
REMARK INTER + INTRA:          -9.352
REMARK INTER:                  -7.630
REMARK INTRA:                  -1.721
REMARK UNBOUND:                -2.086
REMARK SMILES CCCCCCCCCCCCCC(=O)[O-]
REMARK SMILES IDX 8 1 9 2 10 3 11 4 12 5 13 6 14 7 15 8 16 9 7 10 6 11 5 12
REMARK SMILES IDX 4 13 3 14 2 15 1 16
REMARK H PARENT
REMARK Flexibility Score: inf
ROOT
ATOM      1  C   UNL     1      63.917  30.483  26.827  1.00  0.00     0.000 C 
ENDROOT
BRANCH   1   2
ATOM      2  C   UNL     1      65.334  30.130  27.307  1.00  0.00     0.000 C 
BRANCH   2   3
ATOM      3  C   UNL     1      66.241  29.643  26.165  1.00  0.00     0.000 C 
BRANCH   3   4
ATOM      4  C   UNL     1      65.541  29.683  24.796  1.00  0.00     0.000 C 
BRANCH   4   5
ATOM      5  C   UNL     1      65.606  28.335  24.061  1.00  0.00     0.006 C 
BRANCH   5   6
ATOM      6  C   UNL     1      65.050  27.179  24.901  1.00  0.00     0.053 C 
BRANCH   6   7
ATOM      7  C   UNL     1      64.733  26.005  24.029  1.00  0.00     0.041 C 
ATOM      8  O   UNL     1      65.571  25.603  23.178  1.00  0.00    -0.550 OA
ATOM      9  O   UNL     1      63.494  25.384  24.120  1.00  0.00    -0.550 OA
ENDBRANCH   6   7
ENDBRANCH   5   6
ENDBRANCH   4   5
ENDBRANCH   3   4
ENDBRANCH   2   3
ENDBRANCH   1   2
BRANCH   1  10
ATOM     10  C   UNL     1      62.985  30.746  28.020  1.00  0.00     0.000 C 
BRANCH  10  11
ATOM     11  C   UNL     1      62.741  29.490  28.872  1.00  0.00    -0.000 C 
BRANCH  11  12
ATOM     12  C   UNL     1      61.311  28.942  28.722  1.00  0.00    -0.000 C 
BRANCH  12  13
ATOM     13  C   UNL     1      61.279  27.491  28.208  1.00  0.00    -0.000 C 
BRANCH  13  14
ATOM     14  C   UNL     1      61.950  27.262  26.839  1.00  0.00    -0.000 C 
BRANCH  14  15
ATOM     15  C   UNL     1      61.042  27.504  25.620  1.00  0.00    -0.003 C 
ATOM     16  C   UNL     1      61.610  28.541  24.651  1.00  0.00     0.004 C 
ENDBRANCH  14  15
ENDBRANCH  13  14
ENDBRANCH  12  13
ENDBRANCH  11  12
ENDBRANCH  10  11
ENDBRANCH   1  10
TORSDOF 12
ENDMDL
MODEL 6
REMARK VINA RESULT:    -4.269     12.681     14.393
REMARK INTER + INTRA:          -9.350
REMARK INTER:                  -7.973
REMARK INTRA:                  -1.376
REMARK UNBOUND:                -2.086
REMARK SMILES CCCCCCCCCCCCCC(=O)[O-]
REMARK SMILES IDX 8 1 9 2 10 3 11 4 12 5 13 6 14 7 15 8 16 9 7 10 6 11 5 12
REMARK SMILES IDX 4 13 3 14 2 15 1 16
REMARK H PARENT
REMARK Flexibility Score: inf
ROOT
ATOM      1  C   UNL     1      59.582  29.203  12.440  1.00  0.00     0.000 C 
ENDROOT
BRANCH   1   2
ATOM      2  C   UNL     1      60.033  29.815  11.105  1.00  0.00     0.000 C 
BRANCH   2   3
ATOM      3  C   UNL     1      60.106  28.778   9.972  1.00  0.00     0.000 C 
BRANCH   3   4
ATOM      4  C   UNL     1      61.365  28.939   9.103  1.00  0.00     0.000 C 
BRANCH   4   5
ATOM      5  C   UNL     1      62.663  28.740   9.902  1.00  0.00     0.006 C 
BRANCH   5   6
ATOM      6  C   UNL     1      63.914  29.090   9.087  1.00  0.00     0.053 C 
BRANCH   6   7
ATOM      7  C   UNL     1      64.616  30.267   9.687  1.00  0.00     0.041 C 
ATOM      8  O   UNL     1      65.550  30.835   9.062  1.00  0.00    -0.550 OA
ATOM      9  O   UNL     1      64.272  30.708  10.959  1.00  0.00    -0.550 OA
ENDBRANCH   6   7
ENDBRANCH   5   6
ENDBRANCH   4   5
ENDBRANCH   3   4
ENDBRANCH   2   3
ENDBRANCH   1   2
BRANCH   1  10
ATOM     10  C   UNL     1      60.652  28.252  12.996  1.00  0.00     0.000 C 
BRANCH  10  11
ATOM     11  C   UNL     1      61.937  28.984  13.417  1.00  0.00    -0.000 C 
BRANCH  11  12
ATOM     12  C   UNL     1      61.693  30.007  14.540  1.00  0.00    -0.000 C 
BRANCH  12  13
ATOM     13  C   UNL     1      62.385  31.358  14.278  1.00  0.00    -0.000 C 
BRANCH  13  14
ATOM     14  C   UNL     1      61.797  32.184  13.116  1.00  0.00    -0.000 C 
BRANCH  14  15
ATOM     15  C   UNL     1      60.689  33.174  13.516  1.00  0.00    -0.003 C 
ATOM     16  C   UNL     1      60.781  33.613  14.977  1.00  0.00     0.004 C 
ENDBRANCH  14  15
ENDBRANCH  13  14
ENDBRANCH  12  13
ENDBRANCH  11  12
ENDBRANCH  10  11
ENDBRANCH   1  10
TORSDOF 12
ENDMDL
MODEL 7
REMARK VINA RESULT:    -4.259     12.663     14.638
REMARK INTER + INTRA:          -9.333
REMARK INTER:                  -7.781
REMARK INTRA:                  -1.552
REMARK UNBOUND:                -2.086
REMARK SMILES CCCCCCCCCCCCCC(=O)[O-]
REMARK SMILES IDX 8 1 9 2 10 3 11 4 12 5 13 6 14 7 15 8 16 9 7 10 6 11 5 12
REMARK SMILES IDX 4 13 3 14 2 15 1 16
REMARK H PARENT
REMARK Flexibility Score: inf
ROOT
ATOM      1  C   UNL     1      64.082  30.560  10.041  1.00  0.00     0.000 C 
ENDROOT
BRANCH   1   2
ATOM      2  C   UNL     1      64.172  30.778  11.560  1.00  0.00     0.000 C 
BRANCH   2   3
ATOM      3  C   UNL     1      64.307  32.262  11.938  1.00  0.00     0.000 C 
BRANCH   3   4
ATOM      4  C   UNL     1      63.300  32.690  13.020  1.00  0.00     0.000 C 
BRANCH   4   5
ATOM      5  C   UNL     1      61.871  32.211  12.719  1.00  0.00     0.006 C 
BRANCH   5   6
ATOM      6  C   UNL     1      60.811  32.996  13.502  1.00  0.00     0.053 C 
BRANCH   6   7
ATOM      7  C   UNL     1      60.045  32.080  14.403  1.00  0.00     0.041 C 
ATOM      8  O   UNL     1      58.859  31.759  14.122  1.00  0.00    -0.550 OA
ATOM      9  O   UNL     1      60.621  31.618  15.580  1.00  0.00    -0.550 OA
ENDBRANCH   6   7
ENDBRANCH   5   6
ENDBRANCH   4   5
ENDBRANCH   3   4
ENDBRANCH   2   3
ENDBRANCH   1   2
BRANCH   1  10
ATOM     10  C   UNL     1      63.460  29.193   9.720  1.00  0.00     0.000 C 
BRANCH  10  11
ATOM     11  C   UNL     1      62.167  29.306   8.896  1.00  0.00    -0.000 C 
BRANCH  11  12
ATOM     12  C   UNL     1      61.107  28.273   9.315  1.00  0.00    -0.000 C 
BRANCH  12  13
ATOM     13  C   UNL     1      59.875  28.918   9.978  1.00  0.00    -0.000 C 
BRANCH  13  14
ATOM     14  C   UNL     1      60.092  29.420  11.420  1.00  0.00    -0.000 C 
BRANCH  14  15
ATOM     15  C   UNL     1      60.422  28.324  12.449  1.00  0.00    -0.003 C 
ATOM     16  C   UNL     1      61.647  28.656  13.301  1.00  0.00     0.004 C 
ENDBRANCH  14  15
ENDBRANCH  13  14
ENDBRANCH  12  13
ENDBRANCH  11  12
ENDBRANCH  10  11
ENDBRANCH   1  10
TORSDOF 12
ENDMDL
MODEL 8
REMARK VINA RESULT:    -4.194      1.757      4.897
REMARK INTER + INTRA:          -9.221
REMARK INTER:                  -7.566
REMARK INTRA:                  -1.656
REMARK UNBOUND:                -2.086
REMARK SMILES CCCCCCCCCCCCCC(=O)[O-]
REMARK SMILES IDX 8 1 9 2 10 3 11 4 12 5 13 6 14 7 15 8 16 9 7 10 6 11 5 12
REMARK SMILES IDX 4 13 3 14 2 15 1 16
REMARK H PARENT
REMARK Flexibility Score: inf
ROOT
ATOM      1  C   UNL     1      63.254  30.814  28.498  1.00  0.00     0.000 C 
ENDROOT
BRANCH   1   2
ATOM      2  C   UNL     1      62.138  29.808  28.174  1.00  0.00     0.000 C 
BRANCH   2   3
ATOM      3  C   UNL     1      62.544  28.356  28.474  1.00  0.00     0.000 C 
BRANCH   3   4
ATOM      4  C   UNL     1      62.117  27.381  27.363  1.00  0.00     0.000 C 
BRANCH   4   5
ATOM      5  C   UNL     1      60.938  27.912  26.533  1.00  0.00     0.006 C 
BRANCH   5   6
ATOM      6  C   UNL     1      61.049  27.539  25.049  1.00  0.00     0.053 C 
BRANCH   6   7
ATOM      7  C   UNL     1      61.814  28.587  24.304  1.00  0.00     0.041 C 
ATOM      8  O   UNL     1      62.467  28.281  23.271  1.00  0.00    -0.550 OA
ATOM      9  O   UNL     1      61.848  29.893  24.777  1.00  0.00    -0.550 OA
ENDBRANCH   6   7
ENDBRANCH   5   6
ENDBRANCH   4   5
ENDBRANCH   3   4
ENDBRANCH   2   3
ENDBRANCH   1   2
BRANCH   1  10
ATOM     10  C   UNL     1      64.622  30.116  28.552  1.00  0.00     0.000 C 
BRANCH  10  11
ATOM     11  C   UNL     1      65.685  30.825  27.697  1.00  0.00    -0.000 C 
BRANCH  11  12
ATOM     12  C   UNL     1      66.225  29.933  26.566  1.00  0.00    -0.000 C 
BRANCH  12  13
ATOM     13  C   UNL     1      65.142  29.026  25.952  1.00  0.00    -0.000 C 
BRANCH  13  14
ATOM     14  C   UNL     1      65.647  28.016  24.902  1.00  0.00    -0.000 C 
BRANCH  14  15
ATOM     15  C   UNL     1      64.991  26.626  24.968  1.00  0.00    -0.003 C 
ATOM     16  C   UNL     1      65.081  25.861  23.648  1.00  0.00     0.004 C 
ENDBRANCH  14  15
ENDBRANCH  13  14
ENDBRANCH  12  13
ENDBRANCH  11  12
ENDBRANCH  10  11
ENDBRANCH   1  10
TORSDOF 12
ENDMDL
MODEL 9
REMARK VINA RESULT:    -4.142      1.942      4.900
REMARK INTER + INTRA:          -9.134
REMARK INTER:                  -7.625
REMARK INTRA:                  -1.509
REMARK UNBOUND:                -2.086
REMARK SMILES CCCCCCCCCCCCCC(=O)[O-]
REMARK SMILES IDX 8 1 9 2 10 3 11 4 12 5 13 6 14 7 15 8 16 9 7 10 6 11 5 12
REMARK SMILES IDX 4 13 3 14 2 15 1 16
REMARK H PARENT
REMARK Flexibility Score: inf
ROOT
ATOM      1  C   UNL     1      64.529  30.610  28.214  1.00  0.00     0.000 C 
ENDROOT
BRANCH   1   2
ATOM      2  C   UNL     1      62.999  30.638  28.356  1.00  0.00     0.000 C 
BRANCH   2   3
ATOM      3  C   UNL     1      62.445  29.377  29.039  1.00  0.00     0.000 C 
BRANCH   3   4
ATOM      4  C   UNL     1      61.103  28.922  28.441  1.00  0.00     0.000 C 
BRANCH   4   5
ATOM      5  C   UNL     1      61.109  27.439  28.038  1.00  0.00     0.006 C 
BRANCH   5   6
ATOM      6  C   UNL     1      61.734  27.207  26.656  1.00  0.00     0.053 C 
BRANCH   6   7
ATOM      7  C   UNL     1      60.704  27.369  25.584  1.00  0.00     0.041 C 
ATOM      8  O   UNL     1      60.816  28.289  24.730  1.00  0.00    -0.550 OA
ATOM      9  O   UNL     1      59.593  26.536  25.554  1.00  0.00    -0.550 OA
ENDBRANCH   6   7
ENDBRANCH   5   6
ENDBRANCH   4   5
ENDBRANCH   3   4
ENDBRANCH   2   3
ENDBRANCH   1   2
BRANCH   1  10
ATOM     10  C   UNL     1      64.943  30.032  26.853  1.00  0.00     0.000 C 
BRANCH  10  11
ATOM     11  C   UNL     1      63.882  30.259  25.763  1.00  0.00    -0.000 C 
BRANCH  11  12
ATOM     12  C   UNL     1      64.080  29.339  24.545  1.00  0.00    -0.000 C 
BRANCH  12  13
ATOM     13  C   UNL     1      65.520  28.806  24.427  1.00  0.00    -0.000 C 
BRANCH  13  14
ATOM     14  C   UNL     1      65.642  27.330  23.998  1.00  0.00    -0.000 C 
BRANCH  14  15
ATOM     15  C   UNL     1      64.754  26.348  24.784  1.00  0.00    -0.003 C 
ATOM     16  C   UNL     1      63.753  25.610  23.896  1.00  0.00     0.004 C 
ENDBRANCH  14  15
ENDBRANCH  13  14
ENDBRANCH  12  13
ENDBRANCH  11  12
ENDBRANCH  10  11
ENDBRANCH   1  10
TORSDOF 12
ENDMDL
