MODEL 1
REMARK VINA RESULT:    60.331      0.000      0.000
REMARK INTER + INTRA:          76.320
REMARK INTER:                  76.203
REMARK INTRA:                   0.117
REMARK UNBOUND:                 0.117
REMARK SMILES CC(C)[C@H](C)C=C[C@H](C)[C@@H]1CC[C@@H]2C3=CC=C4C[C@H](O)CC[C@@]4(C)[C@@H]3CC[C@@]21C
REMARK SMILES IDX 8 1 9 2 7 3 6 4 4 5 5 6 2 7 1 8 3 9 10 10 11 11 28 12 12 13
REMARK SMILES IDX 13 14 27 15 29 16 14 17 26 18 25 19 15 20 23 21 16 22 17 23
REMARK SMILES IDX 22 24 24 25 18 26 21 27 19 28 20 29
REMARK H PARENT 20 30
REMARK Flexibility Score: inf
ROOT
ATOM      1  C   UNL     1     -30.034  33.454  -4.482  1.00  0.00     0.012 C 
ATOM      2  C   UNL     1     -28.514  33.588  -4.310  1.00  0.00     0.012 C 
ENDROOT
BRANCH   1   3
ATOM      3  C   UNL     1     -30.302  32.620  -5.720  1.00  0.00    -0.028 C 
ATOM      4  C   UNL     1     -29.940  31.329  -5.789  1.00  0.00    -0.028 C 
BRANCH   4   5
ATOM      5  C   UNL     1     -30.290  30.468  -6.984  1.00  0.00     0.011 C 
ATOM      6  C   UNL     1     -30.132  31.282  -8.274  1.00  0.00     0.012 C 
BRANCH   5   7
ATOM      7  C   UNL     1     -29.465  29.148  -7.021  1.00  0.00    -0.011 C 
ATOM      8  C   UNL     1     -28.496  29.130  -8.214  1.00  0.00     0.008 C 
ATOM      9  C   UNL     1     -30.335  27.879  -7.034  1.00  0.00     0.008 C 
ENDBRANCH   5   7
ENDBRANCH   4   5
ENDBRANCH   1   3
BRANCH   1  10
ATOM     10  C   UNL     1     -30.743  32.809  -3.242  1.00  0.00     0.002 C 
ATOM     11  C   UNL     1     -30.662  31.280  -3.302  1.00  0.00     0.005 C 
ATOM     12  C   UNL     1     -32.251  33.111  -2.943  1.00  0.00    -0.023 C 
ATOM     13  C   UNL     1     -31.735  30.744  -2.364  1.00  0.00     0.009 C 
ATOM     14  C   UNL     1     -32.627  31.934  -1.986  1.00  0.00     0.021 C 
ATOM     15  C   UNL     1     -33.153  33.173  -4.235  1.00  0.00     0.008 C 
ATOM     16  C   UNL     1     -32.414  34.438  -2.152  1.00  0.00     0.012 C 
ATOM     17  C   UNL     1     -34.096  31.550  -1.979  1.00  0.00    -0.063 C 
ATOM     18  C   UNL     1     -34.063  31.958  -4.444  1.00  0.00     0.009 C 
ATOM     19  C   UNL     1     -34.957  31.745  -3.209  1.00  0.00     0.025 C 
ATOM     20  C   UNL     1     -34.646  31.032  -0.872  1.00  0.00    -0.000 C 
ATOM     21  C   UNL     1     -36.029  30.600  -3.365  1.00  0.00    -0.005 C 
ATOM     22  C   UNL     1     -36.034  30.543  -0.869  1.00  0.00    -0.000 C 
ATOM     23  C   UNL     1     -36.723  30.385  -2.013  1.00  0.00    -0.061 C 
ATOM     24  C   UNL     1     -37.077  31.026  -4.439  1.00  0.00     0.014 C 
ATOM     25  C   UNL     1     -35.365  29.264  -3.782  1.00  0.00     0.017 C 
ATOM     26  C   UNL     1     -38.077  29.715  -1.957  1.00  0.00     0.063 C 
ATOM     27  C   UNL     1     -38.367  30.197  -4.407  1.00  0.00     0.033 C 
ATOM     28  C   UNL     1     -39.023  30.271  -3.027  1.00  0.00     0.118 C 
BRANCH  28  29
ATOM     29  O   UNL     1     -40.212  29.525  -3.045  1.00  0.00    -0.393 OA
ATOM     30  H   UNL     1     -39.959  28.581  -2.870  1.00  0.00     0.210 HD
ENDBRANCH  28  29
ENDBRANCH   1  10
TORSDOF 5
ENDMDL
MODEL 2
REMARK VINA RESULT:    61.201      1.765      2.839
REMARK INTER + INTRA:          77.419
REMARK INTER:                  76.830
REMARK INTRA:                   0.588
REMARK UNBOUND:                 0.117
REMARK SMILES CC(C)[C@H](C)C=C[C@H](C)[C@@H]1CC[C@@H]2C3=CC=C4C[C@H](O)CC[C@@]4(C)[C@@H]3CC[C@@]21C
REMARK SMILES IDX 8 1 9 2 7 3 6 4 4 5 5 6 2 7 1 8 3 9 10 10 11 11 28 12 12 13
REMARK SMILES IDX 13 14 27 15 29 16 14 17 26 18 25 19 15 20 23 21 16 22 17 23
REMARK SMILES IDX 22 24 24 25 18 26 21 27 19 28 20 29
REMARK H PARENT 20 30
REMARK Flexibility Score: inf
ROOT
ATOM      1  C   UNL     1     -29.347  32.455  -3.432  1.00  0.00     0.012 C 
ATOM      2  C   UNL     1     -29.164  31.170  -4.253  1.00  0.00     0.012 C 
ENDROOT
BRANCH   1   3
ATOM      3  C   UNL     1     -29.790  33.562  -4.369  1.00  0.00    -0.028 C 
ATOM      4  C   UNL     1     -29.016  34.633  -4.606  1.00  0.00    -0.028 C 
BRANCH   4   5
ATOM      5  C   UNL     1     -29.411  35.692  -5.612  1.00  0.00     0.011 C 
ATOM      6  C   UNL     1     -28.198  36.073  -6.469  1.00  0.00     0.012 C 
BRANCH   5   7
ATOM      7  C   UNL     1     -30.627  35.255  -6.483  1.00  0.00    -0.011 C 
ATOM      8  C   UNL     1     -30.520  33.776  -6.884  1.00  0.00     0.008 C 
ATOM      9  C   UNL     1     -30.830  36.125  -7.735  1.00  0.00     0.008 C 
ENDBRANCH   5   7
ENDBRANCH   4   5
ENDBRANCH   1   3
BRANCH   1  10
ATOM     10  C   UNL     1     -30.379  32.301  -2.263  1.00  0.00     0.002 C 
ATOM     11  C   UNL     1     -30.489  30.837  -1.822  1.00  0.00     0.005 C 
ATOM     12  C   UNL     1     -31.863  32.769  -2.446  1.00  0.00    -0.023 C 
ATOM     13  C   UNL     1     -31.796  30.706  -1.052  1.00  0.00     0.009 C 
ATOM     14  C   UNL     1     -32.583  32.001  -1.291  1.00  0.00     0.021 C 
ATOM     15  C   UNL     1     -32.457  32.447  -3.871  1.00  0.00     0.008 C 
ATOM     16  C   UNL     1     -32.012  34.290  -2.171  1.00  0.00     0.012 C 
ATOM     17  C   UNL     1     -34.058  31.724  -1.519  1.00  0.00    -0.063 C 
ATOM     18  C   UNL     1     -33.454  31.285  -3.903  1.00  0.00     0.009 C 
ATOM     19  C   UNL     1     -34.608  31.545  -2.918  1.00  0.00     0.025 C 
ATOM     20  C   UNL     1     -34.891  31.637  -0.473  1.00  0.00    -0.000 C 
ATOM     21  C   UNL     1     -35.765  30.476  -2.964  1.00  0.00    -0.005 C 
ATOM     22  C   UNL     1     -36.301  31.254  -0.654  1.00  0.00    -0.000 C 
ATOM     23  C   UNL     1     -36.750  30.762  -1.822  1.00  0.00    -0.061 C 
ATOM     24  C   UNL     1     -36.498  30.577  -4.336  1.00  0.00     0.014 C 
ATOM     25  C   UNL     1     -35.210  29.043  -2.771  1.00  0.00     0.017 C 
ATOM     26  C   UNL     1     -38.161  30.227  -1.889  1.00  0.00     0.063 C 
ATOM     27  C   UNL     1     -37.864  29.879  -4.360  1.00  0.00     0.033 C 
ATOM     28  C   UNL     1     -38.779  30.445  -3.273  1.00  0.00     0.118 C 
BRANCH  28  29
ATOM     29  O   UNL     1     -40.026  29.803  -3.345  1.00  0.00    -0.393 OA
ATOM     30  H   UNL     1     -40.705  30.515  -3.481  1.00  0.00     0.210 HD
ENDBRANCH  28  29
ENDBRANCH   1  10
TORSDOF 5
ENDMDL
