MODEL 1
REMARK VINA RESULT:    -3.377      0.000      0.000
REMARK INTER + INTRA:          -3.663
REMARK INTER:                  -3.575
REMARK INTRA:                  -0.089
REMARK UNBOUND:                -0.089
REMARK SMILES C=C(C)[C@@H]1CC=C(C)C(=O)C1
REMARK SMILES IDX 8 1 7 2 6 3 5 4 4 5 11 6 9 7 10 8 2 9 1 10 3 11
REMARK H PARENT
REMARK Flexibility Score: inf
ROOT
ATOM      1  C   UNL     1      62.630   8.529  31.788  1.00  0.00     0.048 C 
ATOM      2  C   UNL     1      62.052   7.141  31.783  1.00  0.00    -0.012 C 
ATOM      3  C   UNL     1      62.808   6.103  31.384  1.00  0.00    -0.019 C 
ATOM      4  C   UNL     1      62.286   4.690  31.378  1.00  0.00     0.036 C 
ATOM      5  C   UNL     1      60.776   4.659  31.074  1.00  0.00     0.025 C 
ATOM      6  C   UNL     1      60.012   5.559  32.064  1.00  0.00     0.089 C 
ATOM      7  C   UNL     1      60.617   6.936  32.101  1.00  0.00     0.158 C 
ATOM      8  O   UNL     1      59.897   7.912  32.440  1.00  0.00    -0.295 OA
ENDROOT
BRANCH   5   9
ATOM      9  C   UNL     1      60.232   3.237  31.074  1.00  0.00    -0.077 C 
ATOM     10  C   UNL     1      59.622   2.721  29.992  1.00  0.00     0.008 C 
ATOM     11  C   UNL     1      60.369   2.374  32.303  1.00  0.00     0.039 C 
ENDBRANCH   5   9
TORSDOF 1
ENDMDL
MODEL 2
REMARK VINA RESULT:    -3.246      2.141      4.628
REMARK INTER + INTRA:          -3.524
REMARK INTER:                  -3.428
REMARK INTRA:                  -0.096
REMARK UNBOUND:                -0.089
REMARK SMILES C=C(C)[C@@H]1CC=C(C)C(=O)C1
REMARK SMILES IDX 8 1 7 2 6 3 5 4 4 5 11 6 9 7 10 8 2 9 1 10 3 11
REMARK H PARENT
REMARK Flexibility Score: inf
ROOT
ATOM      1  C   UNL     1      58.024   3.270  29.875  1.00  0.00     0.048 C 
ATOM      2  C   UNL     1      59.070   4.140  30.517  1.00  0.00    -0.012 C 
ATOM      3  C   UNL     1      58.991   5.476  30.402  1.00  0.00    -0.019 C 
ATOM      4  C   UNL     1      60.001   6.394  31.040  1.00  0.00     0.036 C 
ATOM      5  C   UNL     1      61.396   5.740  31.079  1.00  0.00     0.025 C 
ATOM      6  C   UNL     1      61.326   4.371  31.782  1.00  0.00     0.089 C 
ATOM      7  C   UNL     1      60.250   3.518  31.168  1.00  0.00     0.158 C 
ATOM      8  O   UNL     1      60.344   2.264  31.245  1.00  0.00    -0.295 OA
ENDROOT
BRANCH   5   9
ATOM      9  C   UNL     1      62.426   6.653  31.731  1.00  0.00    -0.077 C 
ATOM     10  C   UNL     1      63.051   6.304  32.869  1.00  0.00     0.008 C 
ATOM     11  C   UNL     1      62.765   7.981  31.102  1.00  0.00     0.039 C 
ENDBRANCH   5   9
TORSDOF 1
ENDMDL
MODEL 3
REMARK VINA RESULT:    -3.193      1.506      4.191
REMARK INTER + INTRA:          -3.469
REMARK INTER:                  -3.376
REMARK INTRA:                  -0.092
REMARK UNBOUND:                -0.089
REMARK SMILES C=C(C)[C@@H]1CC=C(C)C(=O)C1
REMARK SMILES IDX 8 1 7 2 6 3 5 4 4 5 11 6 9 7 10 8 2 9 1 10 3 11
REMARK H PARENT
REMARK Flexibility Score: inf
ROOT
ATOM      1  C   UNL     1      58.627   3.753  30.025  1.00  0.00     0.048 C 
ATOM      2  C   UNL     1      59.741   4.619  30.546  1.00  0.00    -0.012 C 
ATOM      3  C   UNL     1      60.844   4.050  31.062  1.00  0.00    -0.019 C 
ATOM      4  C   UNL     1      61.997   4.870  31.581  1.00  0.00     0.036 C 
ATOM      5  C   UNL     1      61.503   6.198  32.186  1.00  0.00     0.025 C 
ATOM      6  C   UNL     1      60.655   6.971  31.158  1.00  0.00     0.089 C 
ATOM      7  C   UNL     1      59.568   6.092  30.604  1.00  0.00     0.158 C 
ATOM      8  O   UNL     1      58.518   6.625  30.154  1.00  0.00    -0.295 OA
ENDROOT
BRANCH   5   9
ATOM      9  C   UNL     1      62.660   7.042  32.706  1.00  0.00    -0.077 C 
ATOM     10  C   UNL     1      63.444   6.611  33.710  1.00  0.00     0.008 C 
ATOM     11  C   UNL     1      62.946   8.391  32.097  1.00  0.00     0.039 C 
ENDBRANCH   5   9
TORSDOF 1
ENDMDL
MODEL 4
REMARK VINA RESULT:    -3.095      2.282      3.529
REMARK INTER + INTRA:          -3.364
REMARK INTER:                  -3.276
REMARK INTRA:                  -0.088
REMARK UNBOUND:                -0.089
REMARK SMILES C=C(C)[C@@H]1CC=C(C)C(=O)C1
REMARK SMILES IDX 8 1 7 2 6 3 5 4 4 5 11 6 9 7 10 8 2 9 1 10 3 11
REMARK H PARENT
REMARK Flexibility Score: inf
ROOT
ATOM      1  C   UNL     1      58.934   6.562  29.938  1.00  0.00     0.048 C 
ATOM      2  C   UNL     1      59.944   5.945  30.866  1.00  0.00    -0.012 C 
ATOM      3  C   UNL     1      60.724   6.733  31.625  1.00  0.00    -0.019 C 
ATOM      4  C   UNL     1      61.738   6.166  32.584  1.00  0.00     0.036 C 
ATOM      5  C   UNL     1      62.323   4.843  32.055  1.00  0.00     0.025 C 
ATOM      6  C   UNL     1      61.193   3.844  31.745  1.00  0.00     0.089 C 
ATOM      7  C   UNL     1      60.160   4.476  30.851  1.00  0.00     0.158 C 
ATOM      8  O   UNL     1      59.454   3.739  30.114  1.00  0.00    -0.295 OA
ENDROOT
BRANCH   5   9
ATOM      9  C   UNL     1      63.343   4.254  33.019  1.00  0.00    -0.077 C 
ATOM     10  C   UNL     1      64.664   4.357  32.791  1.00  0.00     0.008 C 
ATOM     11  C   UNL     1      62.883   3.535  34.262  1.00  0.00     0.039 C 
ENDBRANCH   5   9
TORSDOF 1
ENDMDL
MODEL 5
REMARK VINA RESULT:    -3.091      1.844      2.885
REMARK INTER + INTRA:          -3.360
REMARK INTER:                  -3.266
REMARK INTRA:                  -0.094
REMARK UNBOUND:                -0.089
REMARK SMILES C=C(C)[C@@H]1CC=C(C)C(=O)C1
REMARK SMILES IDX 8 1 7 2 6 3 5 4 4 5 11 6 9 7 10 8 2 9 1 10 3 11
REMARK H PARENT
REMARK Flexibility Score: inf
ROOT
ATOM      1  C   UNL     1      63.872   9.462  33.951  1.00  0.00     0.048 C 
ATOM      2  C   UNL     1      63.070   8.440  33.192  1.00  0.00    -0.012 C 
ATOM      3  C   UNL     1      62.978   8.522  31.854  1.00  0.00    -0.019 C 
ATOM      4  C   UNL     1      62.204   7.514  31.044  1.00  0.00     0.036 C 
ATOM      5  C   UNL     1      60.993   6.983  31.833  1.00  0.00     0.025 C 
ATOM      6  C   UNL     1      61.446   6.414  33.191  1.00  0.00     0.089 C 
ATOM      7  C   UNL     1      62.284   7.420  33.931  1.00  0.00     0.158 C 
ATOM      8  O   UNL     1      62.340   7.364  35.188  1.00  0.00    -0.295 OA
ENDROOT
BRANCH   5   9
ATOM      9  C   UNL     1      60.206   5.956  31.029  1.00  0.00    -0.077 C 
ATOM     10  C   UNL     1      60.561   4.660  31.011  1.00  0.00     0.008 C 
ATOM     11  C   UNL     1      59.001   6.383  30.230  1.00  0.00     0.039 C 
ENDBRANCH   5   9
TORSDOF 1
ENDMDL
MODEL 6
REMARK VINA RESULT:    -3.084      2.247      3.005
REMARK INTER + INTRA:          -3.353
REMARK INTER:                  -3.257
REMARK INTRA:                  -0.096
REMARK UNBOUND:                -0.089
REMARK SMILES C=C(C)[C@@H]1CC=C(C)C(=O)C1
REMARK SMILES IDX 8 1 7 2 6 3 5 4 4 5 11 6 9 7 10 8 2 9 1 10 3 11
REMARK H PARENT
REMARK Flexibility Score: inf
ROOT
ATOM      1  C   UNL     1      63.942   6.881  34.341  1.00  0.00     0.048 C 
ATOM      2  C   UNL     1      62.947   6.592  33.252  1.00  0.00    -0.012 C 
ATOM      3  C   UNL     1      61.841   7.347  33.139  1.00  0.00    -0.019 C 
ATOM      4  C   UNL     1      60.821   7.114  32.055  1.00  0.00     0.036 C 
ATOM      5  C   UNL     1      60.730   5.619  31.693  1.00  0.00     0.025 C 
ATOM      6  C   UNL     1      62.120   5.075  31.313  1.00  0.00     0.089 C 
ATOM      7  C   UNL     1      63.126   5.402  32.383  1.00  0.00     0.158 C 
ATOM      8  O   UNL     1      64.144   4.671  32.511  1.00  0.00    -0.295 OA
ENDROOT
BRANCH   5   9
ATOM      9  C   UNL     1      59.709   5.369  30.591  1.00  0.00    -0.077 C 
ATOM     10  C   UNL     1      58.963   6.368  30.089  1.00  0.00     0.008 C 
ATOM     11  C   UNL     1      59.516   3.979  30.040  1.00  0.00     0.039 C 
ENDBRANCH   5   9
TORSDOF 1
ENDMDL
MODEL 7
REMARK VINA RESULT:    -3.083      2.269      3.500
REMARK INTER + INTRA:          -3.351
REMARK INTER:                  -3.258
REMARK INTRA:                  -0.093
REMARK UNBOUND:                -0.089
REMARK SMILES C=C(C)[C@@H]1CC=C(C)C(=O)C1
REMARK SMILES IDX 8 1 7 2 6 3 5 4 4 5 11 6 9 7 10 8 2 9 1 10 3 11
REMARK H PARENT
REMARK Flexibility Score: inf
ROOT
ATOM      1  C   UNL     1      64.360   4.267  33.126  1.00  0.00     0.048 C 
ATOM      2  C   UNL     1      63.100   4.794  32.496  1.00  0.00    -0.012 C 
ATOM      3  C   UNL     1      63.111   5.988  31.878  1.00  0.00    -0.019 C 
ATOM      4  C   UNL     1      61.883   6.554  31.215  1.00  0.00     0.036 C 
ATOM      5  C   UNL     1      60.603   6.122  31.956  1.00  0.00     0.025 C 
ATOM      6  C   UNL     1      60.546   4.587  32.074  1.00  0.00     0.089 C 
ATOM      7  C   UNL     1      61.824   4.055  32.664  1.00  0.00     0.158 C 
ATOM      8  O   UNL     1      61.805   2.953  33.275  1.00  0.00    -0.295 OA
ENDROOT
BRANCH   5   9
ATOM      9  C   UNL     1      59.353   6.680  31.291  1.00  0.00    -0.077 C 
ATOM     10  C   UNL     1      59.021   6.345  30.031  1.00  0.00     0.008 C 
ATOM     11  C   UNL     1      58.455   7.630  32.043  1.00  0.00     0.039 C 
ENDBRANCH   5   9
TORSDOF 1
ENDMDL
MODEL 8
REMARK VINA RESULT:    -1.619      1.571      2.292
REMARK INTER + INTRA:          -1.803
REMARK INTER:                  -1.707
REMARK INTRA:                  -0.096
REMARK UNBOUND:                -0.089
REMARK SMILES C=C(C)[C@@H]1CC=C(C)C(=O)C1
REMARK SMILES IDX 8 1 7 2 6 3 5 4 4 5 11 6 9 7 10 8 2 9 1 10 3 11
REMARK H PARENT
REMARK Flexibility Score: inf
ROOT
ATOM      1  C   UNL     1      61.507   7.159  31.337  1.00  0.00     0.048 C 
ATOM      2  C   UNL     1      60.832   5.816  31.321  1.00  0.00    -0.012 C 
ATOM      3  C   UNL     1      61.439   4.755  31.881  1.00  0.00    -0.019 C 
ATOM      4  C   UNL     1      60.798   3.392  31.909  1.00  0.00     0.036 C 
ATOM      5  C   UNL     1      59.925   3.164  30.660  1.00  0.00     0.025 C 
ATOM      6  C   UNL     1      58.886   4.293  30.521  1.00  0.00     0.089 C 
ATOM      7  C   UNL     1      59.557   5.638  30.581  1.00  0.00     0.158 C 
ATOM      8  O   UNL     1      59.004   6.624  30.025  1.00  0.00    -0.295 OA
ENDROOT
BRANCH   5   9
ATOM      9  C   UNL     1      59.263   1.793  30.680  1.00  0.00    -0.077 C 
ATOM     10  C   UNL     1      59.772   0.781  31.404  1.00  0.00     0.008 C 
ATOM     11  C   UNL     1      58.013   1.544  29.875  1.00  0.00     0.039 C 
ENDBRANCH   5   9
TORSDOF 1
ENDMDL
