MODEL 1
REMARK VINA RESULT:    -4.652      0.000      0.000
REMARK INTER + INTRA:         -15.082
REMARK INTER:                 -11.723
REMARK INTRA:                  -3.359
REMARK UNBOUND:                -3.359
REMARK SMILES CCCCCCCCCCCCCCCCCCCCCCCCCCCC(=O)[O-]
REMARK SMILES IDX 15 1 16 2 17 3 18 4 19 5 20 6 21 7 22 8 23 9 24 10 25 11
REMARK SMILES IDX 26 12 27 13 28 14 29 15 30 16 14 17 13 18 12 19 11 20 10 21
REMARK SMILES IDX 9 22 8 23 7 24 6 25 5 26 4 27 3 28 2 29 1 30
REMARK H PARENT
REMARK Flexibility Score: inf
ROOT
ATOM      1  C   UNL     1     174.485 169.699 150.655  1.00  0.00     0.000 C 
ENDROOT
BRANCH   1   2
ATOM      2  C   UNL     1     173.268 169.213 149.847  1.00  0.00     0.000 C 
BRANCH   2   3
ATOM      3  C   UNL     1     173.334 167.740 149.404  1.00  0.00     0.000 C 
BRANCH   3   4
ATOM      4  C   UNL     1     174.620 167.035 149.872  1.00  0.00     0.000 C 
BRANCH   4   5
ATOM      5  C   UNL     1     174.398 166.149 151.113  1.00  0.00     0.000 C 
BRANCH   5   6
ATOM      6  C   UNL     1     174.769 164.672 150.891  1.00  0.00     0.000 C 
BRANCH   6   7
ATOM      7  C   UNL     1     174.692 163.838 152.187  1.00  0.00     0.000 C 
BRANCH   7   8
ATOM      8  C   UNL     1     175.341 162.450 152.033  1.00  0.00     0.000 C 
BRANCH   8   9
ATOM      9  C   UNL     1     175.845 162.138 150.605  1.00  0.00     0.000 C 
BRANCH   9  10
ATOM     10  C   UNL     1     174.943 161.199 149.778  1.00  0.00     0.000 C 
BRANCH  10  11
ATOM     11  C   UNL     1     173.867 160.444 150.583  1.00  0.00     0.000 C 
BRANCH  11  12
ATOM     12  C   UNL     1     174.092 158.926 150.700  1.00  0.00     0.006 C 
BRANCH  12  13
ATOM     13  C   UNL     1     172.908 158.103 150.174  1.00  0.00     0.053 C 
BRANCH  13  14
ATOM     14  C   UNL     1     171.855 157.969 151.230  1.00  0.00     0.041 C 
ATOM     15  O   UNL     1     172.182 157.722 152.422  1.00  0.00    -0.550 OA
ATOM     16  O   UNL     1     170.515 158.167 150.912  1.00  0.00    -0.550 OA
ENDBRANCH  13  14
ENDBRANCH  12  13
ENDBRANCH  11  12
ENDBRANCH  10  11
ENDBRANCH   9  10
ENDBRANCH   8   9
ENDBRANCH   7   8
ENDBRANCH   6   7
ENDBRANCH   5   6
ENDBRANCH   4   5
ENDBRANCH   3   4
ENDBRANCH   2   3
ENDBRANCH   1   2
BRANCH   1  17
ATOM     17  C   UNL     1     174.987 171.078 150.202  1.00  0.00     0.000 C 
BRANCH  17  18
ATOM     18  C   UNL     1     173.825 172.077 150.091  1.00  0.00     0.000 C 
BRANCH  18  19
ATOM     19  C   UNL     1     174.288 173.504 149.741  1.00  0.00     0.000 C 
BRANCH  19  20
ATOM     20  C   UNL     1     175.191 174.179 150.791  1.00  0.00     0.000 C 
BRANCH  20  21
ATOM     21  C   UNL     1     174.547 174.249 152.186  1.00  0.00     0.000 C 
BRANCH  21  22
ATOM     22  C   UNL     1     175.383 173.540 153.265  1.00  0.00    -0.000 C 
BRANCH  22  23
ATOM     23  C   UNL     1     174.796 172.213 153.779  1.00  0.00    -0.000 C 
BRANCH  23  24
ATOM     24  C   UNL     1     173.259 172.188 153.745  1.00  0.00    -0.000 C 
BRANCH  24  25
ATOM     25  C   UNL     1     172.739 170.756 153.557  1.00  0.00    -0.000 C 
BRANCH  25  26
ATOM     26  C   UNL     1     171.355 170.702 152.882  1.00  0.00    -0.000 C 
BRANCH  26  27
ATOM     27  C   UNL     1     170.661 172.066 152.713  1.00  0.00    -0.000 C 
BRANCH  27  28
ATOM     28  C   UNL     1     170.558 172.505 151.242  1.00  0.00    -0.000 C 
BRANCH  28  29
ATOM     29  C   UNL     1     170.091 173.962 151.096  1.00  0.00    -0.003 C 
ATOM     30  C   UNL     1     171.243 174.960 151.220  1.00  0.00     0.004 C 
ENDBRANCH  28  29
ENDBRANCH  27  28
ENDBRANCH  26  27
ENDBRANCH  25  26
ENDBRANCH  24  25
ENDBRANCH  23  24
ENDBRANCH  22  23
ENDBRANCH  21  22
ENDBRANCH  20  21
ENDBRANCH  19  20
ENDBRANCH  18  19
ENDBRANCH  17  18
ENDBRANCH   1  17
TORSDOF 26
ENDMDL
MODEL 2
REMARK VINA RESULT:    -4.616      5.065      8.211
REMARK INTER + INTRA:         -14.991
REMARK INTER:                  -9.502
REMARK INTRA:                  -5.488
REMARK UNBOUND:                -3.359
REMARK SMILES CCCCCCCCCCCCCCCCCCCCCCCCCCCC(=O)[O-]
REMARK SMILES IDX 15 1 16 2 17 3 18 4 19 5 20 6 21 7 22 8 23 9 24 10 25 11
REMARK SMILES IDX 26 12 27 13 28 14 29 15 30 16 14 17 13 18 12 19 11 20 10 21
REMARK SMILES IDX 9 22 8 23 7 24 6 25 5 26 4 27 3 28 2 29 1 30
REMARK H PARENT
REMARK Flexibility Score: inf
ROOT
ATOM      1  C   UNL     1     171.894 166.618 150.078  1.00  0.00     0.000 C 
ENDROOT
BRANCH   1   2
ATOM      2  C   UNL     1     172.200 165.664 151.247  1.00  0.00     0.000 C 
BRANCH   2   3
ATOM      3  C   UNL     1     173.413 164.742 151.026  1.00  0.00     0.000 C 
BRANCH   3   4
ATOM      4  C   UNL     1     174.628 165.140 151.884  1.00  0.00     0.000 C 
BRANCH   4   5
ATOM      5  C   UNL     1     174.240 165.984 153.114  1.00  0.00     0.000 C 
BRANCH   5   6
ATOM      6  C   UNL     1     174.963 167.341 153.184  1.00  0.00     0.000 C 
BRANCH   6   7
ATOM      7  C   UNL     1     174.075 168.460 153.766  1.00  0.00     0.000 C 
BRANCH   7   8
ATOM      8  C   UNL     1     172.666 167.961 154.137  1.00  0.00     0.000 C 
BRANCH   8   9
ATOM      9  C   UNL     1     171.538 168.984 153.871  1.00  0.00     0.000 C 
BRANCH   9  10
ATOM     10  C   UNL     1     171.913 170.148 152.930  1.00  0.00     0.000 C 
BRANCH  10  11
ATOM     11  C   UNL     1     170.735 170.774 152.157  1.00  0.00     0.000 C 
BRANCH  11  12
ATOM     12  C   UNL     1     170.606 172.301 152.299  1.00  0.00     0.006 C 
BRANCH  12  13
ATOM     13  C   UNL     1     170.318 173.003 150.965  1.00  0.00     0.053 C 
BRANCH  13  14
ATOM     14  C   UNL     1     169.325 174.107 151.159  1.00  0.00     0.041 C 
ATOM     15  O   UNL     1     168.706 174.583 150.169  1.00  0.00    -0.550 OA
ATOM     16  O   UNL     1     169.042 174.578 152.437  1.00  0.00    -0.550 OA
ENDBRANCH  13  14
ENDBRANCH  12  13
ENDBRANCH  11  12
ENDBRANCH  10  11
ENDBRANCH   9  10
ENDBRANCH   8   9
ENDBRANCH   7   8
ENDBRANCH   6   7
ENDBRANCH   5   6
ENDBRANCH   4   5
ENDBRANCH   3   4
ENDBRANCH   2   3
ENDBRANCH   1   2
BRANCH   1  17
ATOM     17  C   UNL     1     172.744 167.897 150.117  1.00  0.00     0.000 C 
BRANCH  17  18
ATOM     18  C   UNL     1     173.928 167.800 149.142  1.00  0.00     0.000 C 
BRANCH  18  19
ATOM     19  C   UNL     1     175.143 168.636 149.585  1.00  0.00     0.000 C 
BRANCH  19  20
ATOM     20  C   UNL     1     174.848 169.718 150.641  1.00  0.00     0.000 C 
BRANCH  20  21
ATOM     21  C   UNL     1     175.053 171.148 150.113  1.00  0.00     0.000 C 
BRANCH  21  22
ATOM     22  C   UNL     1     173.762 171.984 150.141  1.00  0.00    -0.000 C 
BRANCH  22  23
ATOM     23  C   UNL     1     173.946 173.481 149.836  1.00  0.00    -0.000 C 
BRANCH  23  24
ATOM     24  C   UNL     1     174.831 174.196 150.869  1.00  0.00    -0.000 C 
BRANCH  24  25
ATOM     25  C   UNL     1     174.204 174.128 152.269  1.00  0.00    -0.000 C 
BRANCH  25  26
ATOM     26  C   UNL     1     175.145 173.509 153.320  1.00  0.00    -0.000 C 
BRANCH  26  27
ATOM     27  C   UNL     1     174.759 172.092 153.783  1.00  0.00    -0.000 C 
BRANCH  27  28
ATOM     28  C   UNL     1     175.607 171.601 154.970  1.00  0.00    -0.000 C 
BRANCH  28  29
ATOM     29  C   UNL     1     174.780 171.442 156.255  1.00  0.00    -0.003 C 
ATOM     30  C   UNL     1     173.283 171.645 156.017  1.00  0.00     0.004 C 
ENDBRANCH  28  29
ENDBRANCH  27  28
ENDBRANCH  26  27
ENDBRANCH  25  26
ENDBRANCH  24  25
ENDBRANCH  23  24
ENDBRANCH  22  23
ENDBRANCH  21  22
ENDBRANCH  20  21
ENDBRANCH  19  20
ENDBRANCH  18  19
ENDBRANCH  17  18
ENDBRANCH   1  17
TORSDOF 26
ENDMDL
MODEL 3
REMARK VINA RESULT:    -4.583      4.928      9.623
REMARK INTER + INTRA:         -14.909
REMARK INTER:                  -9.069
REMARK INTRA:                  -5.839
REMARK UNBOUND:                -3.359
REMARK SMILES CCCCCCCCCCCCCCCCCCCCCCCCCCCC(=O)[O-]
REMARK SMILES IDX 15 1 16 2 17 3 18 4 19 5 20 6 21 7 22 8 23 9 24 10 25 11
REMARK SMILES IDX 26 12 27 13 28 14 29 15 30 16 14 17 13 18 12 19 11 20 10 21
REMARK SMILES IDX 9 22 8 23 7 24 6 25 5 26 4 27 3 28 2 29 1 30
REMARK H PARENT
REMARK Flexibility Score: inf
ROOT
ATOM      1  C   UNL     1     172.360 170.642 155.424  1.00  0.00     0.000 C 
ENDROOT
BRANCH   1   2
ATOM      2  C   UNL     1     173.049 171.987 155.126  1.00  0.00     0.000 C 
BRANCH   2   3
ATOM      3  C   UNL     1     174.574 171.992 155.340  1.00  0.00     0.000 C 
BRANCH   3   4
ATOM      4  C   UNL     1     175.344 172.535 154.122  1.00  0.00     0.000 C 
BRANCH   4   5
ATOM      5  C   UNL     1     174.979 173.994 153.787  1.00  0.00     0.000 C 
BRANCH   5   6
ATOM      6  C   UNL     1     174.654 174.223 152.300  1.00  0.00     0.000 C 
BRANCH   6   7
ATOM      7  C   UNL     1     174.893 172.966 151.438  1.00  0.00     0.000 C 
BRANCH   7   8
ATOM      8  C   UNL     1     174.455 173.163 149.976  1.00  0.00     0.000 C 
BRANCH   8   9
ATOM      9  C   UNL     1     172.945 172.939 149.728  1.00  0.00     0.000 C 
BRANCH   9  10
ATOM     10  C   UNL     1     172.338 171.707 150.431  1.00  0.00     0.000 C 
BRANCH  10  11
ATOM     11  C   UNL     1     171.075 171.985 151.271  1.00  0.00     0.000 C 
BRANCH  11  12
ATOM     12  C   UNL     1     171.183 173.192 152.220  1.00  0.00     0.006 C 
BRANCH  12  13
ATOM     13  C   UNL     1     170.229 174.334 151.845  1.00  0.00     0.053 C 
BRANCH  13  14
ATOM     14  C   UNL     1     168.914 174.169 152.542  1.00  0.00     0.041 C 
ATOM     15  O   UNL     1     168.844 173.506 153.611  1.00  0.00    -0.550 OA
ATOM     16  O   UNL     1     167.773 174.790 152.042  1.00  0.00    -0.550 OA
ENDBRANCH  13  14
ENDBRANCH  12  13
ENDBRANCH  11  12
ENDBRANCH  10  11
ENDBRANCH   9  10
ENDBRANCH   8   9
ENDBRANCH   7   8
ENDBRANCH   6   7
ENDBRANCH   5   6
ENDBRANCH   4   5
ENDBRANCH   3   4
ENDBRANCH   2   3
ENDBRANCH   1   2
BRANCH   1  17
ATOM     17  C   UNL     1     172.482 169.643 154.264  1.00  0.00     0.000 C 
BRANCH  17  18
ATOM     18  C   UNL     1     173.567 168.594 154.553  1.00  0.00     0.000 C 
BRANCH  18  19
ATOM     19  C   UNL     1     174.700 168.596 153.509  1.00  0.00     0.000 C 
BRANCH  19  20
ATOM     20  C   UNL     1     174.452 169.475 152.269  1.00  0.00     0.000 C 
BRANCH  20  21
ATOM     21  C   UNL     1     175.522 169.295 151.179  1.00  0.00     0.000 C 
BRANCH  21  22
ATOM     22  C   UNL     1     174.924 169.219 149.763  1.00  0.00    -0.000 C 
BRANCH  22  23
ATOM     23  C   UNL     1     174.909 167.813 149.135  1.00  0.00    -0.000 C 
BRANCH  23  24
ATOM     24  C   UNL     1     173.497 167.351 148.740  1.00  0.00    -0.000 C 
BRANCH  24  25
ATOM     25  C   UNL     1     172.461 168.448 149.027  1.00  0.00    -0.000 C 
BRANCH  25  26
ATOM     26  C   UNL     1     171.205 167.917 149.744  1.00  0.00    -0.000 C 
BRANCH  26  27
ATOM     27  C   UNL     1     171.319 167.834 151.277  1.00  0.00    -0.000 C 
BRANCH  27  28
ATOM     28  C   UNL     1     171.386 166.385 151.793  1.00  0.00    -0.000 C 
BRANCH  28  29
ATOM     29  C   UNL     1     172.829 165.917 152.040  1.00  0.00    -0.003 C 
ATOM     30  C   UNL     1     173.185 164.667 151.234  1.00  0.00     0.004 C 
ENDBRANCH  28  29
ENDBRANCH  27  28
ENDBRANCH  26  27
ENDBRANCH  25  26
ENDBRANCH  24  25
ENDBRANCH  23  24
ENDBRANCH  22  23
ENDBRANCH  21  22
ENDBRANCH  20  21
ENDBRANCH  19  20
ENDBRANCH  18  19
ENDBRANCH  17  18
ENDBRANCH   1  17
TORSDOF 26
ENDMDL
MODEL 4
REMARK VINA RESULT:    -4.541      4.826      9.486
REMARK INTER + INTRA:         -14.803
REMARK INTER:                  -9.353
REMARK INTRA:                  -5.450
REMARK UNBOUND:                -3.359
REMARK SMILES CCCCCCCCCCCCCCCCCCCCCCCCCCCC(=O)[O-]
REMARK SMILES IDX 15 1 16 2 17 3 18 4 19 5 20 6 21 7 22 8 23 9 24 10 25 11
REMARK SMILES IDX 26 12 27 13 28 14 29 15 30 16 14 17 13 18 12 19 11 20 10 21
REMARK SMILES IDX 9 22 8 23 7 24 6 25 5 26 4 27 3 28 2 29 1 30
REMARK H PARENT
REMARK Flexibility Score: inf
ROOT
ATOM      1  C   UNL     1     173.797 171.656 150.140  1.00  0.00     0.000 C 
ENDROOT
BRANCH   1   2
ATOM      2  C   UNL     1     173.983 173.148 149.806  1.00  0.00     0.000 C 
BRANCH   2   3
ATOM      3  C   UNL     1     174.951 173.902 150.736  1.00  0.00     0.000 C 
BRANCH   3   4
ATOM      4  C   UNL     1     174.306 174.285 152.081  1.00  0.00     0.000 C 
BRANCH   4   5
ATOM      5  C   UNL     1     175.327 174.353 153.234  1.00  0.00     0.000 C 
BRANCH   5   6
ATOM      6  C   UNL     1     175.607 172.990 153.892  1.00  0.00     0.000 C 
BRANCH   6   7
ATOM      7  C   UNL     1     174.506 172.573 154.889  1.00  0.00     0.000 C 
BRANCH   7   8
ATOM      8  C   UNL     1     173.623 171.433 154.349  1.00  0.00     0.000 C 
BRANCH   8   9
ATOM      9  C   UNL     1     172.197 171.397 154.943  1.00  0.00     0.000 C 
BRANCH   9  10
ATOM     10  C   UNL     1     171.158 172.276 154.216  1.00  0.00     0.000 C 
BRANCH  10  11
ATOM     11  C   UNL     1     171.488 172.606 152.746  1.00  0.00     0.000 C 
BRANCH  11  12
ATOM     12  C   UNL     1     170.329 172.384 151.758  1.00  0.00     0.006 C 
BRANCH  12  13
ATOM     13  C   UNL     1     170.003 173.634 150.930  1.00  0.00     0.053 C 
BRANCH  13  14
ATOM     14  C   UNL     1     168.521 173.791 150.782  1.00  0.00     0.041 C 
ATOM     15  O   UNL     1     168.048 174.449 149.817  1.00  0.00    -0.550 OA
ATOM     16  O   UNL     1     167.658 173.169 151.678  1.00  0.00    -0.550 OA
ENDBRANCH  13  14
ENDBRANCH  12  13
ENDBRANCH  11  12
ENDBRANCH  10  11
ENDBRANCH   9  10
ENDBRANCH   8   9
ENDBRANCH   7   8
ENDBRANCH   6   7
ENDBRANCH   5   6
ENDBRANCH   4   5
ENDBRANCH   3   4
ENDBRANCH   2   3
ENDBRANCH   1   2
BRANCH   1  17
ATOM     17  C   UNL     1     175.017 171.050 150.849  1.00  0.00     0.000 C 
BRANCH  17  18
ATOM     18  C   UNL     1     175.674 169.965 149.982  1.00  0.00     0.000 C 
BRANCH  18  19
ATOM     19  C   UNL     1     175.044 168.573 150.178  1.00  0.00     0.000 C 
BRANCH  19  20
ATOM     20  C   UNL     1     174.730 167.803 148.882  1.00  0.00     0.000 C 
BRANCH  20  21
ATOM     21  C   UNL     1     173.237 167.467 148.726  1.00  0.00     0.000 C 
BRANCH  21  22
ATOM     22  C   UNL     1     172.322 168.473 149.447  1.00  0.00    -0.000 C 
BRANCH  22  23
ATOM     23  C   UNL     1     171.001 167.890 149.979  1.00  0.00    -0.000 C 
BRANCH  23  24
ATOM     24  C   UNL     1     170.858 168.027 151.504  1.00  0.00    -0.000 C 
BRANCH  24  25
ATOM     25  C   UNL     1     171.981 168.900 152.083  1.00  0.00    -0.000 C 
BRANCH  25  26
ATOM     26  C   UNL     1     172.921 168.124 153.024  1.00  0.00    -0.000 C 
BRANCH  26  27
ATOM     27  C   UNL     1     172.837 166.591 152.908  1.00  0.00    -0.000 C 
BRANCH  27  28
ATOM     28  C   UNL     1     174.163 165.952 152.459  1.00  0.00    -0.000 C 
BRANCH  28  29
ATOM     29  C   UNL     1     173.958 164.859 151.400  1.00  0.00    -0.003 C 
ATOM     30  C   UNL     1     172.482 164.635 151.067  1.00  0.00     0.004 C 
ENDBRANCH  28  29
ENDBRANCH  27  28
ENDBRANCH  26  27
ENDBRANCH  25  26
ENDBRANCH  24  25
ENDBRANCH  23  24
ENDBRANCH  22  23
ENDBRANCH  21  22
ENDBRANCH  20  21
ENDBRANCH  19  20
ENDBRANCH  18  19
ENDBRANCH  17  18
ENDBRANCH   1  17
TORSDOF 26
ENDMDL
MODEL 5
REMARK VINA RESULT:    -4.539      5.528      9.834
REMARK INTER + INTRA:         -14.798
REMARK INTER:                  -9.405
REMARK INTRA:                  -5.393
REMARK UNBOUND:                -3.359
REMARK SMILES CCCCCCCCCCCCCCCCCCCCCCCCCCCC(=O)[O-]
REMARK SMILES IDX 15 1 16 2 17 3 18 4 19 5 20 6 21 7 22 8 23 9 24 10 25 11
REMARK SMILES IDX 26 12 27 13 28 14 29 15 30 16 14 17 13 18 12 19 11 20 10 21
REMARK SMILES IDX 9 22 8 23 7 24 6 25 5 26 4 27 3 28 2 29 1 30
REMARK H PARENT
REMARK Flexibility Score: inf
ROOT
ATOM      1  C   UNL     1     171.305 170.772 150.498  1.00  0.00     0.000 C 
ENDROOT
BRANCH   1   2
ATOM      2  C   UNL     1     172.658 170.955 149.786  1.00  0.00     0.000 C 
BRANCH   2   3
ATOM      3  C   UNL     1     173.870 170.390 150.548  1.00  0.00     0.000 C 
BRANCH   3   4
ATOM      4  C   UNL     1     174.945 171.456 150.830  1.00  0.00     0.000 C 
BRANCH   4   5
ATOM      5  C   UNL     1     174.947 172.592 149.789  1.00  0.00     0.000 C 
BRANCH   5   6
ATOM      6  C   UNL     1     174.641 173.977 150.387  1.00  0.00     0.000 C 
BRANCH   6   7
ATOM      7  C   UNL     1     174.417 173.930 151.913  1.00  0.00     0.000 C 
BRANCH   7   8
ATOM      8  C   UNL     1     173.003 174.388 152.314  1.00  0.00     0.000 C 
BRANCH   8   9
ATOM      9  C   UNL     1     171.956 174.288 151.181  1.00  0.00     0.000 C 
BRANCH   9  10
ATOM     10  C   UNL     1     170.517 174.681 151.577  1.00  0.00     0.000 C 
BRANCH  10  11
ATOM     11  C   UNL     1     169.400 173.933 150.822  1.00  0.00     0.000 C 
BRANCH  11  12
ATOM     12  C   UNL     1     168.435 173.135 151.717  1.00  0.00     0.006 C 
BRANCH  12  13
ATOM     13  C   UNL     1     168.242 173.770 153.101  1.00  0.00     0.053 C 
BRANCH  13  14
ATOM     14  C   UNL     1     167.042 174.666 153.104  1.00  0.00     0.041 C 
ATOM     15  O   UNL     1     167.187 175.917 153.103  1.00  0.00    -0.550 OA
ATOM     16  O   UNL     1     165.762 174.122 153.054  1.00  0.00    -0.550 OA
ENDBRANCH  13  14
ENDBRANCH  12  13
ENDBRANCH  11  12
ENDBRANCH  10  11
ENDBRANCH   9  10
ENDBRANCH   8   9
ENDBRANCH   7   8
ENDBRANCH   6   7
ENDBRANCH   5   6
ENDBRANCH   4   5
ENDBRANCH   3   4
ENDBRANCH   2   3
ENDBRANCH   1   2
BRANCH   1  17
ATOM     17  C   UNL     1     171.372 169.756 151.648  1.00  0.00     0.000 C 
BRANCH  17  18
ATOM     18  C   UNL     1     170.543 170.232 152.851  1.00  0.00     0.000 C 
BRANCH  18  19
ATOM     19  C   UNL     1     171.190 171.412 153.599  1.00  0.00     0.000 C 
BRANCH  19  20
ATOM     20  C   UNL     1     172.658 171.204 154.017  1.00  0.00     0.000 C 
BRANCH  20  21
ATOM     21  C   UNL     1     172.818 170.212 155.182  1.00  0.00     0.000 C 
BRANCH  21  22
ATOM     22  C   UNL     1     173.988 169.234 154.975  1.00  0.00    -0.000 C 
BRANCH  22  23
ATOM     23  C   UNL     1     174.408 169.019 153.511  1.00  0.00    -0.000 C 
BRANCH  23  24
ATOM     24  C   UNL     1     175.304 167.784 153.322  1.00  0.00    -0.000 C 
BRANCH  24  25
ATOM     25  C   UNL     1     174.465 166.548 152.966  1.00  0.00    -0.000 C 
BRANCH  25  26
ATOM     26  C   UNL     1     173.327 166.857 151.975  1.00  0.00    -0.000 C 
BRANCH  26  27
ATOM     27  C   UNL     1     173.417 166.114 150.630  1.00  0.00    -0.000 C 
BRANCH  27  28
ATOM     28  C   UNL     1     174.652 166.520 149.806  1.00  0.00    -0.000 C 
BRANCH  28  29
ATOM     29  C   UNL     1     174.301 167.476 148.655  1.00  0.00    -0.003 C 
ATOM     30  C   UNL     1     172.797 167.534 148.380  1.00  0.00     0.004 C 
ENDBRANCH  28  29
ENDBRANCH  27  28
ENDBRANCH  26  27
ENDBRANCH  25  26
ENDBRANCH  24  25
ENDBRANCH  23  24
ENDBRANCH  22  23
ENDBRANCH  21  22
ENDBRANCH  20  21
ENDBRANCH  19  20
ENDBRANCH  18  19
ENDBRANCH  17  18
ENDBRANCH   1  17
TORSDOF 26
ENDMDL
MODEL 6
REMARK VINA RESULT:    -4.525      1.462      2.707
REMARK INTER + INTRA:         -14.763
REMARK INTER:                 -11.400
REMARK INTRA:                  -3.363
REMARK UNBOUND:                -3.359
REMARK SMILES CCCCCCCCCCCCCCCCCCCCCCCCCCCC(=O)[O-]
REMARK SMILES IDX 15 1 16 2 17 3 18 4 19 5 20 6 21 7 22 8 23 9 24 10 25 11
REMARK SMILES IDX 26 12 27 13 28 14 29 15 30 16 14 17 13 18 12 19 11 20 10 21
REMARK SMILES IDX 9 22 8 23 7 24 6 25 5 26 4 27 3 28 2 29 1 30
REMARK H PARENT
REMARK Flexibility Score: inf
ROOT
ATOM      1  C   UNL     1     174.157 170.405 150.564  1.00  0.00     0.000 C 
ENDROOT
BRANCH   1   2
ATOM      2  C   UNL     1     174.477 169.065 149.875  1.00  0.00     0.000 C 
BRANCH   2   3
ATOM      3  C   UNL     1     173.245 168.251 149.441  1.00  0.00     0.000 C 
BRANCH   3   4
ATOM      4  C   UNL     1     173.183 166.864 150.106  1.00  0.00     0.000 C 
BRANCH   4   5
ATOM      5  C   UNL     1     174.577 166.252 150.342  1.00  0.00     0.000 C 
BRANCH   5   6
ATOM      6  C   UNL     1     174.622 165.250 151.510  1.00  0.00     0.000 C 
BRANCH   6   7
ATOM      7  C   UNL     1     174.403 163.793 151.053  1.00  0.00     0.000 C 
BRANCH   7   8
ATOM      8  C   UNL     1     175.675 162.937 151.184  1.00  0.00     0.000 C 
BRANCH   8   9
ATOM      9  C   UNL     1     175.785 161.796 150.146  1.00  0.00     0.000 C 
BRANCH   9  10
ATOM     10  C   UNL     1     175.967 160.383 150.737  1.00  0.00     0.000 C 
BRANCH  10  11
ATOM     11  C   UNL     1     174.666 159.581 150.937  1.00  0.00     0.000 C 
BRANCH  11  12
ATOM     12  C   UNL     1     173.451 160.114 150.155  1.00  0.00     0.006 C 
BRANCH  12  13
ATOM     13  C   UNL     1     172.145 159.393 150.517  1.00  0.00     0.053 C 
BRANCH  13  14
ATOM     14  C   UNL     1     172.382 157.921 150.660  1.00  0.00     0.041 C 
ATOM     15  O   UNL     1     172.869 157.262 149.703  1.00  0.00    -0.550 OA
ATOM     16  O   UNL     1     172.115 157.284 151.868  1.00  0.00    -0.550 OA
ENDBRANCH  13  14
ENDBRANCH  12  13
ENDBRANCH  11  12
ENDBRANCH  10  11
ENDBRANCH   9  10
ENDBRANCH   8   9
ENDBRANCH   7   8
ENDBRANCH   6   7
ENDBRANCH   5   6
ENDBRANCH   4   5
ENDBRANCH   3   4
ENDBRANCH   2   3
ENDBRANCH   1   2
BRANCH   1  17
ATOM     17  C   UNL     1     172.812 170.995 150.117  1.00  0.00     0.000 C 
BRANCH  17  18
ATOM     18  C   UNL     1     172.866 172.531 150.093  1.00  0.00     0.000 C 
BRANCH  18  19
ATOM     19  C   UNL     1     174.249 173.079 149.696  1.00  0.00     0.000 C 
BRANCH  19  20
ATOM     20  C   UNL     1     174.822 174.161 150.631  1.00  0.00     0.000 C 
BRANCH  20  21
ATOM     21  C   UNL     1     174.305 174.045 152.075  1.00  0.00     0.000 C 
BRANCH  21  22
ATOM     22  C   UNL     1     175.435 173.836 153.098  1.00  0.00    -0.000 C 
BRANCH  22  23
ATOM     23  C   UNL     1     174.975 173.403 154.501  1.00  0.00    -0.000 C 
BRANCH  23  24
ATOM     24  C   UNL     1     174.976 171.877 154.686  1.00  0.00    -0.000 C 
BRANCH  24  25
ATOM     25  C   UNL     1     174.031 171.462 155.823  1.00  0.00    -0.000 C 
BRANCH  25  26
ATOM     26  C   UNL     1     173.037 170.361 155.409  1.00  0.00    -0.000 C 
BRANCH  26  27
ATOM     27  C   UNL     1     172.852 170.192 153.890  1.00  0.00    -0.000 C 
BRANCH  27  28
ATOM     28  C   UNL     1     172.908 168.720 153.442  1.00  0.00    -0.000 C 
BRANCH  28  29
ATOM     29  C   UNL     1     174.110 167.972 154.040  1.00  0.00    -0.003 C 
ATOM     30  C   UNL     1     175.436 168.392 153.406  1.00  0.00     0.004 C 
ENDBRANCH  28  29
ENDBRANCH  27  28
ENDBRANCH  26  27
ENDBRANCH  25  26
ENDBRANCH  24  25
ENDBRANCH  23  24
ENDBRANCH  22  23
ENDBRANCH  21  22
ENDBRANCH  20  21
ENDBRANCH  19  20
ENDBRANCH  18  19
ENDBRANCH  17  18
ENDBRANCH   1  17
TORSDOF 26
ENDMDL
MODEL 7
REMARK VINA RESULT:    -4.513      5.778      8.144
REMARK INTER + INTRA:         -14.733
REMARK INTER:                  -9.274
REMARK INTRA:                  -5.459
REMARK UNBOUND:                -3.359
REMARK SMILES CCCCCCCCCCCCCCCCCCCCCCCCCCCC(=O)[O-]
REMARK SMILES IDX 15 1 16 2 17 3 18 4 19 5 20 6 21 7 22 8 23 9 24 10 25 11
REMARK SMILES IDX 26 12 27 13 28 14 29 15 30 16 14 17 13 18 12 19 11 20 10 21
REMARK SMILES IDX 9 22 8 23 7 24 6 25 5 26 4 27 3 28 2 29 1 30
REMARK H PARENT
REMARK Flexibility Score: inf
ROOT
ATOM      1  C   UNL     1     174.160 173.255 150.011  1.00  0.00     0.000 C 
ENDROOT
BRANCH   1   2
ATOM      2  C   UNL     1     174.016 171.730 150.165  1.00  0.00     0.000 C 
BRANCH   2   3
ATOM      3  C   UNL     1     175.347 170.956 150.199  1.00  0.00     0.000 C 
BRANCH   3   4
ATOM      4  C   UNL     1     175.169 169.484 150.614  1.00  0.00     0.000 C 
BRANCH   4   5
ATOM      5  C   UNL     1     175.152 168.521 149.411  1.00  0.00     0.000 C 
BRANCH   5   6
ATOM      6  C   UNL     1     174.258 167.286 149.622  1.00  0.00     0.000 C 
BRANCH   6   7
ATOM      7  C   UNL     1     172.803 167.519 149.164  1.00  0.00     0.000 C 
BRANCH   7   8
ATOM      8  C   UNL     1     171.855 167.811 150.341  1.00  0.00     0.000 C 
BRANCH   8   9
ATOM      9  C   UNL     1     171.468 169.300 150.492  1.00  0.00     0.000 C 
BRANCH   9  10
ATOM     10  C   UNL     1     170.952 169.708 151.888  1.00  0.00     0.000 C 
BRANCH  10  11
ATOM     11  C   UNL     1     171.598 170.976 152.482  1.00  0.00     0.000 C 
BRANCH  11  12
ATOM     12  C   UNL     1     170.672 172.204 152.546  1.00  0.00     0.006 C 
BRANCH  12  13
ATOM     13  C   UNL     1     170.401 172.820 151.166  1.00  0.00     0.053 C 
BRANCH  13  14
ATOM     14  C   UNL     1     169.943 174.238 151.306  1.00  0.00     0.041 C 
ATOM     15  O   UNL     1     168.718 174.496 151.454  1.00  0.00    -0.550 OA
ATOM     16  O   UNL     1     170.871 175.275 151.326  1.00  0.00    -0.550 OA
ENDBRANCH  13  14
ENDBRANCH  12  13
ENDBRANCH  11  12
ENDBRANCH  10  11
ENDBRANCH   9  10
ENDBRANCH   8   9
ENDBRANCH   7   8
ENDBRANCH   6   7
ENDBRANCH   5   6
ENDBRANCH   4   5
ENDBRANCH   3   4
ENDBRANCH   2   3
ENDBRANCH   1   2
BRANCH   1  17
ATOM     17  C   UNL     1     173.986 174.005 151.339  1.00  0.00     0.000 C 
BRANCH  17  18
ATOM     18  C   UNL     1     175.347 174.285 151.995  1.00  0.00     0.000 C 
BRANCH  18  19
ATOM     19  C   UNL     1     175.364 173.977 153.504  1.00  0.00     0.000 C 
BRANCH  19  20
ATOM     20  C   UNL     1     174.357 172.909 153.970  1.00  0.00     0.000 C 
BRANCH  20  21
ATOM     21  C   UNL     1     174.957 171.493 154.014  1.00  0.00     0.000 C 
BRANCH  21  22
ATOM     22  C   UNL     1     175.639 171.177 155.356  1.00  0.00    -0.000 C 
BRANCH  22  23
ATOM     23  C   UNL     1     174.862 171.627 156.606  1.00  0.00    -0.000 C 
BRANCH  23  24
ATOM     24  C   UNL     1     174.196 170.457 157.349  1.00  0.00    -0.000 C 
BRANCH  24  25
ATOM     25  C   UNL     1     172.666 170.571 157.292  1.00  0.00    -0.000 C 
BRANCH  25  26
ATOM     26  C   UNL     1     172.081 170.142 155.934  1.00  0.00    -0.000 C 
BRANCH  26  27
ATOM     27  C   UNL     1     171.383 168.770 155.931  1.00  0.00    -0.000 C 
BRANCH  27  28
ATOM     28  C   UNL     1     172.148 167.714 155.112  1.00  0.00    -0.000 C 
BRANCH  28  29
ATOM     29  C   UNL     1     173.353 168.309 154.368  1.00  0.00    -0.003 C 
ATOM     30  C   UNL     1     173.990 167.315 153.395  1.00  0.00     0.004 C 
ENDBRANCH  28  29
ENDBRANCH  27  28
ENDBRANCH  26  27
ENDBRANCH  25  26
ENDBRANCH  24  25
ENDBRANCH  23  24
ENDBRANCH  22  23
ENDBRANCH  21  22
ENDBRANCH  20  21
ENDBRANCH  19  20
ENDBRANCH  18  19
ENDBRANCH  17  18
ENDBRANCH   1  17
TORSDOF 26
ENDMDL
MODEL 8
REMARK VINA RESULT:    -4.491      1.819      4.471
REMARK INTER + INTRA:         -14.677
REMARK INTER:                 -11.992
REMARK INTRA:                  -2.685
REMARK UNBOUND:                -3.359
REMARK SMILES CCCCCCCCCCCCCCCCCCCCCCCCCCCC(=O)[O-]
REMARK SMILES IDX 15 1 16 2 17 3 18 4 19 5 20 6 21 7 22 8 23 9 24 10 25 11
REMARK SMILES IDX 26 12 27 13 28 14 29 15 30 16 14 17 13 18 12 19 11 20 10 21
REMARK SMILES IDX 9 22 8 23 7 24 6 25 5 26 4 27 3 28 2 29 1 30
REMARK H PARENT
REMARK Flexibility Score: inf
ROOT
ATOM      1  C   UNL     1     172.122 165.471 150.982  1.00  0.00     0.000 C 
ENDROOT
BRANCH   1   2
ATOM      2  C   UNL     1     173.305 164.906 151.789  1.00  0.00     0.000 C 
BRANCH   2   3
ATOM      3  C   UNL     1     173.703 163.463 151.426  1.00  0.00     0.000 C 
BRANCH   3   4
ATOM      4  C   UNL     1     175.002 163.012 152.118  1.00  0.00     0.000 C 
BRANCH   4   5
ATOM      5  C   UNL     1     175.983 162.317 151.153  1.00  0.00     0.000 C 
BRANCH   5   6
ATOM      6  C   UNL     1     175.290 161.589 149.988  1.00  0.00     0.000 C 
BRANCH   6   7
ATOM      7  C   UNL     1     175.630 160.085 149.939  1.00  0.00     0.000 C 
BRANCH   7   8
ATOM      8  C   UNL     1     174.671 159.236 150.793  1.00  0.00     0.000 C 
BRANCH   8   9
ATOM      9  C   UNL     1     173.340 158.881 150.091  1.00  0.00     0.000 C 
BRANCH   9  10
ATOM     10  C   UNL     1     172.074 159.479 150.739  1.00  0.00     0.000 C 
BRANCH  10  11
ATOM     11  C   UNL     1     171.171 160.293 149.790  1.00  0.00     0.000 C 
BRANCH  11  12
ATOM     12  C   UNL     1     170.086 159.473 149.069  1.00  0.00     0.006 C 
BRANCH  12  13
ATOM     13  C   UNL     1     169.866 158.090 149.696  1.00  0.00     0.053 C 
BRANCH  13  14
ATOM     14  C   UNL     1     168.648 158.099 150.567  1.00  0.00     0.041 C 
ATOM     15  O   UNL     1     167.930 159.131 150.640  1.00  0.00    -0.550 OA
ATOM     16  O   UNL     1     168.273 156.950 151.258  1.00  0.00    -0.550 OA
ENDBRANCH  13  14
ENDBRANCH  12  13
ENDBRANCH  11  12
ENDBRANCH  10  11
ENDBRANCH   9  10
ENDBRANCH   8   9
ENDBRANCH   7   8
ENDBRANCH   6   7
ENDBRANCH   5   6
ENDBRANCH   4   5
ENDBRANCH   3   4
ENDBRANCH   2   3
ENDBRANCH   1   2
BRANCH   1  17
ATOM     17  C   UNL     1     172.556 166.517 149.944  1.00  0.00     0.000 C 
BRANCH  17  18
ATOM     18  C   UNL     1     174.083 166.520 149.772  1.00  0.00     0.000 C 
BRANCH  18  19
ATOM     19  C   UNL     1     174.638 167.890 149.340  1.00  0.00     0.000 C 
BRANCH  19  20
ATOM     20  C   UNL     1     174.883 168.893 150.484  1.00  0.00     0.000 C 
BRANCH  20  21
ATOM     21  C   UNL     1     175.790 170.066 150.073  1.00  0.00     0.000 C 
BRANCH  21  22
ATOM     22  C   UNL     1     175.057 171.419 150.090  1.00  0.00    -0.000 C 
BRANCH  22  23
ATOM     23  C   UNL     1     173.524 171.330 150.189  1.00  0.00    -0.000 C 
BRANCH  23  24
ATOM     24  C   UNL     1     172.843 172.708 150.161  1.00  0.00    -0.000 C 
BRANCH  24  25
ATOM     25  C   UNL     1     173.850 173.823 150.477  1.00  0.00    -0.000 C 
BRANCH  25  26
ATOM     26  C   UNL     1     173.875 174.206 151.969  1.00  0.00    -0.000 C 
BRANCH  26  27
ATOM     27  C   UNL     1     175.254 174.104 152.643  1.00  0.00    -0.000 C 
BRANCH  27  28
ATOM     28  C   UNL     1     175.265 173.130 153.835  1.00  0.00    -0.000 C 
BRANCH  28  29
ATOM     29  C   UNL     1     174.181 172.048 153.718  1.00  0.00    -0.003 C 
ATOM     30  C   UNL     1     174.754 170.633 153.801  1.00  0.00     0.004 C 
ENDBRANCH  28  29
ENDBRANCH  27  28
ENDBRANCH  26  27
ENDBRANCH  25  26
ENDBRANCH  24  25
ENDBRANCH  23  24
ENDBRANCH  22  23
ENDBRANCH  21  22
ENDBRANCH  20  21
ENDBRANCH  19  20
ENDBRANCH  18  19
ENDBRANCH  17  18
ENDBRANCH   1  17
TORSDOF 26
ENDMDL
MODEL 9
REMARK VINA RESULT:    -4.476      4.944      8.968
REMARK INTER + INTRA:         -14.637
REMARK INTER:                  -8.613
REMARK INTRA:                  -6.025
REMARK UNBOUND:                -3.359
REMARK SMILES CCCCCCCCCCCCCCCCCCCCCCCCCCCC(=O)[O-]
REMARK SMILES IDX 15 1 16 2 17 3 18 4 19 5 20 6 21 7 22 8 23 9 24 10 25 11
REMARK SMILES IDX 26 12 27 13 28 14 29 15 30 16 14 17 13 18 12 19 11 20 10 21
REMARK SMILES IDX 9 22 8 23 7 24 6 25 5 26 4 27 3 28 2 29 1 30
REMARK H PARENT
REMARK Flexibility Score: inf
ROOT
ATOM      1  C   UNL     1     172.657 172.375 150.309  1.00  0.00     0.000 C 
ENDROOT
BRANCH   1   2
ATOM      2  C   UNL     1     174.081 172.590 149.761  1.00  0.00     0.000 C 
BRANCH   2   3
ATOM      3  C   UNL     1     174.831 173.791 150.366  1.00  0.00     0.000 C 
BRANCH   3   4
ATOM      4  C   UNL     1     174.233 174.250 151.709  1.00  0.00     0.000 C 
BRANCH   4   5
ATOM      5  C   UNL     1     174.917 173.594 152.924  1.00  0.00     0.000 C 
BRANCH   5   6
ATOM      6  C   UNL     1     173.997 173.455 154.149  1.00  0.00     0.000 C 
BRANCH   6   7
ATOM      7  C   UNL     1     172.551 173.911 153.864  1.00  0.00     0.000 C 
BRANCH   7   8
ATOM      8  C   UNL     1     171.557 172.735 153.837  1.00  0.00     0.000 C 
BRANCH   8   9
ATOM      9  C   UNL     1     170.105 173.138 153.495  1.00  0.00     0.000 C 
BRANCH   9  10
ATOM     10  C   UNL     1     169.952 174.098 152.296  1.00  0.00     0.000 C 
BRANCH  10  11
ATOM     11  C   UNL     1     169.362 173.467 151.019  1.00  0.00     0.000 C 
BRANCH  11  12
ATOM     12  C   UNL     1     168.185 172.504 151.257  1.00  0.00     0.006 C 
BRANCH  12  13
ATOM     13  C   UNL     1     168.498 171.062 150.836  1.00  0.00     0.053 C 
BRANCH  13  14
ATOM     14  C   UNL     1     167.991 170.096 151.861  1.00  0.00     0.041 C 
ATOM     15  O   UNL     1     167.854 170.459 153.060  1.00  0.00    -0.550 OA
ATOM     16  O   UNL     1     167.619 168.808 151.487  1.00  0.00    -0.550 OA
ENDBRANCH  13  14
ENDBRANCH  12  13
ENDBRANCH  11  12
ENDBRANCH  10  11
ENDBRANCH   9  10
ENDBRANCH   8   9
ENDBRANCH   7   8
ENDBRANCH   6   7
ENDBRANCH   5   6
ENDBRANCH   4   5
ENDBRANCH   3   4
ENDBRANCH   2   3
ENDBRANCH   1   2
BRANCH   1  17
ATOM     17  C   UNL     1     172.163 170.933 150.129  1.00  0.00     0.000 C 
BRANCH  17  18
ATOM     18  C   UNL     1     171.893 170.271 151.490  1.00  0.00     0.000 C 
BRANCH  18  19
ATOM     19  C   UNL     1     171.482 168.791 151.369  1.00  0.00     0.000 C 
BRANCH  19  20
ATOM     20  C   UNL     1     171.159 168.311 149.941  1.00  0.00     0.000 C 
BRANCH  20  21
ATOM     21  C   UNL     1     172.061 167.156 149.475  1.00  0.00     0.000 C 
BRANCH  21  22
ATOM     22  C   UNL     1     173.291 167.641 148.689  1.00  0.00    -0.000 C 
BRANCH  22  23
ATOM     23  C   UNL     1     174.618 167.612 149.469  1.00  0.00    -0.000 C 
BRANCH  23  24
ATOM     24  C   UNL     1     175.231 169.009 149.655  1.00  0.00    -0.000 C 
BRANCH  24  25
ATOM     25  C   UNL     1     175.370 169.353 151.145  1.00  0.00    -0.000 C 
BRANCH  25  26
ATOM     26  C   UNL     1     174.977 168.187 152.071  1.00  0.00    -0.000 C 
BRANCH  26  27
ATOM     27  C   UNL     1     175.113 168.478 153.576  1.00  0.00    -0.000 C 
BRANCH  27  28
ATOM     28  C   UNL     1     174.707 169.916 153.945  1.00  0.00    -0.000 C 
BRANCH  28  29
ATOM     29  C   UNL     1     173.727 169.964 155.128  1.00  0.00    -0.003 C 
ATOM     30  C   UNL     1     172.563 168.985 154.964  1.00  0.00     0.004 C 
ENDBRANCH  28  29
ENDBRANCH  27  28
ENDBRANCH  26  27
ENDBRANCH  25  26
ENDBRANCH  24  25
ENDBRANCH  23  24
ENDBRANCH  22  23
ENDBRANCH  21  22
ENDBRANCH  20  21
ENDBRANCH  19  20
ENDBRANCH  18  19
ENDBRANCH  17  18
ENDBRANCH   1  17
TORSDOF 26
ENDMDL
