MODEL 1
REMARK VINA RESULT:    -5.209      0.000      0.000
REMARK INTER + INTRA:          -9.300
REMARK INTER:                  -7.949
REMARK INTRA:                  -1.351
REMARK UNBOUND:                -1.351
REMARK SMILES CC(=O)CCC=C(C)CCC=C(C)CCC=C(C)C
REMARK SMILES IDX 10 1 11 2 12 3 13 4 14 5 15 6 16 7 18 8 17 9 19 10 9 11 7 12
REMARK SMILES IDX 6 13 8 14 5 15 4 16 2 17 3 18 1 19
REMARK H PARENT
REMARK Flexibility Score: inf
ROOT
ATOM      1  C   UNL     1       1.762  74.894 -29.730  1.00  0.00     0.032 C 
ENDROOT
BRANCH   1   2
ATOM      2  C   UNL     1       3.080  75.470 -30.181  1.00  0.00    -0.028 C 
ATOM      3  C   UNL     1       3.487  76.739 -29.947  1.00  0.00    -0.077 C 
ATOM      4  C   UNL     1       4.838  77.163 -30.458  1.00  0.00     0.039 C 
BRANCH   3   5
ATOM      5  C   UNL     1       2.613  77.774 -29.265  1.00  0.00     0.034 C 
BRANCH   5   6
ATOM      6  C   UNL     1       2.729  79.126 -29.975  1.00  0.00     0.032 C 
BRANCH   6   7
ATOM      7  C   UNL     1       1.756  79.215 -31.122  1.00  0.00    -0.028 C 
ATOM      8  C   UNL     1      -0.381  79.683 -32.242  1.00  0.00     0.039 C 
ATOM      9  C   UNL     1       0.490  79.675 -31.013  1.00  0.00    -0.080 C 
ATOM     10  C   UNL     1      -0.065  80.188 -29.705  1.00  0.00     0.039 C 
ENDBRANCH   6   7
ENDBRANCH   5   6
ENDBRANCH   3   5
ENDBRANCH   1   2
BRANCH   1  11
ATOM     11  C   UNL     1       1.979  73.846 -28.632  1.00  0.00     0.034 C 
BRANCH  11  12
ATOM     12  C   UNL     1       1.132  74.150 -27.412  1.00  0.00    -0.077 C 
ATOM     13  C   UNL     1       0.993  75.437 -27.017  1.00  0.00    -0.028 C 
ATOM     14  C   UNL     1       0.420  73.019 -26.711  1.00  0.00     0.039 C 
BRANCH  13  15
ATOM     15  C   UNL     1       0.206  75.884 -25.810  1.00  0.00     0.035 C 
BRANCH  15  16
ATOM     16  C   UNL     1      -0.016  77.400 -25.834  1.00  0.00     0.079 C 
BRANCH  16  17
ATOM     17  C   UNL     1      -0.669  77.863 -24.560  1.00  0.00     0.130 C 
ATOM     18  O   UNL     1      -1.001  79.034 -24.438  1.00  0.00    -0.300 OA
ATOM     19  C   UNL     1      -0.939  76.895 -23.448  1.00  0.00     0.087 C 
ENDBRANCH  16  17
ENDBRANCH  15  16
ENDBRANCH  13  15
ENDBRANCH  11  12
ENDBRANCH   1  11
TORSDOF 9
ENDMDL
MODEL 2
REMARK VINA RESULT:    -4.977     13.588     15.176
REMARK INTER + INTRA:          -8.946
REMARK INTER:                  -6.502
REMARK INTRA:                  -2.444
REMARK UNBOUND:                -1.351
REMARK SMILES CC(=O)CCC=C(C)CCC=C(C)CCC=C(C)C
REMARK SMILES IDX 10 1 11 2 12 3 13 4 14 5 15 6 16 7 18 8 17 9 19 10 9 11 7 12
REMARK SMILES IDX 6 13 8 14 5 15 4 16 2 17 3 18 1 19
REMARK H PARENT
REMARK Flexibility Score: inf
ROOT
ATOM      1  C   UNL     1      12.814  78.539 -20.292  1.00  0.00     0.032 C 
ENDROOT
BRANCH   1   2
ATOM      2  C   UNL     1      12.961  77.042 -20.208  1.00  0.00    -0.028 C 
ATOM      3  C   UNL     1      12.691  76.302 -19.108  1.00  0.00    -0.077 C 
ATOM      4  C   UNL     1      12.882  74.811 -19.185  1.00  0.00     0.039 C 
BRANCH   3   5
ATOM      5  C   UNL     1      12.284  76.913 -17.781  1.00  0.00     0.034 C 
BRANCH   5   6
ATOM      6  C   UNL     1      10.759  76.918 -17.639  1.00  0.00     0.032 C 
BRANCH   6   7
ATOM      7  C   UNL     1      10.284  78.202 -17.010  1.00  0.00    -0.028 C 
ATOM      8  C   UNL     1       8.815  80.143 -16.666  1.00  0.00     0.039 C 
ATOM      9  C   UNL     1       9.153  78.852 -17.365  1.00  0.00    -0.080 C 
ATOM     10  C   UNL     1       8.222  78.315 -18.426  1.00  0.00     0.039 C 
ENDBRANCH   6   7
ENDBRANCH   5   6
ENDBRANCH   3   5
ENDBRANCH   1   2
BRANCH   1  11
ATOM     11  C   UNL     1      11.385  78.919 -20.701  1.00  0.00     0.034 C 
BRANCH  11  12
ATOM     12  C   UNL     1      10.985  80.255 -20.108  1.00  0.00    -0.077 C 
ATOM     13  C   UNL     1      11.761  80.801 -19.143  1.00  0.00    -0.028 C 
ATOM     14  C   UNL     1       9.770  80.966 -20.650  1.00  0.00     0.039 C 
BRANCH  13  15
ATOM     15  C   UNL     1      11.472  82.106 -18.445  1.00  0.00     0.035 C 
BRANCH  15  16
ATOM     16  C   UNL     1      12.762  82.738 -17.910  1.00  0.00     0.079 C 
BRANCH  16  17
ATOM     17  C   UNL     1      13.508  83.440 -19.011  1.00  0.00     0.130 C 
ATOM     18  O   UNL     1      14.721  83.580 -18.930  1.00  0.00    -0.300 OA
ATOM     19  C   UNL     1      12.781  83.946 -20.219  1.00  0.00     0.087 C 
ENDBRANCH  16  17
ENDBRANCH  15  16
ENDBRANCH  13  15
ENDBRANCH  11  12
ENDBRANCH   1  11
TORSDOF 9
ENDMDL
MODEL 3
REMARK VINA RESULT:    -4.959      7.871     11.634
REMARK INTER + INTRA:          -8.919
REMARK INTER:                  -7.277
REMARK INTRA:                  -1.642
REMARK UNBOUND:                -1.351
REMARK SMILES CC(=O)CCC=C(C)CCC=C(C)CCC=C(C)C
REMARK SMILES IDX 10 1 11 2 12 3 13 4 14 5 15 6 16 7 18 8 17 9 19 10 9 11 7 12
REMARK SMILES IDX 6 13 8 14 5 15 4 16 2 17 3 18 1 19
REMARK H PARENT
REMARK Flexibility Score: inf
ROOT
ATOM      1  C   UNL     1       0.279  79.243 -19.033  1.00  0.00     0.032 C 
ENDROOT
BRANCH   1   2
ATOM      2  C   UNL     1       1.564  79.953 -18.694  1.00  0.00    -0.028 C 
ATOM      3  C   UNL     1       2.538  79.448 -17.903  1.00  0.00    -0.077 C 
ATOM      4  C   UNL     1       3.770  80.280 -17.666  1.00  0.00     0.039 C 
BRANCH   3   5
ATOM      5  C   UNL     1       2.411  78.120 -17.182  1.00  0.00     0.034 C 
BRANCH   5   6
ATOM      6  C   UNL     1       3.106  78.181 -15.819  1.00  0.00     0.032 C 
BRANCH   6   7
ATOM      7  C   UNL     1       3.807  76.882 -15.516  1.00  0.00    -0.028 C 
ATOM      8  C   UNL     1       5.679  75.292 -15.421  1.00  0.00     0.039 C 
ATOM      9  C   UNL     1       5.118  76.650 -15.751  1.00  0.00    -0.080 C 
ATOM     10  C   UNL     1       6.028  77.713 -16.320  1.00  0.00     0.039 C 
ENDBRANCH   6   7
ENDBRANCH   5   6
ENDBRANCH   3   5
ENDBRANCH   1   2
BRANCH   1  11
ATOM     11  C   UNL     1       0.208  78.942 -20.535  1.00  0.00     0.034 C 
BRANCH  11  12
ATOM     12  C   UNL     1      -0.179  77.498 -20.784  1.00  0.00    -0.077 C 
ATOM     13  C   UNL     1       0.223  76.552 -19.904  1.00  0.00    -0.028 C 
ATOM     14  C   UNL     1      -1.049  77.164 -21.971  1.00  0.00     0.039 C 
BRANCH  13  15
ATOM     15  C   UNL     1      -0.063  75.078 -20.039  1.00  0.00     0.035 C 
BRANCH  15  16
ATOM     16  C   UNL     1      -0.046  74.390 -18.669  1.00  0.00     0.079 C 
BRANCH  16  17
ATOM     17  C   UNL     1       1.247  73.649 -18.460  1.00  0.00     0.130 C 
ATOM     18  O   UNL     1       1.298  72.446 -18.674  1.00  0.00    -0.300 OA
ATOM     19  C   UNL     1       2.479  74.379 -18.018  1.00  0.00     0.087 C 
ENDBRANCH  16  17
ENDBRANCH  15  16
ENDBRANCH  13  15
ENDBRANCH  11  12
ENDBRANCH   1  11
TORSDOF 9
ENDMDL
MODEL 4
REMARK VINA RESULT:    -4.952      6.498      9.446
REMARK INTER + INTRA:          -8.909
REMARK INTER:                  -6.387
REMARK INTRA:                  -2.522
REMARK UNBOUND:                -1.351
REMARK SMILES CC(=O)CCC=C(C)CCC=C(C)CCC=C(C)C
REMARK SMILES IDX 10 1 11 2 12 3 13 4 14 5 15 6 16 7 18 8 17 9 19 10 9 11 7 12
REMARK SMILES IDX 6 13 8 14 5 15 4 16 2 17 3 18 1 19
REMARK H PARENT
REMARK Flexibility Score: inf
ROOT
ATOM      1  C   UNL     1       6.356  75.394 -29.288  1.00  0.00     0.032 C 
ENDROOT
BRANCH   1   2
ATOM      2  C   UNL     1       6.508  74.129 -30.093  1.00  0.00    -0.028 C 
ATOM      3  C   UNL     1       7.263  73.067 -29.725  1.00  0.00    -0.077 C 
ATOM      4  C   UNL     1       7.306  71.871 -30.637  1.00  0.00     0.039 C 
BRANCH   3   5
ATOM      5  C   UNL     1       8.127  73.061 -28.480  1.00  0.00     0.034 C 
BRANCH   5   6
ATOM      6  C   UNL     1       9.611  73.023 -28.857  1.00  0.00     0.032 C 
BRANCH   6   7
ATOM      7  C   UNL     1      10.229  74.392 -28.739  1.00  0.00    -0.028 C 
ATOM      8  C   UNL     1      11.165  76.525 -29.525  1.00  0.00     0.039 C 
ATOM      9  C   UNL     1      10.523  75.189 -29.791  1.00  0.00    -0.080 C 
ATOM     10  C   UNL     1      10.216  74.781 -31.213  1.00  0.00     0.039 C 
ENDBRANCH   6   7
ENDBRANCH   5   6
ENDBRANCH   3   5
ENDBRANCH   1   2
BRANCH   1  11
ATOM     11  C   UNL     1       6.084  76.590 -30.208  1.00  0.00     0.034 C 
BRANCH  11  12
ATOM     12  C   UNL     1       7.321  77.451 -30.364  1.00  0.00    -0.077 C 
ATOM     13  C   UNL     1       7.844  77.626 -31.600  1.00  0.00    -0.028 C 
ATOM     14  C   UNL     1       7.898  78.137 -29.150  1.00  0.00     0.039 C 
BRANCH  13  15
ATOM     15  C   UNL     1       9.084  78.431 -31.901  1.00  0.00     0.035 C 
BRANCH  15  16
ATOM     16  C   UNL     1       8.736  79.694 -32.696  1.00  0.00     0.079 C 
BRANCH  16  17
ATOM     17  C   UNL     1       8.372  80.823 -31.771  1.00  0.00     0.130 C 
ATOM     18  O   UNL     1       9.048  81.033 -30.774  1.00  0.00    -0.300 OA
ATOM     19  C   UNL     1       7.203  81.710 -32.076  1.00  0.00     0.087 C 
ENDBRANCH  16  17
ENDBRANCH  15  16
ENDBRANCH  13  15
ENDBRANCH  11  12
ENDBRANCH   1  11
TORSDOF 9
ENDMDL
MODEL 5
REMARK VINA RESULT:    -4.914     11.640     14.160
REMARK INTER + INTRA:          -8.850
REMARK INTER:                  -5.726
REMARK INTRA:                  -3.124
REMARK UNBOUND:                -1.351
REMARK SMILES CC(=O)CCC=C(C)CCC=C(C)CCC=C(C)C
REMARK SMILES IDX 10 1 11 2 12 3 13 4 14 5 15 6 16 7 18 8 17 9 19 10 9 11 7 12
REMARK SMILES IDX 6 13 8 14 5 15 4 16 2 17 3 18 1 19
REMARK H PARENT
REMARK Flexibility Score: inf
ROOT
ATOM      1  C   UNL     1      14.510  79.455 -22.209  1.00  0.00     0.032 C 
ENDROOT
BRANCH   1   2
ATOM      2  C   UNL     1      13.567  79.725 -21.064  1.00  0.00    -0.028 C 
ATOM      3  C   UNL     1      12.947  78.768 -20.335  1.00  0.00    -0.077 C 
ATOM      4  C   UNL     1      12.038  79.200 -19.215  1.00  0.00     0.039 C 
BRANCH   3   5
ATOM      5  C   UNL     1      13.062  77.289 -20.645  1.00  0.00     0.034 C 
BRANCH   5   6
ATOM      6  C   UNL     1      11.682  76.694 -20.943  1.00  0.00     0.032 C 
BRANCH   6   7
ATOM      7  C   UNL     1      11.509  76.453 -22.420  1.00  0.00    -0.028 C 
ATOM      8  C   UNL     1      10.733  76.903 -24.709  1.00  0.00     0.039 C 
ATOM      9  C   UNL     1      10.849  77.286 -23.256  1.00  0.00    -0.080 C 
ATOM     10  C   UNL     1      10.242  78.583 -22.778  1.00  0.00     0.039 C 
ENDBRANCH   6   7
ENDBRANCH   5   6
ENDBRANCH   3   5
ENDBRANCH   1   2
BRANCH   1  11
ATOM     11  C   UNL     1      13.779  79.581 -23.551  1.00  0.00     0.034 C 
BRANCH  11  12
ATOM     12  C   UNL     1      14.162  78.454 -24.488  1.00  0.00    -0.077 C 
ATOM     13  C   UNL     1      14.675  77.316 -23.967  1.00  0.00    -0.028 C 
ATOM     14  C   UNL     1      13.905  78.608 -25.967  1.00  0.00     0.039 C 
BRANCH  13  15
ATOM     15  C   UNL     1      15.125  76.127 -24.779  1.00  0.00     0.035 C 
BRANCH  15  16
ATOM     16  C   UNL     1      14.127  74.970 -24.653  1.00  0.00     0.079 C 
BRANCH  16  17
ATOM     17  C   UNL     1      13.825  74.378 -26.002  1.00  0.00     0.130 C 
ATOM     18  O   UNL     1      14.290  73.288 -26.305  1.00  0.00    -0.300 OA
ATOM     19  C   UNL     1      12.936  75.100 -26.969  1.00  0.00     0.087 C 
ENDBRANCH  16  17
ENDBRANCH  15  16
ENDBRANCH  13  15
ENDBRANCH  11  12
ENDBRANCH   1  11
TORSDOF 9
ENDMDL
MODEL 6
REMARK VINA RESULT:    -4.914      4.816      7.701
REMARK INTER + INTRA:          -8.849
REMARK INTER:                  -7.392
REMARK INTRA:                  -1.457
REMARK UNBOUND:                -1.351
REMARK SMILES CC(=O)CCC=C(C)CCC=C(C)CCC=C(C)C
REMARK SMILES IDX 10 1 11 2 12 3 13 4 14 5 15 6 16 7 18 8 17 9 19 10 9 11 7 12
REMARK SMILES IDX 6 13 8 14 5 15 4 16 2 17 3 18 1 19
REMARK H PARENT
REMARK Flexibility Score: inf
ROOT
ATOM      1  C   UNL     1       5.793  74.937 -28.980  1.00  0.00     0.032 C 
ENDROOT
BRANCH   1   2
ATOM      2  C   UNL     1       4.317  74.680 -29.139  1.00  0.00    -0.028 C 
ATOM      3  C   UNL     1       3.488  75.406 -29.924  1.00  0.00    -0.077 C 
ATOM      4  C   UNL     1       2.035  75.016 -29.982  1.00  0.00     0.039 C 
BRANCH   3   5
ATOM      5  C   UNL     1       3.938  76.638 -30.683  1.00  0.00     0.034 C 
BRANCH   5   6
ATOM      6  C   UNL     1       3.712  77.898 -29.842  1.00  0.00     0.032 C 
BRANCH   6   7
ATOM      7  C   UNL     1       2.672  78.786 -30.475  1.00  0.00    -0.028 C 
ATOM      8  C   UNL     1       0.471  79.844 -30.755  1.00  0.00     0.039 C 
ATOM      9  C   UNL     1       1.414  78.942 -30.003  1.00  0.00    -0.080 C 
ATOM     10  C   UNL     1       0.940  78.252 -28.747  1.00  0.00     0.039 C 
ENDBRANCH   6   7
ENDBRANCH   5   6
ENDBRANCH   3   5
ENDBRANCH   1   2
BRANCH   1  11
ATOM     11  C   UNL     1       6.583  74.272 -30.114  1.00  0.00     0.034 C 
BRANCH  11  12
ATOM     12  C   UNL     1       7.770  75.120 -30.523  1.00  0.00    -0.077 C 
ATOM     13  C   UNL     1       9.008  74.573 -30.486  1.00  0.00    -0.028 C 
ATOM     14  C   UNL     1       7.535  76.527 -31.015  1.00  0.00     0.039 C 
BRANCH  13  15
ATOM     15  C   UNL     1      10.280  75.303 -30.836  1.00  0.00     0.035 C 
BRANCH  15  16
ATOM     16  C   UNL     1      11.083  75.638 -29.574  1.00  0.00     0.079 C 
BRANCH  16  17
ATOM     17  C   UNL     1      11.537  77.072 -29.595  1.00  0.00     0.130 C 
ATOM     18  O   UNL     1      12.586  77.385 -29.050  1.00  0.00    -0.300 OA
ATOM     19  C   UNL     1      10.727  78.115 -30.303  1.00  0.00     0.087 C 
ENDBRANCH  16  17
ENDBRANCH  15  16
ENDBRANCH  13  15
ENDBRANCH  11  12
ENDBRANCH   1  11
TORSDOF 9
ENDMDL
MODEL 7
REMARK VINA RESULT:    -4.899      2.409      5.651
REMARK INTER + INTRA:          -8.828
REMARK INTER:                  -6.441
REMARK INTRA:                  -2.387
REMARK UNBOUND:                -1.351
REMARK SMILES CC(=O)CCC=C(C)CCC=C(C)CCC=C(C)C
REMARK SMILES IDX 10 1 11 2 12 3 13 4 14 5 15 6 16 7 18 8 17 9 19 10 9 11 7 12
REMARK SMILES IDX 6 13 8 14 5 15 4 16 2 17 3 18 1 19
REMARK H PARENT
REMARK Flexibility Score: inf
ROOT
ATOM      1  C   UNL     1       6.398  75.660 -29.789  1.00  0.00     0.032 C 
ENDROOT
BRANCH   1   2
ATOM      2  C   UNL     1       6.588  74.191 -30.070  1.00  0.00    -0.028 C 
ATOM      3  C   UNL     1       6.037  73.190 -29.345  1.00  0.00    -0.077 C 
ATOM      4  C   UNL     1       6.317  71.771 -29.759  1.00  0.00     0.039 C 
BRANCH   3   5
ATOM      5  C   UNL     1       5.218  73.432 -28.092  1.00  0.00     0.034 C 
BRANCH   5   6
ATOM      6  C   UNL     1       3.732  73.185 -28.366  1.00  0.00     0.032 C 
BRANCH   6   7
ATOM      7  C   UNL     1       2.896  74.333 -27.864  1.00  0.00    -0.028 C 
ATOM      8  C   UNL     1       1.271  76.173 -27.994  1.00  0.00     0.039 C 
ATOM      9  C   UNL     1       2.023  75.030 -28.625  1.00  0.00    -0.080 C 
ATOM     10  C   UNL     1       1.775  74.688 -30.075  1.00  0.00     0.039 C 
ENDBRANCH   6   7
ENDBRANCH   5   6
ENDBRANCH   3   5
ENDBRANCH   1   2
BRANCH   1  11
ATOM     11  C   UNL     1       5.270  76.234 -30.656  1.00  0.00     0.034 C 
BRANCH  11  12
ATOM     12  C   UNL     1       4.500  77.305 -29.910  1.00  0.00    -0.077 C 
ATOM     13  C   UNL     1       3.526  77.983 -30.561  1.00  0.00    -0.028 C 
ATOM     14  C   UNL     1       4.798  77.543 -28.450  1.00  0.00     0.039 C 
BRANCH  13  15
ATOM     15  C   UNL     1       2.700  79.090 -29.956  1.00  0.00     0.035 C 
BRANCH  15  16
ATOM     16  C   UNL     1       1.728  79.674 -30.988  1.00  0.00     0.079 C 
BRANCH  16  17
ATOM     17  C   UNL     1       0.321  79.674 -30.455  1.00  0.00     0.130 C 
ATOM     18  O   UNL     1       0.095  79.228 -29.339  1.00  0.00    -0.300 OA
ATOM     19  C   UNL     1      -0.800  80.240 -31.271  1.00  0.00     0.087 C 
ENDBRANCH  16  17
ENDBRANCH  15  16
ENDBRANCH  13  15
ENDBRANCH  11  12
ENDBRANCH   1  11
TORSDOF 9
ENDMDL
MODEL 8
REMARK VINA RESULT:    -4.889      5.046      7.852
REMARK INTER + INTRA:          -8.813
REMARK INTER:                  -6.725
REMARK INTRA:                  -2.088
REMARK UNBOUND:                -1.351
REMARK SMILES CC(=O)CCC=C(C)CCC=C(C)CCC=C(C)C
REMARK SMILES IDX 10 1 11 2 12 3 13 4 14 5 15 6 16 7 18 8 17 9 19 10 9 11 7 12
REMARK SMILES IDX 6 13 8 14 5 15 4 16 2 17 3 18 1 19
REMARK H PARENT
REMARK Flexibility Score: inf
ROOT
ATOM      1  C   UNL     1      -1.289  76.563 -21.808  1.00  0.00     0.032 C 
ENDROOT
BRANCH   1   2
ATOM      2  C   UNL     1      -0.991  76.471 -23.283  1.00  0.00    -0.028 C 
ATOM      3  C   UNL     1       0.200  76.774 -23.849  1.00  0.00    -0.077 C 
ATOM      4  C   UNL     1       0.342  76.623 -25.339  1.00  0.00     0.039 C 
BRANCH   3   5
ATOM      5  C   UNL     1       1.369  77.334 -23.062  1.00  0.00     0.034 C 
BRANCH   5   6
ATOM      6  C   UNL     1       1.473  78.849 -23.262  1.00  0.00     0.032 C 
BRANCH   6   7
ATOM      7  C   UNL     1       0.578  79.580 -22.295  1.00  0.00    -0.028 C 
ATOM      8  C   UNL     1      -1.346  80.928 -21.571  1.00  0.00     0.039 C 
ATOM      9  C   UNL     1      -0.563  80.215 -22.643  1.00  0.00    -0.080 C 
ATOM     10  C   UNL     1      -1.075  80.217 -24.063  1.00  0.00     0.039 C 
ENDBRANCH   6   7
ENDBRANCH   5   6
ENDBRANCH   3   5
ENDBRANCH   1   2
BRANCH   1  11
ATOM     11  C   UNL     1      -0.904  75.259 -21.097  1.00  0.00     0.034 C 
BRANCH  11  12
ATOM     12  C   UNL     1      -0.069  75.537 -19.864  1.00  0.00    -0.077 C 
ATOM     13  C   UNL     1       0.497  76.757 -19.718  1.00  0.00    -0.028 C 
ATOM     14  C   UNL     1       0.060  74.467 -18.807  1.00  0.00     0.039 C 
BRANCH  13  15
ATOM     15  C   UNL     1       1.373  77.164 -18.560  1.00  0.00     0.035 C 
BRANCH  15  16
ATOM     16  C   UNL     1       2.051  78.511 -18.835  1.00  0.00     0.079 C 
BRANCH  16  17
ATOM     17  C   UNL     1       2.633  79.083 -17.571  1.00  0.00     0.130 C 
ATOM     18  O   UNL     1       2.879  80.279 -17.503  1.00  0.00    -0.300 OA
ATOM     19  C   UNL     1       2.888  78.204 -16.385  1.00  0.00     0.087 C 
ENDBRANCH  16  17
ENDBRANCH  15  16
ENDBRANCH  13  15
ENDBRANCH  11  12
ENDBRANCH   1  11
TORSDOF 9
ENDMDL
MODEL 9
REMARK VINA RESULT:    -4.800      2.423      5.337
REMARK INTER + INTRA:          -8.676
REMARK INTER:                  -5.642
REMARK INTRA:                  -3.034
REMARK UNBOUND:                -1.351
REMARK SMILES CC(=O)CCC=C(C)CCC=C(C)CCC=C(C)C
REMARK SMILES IDX 10 1 11 2 12 3 13 4 14 5 15 6 16 7 18 8 17 9 19 10 9 11 7 12
REMARK SMILES IDX 6 13 8 14 5 15 4 16 2 17 3 18 1 19
REMARK H PARENT
REMARK Flexibility Score: inf
ROOT
ATOM      1  C   UNL     1       5.372  76.972 -28.031  1.00  0.00     0.032 C 
ENDROOT
BRANCH   1   2
ATOM      2  C   UNL     1       5.120  75.488 -27.952  1.00  0.00    -0.028 C 
ATOM      3  C   UNL     1       4.335  74.793 -28.807  1.00  0.00    -0.077 C 
ATOM      4  C   UNL     1       4.189  73.310 -28.599  1.00  0.00     0.039 C 
BRANCH   3   5
ATOM      5  C   UNL     1       3.533  75.452 -29.913  1.00  0.00     0.034 C 
BRANCH   5   6
ATOM      6  C   UNL     1       2.035  75.205 -29.709  1.00  0.00     0.032 C 
BRANCH   6   7
ATOM      7  C   UNL     1       1.446  76.227 -28.771  1.00  0.00    -0.028 C 
ATOM      8  C   UNL     1       0.406  77.068 -26.709  1.00  0.00     0.039 C 
ATOM      9  C   UNL     1       0.995  75.949 -27.527  1.00  0.00    -0.080 C 
ATOM     10  C   UNL     1       1.078  74.561 -26.938  1.00  0.00     0.039 C 
ENDBRANCH   6   7
ENDBRANCH   5   6
ENDBRANCH   3   5
ENDBRANCH   1   2
BRANCH   1  11
ATOM     11  C   UNL     1       4.555  77.716 -26.968  1.00  0.00     0.034 C 
BRANCH  11  12
ATOM     12  C   UNL     1       3.742  78.834 -27.587  1.00  0.00    -0.077 C 
ATOM     13  C   UNL     1       3.748  78.979 -28.933  1.00  0.00    -0.028 C 
ATOM     14  C   UNL     1       2.902  79.714 -26.694  1.00  0.00     0.039 C 
BRANCH  13  15
ATOM     15  C   UNL     1       3.010  80.059 -29.683  1.00  0.00     0.035 C 
BRANCH  15  16
ATOM     16  C   UNL     1       2.267  79.477 -30.890  1.00  0.00     0.079 C 
BRANCH  16  17
ATOM     17  C   UNL     1       0.779  79.615 -30.718  1.00  0.00     0.130 C 
ATOM     18  O   UNL     1       0.046  79.545 -31.695  1.00  0.00    -0.300 OA
ATOM     19  C   UNL     1       0.186  79.812 -29.357  1.00  0.00     0.087 C 
ENDBRANCH  16  17
ENDBRANCH  15  16
ENDBRANCH  13  15
ENDBRANCH  11  12
ENDBRANCH   1  11
TORSDOF 9
ENDMDL
