MODEL 1
REMARK VINA RESULT:    -5.697      0.000      0.000
REMARK INTER + INTRA:          -8.591
REMARK INTER:                  -7.695
REMARK INTRA:                  -0.896
REMARK UNBOUND:                -0.896
REMARK SMILES CC(=O)CCC=C(C)CCC=C(C)C
REMARK SMILES IDX 7 1 6 2 8 3 9 4 10 5 11 6 13 7 12 8 14 9 5 10 4 11 2 12 3 13
REMARK SMILES IDX 1 14
REMARK H PARENT
REMARK Flexibility Score: inf
ROOT
ATOM      1  C   UNL     1       6.592  20.272   5.480  1.00  0.00    -0.077 C 
ATOM      2  C   UNL     1       6.413  20.944   4.320  1.00  0.00    -0.028 C 
ATOM      3  C   UNL     1       6.126  18.846   5.656  1.00  0.00     0.039 C 
ENDROOT
BRANCH   1   4
ATOM      4  C   UNL     1       7.260  20.976   6.643  1.00  0.00     0.034 C 
BRANCH   4   5
ATOM      5  C   UNL     1       6.262  21.308   7.762  1.00  0.00     0.032 C 
BRANCH   5   6
ATOM      6  C   UNL     1       5.251  22.341   7.323  1.00  0.00    -0.028 C 
ATOM      7  C   UNL     1       3.315  20.760   7.473  1.00  0.00     0.039 C 
ATOM      8  C   UNL     1       3.932  22.102   7.160  1.00  0.00    -0.080 C 
ATOM      9  C   UNL     1       3.057  23.225   6.666  1.00  0.00     0.039 C 
ENDBRANCH   5   6
ENDBRANCH   4   5
ENDBRANCH   1   4
BRANCH   2  10
ATOM     10  C   UNL     1       5.792  20.355   3.078  1.00  0.00     0.035 C 
BRANCH  10  11
ATOM     11  C   UNL     1       4.723  21.294   2.506  1.00  0.00     0.079 C 
BRANCH  11  12
ATOM     12  C   UNL     1       4.674  21.190   1.005  1.00  0.00     0.130 C 
ATOM     13  O   UNL     1       4.764  22.204   0.329  1.00  0.00    -0.300 OA
ATOM     14  C   UNL     1       4.504  19.869   0.317  1.00  0.00     0.087 C 
ENDBRANCH  11  12
ENDBRANCH  10  11
ENDBRANCH   2  10
TORSDOF 6
ENDMDL
MODEL 2
REMARK VINA RESULT:    -5.588      1.258      2.143
REMARK INTER + INTRA:          -8.445
REMARK INTER:                  -7.504
REMARK INTRA:                  -0.941
REMARK UNBOUND:                -0.896
REMARK SMILES CC(=O)CCC=C(C)CCC=C(C)C
REMARK SMILES IDX 7 1 6 2 8 3 9 4 10 5 11 6 13 7 12 8 14 9 5 10 4 11 2 12 3 13
REMARK SMILES IDX 1 14
REMARK H PARENT
REMARK Flexibility Score: inf
ROOT
ATOM      1  C   UNL     1       6.601  19.946   5.492  1.00  0.00    -0.077 C 
ATOM      2  C   UNL     1       6.263  19.917   4.183  1.00  0.00    -0.028 C 
ATOM      3  C   UNL     1       6.887  21.242   6.214  1.00  0.00     0.039 C 
ENDROOT
BRANCH   1   4
ATOM      4  C   UNL     1       6.716  18.641   6.252  1.00  0.00     0.034 C 
BRANCH   4   5
ATOM      5  C   UNL     1       5.654  18.524   7.355  1.00  0.00     0.032 C 
BRANCH   5   6
ATOM      6  C   UNL     1       4.255  18.485   6.785  1.00  0.00    -0.028 C 
ATOM      7  C   UNL     1       3.594  20.674   7.807  1.00  0.00     0.039 C 
ATOM      8  C   UNL     1       3.311  19.426   7.004  1.00  0.00    -0.080 C 
ATOM      9  C   UNL     1       1.944  19.221   6.407  1.00  0.00     0.039 C 
ENDBRANCH   5   6
ENDBRANCH   4   5
ENDBRANCH   1   4
BRANCH   2  10
ATOM     10  C   UNL     1       6.085  21.141   3.319  1.00  0.00     0.035 C 
BRANCH  10  11
ATOM     11  C   UNL     1       4.660  21.208   2.759  1.00  0.00     0.079 C 
BRANCH  11  12
ATOM     12  C   UNL     1       4.679  21.204   1.254  1.00  0.00     0.130 C 
ATOM     13  O   UNL     1       4.780  22.262   0.650  1.00  0.00    -0.300 OA
ATOM     14  C   UNL     1       4.566  19.929   0.473  1.00  0.00     0.087 C 
ENDBRANCH  11  12
ENDBRANCH  10  11
ENDBRANCH   2  10
TORSDOF 6
ENDMDL
MODEL 3
REMARK VINA RESULT:    -5.315      2.211      4.841
REMARK INTER + INTRA:          -8.075
REMARK INTER:                  -6.810
REMARK INTRA:                  -1.265
REMARK UNBOUND:                -0.896
REMARK SMILES CC(=O)CCC=C(C)CCC=C(C)C
REMARK SMILES IDX 7 1 6 2 8 3 9 4 10 5 11 6 13 7 12 8 14 9 5 10 4 11 2 12 3 13
REMARK SMILES IDX 1 14
REMARK H PARENT
REMARK Flexibility Score: inf
ROOT
ATOM      1  C   UNL     1       3.916  22.078   7.175  1.00  0.00    -0.077 C 
ATOM      2  C   UNL     1       5.240  22.329   7.059  1.00  0.00    -0.028 C 
ATOM      3  C   UNL     1       3.396  20.786   7.761  1.00  0.00     0.039 C 
ENDROOT
BRANCH   1   4
ATOM      4  C   UNL     1       2.925  23.114   6.685  1.00  0.00     0.034 C 
BRANCH   4   5
ATOM      5  C   UNL     1       3.159  23.480   5.212  1.00  0.00     0.032 C 
BRANCH   5   6
ATOM      6  C   UNL     1       2.400  22.564   4.280  1.00  0.00    -0.028 C 
ATOM      7  C   UNL     1       4.444  21.287   3.597  1.00  0.00     0.039 C 
ATOM      8  C   UNL     1       2.967  21.597   3.526  1.00  0.00    -0.080 C 
ATOM      9  C   UNL     1       2.083  20.798   2.604  1.00  0.00     0.039 C 
ENDBRANCH   5   6
ENDBRANCH   4   5
ENDBRANCH   1   4
BRANCH   2  10
ATOM     10  C   UNL     1       6.330  21.400   7.533  1.00  0.00     0.035 C 
BRANCH  10  11
ATOM     11  C   UNL     1       6.979  20.674   6.349  1.00  0.00     0.079 C 
BRANCH  11  12
ATOM     12  C   UNL     1       6.523  19.241   6.290  1.00  0.00     0.130 C 
ATOM     13  O   UNL     1       6.381  18.698   5.204  1.00  0.00    -0.300 OA
ATOM     14  C   UNL     1       6.227  18.462   7.537  1.00  0.00     0.087 C 
ENDBRANCH  11  12
ENDBRANCH  10  11
ENDBRANCH   2  10
TORSDOF 6
ENDMDL
MODEL 4
REMARK VINA RESULT:    -5.285      3.220      5.006
REMARK INTER + INTRA:          -8.035
REMARK INTER:                  -7.329
REMARK INTRA:                  -0.706
REMARK UNBOUND:                -0.896
REMARK SMILES CC(=O)CCC=C(C)CCC=C(C)C
REMARK SMILES IDX 7 1 6 2 8 3 9 4 10 5 11 6 13 7 12 8 14 9 5 10 4 11 2 12 3 13
REMARK SMILES IDX 1 14
REMARK H PARENT
REMARK Flexibility Score: inf
ROOT
ATOM      1  C   UNL     1       3.901  22.044   7.184  1.00  0.00    -0.077 C 
ATOM      2  C   UNL     1       5.212  22.363   7.097  1.00  0.00    -0.028 C 
ATOM      3  C   UNL     1       3.434  20.750   7.807  1.00  0.00     0.039 C 
ENDROOT
BRANCH   1   4
ATOM      4  C   UNL     1       2.871  23.002   6.622  1.00  0.00     0.034 C 
BRANCH   4   5
ATOM      5  C   UNL     1       3.522  24.254   6.016  1.00  0.00     0.032 C 
BRANCH   5   6
ATOM      6  C   UNL     1       3.367  25.457   6.917  1.00  0.00    -0.028 C 
ATOM      7  C   UNL     1       2.854  27.018   5.026  1.00  0.00     0.039 C 
ATOM      8  C   UNL     1       3.098  26.709   6.485  1.00  0.00    -0.080 C 
ATOM      9  C   UNL     1       3.023  27.817   7.502  1.00  0.00     0.039 C 
ENDBRANCH   5   6
ENDBRANCH   4   5
ENDBRANCH   1   4
BRANCH   2  10
ATOM     10  C   UNL     1       6.335  21.515   7.641  1.00  0.00     0.035 C 
BRANCH  10  11
ATOM     11  C   UNL     1       7.102  20.831   6.503  1.00  0.00     0.079 C 
BRANCH  11  12
ATOM     12  C   UNL     1       6.521  19.474   6.211  1.00  0.00     0.130 C 
ATOM     13  O   UNL     1       6.201  19.188   5.067  1.00  0.00    -0.300 OA
ATOM     14  C   UNL     1       6.312  18.462   7.299  1.00  0.00     0.087 C 
ENDBRANCH  11  12
ENDBRANCH  10  11
ENDBRANCH   2  10
TORSDOF 6
ENDMDL
MODEL 5
REMARK VINA RESULT:    -5.222      2.468      5.264
REMARK INTER + INTRA:          -7.949
REMARK INTER:                  -7.172
REMARK INTRA:                  -0.777
REMARK UNBOUND:                -0.896
REMARK SMILES CC(=O)CCC=C(C)CCC=C(C)C
REMARK SMILES IDX 7 1 6 2 8 3 9 4 10 5 11 6 13 7 12 8 14 9 5 10 4 11 2 12 3 13
REMARK SMILES IDX 1 14
REMARK H PARENT
REMARK Flexibility Score: inf
ROOT
ATOM      1  C   UNL     1       6.384  20.482   5.538  1.00  0.00    -0.077 C 
ATOM      2  C   UNL     1       5.739  19.295   5.576  1.00  0.00    -0.028 C 
ATOM      3  C   UNL     1       6.699  21.261   6.794  1.00  0.00     0.039 C 
ENDROOT
BRANCH   1   4
ATOM      4  C   UNL     1       6.786  21.060   4.196  1.00  0.00     0.034 C 
BRANCH   4   5
ATOM      5  C   UNL     1       6.042  20.384   3.035  1.00  0.00     0.032 C 
BRANCH   5   6
ATOM      6  C   UNL     1       5.163  21.361   2.289  1.00  0.00    -0.028 C 
ATOM      7  C   UNL     1       4.711  19.777   0.402  1.00  0.00     0.039 C 
ATOM      8  C   UNL     1       4.585  21.114   1.093  1.00  0.00    -0.080 C 
ATOM      9  C   UNL     1       3.777  22.210   0.449  1.00  0.00     0.039 C 
ENDBRANCH   5   6
ENDBRANCH   4   5
ENDBRANCH   1   4
BRANCH   2  10
ATOM     10  C   UNL     1       5.311  18.596   6.843  1.00  0.00     0.035 C 
BRANCH  10  11
ATOM     11  C   UNL     1       3.783  18.503   6.923  1.00  0.00     0.079 C 
BRANCH  11  12
ATOM     12  C   UNL     1       3.175  19.873   7.065  1.00  0.00     0.130 C 
ATOM     13  O   UNL     1       3.473  20.568   8.025  1.00  0.00    -0.300 OA
ATOM     14  C   UNL     1       2.198  20.403   6.058  1.00  0.00     0.087 C 
ENDBRANCH  11  12
ENDBRANCH  10  11
ENDBRANCH   2  10
TORSDOF 6
ENDMDL
MODEL 6
REMARK VINA RESULT:    -5.176      2.290      5.336
REMARK INTER + INTRA:          -7.888
REMARK INTER:                  -7.032
REMARK INTRA:                  -0.856
REMARK UNBOUND:                -0.896
REMARK SMILES CC(=O)CCC=C(C)CCC=C(C)C
REMARK SMILES IDX 7 1 6 2 8 3 9 4 10 5 11 6 13 7 12 8 14 9 5 10 4 11 2 12 3 13
REMARK SMILES IDX 1 14
REMARK H PARENT
REMARK Flexibility Score: inf
ROOT
ATOM      1  C   UNL     1       6.300  19.918   4.756  1.00  0.00    -0.077 C 
ATOM      2  C   UNL     1       6.537  21.104   5.360  1.00  0.00    -0.028 C 
ATOM      3  C   UNL     1       6.189  18.631   5.540  1.00  0.00     0.039 C 
ENDROOT
BRANCH   1   4
ATOM      4  C   UNL     1       6.162  19.874   3.248  1.00  0.00     0.034 C 
BRANCH   4   5
ATOM      5  C   UNL     1       5.434  21.111   2.702  1.00  0.00     0.032 C 
BRANCH   5   6
ATOM      6  C   UNL     1       4.013  20.792   2.298  1.00  0.00    -0.028 C 
ATOM      7  C   UNL     1       4.650  20.078  -0.016  1.00  0.00     0.039 C 
ATOM      8  C   UNL     1       3.643  20.358   1.074  1.00  0.00    -0.080 C 
ATOM      9  C   UNL     1       2.178  20.132   0.807  1.00  0.00     0.039 C 
ENDBRANCH   5   6
ENDBRANCH   4   5
ENDBRANCH   1   4
BRANCH   2  10
ATOM     10  C   UNL     1       6.666  21.293   6.851  1.00  0.00     0.035 C 
BRANCH  10  11
ATOM     11  C   UNL     1       5.515  22.149   7.392  1.00  0.00     0.079 C 
BRANCH  11  12
ATOM     12  C   UNL     1       4.203  21.424   7.251  1.00  0.00     0.130 C 
ATOM     13  O   UNL     1       4.035  20.363   7.834  1.00  0.00    -0.300 OA
ATOM     14  C   UNL     1       3.095  21.970   6.400  1.00  0.00     0.087 C 
ENDBRANCH  11  12
ENDBRANCH  10  11
ENDBRANCH   2  10
TORSDOF 6
ENDMDL
MODEL 7
REMARK VINA RESULT:    -5.165      2.469      5.519
REMARK INTER + INTRA:          -7.873
REMARK INTER:                  -7.159
REMARK INTRA:                  -0.714
REMARK UNBOUND:                -0.896
REMARK SMILES CC(=O)CCC=C(C)CCC=C(C)C
REMARK SMILES IDX 7 1 6 2 8 3 9 4 10 5 11 6 13 7 12 8 14 9 5 10 4 11 2 12 3 13
REMARK SMILES IDX 1 14
REMARK H PARENT
REMARK Flexibility Score: inf
ROOT
ATOM      1  C   UNL     1       5.062  21.867   5.280  1.00  0.00    -0.077 C 
ATOM      2  C   UNL     1       5.238  22.004   6.614  1.00  0.00    -0.028 C 
ATOM      3  C   UNL     1       6.105  21.218   4.399  1.00  0.00     0.039 C 
ENDROOT
BRANCH   1   4
ATOM      4  C   UNL     1       3.792  22.397   4.646  1.00  0.00     0.034 C 
BRANCH   4   5
ATOM      5  C   UNL     1       3.394  21.593   3.401  1.00  0.00     0.032 C 
BRANCH   5   6
ATOM      6  C   UNL     1       3.712  22.340   2.126  1.00  0.00    -0.028 C 
ATOM      7  C   UNL     1       4.721  20.340   1.005  1.00  0.00     0.039 C 
ATOM      8  C   UNL     1       4.334  21.800   1.056  1.00  0.00    -0.080 C 
ATOM      9  C   UNL     1       4.629  22.688  -0.125  1.00  0.00     0.039 C 
ENDBRANCH   5   6
ENDBRANCH   4   5
ENDBRANCH   1   4
BRANCH   2  10
ATOM     10  C   UNL     1       6.438  21.495   7.373  1.00  0.00     0.035 C 
BRANCH  10  11
ATOM     11  C   UNL     1       6.096  20.209   8.134  1.00  0.00     0.079 C 
BRANCH  11  12
ATOM     12  C   UNL     1       5.921  19.058   7.179  1.00  0.00     0.130 C 
ATOM     13  O   UNL     1       6.905  18.549   6.663  1.00  0.00    -0.300 OA
ATOM     14  C   UNL     1       4.561  18.527   6.835  1.00  0.00     0.087 C 
ENDBRANCH  11  12
ENDBRANCH  10  11
ENDBRANCH   2  10
TORSDOF 6
ENDMDL
MODEL 8
REMARK VINA RESULT:    -5.106      1.219      3.235
REMARK INTER + INTRA:          -7.794
REMARK INTER:                  -6.871
REMARK INTRA:                  -0.923
REMARK UNBOUND:                -0.896
REMARK SMILES CC(=O)CCC=C(C)CCC=C(C)C
REMARK SMILES IDX 7 1 6 2 8 3 9 4 10 5 11 6 13 7 12 8 14 9 5 10 4 11 2 12 3 13
REMARK SMILES IDX 1 14
REMARK H PARENT
REMARK Flexibility Score: inf
ROOT
ATOM      1  C   UNL     1       3.133  21.839   5.533  1.00  0.00    -0.077 C 
ATOM      2  C   UNL     1       3.294  21.255   4.324  1.00  0.00    -0.028 C 
ATOM      3  C   UNL     1       3.570  23.261   5.797  1.00  0.00     0.039 C 
ENDROOT
BRANCH   1   4
ATOM      4  C   UNL     1       2.516  21.038   6.661  1.00  0.00     0.034 C 
BRANCH   4   5
ATOM      5  C   UNL     1       3.519  20.774   7.793  1.00  0.00     0.032 C 
BRANCH   5   6
ATOM      6  C   UNL     1       4.517  19.702   7.418  1.00  0.00    -0.028 C 
ATOM      7  C   UNL     1       6.461  21.281   7.397  1.00  0.00     0.039 C 
ATOM      8  C   UNL     1       5.833  19.920   7.207  1.00  0.00    -0.080 C 
ATOM      9  C   UNL     1       6.693  18.757   6.787  1.00  0.00     0.039 C 
ENDBRANCH   5   6
ENDBRANCH   4   5
ENDBRANCH   1   4
BRANCH   2  10
ATOM     10  C   UNL     1       3.865  21.946   3.111  1.00  0.00     0.035 C 
BRANCH  10  11
ATOM     11  C   UNL     1       4.908  21.059   2.421  1.00  0.00     0.079 C 
BRANCH  11  12
ATOM     12  C   UNL     1       4.626  20.957   0.946  1.00  0.00     0.130 C 
ATOM     13  O   UNL     1       4.735  21.950   0.241  1.00  0.00    -0.300 OA
ATOM     14  C   UNL     1       4.200  19.662   0.319  1.00  0.00     0.087 C 
ENDBRANCH  11  12
ENDBRANCH  10  11
ENDBRANCH   2  10
TORSDOF 6
ENDMDL
