MODEL 1
REMARK VINA RESULT:    -3.888      0.000      0.000
REMARK INTER + INTRA:          -4.503
REMARK INTER:                  -4.457
REMARK INTRA:                  -0.047
REMARK UNBOUND:                -0.047
REMARK SMILES CC(C)[C@H]([NH3+])C(=O)[O-]
REMARK SMILES IDX 4 1 5 2 6 6 7 7 8 8 2 9 1 10 3 11
REMARK H PARENT 5 3 5 4 5 5
REMARK Flexibility Score: inf
ROOT
ATOM      1  C   UNL     1     -40.462  21.060 -28.517  1.00  0.00     0.230 C 
ENDROOT
BRANCH   1   2
ATOM      2  N   UNL     1     -40.056  20.387 -27.275  1.00  0.00    -0.350 N 
ATOM      3  H   UNL     1     -40.858  20.361 -26.602  1.00  0.00     0.345 HD
ATOM      4  H   UNL     1     -39.780  19.400 -27.486  1.00  0.00     0.345 HD
ATOM      5  H   UNL     1     -39.246  20.870 -26.825  1.00  0.00     0.345 HD
ENDBRANCH   1   2
BRANCH   1   6
ATOM      6  C   UNL     1     -41.827  21.688 -28.368  1.00  0.00     0.099 C 
ATOM      7  O   UNL     1     -42.730  21.117 -27.701  1.00  0.00    -0.544 OA
ATOM      8  O   UNL     1     -42.104  22.895 -28.997  1.00  0.00    -0.544 OA
ENDBRANCH   1   6
BRANCH   1   9
ATOM      9  C   UNL     1     -40.366  20.108 -29.749  1.00  0.00     0.047 C 
ATOM     10  C   UNL     1     -40.098  20.840 -31.076  1.00  0.00     0.014 C 
ATOM     11  C   UNL     1     -39.309  19.015 -29.528  1.00  0.00     0.014 C 
ENDBRANCH   1   9
TORSDOF 3
ENDMDL
MODEL 2
REMARK VINA RESULT:    -3.875      2.836      3.460
REMARK INTER + INTRA:          -4.488
REMARK INTER:                  -4.433
REMARK INTRA:                  -0.055
REMARK UNBOUND:                -0.047
REMARK SMILES CC(C)[C@H]([NH3+])C(=O)[O-]
REMARK SMILES IDX 4 1 5 2 6 6 7 7 8 8 2 9 1 10 3 11
REMARK H PARENT 5 3 5 4 5 5
REMARK Flexibility Score: inf
ROOT
ATOM      1  C   UNL     1     -41.125  22.802 -28.915  1.00  0.00     0.230 C 
ENDROOT
BRANCH   1   2
ATOM      2  N   UNL     1     -42.391  23.507 -29.159  1.00  0.00    -0.350 N 
ATOM      3  H   UNL     1     -43.147  23.106 -28.556  1.00  0.00     0.345 HD
ATOM      4  H   UNL     1     -42.282  24.517 -28.910  1.00  0.00     0.345 HD
ATOM      5  H   UNL     1     -42.680  23.440 -30.161  1.00  0.00     0.345 HD
ENDBRANCH   1   2
BRANCH   1   6
ATOM      6  C   UNL     1     -40.173  22.989 -30.073  1.00  0.00     0.099 C 
ATOM      7  O   UNL     1     -39.071  23.576 -29.913  1.00  0.00    -0.544 OA
ATOM      8  O   UNL     1     -40.528  22.537 -31.338  1.00  0.00    -0.544 OA
ENDBRANCH   1   6
BRANCH   1   9
ATOM      9  C   UNL     1     -41.357  21.301 -28.561  1.00  0.00     0.047 C 
ATOM     10  C   UNL     1     -40.211  20.674 -27.747  1.00  0.00     0.014 C 
ATOM     11  C   UNL     1     -42.693  21.101 -27.829  1.00  0.00     0.014 C 
ENDBRANCH   1   9
TORSDOF 3
ENDMDL
MODEL 3
REMARK VINA RESULT:    -3.827      2.991      3.818
REMARK INTER + INTRA:          -4.433
REMARK INTER:                  -4.381
REMARK INTRA:                  -0.052
REMARK UNBOUND:                -0.047
REMARK SMILES CC(C)[C@H]([NH3+])C(=O)[O-]
REMARK SMILES IDX 4 1 5 2 6 6 7 7 8 8 2 9 1 10 3 11
REMARK H PARENT 5 3 5 4 5 5
REMARK Flexibility Score: inf
ROOT
ATOM      1  C   UNL     1     -39.943  20.587 -30.260  1.00  0.00     0.230 C 
ENDROOT
BRANCH   1   2
ATOM      2  N   UNL     1     -40.174  21.287 -31.532  1.00  0.00    -0.350 N 
ATOM      3  H   UNL     1     -40.070  20.621 -32.332  1.00  0.00     0.345 HD
ATOM      4  H   UNL     1     -41.149  21.665 -31.550  1.00  0.00     0.345 HD
ATOM      5  H   UNL     1     -39.507  22.082 -31.659  1.00  0.00     0.345 HD
ENDBRANCH   1   2
BRANCH   1   6
ATOM      6  C   UNL     1     -40.033  19.091 -30.446  1.00  0.00     0.099 C 
ATOM      7  O   UNL     1     -39.135  18.331 -29.995  1.00  0.00    -0.544 OA
ATOM      8  O   UNL     1     -41.101  18.545 -31.146  1.00  0.00    -0.544 OA
ENDBRANCH   1   6
BRANCH   1   9
ATOM      9  C   UNL     1     -40.881  21.113 -29.131  1.00  0.00     0.047 C 
ATOM     10  C   UNL     1     -40.412  20.739 -27.714  1.00  0.00     0.014 C 
ATOM     11  C   UNL     1     -41.079  22.634 -29.234  1.00  0.00     0.014 C 
ENDBRANCH   1   9
TORSDOF 3
ENDMDL
MODEL 4
REMARK VINA RESULT:    -3.789      2.433      2.783
REMARK INTER + INTRA:          -4.389
REMARK INTER:                  -4.334
REMARK INTRA:                  -0.055
REMARK UNBOUND:                -0.047
REMARK SMILES CC(C)[C@H]([NH3+])C(=O)[O-]
REMARK SMILES IDX 4 1 5 2 6 6 7 7 8 8 2 9 1 10 3 11
REMARK H PARENT 5 3 5 4 5 5
REMARK Flexibility Score: inf
ROOT
ATOM      1  C   UNL     1     -41.602  22.563 -29.170  1.00  0.00     0.230 C 
ENDROOT
BRANCH   1   2
ATOM      2  N   UNL     1     -41.945  23.846 -28.541  1.00  0.00    -0.350 N 
ATOM      3  H   UNL     1     -41.123  24.493 -28.574  1.00  0.00     0.345 HD
ATOM      4  H   UNL     1     -42.730  24.294 -29.067  1.00  0.00     0.345 HD
ATOM      5  H   UNL     1     -42.241  23.718 -27.546  1.00  0.00     0.345 HD
ENDBRANCH   1   2
BRANCH   1   6
ATOM      6  C   UNL     1     -41.777  21.422 -28.196  1.00  0.00     0.099 C 
ATOM      7  O   UNL     1     -42.924  21.078 -27.806  1.00  0.00    -0.544 OA
ATOM      8  O   UNL     1     -40.660  20.761 -27.699  1.00  0.00    -0.544 OA
ENDBRANCH   1   6
BRANCH   1   9
ATOM      9  C   UNL     1     -40.181  22.596 -29.813  1.00  0.00     0.047 C 
ATOM     10  C   UNL     1     -40.197  22.522 -31.350  1.00  0.00     0.014 C 
ATOM     11  C   UNL     1     -39.389  23.830 -29.354  1.00  0.00     0.014 C 
ENDBRANCH   1   9
TORSDOF 3
ENDMDL
MODEL 5
REMARK VINA RESULT:    -3.752      3.017      3.505
REMARK INTER + INTRA:          -4.347
REMARK INTER:                  -4.290
REMARK INTRA:                  -0.058
REMARK UNBOUND:                -0.047
REMARK SMILES CC(C)[C@H]([NH3+])C(=O)[O-]
REMARK SMILES IDX 4 1 5 2 6 6 7 7 8 8 2 9 1 10 3 11
REMARK H PARENT 5 3 5 4 5 5
REMARK Flexibility Score: inf
ROOT
ATOM      1  C   UNL     1     -39.341  18.810 -29.649  1.00  0.00     0.230 C 
ENDROOT
BRANCH   1   2
ATOM      2  N   UNL     1     -38.704  17.546 -30.045  1.00  0.00    -0.350 N 
ATOM      3  H   UNL     1     -39.390  16.759 -29.968  1.00  0.00     0.345 HD
ATOM      4  H   UNL     1     -38.394  17.608 -31.042  1.00  0.00     0.345 HD
ATOM      5  H   UNL     1     -37.871  17.334 -29.450  1.00  0.00     0.345 HD
ENDBRANCH   1   2
BRANCH   1   6
ATOM      6  C   UNL     1     -40.338  19.260 -30.690  1.00  0.00     0.099 C 
ATOM      7  O   UNL     1     -41.192  18.459 -31.153  1.00  0.00    -0.544 OA
ATOM      8  O   UNL     1     -40.296  20.564 -31.167  1.00  0.00    -0.544 OA
ENDBRANCH   1   6
BRANCH   1   9
ATOM      9  C   UNL     1     -38.286  19.907 -29.308  1.00  0.00     0.047 C 
ATOM     10  C   UNL     1     -38.289  20.329 -27.828  1.00  0.00     0.014 C 
ATOM     11  C   UNL     1     -36.873  19.472 -29.727  1.00  0.00     0.014 C 
ENDBRANCH   1   9
TORSDOF 3
ENDMDL
MODEL 6
REMARK VINA RESULT:    -3.564      2.392      3.547
REMARK INTER + INTRA:          -4.131
REMARK INTER:                  -4.078
REMARK INTRA:                  -0.054
REMARK UNBOUND:                -0.047
REMARK SMILES CC(C)[C@H]([NH3+])C(=O)[O-]
REMARK SMILES IDX 4 1 5 2 6 6 7 7 8 8 2 9 1 10 3 11
REMARK H PARENT 5 3 5 4 5 5
REMARK Flexibility Score: inf
ROOT
ATOM      1  C   UNL     1     -40.167  20.917 -28.728  1.00  0.00     0.230 C 
ENDROOT
BRANCH   1   2
ATOM      2  N   UNL     1     -39.079  21.861 -28.434  1.00  0.00    -0.350 N 
ATOM      3  H   UNL     1     -38.385  21.418 -27.788  1.00  0.00     0.345 HD
ATOM      4  H   UNL     1     -38.583  22.109 -29.321  1.00  0.00     0.345 HD
ATOM      5  H   UNL     1     -39.441  22.740 -27.999  1.00  0.00     0.345 HD
ENDBRANCH   1   2
BRANCH   1   6
ATOM      6  C   UNL     1     -39.828  20.060 -29.924  1.00  0.00     0.099 C 
ATOM      7  O   UNL     1     -40.268  20.348 -31.069  1.00  0.00    -0.544 OA
ATOM      8  O   UNL     1     -39.046  18.923 -29.759  1.00  0.00    -0.544 OA
ENDBRANCH   1   6
BRANCH   1   9
ATOM      9  C   UNL     1     -41.539  21.644 -28.874  1.00  0.00     0.047 C 
ATOM     10  C   UNL     1     -42.594  21.184 -27.853  1.00  0.00     0.014 C 
ATOM     11  C   UNL     1     -41.372  23.170 -28.807  1.00  0.00     0.014 C 
ENDBRANCH   1   9
TORSDOF 3
ENDMDL
MODEL 7
REMARK VINA RESULT:    -3.546      1.644      2.286
REMARK INTER + INTRA:          -4.111
REMARK INTER:                  -4.064
REMARK INTRA:                  -0.047
REMARK UNBOUND:                -0.047
REMARK SMILES CC(C)[C@H]([NH3+])C(=O)[O-]
REMARK SMILES IDX 4 1 5 2 6 6 7 7 8 8 2 9 1 10 3 11
REMARK H PARENT 5 3 5 4 5 5
REMARK Flexibility Score: inf
ROOT
ATOM      1  C   UNL     1     -40.744  20.748 -28.785  1.00  0.00     0.230 C 
ENDROOT
BRANCH   1   2
ATOM      2  N   UNL     1     -40.293  21.008 -30.160  1.00  0.00    -0.350 N 
ATOM      3  H   UNL     1     -39.872  20.141 -30.568  1.00  0.00     0.345 HD
ATOM      4  H   UNL     1     -41.113  21.278 -30.750  1.00  0.00     0.345 HD
ATOM      5  H   UNL     1     -39.590  21.780 -30.193  1.00  0.00     0.345 HD
ENDBRANCH   1   2
BRANCH   1   6
ATOM      6  C   UNL     1     -41.961  21.578 -28.452  1.00  0.00     0.099 C 
ATOM      7  O   UNL     1     -42.882  21.111 -27.730  1.00  0.00    -0.544 OA
ATOM      8  O   UNL     1     -42.085  22.861 -28.971  1.00  0.00    -0.544 OA
ENDBRANCH   1   6
BRANCH   1   9
ATOM      9  C   UNL     1     -39.589  20.931 -27.753  1.00  0.00     0.047 C 
ATOM     10  C   UNL     1     -38.938  19.607 -27.315  1.00  0.00     0.014 C 
ATOM     11  C   UNL     1     -38.515  21.895 -28.282  1.00  0.00     0.014 C 
ENDBRANCH   1   9
TORSDOF 3
ENDMDL
MODEL 8
REMARK VINA RESULT:    -3.510      2.417      3.207
REMARK INTER + INTRA:          -4.069
REMARK INTER:                  -4.024
REMARK INTRA:                  -0.045
REMARK UNBOUND:                -0.047
REMARK SMILES CC(C)[C@H]([NH3+])C(=O)[O-]
REMARK SMILES IDX 4 1 5 2 6 6 7 7 8 8 2 9 1 10 3 11
REMARK H PARENT 5 3 5 4 5 5
REMARK Flexibility Score: inf
ROOT
ATOM      1  C   UNL     1     -40.360  20.549 -29.916  1.00  0.00     0.230 C 
ENDROOT
BRANCH   1   2
ATOM      2  N   UNL     1     -39.627  19.276 -29.851  1.00  0.00    -0.350 N 
ATOM      3  H   UNL     1     -38.928  19.303 -29.072  1.00  0.00     0.345 HD
ATOM      4  H   UNL     1     -40.297  18.497 -29.657  1.00  0.00     0.345 HD
ATOM      5  H   UNL     1     -39.132  19.073 -30.749  1.00  0.00     0.345 HD
ENDBRANCH   1   2
BRANCH   1   6
ATOM      6  C   UNL     1     -39.646  21.536 -30.809  1.00  0.00     0.099 C 
ATOM      7  O   UNL     1     -38.396  21.680 -30.741  1.00  0.00    -0.544 OA
ATOM      8  O   UNL     1     -40.375  22.317 -31.697  1.00  0.00    -0.544 OA
ENDBRANCH   1   6
BRANCH   1   9
ATOM      9  C   UNL     1     -40.651  21.121 -28.495  1.00  0.00     0.047 C 
ATOM     10  C   UNL     1     -42.144  21.108 -28.118  1.00  0.00     0.014 C 
ATOM     11  C   UNL     1     -39.831  20.391 -27.420  1.00  0.00     0.014 C 
ENDBRANCH   1   9
TORSDOF 3
ENDMDL
MODEL 9
REMARK VINA RESULT:    -3.444      3.219      3.759
REMARK INTER + INTRA:          -3.994
REMARK INTER:                  -3.949
REMARK INTRA:                  -0.044
REMARK UNBOUND:                -0.047
REMARK SMILES CC(C)[C@H]([NH3+])C(=O)[O-]
REMARK SMILES IDX 4 1 5 2 6 6 7 7 8 8 2 9 1 10 3 11
REMARK H PARENT 5 3 5 4 5 5
REMARK Flexibility Score: inf
ROOT
ATOM      1  C   UNL     1     -39.065  19.530 -28.383  1.00  0.00     0.230 C 
ENDROOT
BRANCH   1   2
ATOM      2  N   UNL     1     -39.325  19.916 -26.989  1.00  0.00    -0.350 N 
ATOM      3  H   UNL     1     -38.634  20.640 -26.682  1.00  0.00     0.345 HD
ATOM      4  H   UNL     1     -40.282  20.329 -26.914  1.00  0.00     0.345 HD
ATOM      5  H   UNL     1     -39.266  19.093 -26.346  1.00  0.00     0.345 HD
ENDBRANCH   1   2
BRANCH   1   6
ATOM      6  C   UNL     1     -37.610  19.730 -28.735  1.00  0.00     0.099 C 
ATOM      7  O   UNL     1     -36.861  20.432 -28.004  1.00  0.00    -0.544 OA
ATOM      8  O   UNL     1     -37.094  19.160 -29.892  1.00  0.00    -0.544 OA
ENDBRANCH   1   6
BRANCH   1   9
ATOM      9  C   UNL     1     -40.030  20.251 -29.372  1.00  0.00     0.047 C 
ATOM     10  C   UNL     1     -40.608  19.325 -30.457  1.00  0.00     0.014 C 
ATOM     11  C   UNL     1     -41.170  20.959 -28.624  1.00  0.00     0.014 C 
ENDBRANCH   1   9
TORSDOF 3
ENDMDL
