MODEL 1
REMARK VINA RESULT:    -2.819      0.000      0.000
REMARK INTER + INTRA:          -3.553
REMARK INTER:                  -3.231
REMARK INTRA:                  -0.323
REMARK UNBOUND:                -0.323
REMARK SMILES COC(=O)c1ccccc1O
REMARK SMILES IDX 5 1 6 2 7 3 8 4 9 5 10 6 3 7 4 8 2 9 1 10 11 11
REMARK H PARENT 11 12
REMARK Flexibility Score: inf
ROOT
ATOM      1  C   UNL     1     118.682 111.736 108.192  1.00  0.00     0.101 A 
ATOM      2  C   UNL     1     119.054 110.790 107.215  1.00  0.00     0.019 A 
ATOM      3  C   UNL     1     119.407 109.489 107.579  1.00  0.00     0.001 A 
ATOM      4  C   UNL     1     119.395 109.110 108.921  1.00  0.00     0.004 A 
ATOM      5  C   UNL     1     119.030 110.032 109.902  1.00  0.00     0.047 A 
ATOM      6  C   UNL     1     118.674 111.343 109.550  1.00  0.00     0.130 A 
ENDROOT
BRANCH   1   7
ATOM      7  C   UNL     1     118.313 113.113 107.773  1.00  0.00     0.341 C 
ATOM      8  O   UNL     1     117.214 113.611 108.147  1.00  0.00    -0.246 OA
BRANCH   7   9
ATOM      9  O   UNL     1     119.174 113.867 106.967  1.00  0.00    -0.465 OA
ATOM     10  C   UNL     1     120.491 114.223 107.371  1.00  0.00     0.282 C 
ENDBRANCH   7   9
ENDBRANCH   1   7
BRANCH   6  11
ATOM     11  O   UNL     1     118.313 112.244 110.553  1.00  0.00    -0.507 OA
ATOM     12  H   UNL     1     117.540 112.889 110.438  1.00  0.00     0.293 HD
ENDBRANCH   6  11
TORSDOF 3
ENDMDL
MODEL 2
REMARK VINA RESULT:    -2.815      6.714      7.716
REMARK INTER + INTRA:          -3.549
REMARK INTER:                  -3.224
REMARK INTRA:                  -0.325
REMARK UNBOUND:                -0.323
REMARK SMILES COC(=O)c1ccccc1O
REMARK SMILES IDX 5 1 6 2 7 3 8 4 9 5 10 6 3 7 4 8 2 9 1 10 11 11
REMARK H PARENT 11 12
REMARK Flexibility Score: inf
ROOT
ATOM      1  C   UNL     1     111.727 113.318 108.194  1.00  0.00     0.101 A 
ATOM      2  C   UNL     1     110.780 112.952 107.217  1.00  0.00     0.019 A 
ATOM      3  C   UNL     1     109.478 112.601 107.581  1.00  0.00     0.001 A 
ATOM      4  C   UNL     1     109.100 112.611 108.923  1.00  0.00     0.004 A 
ATOM      5  C   UNL     1     110.024 112.971 109.905  1.00  0.00     0.047 A 
ATOM      6  C   UNL     1     111.335 113.325 109.553  1.00  0.00     0.130 A 
ENDROOT
BRANCH   1   7
ATOM      7  C   UNL     1     113.106 113.685 107.775  1.00  0.00     0.341 C 
ATOM      8  O   UNL     1     113.604 114.785 108.147  1.00  0.00    -0.246 OA
BRANCH   7   9
ATOM      9  O   UNL     1     113.859 112.821 106.973  1.00  0.00    -0.465 OA
ATOM     10  C   UNL     1     114.221 111.508 107.385  1.00  0.00     0.282 C 
ENDBRANCH   7   9
ENDBRANCH   1   7
BRANCH   6  11
ATOM     11  O   UNL     1     112.237 113.681 110.556  1.00  0.00    -0.507 OA
ATOM     12  H   UNL     1     113.238 113.572 110.437  1.00  0.00     0.293 HD
ENDBRANCH   6  11
TORSDOF 3
ENDMDL
MODEL 3
REMARK VINA RESULT:    -2.803      8.845     10.874
REMARK INTER + INTRA:          -3.536
REMARK INTER:                  -3.218
REMARK INTRA:                  -0.318
REMARK UNBOUND:                -0.323
REMARK SMILES COC(=O)c1ccccc1O
REMARK SMILES IDX 5 1 6 2 7 3 8 4 9 5 10 6 3 7 4 8 2 9 1 10 11 11
REMARK H PARENT 11 12
REMARK Flexibility Score: inf
ROOT
ATOM      1  C   UNL     1     113.327 120.225 108.147  1.00  0.00     0.101 A 
ATOM      2  C   UNL     1     112.961 121.155 107.153  1.00  0.00     0.019 A 
ATOM      3  C   UNL     1     112.594 122.458 107.496  1.00  0.00     0.001 A 
ATOM      4  C   UNL     1     112.587 122.855 108.833  1.00  0.00     0.004 A 
ATOM      5  C   UNL     1     112.946 121.948 109.831  1.00  0.00     0.047 A 
ATOM      6  C   UNL     1     113.316 120.636 109.500  1.00  0.00     0.130 A 
ENDROOT
BRANCH   1   7
ATOM      7  C   UNL     1     113.711 118.844 107.751  1.00  0.00     0.341 C 
ATOM      8  O   UNL     1     114.835 118.382 108.094  1.00  0.00    -0.246 OA
BRANCH   7   9
ATOM      9  O   UNL     1     112.836 118.050 107.002  1.00  0.00    -0.465 OA
ATOM     10  C   UNL     1     111.501 117.778 107.412  1.00  0.00     0.282 C 
ENDBRANCH   7   9
ENDBRANCH   1   7
BRANCH   6  11
ATOM     11  O   UNL     1     113.671 119.751 110.520  1.00  0.00    -0.507 OA
ATOM     12  H   UNL     1     114.117 118.863 110.323  1.00  0.00     0.293 HD
ENDBRANCH   6  11
TORSDOF 3
ENDMDL
MODEL 4
REMARK VINA RESULT:    -2.802      6.719      7.722
REMARK INTER + INTRA:          -3.534
REMARK INTER:                  -3.217
REMARK INTRA:                  -0.317
REMARK UNBOUND:                -0.323
REMARK SMILES COC(=O)c1ccccc1O
REMARK SMILES IDX 5 1 6 2 7 3 8 4 9 5 10 6 3 7 4 8 2 9 1 10 11 11
REMARK H PARENT 11 12
REMARK Flexibility Score: inf
ROOT
ATOM      1  C   UNL     1     120.167 118.707 108.134  1.00  0.00     0.101 A 
ATOM      2  C   UNL     1     121.076 119.092 107.129  1.00  0.00     0.019 A 
ATOM      3  C   UNL     1     122.385 119.459 107.453  1.00  0.00     0.001 A 
ATOM      4  C   UNL     1     122.806 119.447 108.783  1.00  0.00     0.004 A 
ATOM      5  C   UNL     1     121.919 119.068 109.791  1.00  0.00     0.047 A 
ATOM      6  C   UNL     1     120.602 118.698 109.480  1.00  0.00     0.130 A 
ENDROOT
BRANCH   1   7
ATOM      7  C   UNL     1     118.781 118.323 107.757  1.00  0.00     0.341 C 
ATOM      8  O   UNL     1     118.301 117.226 108.159  1.00  0.00    -0.246 OA
BRANCH   7   9
ATOM      9  O   UNL     1     118.000 119.168 106.962  1.00  0.00    -0.465 OA
ATOM     10  C   UNL     1     117.665 120.496 107.347  1.00  0.00     0.282 C 
ENDBRANCH   7   9
ENDBRANCH   1   7
BRANCH   6  11
ATOM     11  O   UNL     1     119.738 118.323 110.509  1.00  0.00    -0.507 OA
ATOM     12  H   UNL     1     119.575 117.351 110.741  1.00  0.00     0.293 HD
ENDBRANCH   6  11
TORSDOF 3
ENDMDL
MODEL 5
REMARK VINA RESULT:    -2.753      3.070      4.502
REMARK INTER + INTRA:          -3.478
REMARK INTER:                  -3.205
REMARK INTRA:                  -0.272
REMARK UNBOUND:                -0.323
REMARK SMILES COC(=O)c1ccccc1O
REMARK SMILES IDX 5 1 6 2 7 3 8 4 9 5 10 6 3 7 4 8 2 9 1 10 11 11
REMARK H PARENT 11 12
REMARK Flexibility Score: inf
ROOT
ATOM      1  C   UNL     1     119.090 108.783 108.570  1.00  0.00     0.101 A 
ATOM      2  C   UNL     1     118.142 108.258 107.669  1.00  0.00     0.019 A 
ATOM      3  C   UNL     1     116.841 108.766 107.626  1.00  0.00     0.001 A 
ATOM      4  C   UNL     1     116.466 109.804 108.479  1.00  0.00     0.004 A 
ATOM      5  C   UNL     1     117.391 110.336 109.378  1.00  0.00     0.047 A 
ATOM      6  C   UNL     1     118.701 109.835 109.432  1.00  0.00     0.130 A 
ENDROOT
BRANCH   1   7
ATOM      7  C   UNL     1     120.466 108.221 108.593  1.00  0.00     0.341 C 
ATOM      8  O   UNL     1     120.978 107.768 107.532  1.00  0.00    -0.246 OA
BRANCH   7   9
ATOM      9  O   UNL     1     121.202 108.191 109.783  1.00  0.00    -0.465 OA
ATOM     10  C   UNL     1     122.332 107.346 109.968  1.00  0.00     0.282 C 
ENDBRANCH   7   9
ENDBRANCH   1   7
BRANCH   6  11
ATOM     11  O   UNL     1     119.604 110.387 110.341  1.00  0.00    -0.507 OA
ATOM     12  H   UNL     1     120.167 111.198 110.108  1.00  0.00     0.293 HD
ENDBRANCH   6  11
TORSDOF 3
ENDMDL
MODEL 6
REMARK VINA RESULT:    -2.751      6.747      8.710
REMARK INTER + INTRA:          -3.476
REMARK INTER:                  -3.203
REMARK INTRA:                  -0.273
REMARK UNBOUND:                -0.323
REMARK SMILES COC(=O)c1ccccc1O
REMARK SMILES IDX 5 1 6 2 7 3 8 4 9 5 10 6 3 7 4 8 2 9 1 10 11 11
REMARK H PARENT 11 12
REMARK Flexibility Score: inf
ROOT
ATOM      1  C   UNL     1     123.200 119.089 108.555  1.00  0.00     0.101 A 
ATOM      2  C   UNL     1     123.717 118.146 107.643  1.00  0.00     0.019 A 
ATOM      3  C   UNL     1     123.201 116.850 107.588  1.00  0.00     0.001 A 
ATOM      4  C   UNL     1     122.163 116.472 108.440  1.00  0.00     0.004 A 
ATOM      5  C   UNL     1     121.639 117.392 109.350  1.00  0.00     0.047 A 
ATOM      6  C   UNL     1     122.148 118.697 109.416  1.00  0.00     0.130 A 
ENDROOT
BRANCH   1   7
ATOM      7  C   UNL     1     123.771 120.461 108.591  1.00  0.00     0.341 C 
ATOM      8  O   UNL     1     124.222 120.982 107.533  1.00  0.00    -0.246 OA
BRANCH   7   9
ATOM      9  O   UNL     1     123.812 121.183 109.789  1.00  0.00    -0.465 OA
ATOM     10  C   UNL     1     124.639 122.326 109.970  1.00  0.00     0.282 C 
ENDBRANCH   7   9
ENDBRANCH   1   7
BRANCH   6  11
ATOM     11  O   UNL     1     121.604 119.595 110.335  1.00  0.00    -0.507 OA
ATOM     12  H   UNL     1     121.758 120.594 110.260  1.00  0.00     0.293 HD
ENDBRANCH   6  11
TORSDOF 3
ENDMDL
MODEL 7
REMARK VINA RESULT:    -2.747     11.372     13.121
REMARK INTER + INTRA:          -3.471
REMARK INTER:                  -3.193
REMARK INTRA:                  -0.278
REMARK UNBOUND:                -0.323
REMARK SMILES COC(=O)c1ccccc1O
REMARK SMILES IDX 5 1 6 2 7 3 8 4 9 5 10 6 3 7 4 8 2 9 1 10 11 11
REMARK H PARENT 11 12
REMARK Flexibility Score: inf
ROOT
ATOM      1  C   UNL     1     112.925 123.207 108.561  1.00  0.00     0.101 A 
ATOM      2  C   UNL     1     113.872 123.737 107.662  1.00  0.00     0.019 A 
ATOM      3  C   UNL     1     115.168 123.219 107.604  1.00  0.00     0.001 A 
ATOM      4  C   UNL     1     115.540 122.167 108.440  1.00  0.00     0.004 A 
ATOM      5  C   UNL     1     114.615 121.629 109.337  1.00  0.00     0.047 A 
ATOM      6  C   UNL     1     113.310 122.140 109.406  1.00  0.00     0.130 A 
ENDROOT
BRANCH   1   7
ATOM      7  C   UNL     1     111.554 123.780 108.601  1.00  0.00     0.341 C 
ATOM      8  O   UNL     1     111.018 124.202 107.538  1.00  0.00    -0.246 OA
BRANCH   7   9
ATOM      9  O   UNL     1     110.848 123.855 109.807  1.00  0.00    -0.465 OA
ATOM     10  C   UNL     1     109.649 124.606 109.953  1.00  0.00     0.282 C 
ENDBRANCH   7   9
ENDBRANCH   1   7
BRANCH   6  11
ATOM     11  O   UNL     1     112.408 121.583 110.313  1.00  0.00    -0.507 OA
ATOM     12  H   UNL     1     111.544 122.051 110.561  1.00  0.00     0.293 HD
ENDBRANCH   6  11
TORSDOF 3
ENDMDL
MODEL 8
REMARK VINA RESULT:    -2.735      9.482     10.819
REMARK INTER + INTRA:          -3.458
REMARK INTER:                  -3.173
REMARK INTRA:                  -0.284
REMARK UNBOUND:                -0.323
REMARK SMILES COC(=O)c1ccccc1O
REMARK SMILES IDX 5 1 6 2 7 3 8 4 9 5 10 6 3 7 4 8 2 9 1 10 11 11
REMARK H PARENT 11 12
REMARK Flexibility Score: inf
ROOT
ATOM      1  C   UNL     1     108.772 112.932 108.625  1.00  0.00     0.101 A 
ATOM      2  C   UNL     1     108.219 113.909 107.772  1.00  0.00     0.019 A 
ATOM      3  C   UNL     1     108.740 115.204 107.739  1.00  0.00     0.001 A 
ATOM      4  C   UNL     1     109.818 115.547 108.554  1.00  0.00     0.004 A 
ATOM      5  C   UNL     1     110.379 114.594 109.405  1.00  0.00     0.047 A 
ATOM      6  C   UNL     1     109.866 113.289 109.449  1.00  0.00     0.130 A 
ENDROOT
BRANCH   1   7
ATOM      7  C   UNL     1     108.196 111.562 108.639  1.00  0.00     0.341 C 
ATOM      8  O   UNL     1     107.811 111.031 107.560  1.00  0.00    -0.246 OA
BRANCH   7   9
ATOM      9  O   UNL     1     108.077 110.853 109.840  1.00  0.00    -0.465 OA
ATOM     10  C   UNL     1     107.367 109.625 109.941  1.00  0.00     0.282 C 
ENDBRANCH   7   9
ENDBRANCH   1   7
BRANCH   6  11
ATOM     11  O   UNL     1     110.447 112.357 110.310  1.00  0.00    -0.507 OA
ATOM     12  H   UNL     1     110.026 111.450 110.476  1.00  0.00     0.293 HD
ENDBRANCH   6  11
TORSDOF 3
ENDMDL
MODEL 9
REMARK VINA RESULT:    -2.671      7.228     10.116
REMARK INTER + INTRA:          -3.385
REMARK INTER:                  -3.067
REMARK INTRA:                  -0.317
REMARK UNBOUND:                -0.323
REMARK SMILES COC(=O)c1ccccc1O
REMARK SMILES IDX 5 1 6 2 7 3 8 4 9 5 10 6 3 7 4 8 2 9 1 10 11 11
REMARK H PARENT 11 12
REMARK Flexibility Score: inf
ROOT
ATOM      1  C   UNL     1     123.628 120.153 108.174  1.00  0.00     0.101 A 
ATOM      2  C   UNL     1     124.469 120.936 107.357  1.00  0.00     0.019 A 
ATOM      3  C   UNL     1     125.120 122.059 107.873  1.00  0.00     0.001 A 
ATOM      4  C   UNL     1     124.943 122.419 109.208  1.00  0.00     0.004 A 
ATOM      5  C   UNL     1     124.114 121.657 110.032  1.00  0.00     0.047 A 
ATOM      6  C   UNL     1     123.454 120.526 109.527  1.00  0.00     0.130 A 
ENDROOT
BRANCH   1   7
ATOM      7  C   UNL     1     122.948 118.964 107.596  1.00  0.00     0.341 C 
ATOM      8  O   UNL     1     122.228 119.090 106.566  1.00  0.00    -0.246 OA
BRANCH   7   9
ATOM      9  O   UNL     1     123.100 117.703 108.183  1.00  0.00    -0.465 OA
ATOM     10  C   UNL     1     121.995 116.867 108.508  1.00  0.00     0.282 C 
ENDBRANCH   7   9
ENDBRANCH   1   7
BRANCH   6  11
ATOM     11  O   UNL     1     122.631 119.783 110.374  1.00  0.00    -0.507 OA
ATOM     12  H   UNL     1     121.631 119.714 110.221  1.00  0.00     0.293 HD
ENDBRANCH   6  11
TORSDOF 3
ENDMDL
