MODEL 1
REMARK VINA RESULT:    -7.095      0.000      0.000
REMARK INTER + INTRA:         -11.256
REMARK INTER:                 -10.205
REMARK INTRA:                  -1.051
REMARK UNBOUND:                -1.051
REMARK SMILES O=c1cc(-c2ccc(O)c(O)c2)oc2cc(O[C@H]3O[C@@H](CO)[C@H](O)[C@@H](O)[C@@H]3O)cc(O)c12
REMARK SMILES IDX 17 1 16 2 4 3 3 4 13 5 2 6 14 7 1 8 32 9 15 10 30 11 29 12
REMARK SMILES IDX 5 13 6 14 7 15 8 16 12 17 10 18 9 19 11 21 31 23 18 25 27 26
REMARK SMILES IDX 19 27 25 28 20 29 23 30 28 31 26 33 21 35 22 36 24 38
REMARK H PARENT 9 20 11 22 31 24 28 32 26 34 22 37 24 39
REMARK Flexibility Score: inf
ROOT
ATOM      1  O   UNL     1      13.645   1.422   0.789  1.00  0.00    -0.462 OA
ENDROOT
BRANCH   1   2
ATOM      2  C   UNL     1      13.632   0.934   2.105  1.00  0.00     0.130 A 
ATOM      3  C   UNL     1      16.238  -0.093   5.960  1.00  0.00     0.138 A 
ATOM      4  C   UNL     1      15.134  -0.604   6.657  1.00  0.00     0.100 A 
ATOM      5  O   UNL     1      16.070   0.374   4.727  1.00  0.00    -0.456 OA
ATOM      6  C   UNL     1      13.875  -0.597   6.055  1.00  0.00     0.197 A 
ATOM      7  C   UNL     1      14.892   0.410   4.112  1.00  0.00     0.146 A 
ATOM      8  O   UNL     1      12.916  -1.123   6.678  1.00  0.00    -0.289 OA
ATOM      9  C   UNL     1      13.717  -0.045   4.762  1.00  0.00     0.107 A 
ATOM     10  C   UNL     1      14.837   0.900   2.805  1.00  0.00     0.094 A 
ATOM     11  C   UNL     1      12.475   0.048   4.066  1.00  0.00     0.134 A 
ATOM     12  C   UNL     1      12.458   0.499   2.739  1.00  0.00     0.093 A 
BRANCH   3  13
ATOM     13  C   UNL     1      17.603  -0.086   6.548  1.00  0.00     0.021 A 
ATOM     14  C   UNL     1      18.563  -0.997   6.076  1.00  0.00     0.016 A 
ATOM     15  C   UNL     1      19.853  -1.011   6.613  1.00  0.00     0.051 A 
ATOM     16  C   UNL     1      20.209  -0.111   7.622  1.00  0.00     0.157 A 
ATOM     17  C   UNL     1      17.972   0.831   7.553  1.00  0.00     0.062 A 
ATOM     18  C   UNL     1      19.267   0.816   8.093  1.00  0.00     0.158 A 
BRANCH  16  19
ATOM     19  O   UNL     1      21.503  -0.153   8.142  1.00  0.00    -0.504 OA
ATOM     20  H   UNL     1      21.721  -0.631   9.009  1.00  0.00     0.293 HD
ENDBRANCH  16  19
BRANCH  18  21
ATOM     21  O   UNL     1      19.618   1.722   9.094  1.00  0.00    -0.504 OA
ATOM     22  H   UNL     1      20.249   1.466   9.847  1.00  0.00     0.293 HD
ENDBRANCH  18  21
ENDBRANCH   3  13
BRANCH  11  23
ATOM     23  O   UNL     1      11.237  -0.263   4.633  1.00  0.00    -0.507 OA
ATOM     24  H   UNL     1      11.109  -0.776   5.493  1.00  0.00     0.293 HD
ENDBRANCH  11  23
ENDBRANCH   1   2
BRANCH   1  25
ATOM     25  C   UNL     1      12.909   2.555   0.322  1.00  0.00     0.339 C 
ATOM     26  C   UNL     1      12.293   2.269  -1.057  1.00  0.00     0.214 C 
ATOM     27  O   UNL     1      13.693   3.741   0.342  1.00  0.00    -0.332 OA
ATOM     28  C   UNL     1      13.378   2.230  -2.147  1.00  0.00     0.180 C 
ATOM     29  C   UNL     1      14.738   3.778  -0.627  1.00  0.00     0.179 C 
ATOM     30  C   UNL     1      14.260   3.484  -2.075  1.00  0.00     0.177 C 
BRANCH  26  31
ATOM     31  O   UNL     1      11.341   3.263  -1.350  1.00  0.00    -0.384 OA
ATOM     32  H   UNL     1      11.209   3.255  -2.335  1.00  0.00     0.211 HD
ENDBRANCH  26  31
BRANCH  28  33
ATOM     33  O   UNL     1      14.172   1.079  -2.012  1.00  0.00    -0.387 OA
ATOM     34  H   UNL     1      15.060   1.377  -1.684  1.00  0.00     0.211 HD
ENDBRANCH  28  33
BRANCH  29  35
ATOM     35  C   UNL     1      15.976   2.964  -0.209  1.00  0.00     0.191 C 
BRANCH  35  36
ATOM     36  O   UNL     1      16.654   2.511  -1.349  1.00  0.00    -0.394 OA
ATOM     37  H   UNL     1      17.526   2.987  -1.365  1.00  0.00     0.210 HD
ENDBRANCH  35  36
ENDBRANCH  29  35
BRANCH  30  38
ATOM     38  O   UNL     1      13.529   4.583  -2.563  1.00  0.00    -0.387 OA
ATOM     39  H   UNL     1      14.184   5.299  -2.773  1.00  0.00     0.211 HD
ENDBRANCH  30  38
ENDBRANCH   1  25
TORSDOF 11
ENDMDL
MODEL 2
REMARK VINA RESULT:    -6.698      0.936      1.992
REMARK INTER + INTRA:         -10.686
REMARK INTER:                  -9.644
REMARK INTRA:                  -1.042
REMARK UNBOUND:                -1.051
REMARK SMILES O=c1cc(-c2ccc(O)c(O)c2)oc2cc(O[C@H]3O[C@@H](CO)[C@H](O)[C@@H](O)[C@@H]3O)cc(O)c12
REMARK SMILES IDX 17 1 16 2 4 3 3 4 13 5 2 6 14 7 1 8 32 9 15 10 30 11 29 12
REMARK SMILES IDX 5 13 6 14 7 15 8 16 12 17 10 18 9 19 11 21 31 23 18 25 27 26
REMARK SMILES IDX 19 27 25 28 20 29 23 30 28 31 26 33 21 35 22 36 24 38
REMARK H PARENT 9 20 11 22 31 24 28 32 26 34 22 37 24 39
REMARK Flexibility Score: inf
ROOT
ATOM      1  O   UNL     1      13.401   0.784   0.914  1.00  0.00    -0.462 OA
ENDROOT
BRANCH   1   2
ATOM      2  C   UNL     1      13.448   0.457   2.277  1.00  0.00     0.130 A 
ATOM      3  C   UNL     1      16.232  -0.161   6.095  1.00  0.00     0.138 A 
ATOM      4  C   UNL     1      15.158  -0.560   6.902  1.00  0.00     0.100 A 
ATOM      5  O   UNL     1      16.008   0.159   4.825  1.00  0.00    -0.456 OA
ATOM      6  C   UNL     1      13.869  -0.597   6.366  1.00  0.00     0.197 A 
ATOM      7  C   UNL     1      14.801   0.148   4.268  1.00  0.00     0.146 A 
ATOM      8  O   UNL     1      12.935  -1.022   7.095  1.00  0.00    -0.289 OA
ATOM      9  C   UNL     1      13.654  -0.199   5.026  1.00  0.00     0.107 A 
ATOM     10  C   UNL     1      14.686   0.479   2.917  1.00  0.00     0.094 A 
ATOM     11  C   UNL     1      12.379  -0.162   4.385  1.00  0.00     0.134 A 
ATOM     12  C   UNL     1      12.301   0.128   3.017  1.00  0.00     0.093 A 
BRANCH   3  13
ATOM     13  C   UNL     1      17.626  -0.115   6.609  1.00  0.00     0.021 A 
ATOM     14  C   UNL     1      18.589  -0.988   6.075  1.00  0.00     0.016 A 
ATOM     15  C   UNL     1      19.905  -0.965   6.543  1.00  0.00     0.051 A 
ATOM     16  C   UNL     1      20.285  -0.065   7.543  1.00  0.00     0.157 A 
ATOM     17  C   UNL     1      18.018   0.803   7.605  1.00  0.00     0.062 A 
ATOM     18  C   UNL     1      19.340   0.825   8.075  1.00  0.00     0.158 A 
BRANCH  16  19
ATOM     19  O   UNL     1      21.606  -0.069   7.993  1.00  0.00    -0.504 OA
ATOM     20  H   UNL     1      22.393  -0.108   7.355  1.00  0.00     0.293 HD
ENDBRANCH  16  19
BRANCH  18  21
ATOM     21  O   UNL     1      19.714   1.731   9.068  1.00  0.00    -0.504 OA
ATOM     22  H   UNL     1      19.853   2.715   8.865  1.00  0.00     0.293 HD
ENDBRANCH  18  21
ENDBRANCH   3  13
BRANCH  11  23
ATOM     23  O   UNL     1      11.167  -0.375   5.047  1.00  0.00    -0.507 OA
ATOM     24  H   UNL     1      10.285   0.038   4.781  1.00  0.00     0.293 HD
ENDBRANCH  11  23
ENDBRANCH   1   2
BRANCH   1  25
ATOM     25  C   UNL     1      14.262   1.719   0.259  1.00  0.00     0.339 C 
ATOM     26  C   UNL     1      13.832   3.162   0.571  1.00  0.00     0.214 C 
ATOM     27  O   UNL     1      14.361   1.460  -1.136  1.00  0.00    -0.332 OA
ATOM     28  C   UNL     1      12.518   3.511  -0.149  1.00  0.00     0.180 C 
ATOM     29  C   UNL     1      13.175   1.740  -1.877  1.00  0.00     0.179 C 
ATOM     30  C   UNL     1      12.612   3.168  -1.641  1.00  0.00     0.177 C 
BRANCH  26  31
ATOM     31  O   UNL     1      14.855   4.042   0.174  1.00  0.00    -0.384 OA
ATOM     32  H   UNL     1      15.363   4.282   0.993  1.00  0.00     0.211 HD
ENDBRANCH  26  31
BRANCH  28  33
ATOM     33  O   UNL     1      11.439   2.824   0.433  1.00  0.00    -0.387 OA
ATOM     34  H   UNL     1      10.826   3.510   0.805  1.00  0.00     0.211 HD
ENDBRANCH  28  33
BRANCH  29  35
ATOM     35  C   UNL     1      12.114   0.630  -1.757  1.00  0.00     0.191 C 
BRANCH  35  36
ATOM     36  O   UNL     1      10.880   1.101  -2.225  1.00  0.00    -0.394 OA
ATOM     37  H   UNL     1      10.687   0.597  -3.061  1.00  0.00     0.210 HD
ENDBRANCH  35  36
ENDBRANCH  29  35
BRANCH  30  38
ATOM     38  O   UNL     1      13.440   4.113  -2.274  1.00  0.00    -0.387 OA
ATOM     39  H   UNL     1      13.218   5.000  -1.887  1.00  0.00     0.211 HD
ENDBRANCH  30  38
ENDBRANCH   1  25
TORSDOF 11
ENDMDL
MODEL 3
REMARK VINA RESULT:    -5.658      1.528      1.891
REMARK INTER + INTRA:          -9.189
REMARK INTER:                  -8.503
REMARK INTRA:                  -0.686
REMARK UNBOUND:                -1.051
REMARK SMILES O=c1cc(-c2ccc(O)c(O)c2)oc2cc(O[C@H]3O[C@@H](CO)[C@H](O)[C@@H](O)[C@@H]3O)cc(O)c12
REMARK SMILES IDX 17 1 16 2 4 3 3 4 13 5 2 6 14 7 1 8 32 9 15 10 30 11 29 12
REMARK SMILES IDX 5 13 6 14 7 15 8 16 12 17 10 18 9 19 11 21 31 23 18 25 27 26
REMARK SMILES IDX 19 27 25 28 20 29 23 30 28 31 26 33 21 35 22 36 24 38
REMARK H PARENT 9 20 11 22 31 24 28 32 26 34 22 37 24 39
REMARK Flexibility Score: inf
ROOT
ATOM      1  O   UNL     1      12.058   0.645   0.989  1.00  0.00    -0.462 OA
ENDROOT
BRANCH   1   2
ATOM      2  C   UNL     1      12.212   0.329   2.347  1.00  0.00     0.130 A 
ATOM      3  C   UNL     1      15.282  -0.222   5.950  1.00  0.00     0.138 A 
ATOM      4  C   UNL     1      14.277  -0.631   6.837  1.00  0.00     0.100 A 
ATOM      5  O   UNL     1      14.959   0.085   4.698  1.00  0.00    -0.456 OA
ATOM      6  C   UNL     1      12.952  -0.691   6.400  1.00  0.00     0.197 A 
ATOM      7  C   UNL     1      13.714   0.054   4.233  1.00  0.00     0.146 A 
ATOM      8  O   UNL     1      12.082  -1.125   7.198  1.00  0.00    -0.289 OA
ATOM      9  C   UNL     1      12.632  -0.306   5.076  1.00  0.00     0.107 A 
ATOM     10  C   UNL     1      13.494   0.373   2.892  1.00  0.00     0.094 A 
ATOM     11  C   UNL     1      11.313  -0.292   4.532  1.00  0.00     0.134 A 
ATOM     12  C   UNL     1      11.128  -0.013   3.172  1.00  0.00     0.093 A 
BRANCH   3  13
ATOM     13  C   UNL     1      16.709  -0.152   6.359  1.00  0.00     0.021 A 
ATOM     14  C   UNL     1      17.634  -1.050   5.798  1.00  0.00     0.016 A 
ATOM     15  C   UNL     1      18.980  -1.005   6.167  1.00  0.00     0.051 A 
ATOM     16  C   UNL     1      19.429  -0.058   7.093  1.00  0.00     0.157 A 
ATOM     17  C   UNL     1      17.170   0.812   7.278  1.00  0.00     0.062 A 
ATOM     18  C   UNL     1      18.522   0.856   7.650  1.00  0.00     0.158 A 
BRANCH  16  19
ATOM     19  O   UNL     1      20.779  -0.041   7.445  1.00  0.00    -0.504 OA
ATOM     20  H   UNL     1      21.497  -0.438   6.850  1.00  0.00     0.293 HD
ENDBRANCH  16  19
BRANCH  18  21
ATOM     21  O   UNL     1      18.965   1.808   8.568  1.00  0.00    -0.504 OA
ATOM     22  H   UNL     1      19.580   2.567   8.294  1.00  0.00     0.293 HD
ENDBRANCH  18  21
ENDBRANCH   3  13
BRANCH  11  23
ATOM     23  O   UNL     1      10.156  -0.518   5.284  1.00  0.00    -0.507 OA
ATOM     24  H   UNL     1       9.441   0.171   5.462  1.00  0.00     0.293 HD
ENDBRANCH  11  23
ENDBRANCH   1   2
BRANCH   1  25
ATOM     25  C   UNL     1      10.898   1.246   0.407  1.00  0.00     0.339 C 
ATOM     26  C   UNL     1      10.960   1.170  -1.127  1.00  0.00     0.214 C 
ATOM     27  O   UNL     1      10.690   2.568   0.888  1.00  0.00    -0.332 OA
ATOM     28  C   UNL     1      12.025   2.131  -1.683  1.00  0.00     0.180 C 
ATOM     29  C   UNL     1      11.648   3.522   0.435  1.00  0.00     0.179 C 
ATOM     30  C   UNL     1      11.831   3.541  -1.107  1.00  0.00     0.177 C 
BRANCH  26  31
ATOM     31  O   UNL     1       9.695   1.485  -1.654  1.00  0.00    -0.384 OA
ATOM     32  H   UNL     1       9.028   0.958  -1.139  1.00  0.00     0.211 HD
ENDBRANCH  26  31
BRANCH  28  33
ATOM     33  O   UNL     1      13.316   1.666  -1.382  1.00  0.00    -0.387 OA
ATOM     34  H   UNL     1      13.895   2.466  -1.280  1.00  0.00     0.211 HD
ENDBRANCH  28  33
BRANCH  29  35
ATOM     35  C   UNL     1      12.975   3.459   1.213  1.00  0.00     0.191 C 
BRANCH  35  36
ATOM     36  O   UNL     1      13.644   4.686   1.110  1.00  0.00    -0.394 OA
ATOM     37  H   UNL     1      14.119   4.674   0.237  1.00  0.00     0.210 HD
ENDBRANCH  35  36
ENDBRANCH  29  35
BRANCH  30  38
ATOM     38  O   UNL     1      10.702   4.126  -1.710  1.00  0.00    -0.387 OA
ATOM     39  H   UNL     1      10.055   4.325  -0.984  1.00  0.00     0.211 HD
ENDBRANCH  30  38
ENDBRANCH   1  25
TORSDOF 11
ENDMDL
MODEL 4
REMARK VINA RESULT:    -5.500     14.146     17.033
REMARK INTER + INTRA:          -8.963
REMARK INTER:                  -7.981
REMARK INTRA:                  -0.982
REMARK UNBOUND:                -1.051
REMARK SMILES O=c1cc(-c2ccc(O)c(O)c2)oc2cc(O[C@H]3O[C@@H](CO)[C@H](O)[C@@H](O)[C@@H]3O)cc(O)c12
REMARK SMILES IDX 17 1 16 2 4 3 3 4 13 5 2 6 14 7 1 8 32 9 15 10 30 11 29 12
REMARK SMILES IDX 5 13 6 14 7 15 8 16 12 17 10 18 9 19 11 21 31 23 18 25 27 26
REMARK SMILES IDX 19 27 25 28 20 29 23 30 28 31 26 33 21 35 22 36 24 38
REMARK H PARENT 9 20 11 22 31 24 28 32 26 34 22 37 24 39
REMARK Flexibility Score: inf
ROOT
ATOM      1  O   UNL     1      25.350  15.956   6.693  1.00  0.00    -0.462 OA
ENDROOT
BRANCH   1   2
ATOM      2  C   UNL     1      25.954  15.064   7.592  1.00  0.00     0.130 A 
ATOM      3  C   UNL     1      26.844  10.498   8.626  1.00  0.00     0.138 A 
ATOM      4  C   UNL     1      27.479  10.822   9.833  1.00  0.00     0.100 A 
ATOM      5  O   UNL     1      26.360  11.473   7.864  1.00  0.00    -0.456 OA
ATOM      6  C   UNL     1      27.610  12.161  10.207  1.00  0.00     0.197 A 
ATOM      7  C   UNL     1      26.465  12.763   8.169  1.00  0.00     0.146 A 
ATOM      8  O   UNL     1      28.125  12.417  11.326  1.00  0.00    -0.289 OA
ATOM      9  C   UNL     1      27.132  13.179   9.349  1.00  0.00     0.107 A 
ATOM     10  C   UNL     1      25.897  13.702   7.306  1.00  0.00     0.094 A 
ATOM     11  C   UNL     1      27.243  14.578   9.610  1.00  0.00     0.134 A 
ATOM     12  C   UNL     1      26.622  15.494   8.750  1.00  0.00     0.093 A 
BRANCH   3  13
ATOM     13  C   UNL     1      26.667   9.090   8.185  1.00  0.00     0.021 A 
ATOM     14  C   UNL     1      27.710   8.168   8.381  1.00  0.00     0.016 A 
ATOM     15  C   UNL     1      27.569   6.839   7.974  1.00  0.00     0.051 A 
ATOM     16  C   UNL     1      26.382   6.405   7.375  1.00  0.00     0.157 A 
ATOM     17  C   UNL     1      25.466   8.643   7.598  1.00  0.00     0.062 A 
ATOM     18  C   UNL     1      25.325   7.309   7.188  1.00  0.00     0.158 A 
BRANCH  16  19
ATOM     19  O   UNL     1      26.272   5.073   6.975  1.00  0.00    -0.504 OA
ATOM     20  H   UNL     1      26.024   4.814   6.027  1.00  0.00     0.293 HD
ENDBRANCH  16  19
BRANCH  18  21
ATOM     21  O   UNL     1      24.135   6.880   6.599  1.00  0.00    -0.504 OA
ATOM     22  H   UNL     1      23.231   7.120   6.990  1.00  0.00     0.293 HD
ENDBRANCH  18  21
ENDBRANCH   3  13
BRANCH  11  23
ATOM     23  O   UNL     1      27.968  15.118  10.676  1.00  0.00    -0.507 OA
ATOM     24  H   UNL     1      27.714  15.029  11.649  1.00  0.00     0.293 HD
ENDBRANCH  11  23
ENDBRANCH   1   2
BRANCH   1  25
ATOM     25  C   UNL     1      25.497  15.921   5.271  1.00  0.00     0.339 C 
ATOM     26  C   UNL     1      25.438  17.342   4.686  1.00  0.00     0.214 C 
ATOM     27  O   UNL     1      24.567  15.033   4.664  1.00  0.00    -0.332 OA
ATOM     28  C   UNL     1      24.009  17.907   4.759  1.00  0.00     0.180 C 
ATOM     29  C   UNL     1      23.212  15.474   4.706  1.00  0.00     0.179 C 
ATOM     30  C   UNL     1      23.004  16.913   4.160  1.00  0.00     0.177 C 
BRANCH  26  31
ATOM     31  O   UNL     1      25.882  17.308   3.352  1.00  0.00    -0.384 OA
ATOM     32  H   UNL     1      25.398  16.565   2.905  1.00  0.00     0.211 HD
ENDBRANCH  26  31
BRANCH  28  33
ATOM     33  O   UNL     1      23.660  18.197   6.088  1.00  0.00    -0.387 OA
ATOM     34  H   UNL     1      23.208  17.390   6.451  1.00  0.00     0.211 HD
ENDBRANCH  28  33
BRANCH  29  35
ATOM     35  C   UNL     1      22.540  15.228   6.070  1.00  0.00     0.191 C 
BRANCH  35  36
ATOM     36  O   UNL     1      21.367  15.989   6.165  1.00  0.00    -0.394 OA
ATOM     37  H   UNL     1      21.043  16.122   5.234  1.00  0.00     0.210 HD
ENDBRANCH  35  36
ENDBRANCH  29  35
BRANCH  30  38
ATOM     38  O   UNL     1      23.145  16.912   2.760  1.00  0.00    -0.387 OA
ATOM     39  H   UNL     1      24.117  16.973   2.565  1.00  0.00     0.211 HD
ENDBRANCH  30  38
ENDBRANCH   1  25
TORSDOF 11
ENDMDL
MODEL 5
REMARK VINA RESULT:    -5.356     14.839     17.641
REMARK INTER + INTRA:          -8.755
REMARK INTER:                  -7.646
REMARK INTRA:                  -1.109
REMARK UNBOUND:                -1.051
REMARK SMILES O=c1cc(-c2ccc(O)c(O)c2)oc2cc(O[C@H]3O[C@@H](CO)[C@H](O)[C@@H](O)[C@@H]3O)cc(O)c12
REMARK SMILES IDX 17 1 16 2 4 3 3 4 13 5 2 6 14 7 1 8 32 9 15 10 30 11 29 12
REMARK SMILES IDX 5 13 6 14 7 15 8 16 12 17 10 18 9 19 11 21 31 23 18 25 27 26
REMARK SMILES IDX 19 27 25 28 20 29 23 30 28 31 26 33 21 35 22 36 24 38
REMARK H PARENT 9 20 11 22 31 24 28 32 26 34 22 37 24 39
REMARK Flexibility Score: inf
ROOT
ATOM      1  O   UNL     1      26.149  16.540   6.683  1.00  0.00    -0.462 OA
ENDROOT
BRANCH   1   2
ATOM      2  C   UNL     1      26.510  15.603   7.662  1.00  0.00     0.130 A 
ATOM      3  C   UNL     1      26.861  10.980   8.765  1.00  0.00     0.138 A 
ATOM      4  C   UNL     1      27.281  11.251  10.074  1.00  0.00     0.100 A 
ATOM      5  O   UNL     1      26.598  11.991   7.943  1.00  0.00    -0.456 OA
ATOM      6  C   UNL     1      27.437  12.576  10.489  1.00  0.00     0.197 A 
ATOM      7  C   UNL     1      26.737  13.268   8.284  1.00  0.00     0.146 A 
ATOM      8  O   UNL     1      27.751  12.790  11.688  1.00  0.00    -0.289 OA
ATOM      9  C   UNL     1      27.201  13.630   9.575  1.00  0.00     0.107 A 
ATOM     10  C   UNL     1      26.409  14.249   7.347  1.00  0.00     0.094 A 
ATOM     11  C   UNL     1      27.362  15.015   9.875  1.00  0.00     0.134 A 
ATOM     12  C   UNL     1      26.980  15.977   8.931  1.00  0.00     0.093 A 
BRANCH   3  13
ATOM     13  C   UNL     1      26.667   9.590   8.275  1.00  0.00     0.021 A 
ATOM     14  C   UNL     1      27.728   8.672   8.367  1.00  0.00     0.016 A 
ATOM     15  C   UNL     1      27.571   7.360   7.912  1.00  0.00     0.051 A 
ATOM     16  C   UNL     1      26.354   6.940   7.368  1.00  0.00     0.157 A 
ATOM     17  C   UNL     1      25.437   9.157   7.743  1.00  0.00     0.062 A 
ATOM     18  C   UNL     1      25.281   7.840   7.285  1.00  0.00     0.158 A 
BRANCH  16  19
ATOM     19  O   UNL     1      26.230   5.625   6.918  1.00  0.00    -0.504 OA
ATOM     20  H   UNL     1      26.942   5.180   6.351  1.00  0.00     0.293 HD
ENDBRANCH  16  19
BRANCH  18  21
ATOM     21  O   UNL     1      24.061   7.425   6.750  1.00  0.00    -0.504 OA
ATOM     22  H   UNL     1      23.231   8.006   6.803  1.00  0.00     0.293 HD
ENDBRANCH  18  21
ENDBRANCH   3  13
BRANCH  11  23
ATOM     23  O   UNL     1      27.913  15.497  11.066  1.00  0.00    -0.507 OA
ATOM     24  H   UNL     1      27.421  15.557  11.946  1.00  0.00     0.293 HD
ENDBRANCH  11  23
ENDBRANCH   1   2
BRANCH   1  25
ATOM     25  C   UNL     1      25.070  17.472   6.790  1.00  0.00     0.339 C 
ATOM     26  C   UNL     1      23.734  16.796   6.442  1.00  0.00     0.214 C 
ATOM     27  O   UNL     1      25.310  18.649   6.028  1.00  0.00    -0.332 OA
ATOM     28  C   UNL     1      23.641  16.504   4.935  1.00  0.00     0.180 C 
ATOM     29  C   UNL     1      25.262  18.461   4.615  1.00  0.00     0.179 C 
ATOM     30  C   UNL     1      23.965  17.764   4.120  1.00  0.00     0.177 C 
BRANCH  26  31
ATOM     31  O   UNL     1      22.677  17.634   6.843  1.00  0.00    -0.384 OA
ATOM     32  H   UNL     1      22.251  17.204   7.631  1.00  0.00     0.211 HD
ENDBRANCH  26  31
BRANCH  28  33
ATOM     33  O   UNL     1      24.518  15.466   4.578  1.00  0.00    -0.387 OA
ATOM     34  H   UNL     1      24.575  14.855   5.358  1.00  0.00     0.211 HD
ENDBRANCH  28  33
BRANCH  29  35
ATOM     35  C   UNL     1      26.552  17.842   4.046  1.00  0.00     0.191 C 
BRANCH  35  36
ATOM     36  O   UNL     1      26.302  17.313   2.772  1.00  0.00    -0.394 OA
ATOM     37  H   UNL     1      25.450  16.806   2.841  1.00  0.00     0.210 HD
ENDBRANCH  35  36
ENDBRANCH  29  35
BRANCH  30  38
ATOM     38  O   UNL     1      22.883  18.658   4.215  1.00  0.00    -0.387 OA
ATOM     39  H   UNL     1      23.031  19.210   5.027  1.00  0.00     0.211 HD
ENDBRANCH  30  38
ENDBRANCH   1  25
TORSDOF 11
ENDMDL
MODEL 6
REMARK VINA RESULT:    -5.142      2.880      9.461
REMARK INTER + INTRA:          -8.448
REMARK INTER:                  -7.389
REMARK INTRA:                  -1.058
REMARK UNBOUND:                -1.051
REMARK SMILES O=c1cc(-c2ccc(O)c(O)c2)oc2cc(O[C@H]3O[C@@H](CO)[C@H](O)[C@@H](O)[C@@H]3O)cc(O)c12
REMARK SMILES IDX 17 1 16 2 4 3 3 4 13 5 2 6 14 7 1 8 32 9 15 10 30 11 29 12
REMARK SMILES IDX 5 13 6 14 7 15 8 16 12 17 10 18 9 19 11 21 31 23 18 25 27 26
REMARK SMILES IDX 19 27 25 28 20 29 23 30 28 31 26 33 21 35 22 36 24 38
REMARK H PARENT 9 20 11 22 31 24 28 32 26 34 22 37 24 39
REMARK Flexibility Score: inf
ROOT
ATOM      1  O   UNL     1      14.364  -0.182   3.958  1.00  0.00    -0.462 OA
ENDROOT
BRANCH   1   2
ATOM      2  C   UNL     1      13.831   0.133   2.699  1.00  0.00     0.130 A 
ATOM      3  C   UNL     1      11.079   3.127   0.215  1.00  0.00     0.138 A 
ATOM      4  C   UNL     1      11.221   2.388  -0.968  1.00  0.00     0.100 A 
ATOM      5  O   UNL     1      11.689   2.710   1.319  1.00  0.00    -0.456 OA
ATOM      6  C   UNL     1      12.016   1.240  -0.973  1.00  0.00     0.197 A 
ATOM      7  C   UNL     1      12.463   1.630   1.366  1.00  0.00     0.146 A 
ATOM      8  O   UNL     1      12.071   0.561  -2.032  1.00  0.00    -0.289 OA
ATOM      9  C   UNL     1      12.697   0.852   0.204  1.00  0.00     0.107 A 
ATOM     10  C   UNL     1      13.035   1.272   2.588  1.00  0.00     0.094 A 
ATOM     11  C   UNL     1      13.561  -0.279   0.306  1.00  0.00     0.134 A 
ATOM     12  C   UNL     1      14.083  -0.641   1.555  1.00  0.00     0.093 A 
BRANCH   3  13
ATOM     13  C   UNL     1      10.236   4.349   0.280  1.00  0.00     0.021 A 
ATOM     14  C   UNL     1      10.182   5.088   1.475  1.00  0.00     0.016 A 
ATOM     15  C   UNL     1       9.397   6.240   1.562  1.00  0.00     0.051 A 
ATOM     16  C   UNL     1       8.661   6.680   0.458  1.00  0.00     0.157 A 
ATOM     17  C   UNL     1       9.507   4.807  -0.835  1.00  0.00     0.062 A 
ATOM     18  C   UNL     1       8.717   5.963  -0.747  1.00  0.00     0.158 A 
BRANCH  16  19
ATOM     19  O   UNL     1       7.882   7.831   0.577  1.00  0.00    -0.504 OA
ATOM     20  H   UNL     1       8.085   8.551   1.261  1.00  0.00     0.293 HD
ENDBRANCH  16  19
BRANCH  18  21
ATOM     21  O   UNL     1       7.991   6.401  -1.855  1.00  0.00    -0.504 OA
ATOM     22  H   UNL     1       7.240   5.847  -2.253  1.00  0.00     0.293 HD
ENDBRANCH  18  21
ENDBRANCH   3  13
BRANCH  11  23
ATOM     23  O   UNL     1      13.958  -1.059  -0.784  1.00  0.00    -0.507 OA
ATOM     24  H   UNL     1      13.943  -2.068  -0.806  1.00  0.00     0.293 HD
ENDBRANCH  11  23
ENDBRANCH   1   2
BRANCH   1  25
ATOM     25  C   UNL     1      15.730  -0.006   4.344  1.00  0.00     0.339 C 
ATOM     26  C   UNL     1      16.151  -1.087   5.353  1.00  0.00     0.214 C 
ATOM     27  O   UNL     1      15.982   1.314   4.809  1.00  0.00    -0.332 OA
ATOM     28  C   UNL     1      15.489  -0.849   6.722  1.00  0.00     0.180 C 
ATOM     29  C   UNL     1      15.386   1.624   6.066  1.00  0.00     0.179 C 
ATOM     30  C   UNL     1      15.712   0.597   7.184  1.00  0.00     0.177 C 
BRANCH  26  31
ATOM     31  O   UNL     1      17.552  -1.076   5.480  1.00  0.00    -0.384 OA
ATOM     32  H   UNL     1      17.764  -0.555   6.298  1.00  0.00     0.211 HD
ENDBRANCH  26  31
BRANCH  28  33
ATOM     33  O   UNL     1      14.113  -1.124   6.659  1.00  0.00    -0.387 OA
ATOM     34  H   UNL     1      13.705  -0.751   7.483  1.00  0.00     0.211 HD
ENDBRANCH  28  33
BRANCH  29  35
ATOM     35  C   UNL     1      13.887   1.961   5.955  1.00  0.00     0.191 C 
BRANCH  35  36
ATOM     36  O   UNL     1      13.232   1.607   7.142  1.00  0.00    -0.394 OA
ATOM     37  H   UNL     1      13.515   2.269   7.827  1.00  0.00     0.210 HD
ENDBRANCH  35  36
ENDBRANCH  29  35
BRANCH  30  38
ATOM     38  O   UNL     1      17.052   0.745   7.585  1.00  0.00    -0.387 OA
ATOM     39  H   UNL     1      17.054   0.820   8.575  1.00  0.00     0.211 HD
ENDBRANCH  30  38
ENDBRANCH   1  25
TORSDOF 11
ENDMDL
MODEL 7
REMARK VINA RESULT:    -4.869      3.888      5.417
REMARK INTER + INTRA:          -8.055
REMARK INTER:                  -7.617
REMARK INTRA:                  -0.437
REMARK UNBOUND:                -1.051
REMARK SMILES O=c1cc(-c2ccc(O)c(O)c2)oc2cc(O[C@H]3O[C@@H](CO)[C@H](O)[C@@H](O)[C@@H]3O)cc(O)c12
REMARK SMILES IDX 17 1 16 2 4 3 3 4 13 5 2 6 14 7 1 8 32 9 15 10 30 11 29 12
REMARK SMILES IDX 5 13 6 14 7 15 8 16 12 17 10 18 9 19 11 21 31 23 18 25 27 26
REMARK SMILES IDX 19 27 25 28 20 29 23 30 28 31 26 33 21 35 22 36 24 38
REMARK H PARENT 9 20 11 22 31 24 28 32 26 34 22 37 24 39
REMARK Flexibility Score: inf
ROOT
ATOM      1  O   UNL     1      13.137   1.004  -0.610  1.00  0.00    -0.462 OA
ENDROOT
BRANCH   1   2
ATOM      2  C   UNL     1      12.068   0.596   0.202  1.00  0.00     0.130 A 
ATOM      3  C   UNL     1      10.673  -0.552   4.612  1.00  0.00     0.138 A 
ATOM      4  C   UNL     1       9.374  -0.872   4.194  1.00  0.00     0.100 A 
ATOM      5  O   UNL     1      11.561  -0.136   3.715  1.00  0.00    -0.456 OA
ATOM      6  C   UNL     1       9.028  -0.732   2.849  1.00  0.00     0.197 A 
ATOM      7  C   UNL     1      11.281   0.022   2.425  1.00  0.00     0.146 A 
ATOM      8  O   UNL     1       7.875  -1.090   2.492  1.00  0.00    -0.289 OA
ATOM      9  C   UNL     1       9.979  -0.236   1.926  1.00  0.00     0.107 A 
ATOM     10  C   UNL     1      12.300   0.441   1.567  1.00  0.00     0.094 A 
ATOM     11  C   UNL     1       9.727  -0.018   0.539  1.00  0.00     0.134 A 
ATOM     12  C   UNL     1      10.780   0.357  -0.306  1.00  0.00     0.093 A 
BRANCH   3  13
ATOM     13  C   UNL     1      11.099  -0.693   6.028  1.00  0.00     0.021 A 
ATOM     14  C   UNL     1      12.468  -0.792   6.331  1.00  0.00     0.016 A 
ATOM     15  C   UNL     1      12.894  -0.927   7.655  1.00  0.00     0.051 A 
ATOM     16  C   UNL     1      11.964  -0.956   8.698  1.00  0.00     0.157 A 
ATOM     17  C   UNL     1      10.167  -0.704   7.085  1.00  0.00     0.062 A 
ATOM     18  C   UNL     1      10.595  -0.841   8.414  1.00  0.00     0.158 A 
BRANCH  16  19
ATOM     19  O   UNL     1      12.419  -1.097  10.010  1.00  0.00    -0.504 OA
ATOM     20  H   UNL     1      12.573  -0.299  10.616  1.00  0.00     0.293 HD
ENDBRANCH  16  19
BRANCH  18  21
ATOM     21  O   UNL     1       9.662  -0.861   9.451  1.00  0.00    -0.504 OA
ATOM     22  H   UNL     1       9.266  -1.729   9.795  1.00  0.00     0.293 HD
ENDBRANCH  18  21
ENDBRANCH   3  13
BRANCH  11  23
ATOM     23  O   UNL     1       8.466  -0.130  -0.052  1.00  0.00    -0.507 OA
ATOM     24  H   UNL     1       8.034  -0.999  -0.330  1.00  0.00     0.293 HD
ENDBRANCH  11  23
ENDBRANCH   1   2
BRANCH   1  25
ATOM     25  C   UNL     1      14.450   1.327  -0.145  1.00  0.00     0.339 C 
ATOM     26  C   UNL     1      14.383   2.369   0.983  1.00  0.00     0.214 C 
ATOM     27  O   UNL     1      15.307   1.718  -1.210  1.00  0.00    -0.332 OA
ATOM     28  C   UNL     1      13.985   3.750   0.434  1.00  0.00     0.180 C 
ATOM     29  C   UNL     1      14.993   2.982  -1.791  1.00  0.00     0.179 C 
ATOM     30  C   UNL     1      14.874   4.134  -0.757  1.00  0.00     0.177 C 
BRANCH  26  31
ATOM     31  O   UNL     1      15.637   2.440   1.618  1.00  0.00    -0.384 OA
ATOM     32  H   UNL     1      15.476   2.769   2.541  1.00  0.00     0.211 HD
ENDBRANCH  26  31
BRANCH  28  33
ATOM     33  O   UNL     1      12.635   3.754   0.044  1.00  0.00    -0.387 OA
ATOM     34  H   UNL     1      12.110   4.079   0.821  1.00  0.00     0.211 HD
ENDBRANCH  28  33
BRANCH  29  35
ATOM     35  C   UNL     1      13.814   2.914  -2.779  1.00  0.00     0.191 C 
BRANCH  35  36
ATOM     36  O   UNL     1      13.186   4.164  -2.855  1.00  0.00    -0.394 OA
ATOM     37  H   UNL     1      13.893   4.818  -3.100  1.00  0.00     0.210 HD
ENDBRANCH  35  36
ENDBRANCH  29  35
BRANCH  30  38
ATOM     38  O   UNL     1      16.152   4.474  -0.279  1.00  0.00    -0.387 OA
ATOM     39  H   UNL     1      16.702   4.720  -1.068  1.00  0.00     0.211 HD
ENDBRANCH  30  38
ENDBRANCH   1  25
TORSDOF 11
ENDMDL
MODEL 8
REMARK VINA RESULT:    -4.853     16.043     17.303
REMARK INTER + INTRA:          -8.032
REMARK INTER:                  -6.990
REMARK INTRA:                  -1.042
REMARK UNBOUND:                -1.051
REMARK SMILES O=c1cc(-c2ccc(O)c(O)c2)oc2cc(O[C@H]3O[C@@H](CO)[C@H](O)[C@@H](O)[C@@H]3O)cc(O)c12
REMARK SMILES IDX 17 1 16 2 4 3 3 4 13 5 2 6 14 7 1 8 32 9 15 10 30 11 29 12
REMARK SMILES IDX 5 13 6 14 7 15 8 16 12 17 10 18 9 19 11 21 31 23 18 25 27 26
REMARK SMILES IDX 19 27 25 28 20 29 23 30 28 31 26 33 21 35 22 36 24 38
REMARK H PARENT 9 20 11 22 31 24 28 32 26 34 22 37 24 39
REMARK Flexibility Score: inf
ROOT
ATOM      1  O   UNL     1      16.851  17.571   0.256  1.00  0.00    -0.462 OA
ENDROOT
BRANCH   1   2
ATOM      2  C   UNL     1      18.065  17.375   0.930  1.00  0.00     0.130 A 
ATOM      3  C   UNL     1      20.360  17.669   5.096  1.00  0.00     0.138 A 
ATOM      4  C   UNL     1      21.580  17.271   4.532  1.00  0.00     0.100 A 
ATOM      5  O   UNL     1      19.286  17.765   4.320  1.00  0.00    -0.456 OA
ATOM      6  C   UNL     1      21.645  16.963   3.172  1.00  0.00     0.197 A 
ATOM      7  C   UNL     1      19.291  17.476   3.022  1.00  0.00     0.146 A 
ATOM      8  O   UNL     1      22.767  16.673   2.681  1.00  0.00    -0.289 OA
ATOM      9  C   UNL     1      20.473  17.023   2.382  1.00  0.00     0.107 A 
ATOM     10  C   UNL     1      18.108  17.637   2.298  1.00  0.00     0.094 A 
ATOM     11  C   UNL     1      20.412  16.697   0.995  1.00  0.00     0.134 A 
ATOM     12  C   UNL     1      19.223  16.913   0.284  1.00  0.00     0.093 A 
BRANCH   3  13
ATOM     13  C   UNL     1      20.238  18.019   6.535  1.00  0.00     0.021 A 
ATOM     14  C   UNL     1      21.246  18.783   7.148  1.00  0.00     0.016 A 
ATOM     15  C   UNL     1      21.154  19.125   8.500  1.00  0.00     0.051 A 
ATOM     16  C   UNL     1      20.052  18.720   9.259  1.00  0.00     0.157 A 
ATOM     17  C   UNL     1      19.120  17.628   7.300  1.00  0.00     0.062 A 
ATOM     18  C   UNL     1      19.029  17.971   8.658  1.00  0.00     0.158 A 
BRANCH  16  19
ATOM     19  O   UNL     1      19.991  19.071  10.608  1.00  0.00    -0.504 OA
ATOM     20  H   UNL     1      19.245  19.647  10.981  1.00  0.00     0.293 HD
ENDBRANCH  16  19
BRANCH  18  21
ATOM     21  O   UNL     1      17.923  17.569   9.407  1.00  0.00    -0.504 OA
ATOM     22  H   UNL     1      17.262  18.241   9.782  1.00  0.00     0.293 HD
ENDBRANCH  18  21
ENDBRANCH   3  13
BRANCH  11  23
ATOM     23  O   UNL     1      21.473  16.138   0.277  1.00  0.00    -0.507 OA
ATOM     24  H   UNL     1      22.376  15.913   0.666  1.00  0.00     0.293 HD
ENDBRANCH  11  23
ENDBRANCH   1   2
BRANCH   1  25
ATOM     25  C   UNL     1      15.604  17.894   0.877  1.00  0.00     0.339 C 
ATOM     26  C   UNL     1      14.632  16.707   0.789  1.00  0.00     0.214 C 
ATOM     27  O   UNL     1      15.053  19.100   0.364  1.00  0.00    -0.332 OA
ATOM     28  C   UNL     1      14.130  16.513  -0.652  1.00  0.00     0.180 C 
ATOM     29  C   UNL     1      14.581  19.013  -0.979  1.00  0.00     0.179 C 
ATOM     30  C   UNL     1      13.597  17.835  -1.220  1.00  0.00     0.177 C 
BRANCH  26  31
ATOM     31  O   UNL     1      13.548  16.935   1.657  1.00  0.00    -0.384 OA
ATOM     32  H   UNL     1      12.985  16.118   1.637  1.00  0.00     0.211 HD
ENDBRANCH  26  31
BRANCH  28  33
ATOM     33  O   UNL     1      15.160  16.021  -1.471  1.00  0.00    -0.387 OA
ATOM     34  H   UNL     1      15.965  15.928  -0.898  1.00  0.00     0.211 HD
ENDBRANCH  28  33
BRANCH  29  35
ATOM     35  C   UNL     1      15.711  19.096  -2.021  1.00  0.00     0.191 C 
BRANCH  35  36
ATOM     36  O   UNL     1      15.363  18.355  -3.159  1.00  0.00    -0.394 OA
ATOM     37  H   UNL     1      15.129  17.444  -2.838  1.00  0.00     0.210 HD
ENDBRANCH  35  36
ENDBRANCH  29  35
BRANCH  30  38
ATOM     38  O   UNL     1      12.359  18.123  -0.618  1.00  0.00    -0.387 OA
ATOM     39  H   UNL     1      11.764  18.478  -1.329  1.00  0.00     0.211 HD
ENDBRANCH  30  38
ENDBRANCH   1  25
TORSDOF 11
ENDMDL
MODEL 9
REMARK VINA RESULT:    -4.672      1.275      2.548
REMARK INTER + INTRA:          -7.772
REMARK INTER:                  -7.759
REMARK INTRA:                  -0.013
REMARK UNBOUND:                -1.051
REMARK SMILES O=c1cc(-c2ccc(O)c(O)c2)oc2cc(O[C@H]3O[C@@H](CO)[C@H](O)[C@@H](O)[C@@H]3O)cc(O)c12
REMARK SMILES IDX 17 1 16 2 4 3 3 4 13 5 2 6 14 7 1 8 32 9 15 10 30 11 29 12
REMARK SMILES IDX 5 13 6 14 7 15 8 16 12 17 10 18 9 19 11 21 31 23 18 25 27 26
REMARK SMILES IDX 19 27 25 28 20 29 23 30 28 31 26 33 21 35 22 36 24 38
REMARK H PARENT 9 20 11 22 31 24 28 32 26 34 22 37 24 39
REMARK Flexibility Score: inf
ROOT
ATOM      1  O   UNL     1      12.201   0.999   1.259  1.00  0.00    -0.462 OA
ENDROOT
BRANCH   1   2
ATOM      2  C   UNL     1      12.386   0.616   2.596  1.00  0.00     0.130 A 
ATOM      3  C   UNL     1      15.513   0.074   6.151  1.00  0.00     0.138 A 
ATOM      4  C   UNL     1      14.545  -0.457   7.016  1.00  0.00     0.100 A 
ATOM      5  O   UNL     1      15.160   0.430   4.921  1.00  0.00    -0.456 OA
ATOM      6  C   UNL     1      13.225  -0.584   6.579  1.00  0.00     0.197 A 
ATOM      7  C   UNL     1      13.917   0.338   4.458  1.00  0.00     0.146 A 
ATOM      8  O   UNL     1      12.393  -1.125   7.353  1.00  0.00    -0.289 OA
ATOM      9  C   UNL     1      12.869  -0.146   5.282  1.00  0.00     0.107 A 
ATOM     10  C   UNL     1      13.665   0.719   3.139  1.00  0.00     0.094 A 
ATOM     11  C   UNL     1      11.549  -0.194   4.744  1.00  0.00     0.134 A 
ATOM     12  C   UNL     1      11.335   0.151   3.402  1.00  0.00     0.093 A 
BRANCH   3  13
ATOM     13  C   UNL     1      16.934   0.221   6.560  1.00  0.00     0.021 A 
ATOM     14  C   UNL     1      17.265   1.100   7.606  1.00  0.00     0.016 A 
ATOM     15  C   UNL     1      18.594   1.257   8.007  1.00  0.00     0.051 A 
ATOM     16  C   UNL     1      19.613   0.534   7.380  1.00  0.00     0.157 A 
ATOM     17  C   UNL     1      17.963  -0.519   5.943  1.00  0.00     0.062 A 
ATOM     18  C   UNL     1      19.297  -0.360   6.346  1.00  0.00     0.158 A 
BRANCH  16  19
ATOM     19  O   UNL     1      20.931   0.715   7.800  1.00  0.00    -0.504 OA
ATOM     20  H   UNL     1      21.210   0.595   8.766  1.00  0.00     0.293 HD
ENDBRANCH  16  19
BRANCH  18  21
ATOM     21  O   UNL     1      20.308  -1.091   5.721  1.00  0.00    -0.504 OA
ATOM     22  H   UNL     1      20.132  -1.635   4.883  1.00  0.00     0.293 HD
ENDBRANCH  18  21
ENDBRANCH   3  13
BRANCH  11  23
ATOM     23  O   UNL     1      10.416  -0.545   5.484  1.00  0.00    -0.507 OA
ATOM     24  H   UNL     1       9.684   0.095   5.756  1.00  0.00     0.293 HD
ENDBRANCH  11  23
ENDBRANCH   1   2
BRANCH   1  25
ATOM     25  C   UNL     1      13.078   0.674   0.178  1.00  0.00     0.339 C 
ATOM     26  C   UNL     1      14.482   1.249   0.428  1.00  0.00     0.214 C 
ATOM     27  O   UNL     1      12.537   1.062  -1.078  1.00  0.00    -0.332 OA
ATOM     28  C   UNL     1      14.484   2.780   0.278  1.00  0.00     0.180 C 
ATOM     29  C   UNL     1      12.484   2.471  -1.292  1.00  0.00     0.179 C 
ATOM     30  C   UNL     1      13.838   3.192  -1.052  1.00  0.00     0.177 C 
BRANCH  26  31
ATOM     31  O   UNL     1      15.385   0.668  -0.481  1.00  0.00    -0.384 OA
ATOM     32  H   UNL     1      16.288   0.735  -0.073  1.00  0.00     0.211 HD
ENDBRANCH  26  31
BRANCH  28  33
ATOM     33  O   UNL     1      13.800   3.382   1.347  1.00  0.00    -0.387 OA
ATOM     34  H   UNL     1      13.709   4.346   1.126  1.00  0.00     0.211 HD
ENDBRANCH  28  33
BRANCH  29  35
ATOM     35  C   UNL     1      11.293   3.143  -0.582  1.00  0.00     0.191 C 
BRANCH  35  36
ATOM     36  O   UNL     1      10.680   4.059  -1.448  1.00  0.00    -0.394 OA
ATOM     37  H   UNL     1       9.873   4.395  -0.975  1.00  0.00     0.210 HD
ENDBRANCH  35  36
ENDBRANCH  29  35
BRANCH  30  38
ATOM     38  O   UNL     1      14.725   2.890  -2.101  1.00  0.00    -0.387 OA
ATOM     39  H   UNL     1      14.185   2.497  -2.836  1.00  0.00     0.211 HD
ENDBRANCH  30  38
ENDBRANCH   1  25
TORSDOF 11
ENDMDL
