MODEL 1
REMARK VINA RESULT:    -4.515      0.000      0.000
REMARK INTER + INTRA:         -10.080
REMARK INTER:                  -8.473
REMARK INTRA:                  -1.607
REMARK UNBOUND:                -1.607
REMARK SMILES CCCCCCCCC=CCCCCCCCC(=O)[O-]
REMARK SMILES IDX 10 1 9 2 11 3 12 4 13 5 14 6 15 7 16 8 17 9 18 10 19 11
REMARK SMILES IDX 20 12 8 13 7 14 6 15 5 16 4 17 3 18 2 19 1 20
REMARK H PARENT
REMARK Flexibility Score: inf
ROOT
ATOM      1  C   UNL     1      27.825  34.529  21.453  1.00  0.00    -0.031 C 
ATOM      2  C   UNL     1      27.751  33.219  21.170  1.00  0.00    -0.031 C 
ENDROOT
BRANCH   1   3
ATOM      3  C   UNL     1      28.195  35.018  22.826  1.00  0.00     0.027 C 
BRANCH   3   4
ATOM      4  C   UNL     1      29.527  35.785  22.800  1.00  0.00     0.004 C 
BRANCH   4   5
ATOM      5  C   UNL     1      29.986  36.119  21.372  1.00  0.00     0.000 C 
BRANCH   5   6
ATOM      6  C   UNL     1      31.377  35.545  21.050  1.00  0.00     0.000 C 
BRANCH   6   7
ATOM      7  C   UNL     1      31.310  34.195  20.313  1.00  0.00     0.000 C 
BRANCH   7   8
ATOM      8  C   UNL     1      31.476  32.954  21.214  1.00  0.00     0.006 C 
BRANCH   8   9
ATOM      9  C   UNL     1      32.182  33.226  22.552  1.00  0.00     0.053 C 
BRANCH   9  10
ATOM     10  C   UNL     1      32.746  31.975  23.153  1.00  0.00     0.041 C 
ATOM     11  O   UNL     1      32.940  30.959  22.434  1.00  0.00    -0.550 OA
ATOM     12  O   UNL     1      33.088  31.942  24.499  1.00  0.00    -0.550 OA
ENDBRANCH   9  10
ENDBRANCH   8   9
ENDBRANCH   7   8
ENDBRANCH   6   7
ENDBRANCH   5   6
ENDBRANCH   4   5
ENDBRANCH   3   4
ENDBRANCH   1   3
BRANCH   2  13
ATOM     13  C   UNL     1      27.380  32.730  19.798  1.00  0.00     0.027 C 
BRANCH  13  14
ATOM     14  C   UNL     1      26.259  33.582  19.190  1.00  0.00     0.004 C 
BRANCH  14  15
ATOM     15  C   UNL     1      24.923  32.830  19.215  1.00  0.00     0.000 C 
BRANCH  15  16
ATOM     16  C   UNL     1      23.844  33.645  19.940  1.00  0.00     0.000 C 
BRANCH  16  17
ATOM     17  C   UNL     1      22.647  32.761  20.317  1.00  0.00    -0.000 C 
BRANCH  17  18
ATOM     18  C   UNL     1      21.656  32.579  19.156  1.00  0.00    -0.000 C 
BRANCH  18  19
ATOM     19  C   UNL     1      21.769  31.199  18.493  1.00  0.00    -0.003 C 
ATOM     20  C   UNL     1      20.403  30.526  18.388  1.00  0.00     0.004 C 
ENDBRANCH  18  19
ENDBRANCH  17  18
ENDBRANCH  16  17
ENDBRANCH  15  16
ENDBRANCH  14  15
ENDBRANCH  13  14
ENDBRANCH   2  13
TORSDOF 15
ENDMDL
MODEL 2
REMARK VINA RESULT:    -4.483     11.086     13.294
REMARK INTER + INTRA:         -10.021
REMARK INTER:                  -6.965
REMARK INTRA:                  -3.056
REMARK UNBOUND:                -1.607
REMARK SMILES CCCCCCCCC=CCCCCCCCC(=O)[O-]
REMARK SMILES IDX 10 1 9 2 11 3 12 4 13 5 14 6 15 7 16 8 17 9 18 10 19 11
REMARK SMILES IDX 20 12 8 13 7 14 6 15 5 16 4 17 3 18 2 19 1 20
REMARK H PARENT
REMARK Flexibility Score: inf
ROOT
ATOM      1  C   UNL     1      20.240  24.736  20.753  1.00  0.00    -0.031 C 
ATOM      2  C   UNL     1      19.668  24.228  19.650  1.00  0.00    -0.031 C 
ENDROOT
BRANCH   1   3
ATOM      3  C   UNL     1      21.553  25.466  20.694  1.00  0.00     0.027 C 
BRANCH   3   4
ATOM      4  C   UNL     1      22.713  24.555  21.126  1.00  0.00     0.004 C 
BRANCH   4   5
ATOM      5  C   UNL     1      22.321  23.604  22.268  1.00  0.00     0.000 C 
BRANCH   5   6
ATOM      6  C   UNL     1      22.818  24.094  23.640  1.00  0.00     0.000 C 
BRANCH   6   7
ATOM      7  C   UNL     1      21.678  24.599  24.543  1.00  0.00     0.000 C 
BRANCH   7   8
ATOM      8  C   UNL     1      20.287  24.013  24.224  1.00  0.00     0.006 C 
BRANCH   8   9
ATOM      9  C   UNL     1      19.107  24.909  24.631  1.00  0.00     0.053 C 
BRANCH   9  10
ATOM     10  C   UNL     1      19.414  26.363  24.438  1.00  0.00     0.041 C 
ATOM     11  O   UNL     1      19.449  26.853  23.278  1.00  0.00    -0.550 OA
ATOM     12  O   UNL     1      19.627  27.182  25.539  1.00  0.00    -0.550 OA
ENDBRANCH   9  10
ENDBRANCH   8   9
ENDBRANCH   7   8
ENDBRANCH   6   7
ENDBRANCH   5   6
ENDBRANCH   4   5
ENDBRANCH   3   4
ENDBRANCH   1   3
BRANCH   2  13
ATOM     13  C   UNL     1      18.355  23.496  19.711  1.00  0.00     0.027 C 
BRANCH  13  14
ATOM     14  C   UNL     1      17.952  23.200  21.160  1.00  0.00     0.004 C 
BRANCH  14  15
ATOM     15  C   UNL     1      17.967  21.691  21.436  1.00  0.00     0.000 C 
BRANCH  15  16
ATOM     16  C   UNL     1      19.341  21.238  21.945  1.00  0.00     0.000 C 
BRANCH  16  17
ATOM     17  C   UNL     1      19.985  20.238  20.974  1.00  0.00    -0.000 C 
BRANCH  17  18
ATOM     18  C   UNL     1      21.328  20.736  20.416  1.00  0.00    -0.000 C 
BRANCH  18  19
ATOM     19  C   UNL     1      21.245  21.124  18.933  1.00  0.00    -0.003 C 
ATOM     20  C   UNL     1      20.059  20.445  18.252  1.00  0.00     0.004 C 
ENDBRANCH  18  19
ENDBRANCH  17  18
ENDBRANCH  16  17
ENDBRANCH  15  16
ENDBRANCH  14  15
ENDBRANCH  13  14
ENDBRANCH   2  13
TORSDOF 15
ENDMDL
MODEL 3
REMARK VINA RESULT:    -4.445      1.150      1.923
REMARK INTER + INTRA:          -9.951
REMARK INTER:                  -7.912
REMARK INTRA:                  -2.039
REMARK UNBOUND:                -1.607
REMARK SMILES CCCCCCCCC=CCCCCCCCC(=O)[O-]
REMARK SMILES IDX 10 1 9 2 11 3 12 4 13 5 14 6 15 7 16 8 17 9 18 10 19 11
REMARK SMILES IDX 20 12 8 13 7 14 6 15 5 16 4 17 3 18 2 19 1 20
REMARK H PARENT
REMARK Flexibility Score: inf
ROOT
ATOM      1  C   UNL     1      28.552  35.052  22.431  1.00  0.00    -0.031 C 
ATOM      2  C   UNL     1      27.969  35.113  21.223  1.00  0.00    -0.031 C 
ENDROOT
BRANCH   1   3
ATOM      3  C   UNL     1      29.755  35.889  22.767  1.00  0.00     0.027 C 
BRANCH   3   4
ATOM      4  C   UNL     1      30.115  36.831  21.607  1.00  0.00     0.004 C 
BRANCH   4   5
ATOM      5  C   UNL     1      31.398  36.404  20.878  1.00  0.00     0.000 C 
BRANCH   5   6
ATOM      6  C   UNL     1      31.115  35.791  19.496  1.00  0.00     0.000 C 
BRANCH   6   7
ATOM      7  C   UNL     1      31.678  34.366  19.347  1.00  0.00     0.000 C 
BRANCH   7   8
ATOM      8  C   UNL     1      30.726  33.240  19.800  1.00  0.00     0.006 C 
BRANCH   8   9
ATOM      9  C   UNL     1      31.038  32.660  21.189  1.00  0.00     0.053 C 
BRANCH   9  10
ATOM     10  C   UNL     1      32.169  31.679  21.147  1.00  0.00     0.041 C 
ATOM     11  O   UNL     1      32.520  31.165  20.052  1.00  0.00    -0.550 OA
ATOM     12  O   UNL     1      32.858  31.359  22.310  1.00  0.00    -0.550 OA
ENDBRANCH   9  10
ENDBRANCH   8   9
ENDBRANCH   7   8
ENDBRANCH   6   7
ENDBRANCH   5   6
ENDBRANCH   4   5
ENDBRANCH   3   4
ENDBRANCH   1   3
BRANCH   2  13
ATOM     13  C   UNL     1      26.766  34.275  20.888  1.00  0.00     0.027 C 
BRANCH  13  14
ATOM     14  C   UNL     1      27.156  32.809  20.664  1.00  0.00     0.004 C 
BRANCH  14  15
ATOM     15  C   UNL     1      26.189  32.126  19.690  1.00  0.00     0.000 C 
BRANCH  15  16
ATOM     16  C   UNL     1      25.676  33.116  18.637  1.00  0.00     0.000 C 
BRANCH  16  17
ATOM     17  C   UNL     1      24.154  33.003  18.471  1.00  0.00    -0.000 C 
BRANCH  17  18
ATOM     18  C   UNL     1      23.384  33.545  19.685  1.00  0.00    -0.000 C 
BRANCH  18  19
ATOM     19  C   UNL     1      22.539  32.467  20.379  1.00  0.00    -0.003 C 
ATOM     20  C   UNL     1      21.687  31.702  19.370  1.00  0.00     0.004 C 
ENDBRANCH  18  19
ENDBRANCH  17  18
ENDBRANCH  16  17
ENDBRANCH  15  16
ENDBRANCH  14  15
ENDBRANCH  13  14
ENDBRANCH   2  13
TORSDOF 15
ENDMDL
MODEL 4
REMARK VINA RESULT:    -4.439      3.717      7.794
REMARK INTER + INTRA:          -9.938
REMARK INTER:                  -7.451
REMARK INTRA:                  -2.488
REMARK UNBOUND:                -1.607
REMARK SMILES CCCCCCCCC=CCCCCCCCC(=O)[O-]
REMARK SMILES IDX 10 1 9 2 11 3 12 4 13 5 14 6 15 7 16 8 17 9 18 10 19 11
REMARK SMILES IDX 20 12 8 13 7 14 6 15 5 16 4 17 3 18 2 19 1 20
REMARK H PARENT
REMARK Flexibility Score: inf
ROOT
ATOM      1  C   UNL     1      29.349  35.359  22.325  1.00  0.00    -0.031 C 
ATOM      2  C   UNL     1      29.559  36.052  21.195  1.00  0.00    -0.031 C 
ENDROOT
BRANCH   1   3
ATOM      3  C   UNL     1      27.969  34.931  22.740  1.00  0.00     0.027 C 
BRANCH   3   4
ATOM      4  C   UNL     1      27.151  34.450  21.530  1.00  0.00     0.004 C 
BRANCH   4   5
ATOM      5  C   UNL     1      27.423  32.979  21.183  1.00  0.00     0.000 C 
BRANCH   5   6
ATOM      6  C   UNL     1      26.986  32.620  19.752  1.00  0.00     0.000 C 
BRANCH   6   7
ATOM      7  C   UNL     1      26.264  33.778  19.040  1.00  0.00     0.000 C 
BRANCH   7   8
ATOM      8  C   UNL     1      24.768  33.531  18.752  1.00  0.00     0.006 C 
BRANCH   8   9
ATOM      9  C   UNL     1      23.831  33.844  19.929  1.00  0.00     0.053 C 
BRANCH   9  10
ATOM     10  C   UNL     1      22.613  32.972  19.924  1.00  0.00     0.041 C 
ATOM     11  O   UNL     1      22.504  32.033  20.757  1.00  0.00    -0.550 OA
ATOM     12  O   UNL     1      21.585  33.216  19.023  1.00  0.00    -0.550 OA
ENDBRANCH   9  10
ENDBRANCH   8   9
ENDBRANCH   7   8
ENDBRANCH   6   7
ENDBRANCH   5   6
ENDBRANCH   4   5
ENDBRANCH   3   4
ENDBRANCH   1   3
BRANCH   2  13
ATOM     13  C   UNL     1      30.940  36.482  20.781  1.00  0.00     0.027 C 
BRANCH  13  14
ATOM     14  C   UNL     1      31.398  35.736  19.522  1.00  0.00     0.004 C 
BRANCH  14  15
ATOM     15  C   UNL     1      30.212  35.062  18.821  1.00  0.00     0.000 C 
BRANCH  15  16
ATOM     16  C   UNL     1      30.471  33.564  18.617  1.00  0.00     0.000 C 
BRANCH  16  17
ATOM     17  C   UNL     1      31.629  33.081  19.501  1.00  0.00    -0.000 C 
BRANCH  17  18
ATOM     18  C   UNL     1      31.146  32.380  20.780  1.00  0.00    -0.000 C 
BRANCH  18  19
ATOM     19  C   UNL     1      31.949  32.794  22.021  1.00  0.00    -0.003 C 
ATOM     20  C   UNL     1      32.576  31.580  22.702  1.00  0.00     0.004 C 
ENDBRANCH  18  19
ENDBRANCH  17  18
ENDBRANCH  16  17
ENDBRANCH  15  16
ENDBRANCH  14  15
ENDBRANCH  13  14
ENDBRANCH   2  13
TORSDOF 15
ENDMDL
MODEL 5
REMARK VINA RESULT:    -4.390     10.251     12.790
REMARK INTER + INTRA:          -9.847
REMARK INTER:                  -6.792
REMARK INTRA:                  -3.055
REMARK UNBOUND:                -1.607
REMARK SMILES CCCCCCCCC=CCCCCCCCC(=O)[O-]
REMARK SMILES IDX 10 1 9 2 11 3 12 4 13 5 14 6 15 7 16 8 17 9 18 10 19 11
REMARK SMILES IDX 20 12 8 13 7 14 6 15 5 16 4 17 3 18 2 19 1 20
REMARK H PARENT
REMARK Flexibility Score: inf
ROOT
ATOM      1  C   UNL     1      18.359  24.536  22.968  1.00  0.00    -0.031 C 
ATOM      2  C   UNL     1      18.814  23.304  22.690  1.00  0.00    -0.031 C 
ENDROOT
BRANCH   1   3
ATOM      3  C   UNL     1      18.750  25.253  24.230  1.00  0.00     0.027 C 
BRANCH   3   4
ATOM      4  C   UNL     1      19.585  26.506  23.918  1.00  0.00     0.004 C 
BRANCH   4   5
ATOM      5  C   UNL     1      19.651  26.809  22.413  1.00  0.00     0.000 C 
BRANCH   5   6
ATOM      6  C   UNL     1      21.095  26.847  21.882  1.00  0.00     0.000 C 
BRANCH   6   7
ATOM      7  C   UNL     1      21.459  25.601  21.053  1.00  0.00     0.000 C 
BRANCH   7   8
ATOM      8  C   UNL     1      22.717  24.847  21.532  1.00  0.00     0.006 C 
BRANCH   8   9
ATOM      9  C   UNL     1      22.446  23.749  22.572  1.00  0.00     0.053 C 
BRANCH   9  10
ATOM     10  C   UNL     1      22.593  24.256  23.974  1.00  0.00     0.041 C 
ATOM     11  O   UNL     1      23.497  25.086  24.255  1.00  0.00    -0.550 OA
ATOM     12  O   UNL     1      21.711  23.837  24.962  1.00  0.00    -0.550 OA
ENDBRANCH   9  10
ENDBRANCH   8   9
ENDBRANCH   7   8
ENDBRANCH   6   7
ENDBRANCH   5   6
ENDBRANCH   4   5
ENDBRANCH   3   4
ENDBRANCH   1   3
BRANCH   2  13
ATOM     13  C   UNL     1      18.421  22.587  21.428  1.00  0.00     0.027 C 
BRANCH  13  14
ATOM     14  C   UNL     1      18.645  23.470  20.195  1.00  0.00     0.004 C 
BRANCH  14  15
ATOM     15  C   UNL     1      19.144  22.639  19.007  1.00  0.00     0.000 C 
BRANCH  15  16
ATOM     16  C   UNL     1      20.676  22.651  18.930  1.00  0.00     0.000 C 
BRANCH  16  17
ATOM     17  C   UNL     1      21.245  21.233  19.084  1.00  0.00    -0.000 C 
BRANCH  17  18
ATOM     18  C   UNL     1      21.580  20.884  20.543  1.00  0.00    -0.000 C 
BRANCH  18  19
ATOM     19  C   UNL     1      20.994  19.534  20.977  1.00  0.00    -0.003 C 
ATOM     20  C   UNL     1      19.714  19.217  20.208  1.00  0.00     0.004 C 
ENDBRANCH  18  19
ENDBRANCH  17  18
ENDBRANCH  16  17
ENDBRANCH  15  16
ENDBRANCH  14  15
ENDBRANCH  13  14
ENDBRANCH   2  13
TORSDOF 15
ENDMDL
MODEL 6
REMARK VINA RESULT:    -4.263     10.904     13.226
REMARK INTER + INTRA:          -9.609
REMARK INTER:                  -6.808
REMARK INTRA:                  -2.801
REMARK UNBOUND:                -1.607
REMARK SMILES CCCCCCCCC=CCCCCCCCC(=O)[O-]
REMARK SMILES IDX 10 1 9 2 11 3 12 4 13 5 14 6 15 7 16 8 17 9 18 10 19 11
REMARK SMILES IDX 20 12 8 13 7 14 6 15 5 16 4 17 3 18 2 19 1 20
REMARK H PARENT
REMARK Flexibility Score: inf
ROOT
ATOM      1  C   UNL     1      21.139  26.505  21.280  1.00  0.00    -0.031 C 
ATOM      2  C   UNL     1      21.516  25.314  20.790  1.00  0.00    -0.031 C 
ENDROOT
BRANCH   1   3
ATOM      3  C   UNL     1      19.852  27.159  20.860  1.00  0.00     0.027 C 
BRANCH   3   4
ATOM      4  C   UNL     1      18.691  26.151  20.871  1.00  0.00     0.004 C 
BRANCH   4   5
ATOM      5  C   UNL     1      18.074  25.949  19.478  1.00  0.00     0.000 C 
BRANCH   5   6
ATOM      6  C   UNL     1      17.967  24.464  19.091  1.00  0.00     0.000 C 
BRANCH   6   7
ATOM      7  C   UNL     1      19.260  23.916  18.461  1.00  0.00     0.000 C 
BRANCH   7   8
ATOM      8  C   UNL     1      19.757  22.580  19.053  1.00  0.00     0.006 C 
BRANCH   8   9
ATOM      9  C   UNL     1      19.414  22.373  20.536  1.00  0.00     0.053 C 
BRANCH   9  10
ATOM     10  C   UNL     1      20.108  21.176  21.111  1.00  0.00     0.041 C 
ATOM     11  O   UNL     1      19.538  20.478  21.991  1.00  0.00    -0.550 OA
ATOM     12  O   UNL     1      21.366  20.812  20.650  1.00  0.00    -0.550 OA
ENDBRANCH   9  10
ENDBRANCH   8   9
ENDBRANCH   7   8
ENDBRANCH   6   7
ENDBRANCH   5   6
ENDBRANCH   4   5
ENDBRANCH   3   4
ENDBRANCH   1   3
BRANCH   2  13
ATOM     13  C   UNL     1      22.804  24.662  21.210  1.00  0.00     0.027 C 
BRANCH  13  14
ATOM     14  C   UNL     1      22.581  23.699  22.383  1.00  0.00     0.004 C 
BRANCH  14  15
ATOM     15  C   UNL     1      22.694  24.433  23.725  1.00  0.00     0.000 C 
BRANCH  15  16
ATOM     16  C   UNL     1      21.544  24.046  24.663  1.00  0.00     0.000 C 
BRANCH  16  17
ATOM     17  C   UNL     1      20.221  23.929  23.893  1.00  0.00    -0.000 C 
BRANCH  17  18
ATOM     18  C   UNL     1      19.148  24.903  24.406  1.00  0.00    -0.000 C 
BRANCH  18  19
ATOM     19  C   UNL     1      19.681  26.332  24.579  1.00  0.00    -0.003 C 
ATOM     20  C   UNL     1      19.029  27.021  25.775  1.00  0.00     0.004 C 
ENDBRANCH  18  19
ENDBRANCH  17  18
ENDBRANCH  16  17
ENDBRANCH  15  16
ENDBRANCH  14  15
ENDBRANCH  13  14
ENDBRANCH   2  13
TORSDOF 15
ENDMDL
MODEL 7
REMARK VINA RESULT:    -4.130     10.765     13.506
REMARK INTER + INTRA:          -9.358
REMARK INTER:                  -6.789
REMARK INTRA:                  -2.569
REMARK UNBOUND:                -1.607
REMARK SMILES CCCCCCCCC=CCCCCCCCC(=O)[O-]
REMARK SMILES IDX 10 1 9 2 11 3 12 4 13 5 14 6 15 7 16 8 17 9 18 10 19 11
REMARK SMILES IDX 20 12 8 13 7 14 6 15 5 16 4 17 3 18 2 19 1 20
REMARK H PARENT
REMARK Flexibility Score: inf
ROOT
ATOM      1  C   UNL     1      22.599  24.859  21.766  1.00  0.00    -0.031 C 
ATOM      2  C   UNL     1      22.387  23.934  22.715  1.00  0.00    -0.031 C 
ENDROOT
BRANCH   1   3
ATOM      3  C   UNL     1      22.424  24.544  20.307  1.00  0.00     0.027 C 
BRANCH   3   4
ATOM      4  C   UNL     1      21.296  23.523  20.092  1.00  0.00     0.004 C 
BRANCH   4   5
ATOM      5  C   UNL     1      20.454  23.828  18.844  1.00  0.00     0.000 C 
BRANCH   5   6
ATOM      6  C   UNL     1      20.131  22.566  18.027  1.00  0.00     0.000 C 
BRANCH   6   7
ATOM      7  C   UNL     1      20.979  21.350  18.445  1.00  0.00     0.000 C 
BRANCH   7   8
ATOM      8  C   UNL     1      20.174  20.069  18.748  1.00  0.00     0.006 C 
BRANCH   8   9
ATOM      9  C   UNL     1      19.146  20.214  19.880  1.00  0.00     0.053 C 
BRANCH   9  10
ATOM     10  C   UNL     1      19.795  20.231  21.230  1.00  0.00     0.041 C 
ATOM     11  O   UNL     1      19.532  21.153  22.047  1.00  0.00    -0.550 OA
ATOM     12  O   UNL     1      20.664  19.212  21.598  1.00  0.00    -0.550 OA
ENDBRANCH   9  10
ENDBRANCH   8   9
ENDBRANCH   7   8
ENDBRANCH   6   7
ENDBRANCH   5   6
ENDBRANCH   4   5
ENDBRANCH   3   4
ENDBRANCH   1   3
BRANCH   2  13
ATOM     13  C   UNL     1      22.563  24.249  24.175  1.00  0.00     0.027 C 
BRANCH  13  14
ATOM     14  C   UNL     1      21.330  24.965  24.740  1.00  0.00     0.004 C 
BRANCH  14  15
ATOM     15  C   UNL     1      20.056  24.151  24.480  1.00  0.00     0.000 C 
BRANCH  15  16
ATOM     16  C   UNL     1      18.890  25.065  24.082  1.00  0.00     0.000 C 
BRANCH  16  17
ATOM     17  C   UNL     1      19.355  26.155  23.106  1.00  0.00    -0.000 C 
BRANCH  17  18
ATOM     18  C   UNL     1      18.902  25.890  21.661  1.00  0.00    -0.000 C 
BRANCH  18  19
ATOM     19  C   UNL     1      19.397  26.962  20.680  1.00  0.00    -0.003 C 
ATOM     20  C   UNL     1      20.647  27.659  21.212  1.00  0.00     0.004 C 
ENDBRANCH  18  19
ENDBRANCH  17  18
ENDBRANCH  16  17
ENDBRANCH  15  16
ENDBRANCH  14  15
ENDBRANCH  13  14
ENDBRANCH   2  13
TORSDOF 15
ENDMDL
MODEL 8
REMARK VINA RESULT:    -4.099     10.675     13.326
REMARK INTER + INTRA:          -9.301
REMARK INTER:                  -6.410
REMARK INTRA:                  -2.891
REMARK UNBOUND:                -1.607
REMARK SMILES CCCCCCCCC=CCCCCCCCC(=O)[O-]
REMARK SMILES IDX 10 1 9 2 11 3 12 4 13 5 14 6 15 7 16 8 17 9 18 10 19 11
REMARK SMILES IDX 20 12 8 13 7 14 6 15 5 16 4 17 3 18 2 19 1 20
REMARK H PARENT
REMARK Flexibility Score: inf
ROOT
ATOM      1  C   UNL     1      19.320  23.128  21.885  1.00  0.00    -0.031 C 
ATOM      2  C   UNL     1      18.468  23.431  20.892  1.00  0.00    -0.031 C 
ENDROOT
BRANCH   1   3
ATOM      3  C   UNL     1      18.854  22.448  23.142  1.00  0.00     0.027 C 
BRANCH   3   4
ATOM      4  C   UNL     1      19.450  23.122  24.388  1.00  0.00     0.004 C 
BRANCH   4   5
ATOM      5  C   UNL     1      19.059  24.603  24.500  1.00  0.00     0.000 C 
BRANCH   5   6
ATOM      6  C   UNL     1      20.282  25.528  24.621  1.00  0.00     0.000 C 
BRANCH   6   7
ATOM      7  C   UNL     1      20.325  26.610  23.526  1.00  0.00     0.000 C 
BRANCH   7   8
ATOM      8  C   UNL     1      21.244  26.288  22.330  1.00  0.00     0.006 C 
BRANCH   8   9
ATOM      9  C   UNL     1      22.407  25.338  22.656  1.00  0.00     0.053 C 
BRANCH   9  10
ATOM     10  C   UNL     1      22.623  24.323  21.575  1.00  0.00     0.041 C 
ATOM     11  O   UNL     1      22.437  24.635  20.369  1.00  0.00    -0.550 OA
ATOM     12  O   UNL     1      23.061  23.045  21.896  1.00  0.00    -0.550 OA
ENDBRANCH   9  10
ENDBRANCH   8   9
ENDBRANCH   7   8
ENDBRANCH   6   7
ENDBRANCH   5   6
ENDBRANCH   4   5
ENDBRANCH   3   4
ENDBRANCH   1   3
BRANCH   2  13
ATOM     13  C   UNL     1      18.935  24.112  19.635  1.00  0.00     0.027 C 
BRANCH  13  14
ATOM     14  C   UNL     1      18.949  23.139  18.450  1.00  0.00     0.004 C 
BRANCH  14  15
ATOM     15  C   UNL     1      20.385  22.844  18.000  1.00  0.00     0.000 C 
BRANCH  15  16
ATOM     16  C   UNL     1      20.729  21.361  18.190  1.00  0.00     0.000 C 
BRANCH  16  17
ATOM     17  C   UNL     1      21.494  21.138  19.502  1.00  0.00    -0.000 C 
BRANCH  17  18
ATOM     18  C   UNL     1      20.768  20.176  20.456  1.00  0.00    -0.000 C 
BRANCH  18  19
ATOM     19  C   UNL     1      19.590  19.456  19.785  1.00  0.00    -0.003 C 
ATOM     20  C   UNL     1      18.287  19.714  20.539  1.00  0.00     0.004 C 
ENDBRANCH  18  19
ENDBRANCH  17  18
ENDBRANCH  16  17
ENDBRANCH  15  16
ENDBRANCH  14  15
ENDBRANCH  13  14
ENDBRANCH   2  13
TORSDOF 15
ENDMDL
