MODEL 1
REMARK VINA RESULT:    -4.809      0.000      0.000
REMARK INTER + INTRA:          -9.752
REMARK INTER:                  -8.745
REMARK INTRA:                  -1.008
REMARK UNBOUND:                -1.008
REMARK SMILES CCCCCC=CCC=CCCCCCCCC(=O)[O-]
REMARK SMILES IDX 11 1 12 2 13 3 14 4 15 5 16 6 17 7 18 8 19 9 20 10 10 11
REMARK SMILES IDX 9 12 8 13 7 14 6 15 5 16 4 17 3 18 2 19 1 20
REMARK H PARENT
REMARK Flexibility Score: inf
ROOT
ATOM      1  C   UNL     1      -9.845   1.060 -36.210  1.00  0.00     0.027 C 
ENDROOT
BRANCH   1   2
ATOM      2  C   UNL     1     -11.280   1.503 -36.518  1.00  0.00     0.004 C 
BRANCH   2   3
ATOM      3  C   UNL     1     -11.894   2.248 -35.326  1.00  0.00     0.000 C 
BRANCH   3   4
ATOM      4  C   UNL     1     -10.870   2.415 -34.194  1.00  0.00     0.000 C 
BRANCH   4   5
ATOM      5  C   UNL     1     -11.537   2.461 -32.804  1.00  0.00     0.000 C 
BRANCH   5   6
ATOM      6  C   UNL     1     -11.196   3.725 -31.997  1.00  0.00     0.006 C 
BRANCH   6   7
ATOM      7  C   UNL     1      -9.745   4.181 -32.188  1.00  0.00     0.053 C 
BRANCH   7   8
ATOM      8  C   UNL     1      -9.535   5.530 -31.576  1.00  0.00     0.041 C 
ATOM      9  O   UNL     1      -9.106   5.631 -30.397  1.00  0.00    -0.550 OA
ATOM     10  O   UNL     1      -9.853   6.676 -32.293  1.00  0.00    -0.550 OA
ENDBRANCH   7   8
ENDBRANCH   6   7
ENDBRANCH   5   6
ENDBRANCH   4   5
ENDBRANCH   3   4
ENDBRANCH   2   3
ENDBRANCH   1   2
BRANCH   1  11
ATOM     11  C   UNL     1      -9.324   0.131 -37.271  1.00  0.00    -0.031 C 
ATOM     12  C   UNL     1     -10.140  -0.707 -37.930  1.00  0.00    -0.027 C 
BRANCH  12  13
ATOM     13  C   UNL     1      -9.623  -1.629 -39.001  1.00  0.00     0.054 C 
BRANCH  13  14
ATOM     14  C   UNL     1      -8.161  -1.389 -39.278  1.00  0.00    -0.027 C 
ATOM     15  C   UNL     1      -7.297  -2.330 -39.699  1.00  0.00    -0.031 C 
BRANCH  15  16
ATOM     16  C   UNL     1      -7.661  -3.762 -40.007  1.00  0.00     0.027 C 
BRANCH  16  17
ATOM     17  C   UNL     1      -6.414  -4.636 -40.226  1.00  0.00     0.004 C 
BRANCH  17  18
ATOM     18  C   UNL     1      -5.118  -4.017 -39.669  1.00  0.00     0.000 C 
BRANCH  18  19
ATOM     19  C   UNL     1      -4.408  -4.922 -38.654  1.00  0.00    -0.003 C 
ATOM     20  C   UNL     1      -5.303  -5.207 -37.450  1.00  0.00     0.004 C 
ENDBRANCH  18  19
ENDBRANCH  17  18
ENDBRANCH  16  17
ENDBRANCH  15  16
ENDBRANCH  13  14
ENDBRANCH  12  13
ENDBRANCH   1  11
TORSDOF 14
ENDMDL
MODEL 2
REMARK VINA RESULT:    -4.786      4.594     10.352
REMARK INTER + INTRA:          -9.710
REMARK INTER:                  -8.832
REMARK INTRA:                  -0.879
REMARK UNBOUND:                -1.008
REMARK SMILES CCCCCC=CCC=CCCCCCCCC(=O)[O-]
REMARK SMILES IDX 11 1 12 2 13 3 14 4 15 5 16 6 17 7 18 8 19 9 20 10 10 11
REMARK SMILES IDX 9 12 8 13 7 14 6 15 5 16 4 17 3 18 2 19 1 20
REMARK H PARENT
REMARK Flexibility Score: inf
ROOT
ATOM      1  C   UNL     1      -9.125  -0.005 -37.790  1.00  0.00     0.027 C 
ENDROOT
BRANCH   1   2
ATOM      2  C   UNL     1     -10.093  -1.109 -38.232  1.00  0.00     0.004 C 
BRANCH   2   3
ATOM      3  C   UNL     1      -9.474  -1.972 -39.339  1.00  0.00     0.000 C 
BRANCH   3   4
ATOM      4  C   UNL     1      -7.960  -2.130 -39.132  1.00  0.00     0.000 C 
BRANCH   4   5
ATOM      5  C   UNL     1      -7.259  -2.725 -40.371  1.00  0.00     0.000 C 
BRANCH   5   6
ATOM      6  C   UNL     1      -6.764  -4.167 -40.167  1.00  0.00     0.006 C 
BRANCH   6   7
ATOM      7  C   UNL     1      -5.258  -4.321 -40.412  1.00  0.00     0.053 C 
BRANCH   7   8
ATOM      8  C   UNL     1      -4.549  -4.638 -39.134  1.00  0.00     0.041 C 
ATOM      9  O   UNL     1      -5.113  -4.427 -38.028  1.00  0.00    -0.550 OA
ATOM     10  O   UNL     1      -3.249  -5.125 -39.162  1.00  0.00    -0.550 OA
ENDBRANCH   7   8
ENDBRANCH   6   7
ENDBRANCH   5   6
ENDBRANCH   4   5
ENDBRANCH   3   4
ENDBRANCH   2   3
ENDBRANCH   1   2
BRANCH   1  11
ATOM     11  C   UNL     1      -9.714   0.819 -36.680  1.00  0.00    -0.031 C 
ATOM     12  C   UNL     1     -10.858   1.502 -36.844  1.00  0.00    -0.027 C 
BRANCH  12  13
ATOM     13  C   UNL     1     -11.456   2.318 -35.731  1.00  0.00     0.054 C 
BRANCH  13  14
ATOM     14  C   UNL     1     -10.606   2.262 -34.487  1.00  0.00    -0.027 C 
ATOM     15  C   UNL     1     -10.177   3.339 -33.803  1.00  0.00    -0.031 C 
BRANCH  15  16
ATOM     16  C   UNL     1     -10.518   4.770 -34.142  1.00  0.00     0.027 C 
BRANCH  16  17
ATOM     17  C   UNL     1      -9.813   5.764 -33.203  1.00  0.00     0.004 C 
BRANCH  17  18
ATOM     18  C   UNL     1     -10.085   5.505 -31.710  1.00  0.00     0.000 C 
BRANCH  18  19
ATOM     19  C   UNL     1      -9.154   6.298 -30.783  1.00  0.00    -0.003 C 
ATOM     20  C   UNL     1      -8.464   7.433 -31.536  1.00  0.00     0.004 C 
ENDBRANCH  18  19
ENDBRANCH  17  18
ENDBRANCH  16  17
ENDBRANCH  15  16
ENDBRANCH  13  14
ENDBRANCH  12  13
ENDBRANCH   1  11
TORSDOF 14
ENDMDL
MODEL 3
REMARK VINA RESULT:    -4.753     12.539     15.640
REMARK INTER + INTRA:          -9.651
REMARK INTER:                  -7.348
REMARK INTRA:                  -2.303
REMARK UNBOUND:                -1.008
REMARK SMILES CCCCCC=CCC=CCCCCCCCC(=O)[O-]
REMARK SMILES IDX 11 1 12 2 13 3 14 4 15 5 16 6 17 7 18 8 19 9 20 10 10 11
REMARK SMILES IDX 9 12 8 13 7 14 6 15 5 16 4 17 3 18 2 19 1 20
REMARK H PARENT
REMARK Flexibility Score: inf
ROOT
ATOM      1  C   UNL     1       1.941  -6.456 -34.220  1.00  0.00     0.027 C 
ENDROOT
BRANCH   1   2
ATOM      2  C   UNL     1       2.169  -7.868 -34.774  1.00  0.00     0.004 C 
BRANCH   2   3
ATOM      3  C   UNL     1       3.466  -8.473 -34.222  1.00  0.00     0.000 C 
BRANCH   3   4
ATOM      4  C   UNL     1       4.191  -7.477 -33.304  1.00  0.00     0.000 C 
BRANCH   4   5
ATOM      5  C   UNL     1       5.615  -7.154 -33.802  1.00  0.00     0.000 C 
BRANCH   5   6
ATOM      6  C   UNL     1       5.676  -5.952 -34.760  1.00  0.00     0.006 C 
BRANCH   6   7
ATOM      7  C   UNL     1       5.832  -6.367 -36.228  1.00  0.00     0.053 C 
BRANCH   7   8
ATOM      8  C   UNL     1       4.791  -5.704 -37.073  1.00  0.00     0.041 C 
ATOM      9  O   UNL     1       4.006  -4.860 -36.566  1.00  0.00    -0.550 OA
ATOM     10  O   UNL     1       4.658  -6.051 -38.412  1.00  0.00    -0.550 OA
ENDBRANCH   7   8
ENDBRANCH   6   7
ENDBRANCH   5   6
ENDBRANCH   4   5
ENDBRANCH   3   4
ENDBRANCH   2   3
ENDBRANCH   1   2
BRANCH   1  11
ATOM     11  C   UNL     1       0.619  -6.360 -33.510  1.00  0.00    -0.031 C 
ATOM     12  C   UNL     1      -0.063  -7.458 -33.147  1.00  0.00    -0.027 C 
BRANCH  12  13
ATOM     13  C   UNL     1      -1.380  -7.363 -32.426  1.00  0.00     0.054 C 
BRANCH  13  14
ATOM     14  C   UNL     1      -1.437  -6.149 -31.536  1.00  0.00    -0.027 C 
ATOM     15  C   UNL     1      -1.449  -6.185 -30.190  1.00  0.00    -0.031 C 
BRANCH  15  16
ATOM     16  C   UNL     1      -1.358  -7.441 -29.358  1.00  0.00     0.027 C 
BRANCH  16  17
ATOM     17  C   UNL     1      -0.354  -7.291 -28.203  1.00  0.00     0.004 C 
BRANCH  17  18
ATOM     18  C   UNL     1       0.924  -8.130 -28.380  1.00  0.00     0.000 C 
BRANCH  18  19
ATOM     19  C   UNL     1       1.358  -8.263 -29.846  1.00  0.00    -0.003 C 
ATOM     20  C   UNL     1       2.302  -7.132 -30.245  1.00  0.00     0.004 C 
ENDBRANCH  18  19
ENDBRANCH  17  18
ENDBRANCH  16  17
ENDBRANCH  15  16
ENDBRANCH  13  14
ENDBRANCH  12  13
ENDBRANCH   1  11
TORSDOF 14
ENDMDL
MODEL 4
REMARK VINA RESULT:    -4.729      4.518      9.879
REMARK INTER + INTRA:          -9.606
REMARK INTER:                  -8.201
REMARK INTRA:                  -1.405
REMARK UNBOUND:                -1.008
REMARK SMILES CCCCCC=CCC=CCCCCCCCC(=O)[O-]
REMARK SMILES IDX 11 1 12 2 13 3 14 4 15 5 16 6 17 7 18 8 19 9 20 10 10 11
REMARK SMILES IDX 9 12 8 13 7 14 6 15 5 16 4 17 3 18 2 19 1 20
REMARK H PARENT
REMARK Flexibility Score: inf
ROOT
ATOM      1  C   UNL     1      -9.415   0.288 -37.086  1.00  0.00     0.027 C 
ENDROOT
BRANCH   1   2
ATOM      2  C   UNL     1      -9.661  -0.956 -37.948  1.00  0.00     0.004 C 
BRANCH   2   3
ATOM      3  C   UNL     1      -8.392  -1.356 -38.712  1.00  0.00     0.000 C 
BRANCH   3   4
ATOM      4  C   UNL     1      -8.569  -1.141 -40.222  1.00  0.00     0.000 C 
BRANCH   4   5
ATOM      5  C   UNL     1      -8.005  -2.315 -41.050  1.00  0.00     0.000 C 
BRANCH   5   6
ATOM      6  C   UNL     1      -7.972  -3.649 -40.285  1.00  0.00     0.006 C 
BRANCH   6   7
ATOM      7  C   UNL     1      -6.686  -4.447 -40.533  1.00  0.00     0.053 C 
BRANCH   7   8
ATOM      8  C   UNL     1      -5.804  -4.407 -39.325  1.00  0.00     0.041 C 
ATOM      9  O   UNL     1      -6.301  -4.220 -38.184  1.00  0.00    -0.550 OA
ATOM     10  O   UNL     1      -4.428  -4.534 -39.465  1.00  0.00    -0.550 OA
ENDBRANCH   7   8
ENDBRANCH   6   7
ENDBRANCH   5   6
ENDBRANCH   4   5
ENDBRANCH   3   4
ENDBRANCH   2   3
ENDBRANCH   1   2
BRANCH   1  11
ATOM     11  C   UNL     1     -10.655   1.132 -36.987  1.00  0.00    -0.031 C 
ATOM     12  C   UNL     1     -10.875   1.935 -35.934  1.00  0.00    -0.027 C 
BRANCH  12  13
ATOM     13  C   UNL     1     -12.109   2.789 -35.839  1.00  0.00     0.054 C 
BRANCH  13  14
ATOM     14  C   UNL     1     -11.921   4.112 -36.536  1.00  0.00    -0.027 C 
ATOM     15  C   UNL     1     -11.696   5.282 -35.910  1.00  0.00    -0.031 C 
BRANCH  15  16
ATOM     16  C   UNL     1     -11.548   5.450 -34.418  1.00  0.00     0.027 C 
BRANCH  16  17
ATOM     17  C   UNL     1     -10.113   5.154 -33.948  1.00  0.00     0.004 C 
BRANCH  17  18
ATOM     18  C   UNL     1     -10.031   4.090 -32.839  1.00  0.00     0.000 C 
BRANCH  18  19
ATOM     19  C   UNL     1     -11.328   3.966 -32.028  1.00  0.00    -0.003 C 
ATOM     20  C   UNL     1     -11.946   2.579 -32.186  1.00  0.00     0.004 C 
ENDBRANCH  18  19
ENDBRANCH  17  18
ENDBRANCH  16  17
ENDBRANCH  15  16
ENDBRANCH  13  14
ENDBRANCH  12  13
ENDBRANCH   1  11
TORSDOF 14
ENDMDL
MODEL 5
REMARK VINA RESULT:    -4.670     12.674     15.685
REMARK INTER + INTRA:          -9.500
REMARK INTER:                  -6.790
REMARK INTRA:                  -2.710
REMARK UNBOUND:                -1.008
REMARK SMILES CCCCCC=CCC=CCCCCCCCC(=O)[O-]
REMARK SMILES IDX 11 1 12 2 13 3 14 4 15 5 16 6 17 7 18 8 19 9 20 10 10 11
REMARK SMILES IDX 9 12 8 13 7 14 6 15 5 16 4 17 3 18 2 19 1 20
REMARK H PARENT
REMARK Flexibility Score: inf
ROOT
ATOM      1  C   UNL     1       2.976  -7.148 -30.892  1.00  0.00     0.027 C 
ENDROOT
BRANCH   1   2
ATOM      2  C   UNL     1       3.316  -8.643 -30.888  1.00  0.00     0.004 C 
BRANCH   2   3
ATOM      3  C   UNL     1       4.301  -8.986 -32.014  1.00  0.00     0.000 C 
BRANCH   3   4
ATOM      4  C   UNL     1       3.589  -9.711 -33.166  1.00  0.00     0.000 C 
BRANCH   4   5
ATOM      5  C   UNL     1       3.510  -8.845 -34.441  1.00  0.00     0.000 C 
BRANCH   5   6
ATOM      6  C   UNL     1       4.332  -7.548 -34.358  1.00  0.00     0.006 C 
BRANCH   6   7
ATOM      7  C   UNL     1       3.623  -6.350 -35.001  1.00  0.00     0.053 C 
BRANCH   7   8
ATOM      8  C   UNL     1       4.582  -5.560 -35.834  1.00  0.00     0.041 C 
ATOM      9  O   UNL     1       4.157  -4.832 -36.770  1.00  0.00    -0.550 OA
ATOM     10  O   UNL     1       5.948  -5.660 -35.605  1.00  0.00    -0.550 OA
ENDBRANCH   7   8
ENDBRANCH   6   7
ENDBRANCH   5   6
ENDBRANCH   4   5
ENDBRANCH   3   4
ENDBRANCH   2   3
ENDBRANCH   1   2
BRANCH   1  11
ATOM     11  C   UNL     1       1.705  -6.880 -30.135  1.00  0.00    -0.031 C 
ATOM     12  C   UNL     1       1.150  -7.812 -29.344  1.00  0.00    -0.027 C 
BRANCH  12  13
ATOM     13  C   UNL     1      -0.115  -7.541 -28.577  1.00  0.00     0.054 C 
BRANCH  13  14
ATOM     14  C   UNL     1      -0.846  -6.342 -29.122  1.00  0.00    -0.027 C 
ATOM     15  C   UNL     1      -1.792  -6.390 -30.079  1.00  0.00    -0.031 C 
BRANCH  15  16
ATOM     16  C   UNL     1      -2.306  -7.654 -30.723  1.00  0.00     0.027 C 
BRANCH  16  17
ATOM     17  C   UNL     1      -1.942  -7.724 -32.216  1.00  0.00     0.004 C 
BRANCH  17  18
ATOM     18  C   UNL     1      -0.619  -8.461 -32.497  1.00  0.00     0.000 C 
BRANCH  18  19
ATOM     19  C   UNL     1       0.257  -7.748 -33.536  1.00  0.00    -0.003 C 
ATOM     20  C   UNL     1       0.300  -6.244 -33.280  1.00  0.00     0.004 C 
ENDBRANCH  18  19
ENDBRANCH  17  18
ENDBRANCH  16  17
ENDBRANCH  15  16
ENDBRANCH  13  14
ENDBRANCH  12  13
ENDBRANCH   1  11
TORSDOF 14
ENDMDL
MODEL 6
REMARK VINA RESULT:    -4.663      1.141      1.688
REMARK INTER + INTRA:          -9.486
REMARK INTER:                  -8.670
REMARK INTRA:                  -0.816
REMARK UNBOUND:                -1.008
REMARK SMILES CCCCCC=CCC=CCCCCCCCC(=O)[O-]
REMARK SMILES IDX 11 1 12 2 13 3 14 4 15 5 16 6 17 7 18 8 19 9 20 10 10 11
REMARK SMILES IDX 9 12 8 13 7 14 6 15 5 16 4 17 3 18 2 19 1 20
REMARK H PARENT
REMARK Flexibility Score: inf
ROOT
ATOM      1  C   UNL     1     -11.819   2.318 -36.438  1.00  0.00     0.027 C 
ENDROOT
BRANCH   1   2
ATOM      2  C   UNL     1     -11.850   2.797 -34.982  1.00  0.00     0.004 C 
BRANCH   2   3
ATOM      3  C   UNL     1     -10.591   2.350 -34.228  1.00  0.00     0.000 C 
BRANCH   3   4
ATOM      4  C   UNL     1     -10.049   3.482 -33.343  1.00  0.00     0.000 C 
BRANCH   4   5
ATOM      5  C   UNL     1     -11.058   3.910 -32.257  1.00  0.00     0.000 C 
BRANCH   5   6
ATOM      6  C   UNL     1     -10.640   5.175 -31.489  1.00  0.00     0.006 C 
BRANCH   6   7
ATOM      7  C   UNL     1      -9.928   6.203 -32.376  1.00  0.00     0.053 C 
BRANCH   7   8
ATOM      8  C   UNL     1      -8.654   6.655 -31.736  1.00  0.00     0.041 C 
ATOM      9  O   UNL     1      -8.340   6.242 -30.588  1.00  0.00    -0.550 OA
ATOM     10  O   UNL     1      -7.834   7.567 -32.387  1.00  0.00    -0.550 OA
ENDBRANCH   7   8
ENDBRANCH   6   7
ENDBRANCH   5   6
ENDBRANCH   4   5
ENDBRANCH   3   4
ENDBRANCH   2   3
ENDBRANCH   1   2
BRANCH   1  11
ATOM     11  C   UNL     1     -10.773   1.256 -36.636  1.00  0.00    -0.031 C 
ATOM     12  C   UNL     1     -11.008   0.174 -37.395  1.00  0.00    -0.027 C 
BRANCH  12  13
ATOM     13  C   UNL     1      -9.959  -0.884 -37.604  1.00  0.00     0.054 C 
BRANCH  13  14
ATOM     14  C   UNL     1      -8.784  -0.350 -38.381  1.00  0.00    -0.027 C 
ATOM     15  C   UNL     1      -7.961  -1.101 -39.137  1.00  0.00    -0.031 C 
BRANCH  15  16
ATOM     16  C   UNL     1      -8.112  -2.585 -39.367  1.00  0.00     0.027 C 
BRANCH  16  17
ATOM     17  C   UNL     1      -7.138  -3.100 -40.440  1.00  0.00     0.004 C 
BRANCH  17  18
ATOM     18  C   UNL     1      -5.711  -3.345 -39.915  1.00  0.00     0.000 C 
BRANCH  18  19
ATOM     19  C   UNL     1      -5.454  -4.809 -39.534  1.00  0.00    -0.003 C 
ATOM     20  C   UNL     1      -4.058  -4.987 -38.945  1.00  0.00     0.004 C 
ENDBRANCH  18  19
ENDBRANCH  17  18
ENDBRANCH  16  17
ENDBRANCH  15  16
ENDBRANCH  13  14
ENDBRANCH  12  13
ENDBRANCH   1  11
TORSDOF 14
ENDMDL
MODEL 7
REMARK VINA RESULT:    -4.536     12.179     14.731
REMARK INTER + INTRA:          -9.257
REMARK INTER:                  -6.924
REMARK INTRA:                  -2.333
REMARK UNBOUND:                -1.008
REMARK SMILES CCCCCC=CCC=CCCCCCCCC(=O)[O-]
REMARK SMILES IDX 11 1 12 2 13 3 14 4 15 5 16 6 17 7 18 8 19 9 20 10 10 11
REMARK SMILES IDX 9 12 8 13 7 14 6 15 5 16 4 17 3 18 2 19 1 20
REMARK H PARENT
REMARK Flexibility Score: inf
ROOT
ATOM      1  C   UNL     1      -1.504  -7.428 -28.382  1.00  0.00     0.027 C 
ENDROOT
BRANCH   1   2
ATOM      2  C   UNL     1      -0.263  -6.648 -27.930  1.00  0.00     0.004 C 
BRANCH   2   3
ATOM      3  C   UNL     1       0.554  -7.455 -26.913  1.00  0.00     0.000 C 
BRANCH   3   4
ATOM      4  C   UNL     1       1.656  -6.590 -26.283  1.00  0.00     0.000 C 
BRANCH   4   5
ATOM      5  C   UNL     1       1.283  -6.110 -24.865  1.00  0.00     0.000 C 
BRANCH   5   6
ATOM      6  C   UNL     1       2.186  -4.982 -24.338  1.00  0.00     0.006 C 
BRANCH   6   7
ATOM      7  C   UNL     1       3.636  -5.103 -24.821  1.00  0.00     0.053 C 
BRANCH   7   8
ATOM      8  C   UNL     1       4.033  -3.888 -25.598  1.00  0.00     0.041 C 
ATOM      9  O   UNL     1       3.308  -2.859 -25.579  1.00  0.00    -0.550 OA
ATOM     10  O   UNL     1       5.182  -3.906 -26.378  1.00  0.00    -0.550 OA
ENDBRANCH   7   8
ENDBRANCH   6   7
ENDBRANCH   5   6
ENDBRANCH   4   5
ENDBRANCH   3   4
ENDBRANCH   2   3
ENDBRANCH   1   2
BRANCH   1  11
ATOM     11  C   UNL     1      -1.685  -7.342 -29.872  1.00  0.00    -0.031 C 
ATOM     12  C   UNL     1      -1.346  -6.238 -30.556  1.00  0.00    -0.027 C 
BRANCH  12  13
ATOM     13  C   UNL     1      -1.516  -6.154 -32.049  1.00  0.00     0.054 C 
BRANCH  13  14
ATOM     14  C   UNL     1      -1.065  -7.420 -32.728  1.00  0.00    -0.027 C 
ATOM     15  C   UNL     1       0.162  -7.618 -33.245  1.00  0.00    -0.031 C 
BRANCH  15  16
ATOM     16  C   UNL     1       1.296  -6.623 -33.182  1.00  0.00     0.027 C 
BRANCH  16  17
ATOM     17  C   UNL     1       2.446  -7.122 -32.290  1.00  0.00     0.004 C 
BRANCH  17  18
ATOM     18  C   UNL     1       2.134  -7.059 -30.784  1.00  0.00     0.000 C 
BRANCH  18  19
ATOM     19  C   UNL     1       2.440  -8.372 -30.051  1.00  0.00    -0.003 C 
ATOM     20  C   UNL     1       1.300  -9.374 -30.218  1.00  0.00     0.004 C 
ENDBRANCH  18  19
ENDBRANCH  17  18
ENDBRANCH  16  17
ENDBRANCH  15  16
ENDBRANCH  13  14
ENDBRANCH  12  13
ENDBRANCH   1  11
TORSDOF 14
ENDMDL
MODEL 8
REMARK VINA RESULT:    -4.521     12.147     14.058
REMARK INTER + INTRA:          -9.229
REMARK INTER:                  -6.512
REMARK INTRA:                  -2.717
REMARK UNBOUND:                -1.008
REMARK SMILES CCCCCC=CCC=CCCCCCCCC(=O)[O-]
REMARK SMILES IDX 11 1 12 2 13 3 14 4 15 5 16 6 17 7 18 8 19 9 20 10 10 11
REMARK SMILES IDX 9 12 8 13 7 14 6 15 5 16 4 17 3 18 2 19 1 20
REMARK H PARENT
REMARK Flexibility Score: inf
ROOT
ATOM      1  C   UNL     1      -0.977  -6.336 -32.418  1.00  0.00     0.027 C 
ENDROOT
BRANCH   1   2
ATOM      2  C   UNL     1      -1.923  -7.531 -32.257  1.00  0.00     0.004 C 
BRANCH   2   3
ATOM      3  C   UNL     1      -1.199  -8.850 -32.557  1.00  0.00     0.000 C 
BRANCH   3   4
ATOM      4  C   UNL     1      -1.260  -9.799 -31.351  1.00  0.00     0.000 C 
BRANCH   4   5
ATOM      5  C   UNL     1      -0.518  -9.231 -30.123  1.00  0.00     0.000 C 
BRANCH   5   6
ATOM      6  C   UNL     1      -1.400  -9.112 -28.869  1.00  0.00     0.006 C 
BRANCH   6   7
ATOM      7  C   UNL     1      -1.068  -7.880 -28.020  1.00  0.00     0.053 C 
BRANCH   7   8
ATOM      8  C   UNL     1      -1.566  -6.636 -28.685  1.00  0.00     0.041 C 
ATOM      9  O   UNL     1      -0.764  -5.715 -28.991  1.00  0.00    -0.550 OA
ATOM     10  O   UNL     1      -2.924  -6.474 -28.927  1.00  0.00    -0.550 OA
ENDBRANCH   7   8
ENDBRANCH   6   7
ENDBRANCH   5   6
ENDBRANCH   4   5
ENDBRANCH   3   4
ENDBRANCH   2   3
ENDBRANCH   1   2
BRANCH   1  11
ATOM     11  C   UNL     1       0.363  -6.772 -32.941  1.00  0.00    -0.031 C 
ATOM     12  C   UNL     1       1.009  -6.071 -33.886  1.00  0.00    -0.027 C 
BRANCH  12  13
ATOM     13  C   UNL     1       2.355  -6.499 -34.402  1.00  0.00     0.054 C 
BRANCH  13  14
ATOM     14  C   UNL     1       2.335  -7.929 -34.878  1.00  0.00    -0.027 C 
ATOM     15  C   UNL     1       2.995  -8.942 -34.288  1.00  0.00    -0.031 C 
BRANCH  15  16
ATOM     16  C   UNL     1       3.819  -8.820 -33.029  1.00  0.00     0.027 C 
BRANCH  16  17
ATOM     17  C   UNL     1       2.950  -8.919 -31.764  1.00  0.00     0.004 C 
BRANCH  17  18
ATOM     18  C   UNL     1       3.472  -8.077 -30.586  1.00  0.00     0.000 C 
BRANCH  18  19
ATOM     19  C   UNL     1       2.414  -7.123 -30.014  1.00  0.00    -0.003 C 
ATOM     20  C   UNL     1       2.512  -7.040 -28.493  1.00  0.00     0.004 C 
ENDBRANCH  18  19
ENDBRANCH  17  18
ENDBRANCH  16  17
ENDBRANCH  15  16
ENDBRANCH  13  14
ENDBRANCH  12  13
ENDBRANCH   1  11
TORSDOF 14
ENDMDL
MODEL 9
REMARK VINA RESULT:    -4.489     13.834     16.774
REMARK INTER + INTRA:          -9.170
REMARK INTER:                  -6.768
REMARK INTRA:                  -2.401
REMARK UNBOUND:                -1.008
REMARK SMILES CCCCCC=CCC=CCCCCCCCC(=O)[O-]
REMARK SMILES IDX 11 1 12 2 13 3 14 4 15 5 16 6 17 7 18 8 19 9 20 10 10 11
REMARK SMILES IDX 9 12 8 13 7 14 6 15 5 16 4 17 3 18 2 19 1 20
REMARK H PARENT
REMARK Flexibility Score: inf
ROOT
ATOM      1  C   UNL     1      -0.199  -5.968 -24.058  1.00  0.00     0.027 C 
ENDROOT
BRANCH   1   2
ATOM      2  C   UNL     1       0.164  -7.438 -24.304  1.00  0.00     0.004 C 
BRANCH   2   3
ATOM      3  C   UNL     1      -0.866  -8.113 -25.219  1.00  0.00     0.000 C 
BRANCH   3   4
ATOM      4  C   UNL     1      -2.248  -7.459 -25.068  1.00  0.00     0.000 C 
BRANCH   4   5
ATOM      5  C   UNL     1      -2.775  -6.892 -26.403  1.00  0.00     0.000 C 
BRANCH   5   6
ATOM      6  C   UNL     1      -2.164  -7.565 -27.643  1.00  0.00     0.006 C 
BRANCH   6   7
ATOM      7  C   UNL     1      -2.641  -6.938 -28.958  1.00  0.00     0.053 C 
BRANCH   7   8
ATOM      8  C   UNL     1      -1.512  -6.237 -29.645  1.00  0.00     0.041 C 
ATOM      9  O   UNL     1      -0.610  -5.676 -28.969  1.00  0.00    -0.550 OA
ATOM     10  O   UNL     1      -1.478  -6.165 -31.031  1.00  0.00    -0.550 OA
ENDBRANCH   7   8
ENDBRANCH   6   7
ENDBRANCH   5   6
ENDBRANCH   4   5
ENDBRANCH   3   4
ENDBRANCH   2   3
ENDBRANCH   1   2
BRANCH   1  11
ATOM     11  C   UNL     1       1.023  -5.093 -24.109  1.00  0.00    -0.031 C 
ATOM     12  C   UNL     1       2.134  -5.399 -23.421  1.00  0.00    -0.027 C 
BRANCH  12  13
ATOM     13  C   UNL     1       3.361  -4.531 -23.481  1.00  0.00     0.054 C 
BRANCH  13  14
ATOM     14  C   UNL     1       3.279  -3.535 -24.608  1.00  0.00    -0.027 C 
ATOM     15  C   UNL     1       4.114  -3.502 -25.663  1.00  0.00    -0.031 C 
BRANCH  15  16
ATOM     16  C   UNL     1       5.232  -4.485 -25.912  1.00  0.00     0.027 C 
BRANCH  16  17
ATOM     17  C   UNL     1       4.769  -5.674 -26.771  1.00  0.00     0.004 C 
BRANCH  17  18
ATOM     18  C   UNL     1       4.453  -6.941 -25.955  1.00  0.00     0.000 C 
BRANCH  18  19
ATOM     19  C   UNL     1       3.148  -7.623 -26.387  1.00  0.00    -0.003 C 
ATOM     20  C   UNL     1       2.298  -6.692 -27.246  1.00  0.00     0.004 C 
ENDBRANCH  18  19
ENDBRANCH  17  18
ENDBRANCH  16  17
ENDBRANCH  15  16
ENDBRANCH  13  14
ENDBRANCH  12  13
ENDBRANCH   1  11
TORSDOF 14
ENDMDL
