MODEL 1
REMARK VINA RESULT:    -4.300      0.000      0.000
REMARK INTER + INTRA:          -5.955
REMARK INTER:                  -5.808
REMARK INTRA:                  -0.147
REMARK UNBOUND:                -0.147
REMARK SMILES CCCCCCC=CC(=O)[O-]
REMARK SMILES IDX 5 1 6 2 7 3 8 4 9 5 10 6 11 7 4 8 3 9 2 10 1 11
REMARK H PARENT
REMARK Flexibility Score: inf
ROOT
ATOM      1  C   UNL     1     -20.025  -1.782   7.564  1.00  0.00     0.004 C 
ENDROOT
BRANCH   1   2
ATOM      2  C   UNL     1     -21.004  -0.683   7.119  1.00  0.00     0.027 C 
BRANCH   2   3
ATOM      3  C   UNL     1     -20.310   0.627   6.848  1.00  0.00    -0.025 C 
ATOM      4  C   UNL     1     -20.389   1.734   7.604  1.00  0.00     0.020 C 
BRANCH   4   5
ATOM      5  C   UNL     1     -21.128   1.884   8.875  1.00  0.00     0.064 C 
ATOM      6  O   UNL     1     -21.052   1.033   9.798  1.00  0.00    -0.545 OA
ATOM      7  O   UNL     1     -21.913   3.014   9.064  1.00  0.00    -0.545 OA
ENDBRANCH   4   5
ENDBRANCH   2   3
ENDBRANCH   1   2
BRANCH   1   8
ATOM      8  C   UNL     1     -19.982  -1.929   9.095  1.00  0.00     0.000 C 
BRANCH   8   9
ATOM      9  C   UNL     1     -19.249  -3.201   9.547  1.00  0.00    -0.000 C 
BRANCH   9  10
ATOM     10  C   UNL     1     -19.092  -4.228   8.415  1.00  0.00    -0.003 C 
ATOM     11  C   UNL     1     -19.696  -5.574   8.806  1.00  0.00     0.004 C 
ENDBRANCH   9  10
ENDBRANCH   8   9
ENDBRANCH   1   8
TORSDOF 6
ENDMDL
MODEL 2
REMARK VINA RESULT:    -4.243      2.139      5.752
REMARK INTER + INTRA:          -5.879
REMARK INTER:                  -5.752
REMARK INTRA:                  -0.127
REMARK UNBOUND:                -0.147
REMARK SMILES CCCCCCC=CC(=O)[O-]
REMARK SMILES IDX 5 1 6 2 7 3 8 4 9 5 10 6 11 7 4 8 3 9 2 10 1 11
REMARK H PARENT
REMARK Flexibility Score: inf
ROOT
ATOM      1  C   UNL     1     -20.775   1.858   7.665  1.00  0.00     0.004 C 
ENDROOT
BRANCH   1   2
ATOM      2  C   UNL     1     -19.684   0.820   7.351  1.00  0.00     0.027 C 
BRANCH   2   3
ATOM      3  C   UNL     1     -20.254  -0.462   6.802  1.00  0.00    -0.025 C 
ATOM      4  C   UNL     1     -20.329  -1.635   7.452  1.00  0.00     0.020 C 
BRANCH   4   5
ATOM      5  C   UNL     1     -19.914  -1.899   8.846  1.00  0.00     0.064 C 
ATOM      6  O   UNL     1     -20.246  -1.146   9.797  1.00  0.00    -0.545 OA
ATOM      7  O   UNL     1     -19.154  -3.030   9.116  1.00  0.00    -0.545 OA
ENDBRANCH   4   5
ENDBRANCH   2   3
ENDBRANCH   1   2
BRANCH   1   8
ATOM      8  C   UNL     1     -21.182   1.833   9.149  1.00  0.00     0.000 C 
BRANCH   8   9
ATOM      9  C   UNL     1     -22.028   3.051   9.550  1.00  0.00    -0.000 C 
BRANCH   9  10
ATOM     10  C   UNL     1     -21.908   4.211   8.550  1.00  0.00    -0.003 C 
ATOM     11  C   UNL     1     -21.547   5.513   9.260  1.00  0.00     0.004 C 
ENDBRANCH   9  10
ENDBRANCH   8   9
ENDBRANCH   1   8
TORSDOF 6
ENDMDL
MODEL 3
REMARK VINA RESULT:    -4.008      3.072      5.027
REMARK INTER + INTRA:          -5.561
REMARK INTER:                  -5.317
REMARK INTRA:                  -0.244
REMARK UNBOUND:                -0.147
REMARK SMILES CCCCCCC=CC(=O)[O-]
REMARK SMILES IDX 5 1 6 2 7 3 8 4 9 5 10 6 11 7 4 8 3 9 2 10 1 11
REMARK H PARENT
REMARK Flexibility Score: inf
ROOT
ATOM      1  C   UNL     1     -19.877  -2.010   9.855  1.00  0.00     0.004 C 
ENDROOT
BRANCH   1   2
ATOM      2  C   UNL     1     -19.646  -1.632  11.328  1.00  0.00     0.027 C 
BRANCH   2   3
ATOM      3  C   UNL     1     -20.619  -2.314  12.254  1.00  0.00    -0.025 C 
ATOM      4  C   UNL     1     -21.158  -1.782  13.364  1.00  0.00     0.020 C 
BRANCH   4   5
ATOM      5  C   UNL     1     -20.948  -0.412  13.878  1.00  0.00     0.064 C 
ATOM      6  O   UNL     1     -20.349  -0.189  14.960  1.00  0.00    -0.545 OA
ATOM      7  O   UNL     1     -21.405   0.662  13.126  1.00  0.00    -0.545 OA
ENDBRANCH   4   5
ENDBRANCH   2   3
ENDBRANCH   1   2
BRANCH   1   8
ATOM      8  C   UNL     1     -20.418  -0.826   9.036  1.00  0.00     0.000 C 
BRANCH   8   9
ATOM      9  C   UNL     1     -20.371  -1.084   7.522  1.00  0.00    -0.000 C 
BRANCH   9  10
ATOM     10  C   UNL     1     -20.439   0.211   6.698  1.00  0.00    -0.003 C 
ATOM     11  C   UNL     1     -20.422   1.440   7.603  1.00  0.00     0.004 C 
ENDBRANCH   9  10
ENDBRANCH   8   9
ENDBRANCH   1   8
TORSDOF 6
ENDMDL
MODEL 4
REMARK VINA RESULT:    -3.920      3.329      5.122
REMARK INTER + INTRA:          -5.442
REMARK INTER:                  -5.250
REMARK INTRA:                  -0.192
REMARK UNBOUND:                -0.147
REMARK SMILES CCCCCCC=CC(=O)[O-]
REMARK SMILES IDX 5 1 6 2 7 3 8 4 9 5 10 6 11 7 4 8 3 9 2 10 1 11
REMARK H PARENT
REMARK Flexibility Score: inf
ROOT
ATOM      1  C   UNL     1     -21.356   1.766  10.031  1.00  0.00     0.004 C 
ENDROOT
BRANCH   1   2
ATOM      2  C   UNL     1     -21.884   1.158  11.341  1.00  0.00     0.027 C 
BRANCH   2   3
ATOM      3  C   UNL     1     -21.158   1.686  12.551  1.00  0.00    -0.025 C 
ATOM      4  C   UNL     1     -20.872   0.992  13.666  1.00  0.00     0.020 C 
BRANCH   4   5
ATOM      5  C   UNL     1     -21.167  -0.434  13.917  1.00  0.00     0.064 C 
ATOM      6  O   UNL     1     -21.901  -0.809  14.866  1.00  0.00    -0.545 OA
ATOM      7  O   UNL     1     -20.634  -1.389  13.060  1.00  0.00    -0.545 OA
ENDBRANCH   4   5
ENDBRANCH   2   3
ENDBRANCH   1   2
BRANCH   1   8
ATOM      8  C   UNL     1     -20.740   0.699   9.109  1.00  0.00     0.000 C 
BRANCH   8   9
ATOM      9  C   UNL     1     -20.447   1.233   7.699  1.00  0.00    -0.000 C 
BRANCH   9  10
ATOM     10  C   UNL     1     -20.314   0.113   6.657  1.00  0.00    -0.003 C 
ATOM     11  C   UNL     1     -20.352  -1.261   7.319  1.00  0.00     0.004 C 
ENDBRANCH   9  10
ENDBRANCH   8   9
ENDBRANCH   1   8
TORSDOF 6
ENDMDL
MODEL 5
REMARK VINA RESULT:    -3.878      2.244      4.925
REMARK INTER + INTRA:          -5.385
REMARK INTER:                  -5.204
REMARK INTRA:                  -0.181
REMARK UNBOUND:                -0.147
REMARK SMILES CCCCCCC=CC(=O)[O-]
REMARK SMILES IDX 5 1 6 2 7 3 8 4 9 5 10 6 11 7 4 8 3 9 2 10 1 11
REMARK H PARENT
REMARK Flexibility Score: inf
ROOT
ATOM      1  C   UNL     1     -20.878   2.062   7.629  1.00  0.00     0.004 C 
ENDROOT
BRANCH   1   2
ATOM      2  C   UNL     1     -19.955   0.853   7.858  1.00  0.00     0.027 C 
BRANCH   2   3
ATOM      3  C   UNL     1     -20.388  -0.357   7.072  1.00  0.00    -0.025 C 
ATOM      4  C   UNL     1     -20.320  -1.633   7.485  1.00  0.00     0.020 C 
BRANCH   4   5
ATOM      5  C   UNL     1     -19.851  -2.110   8.804  1.00  0.00     0.064 C 
ATOM      6  O   UNL     1     -20.120  -1.499   9.870  1.00  0.00    -0.545 OA
ATOM      7  O   UNL     1     -19.112  -3.283   8.868  1.00  0.00    -0.545 OA
ENDBRANCH   4   5
ENDBRANCH   2   3
ENDBRANCH   1   2
BRANCH   1   8
ATOM      8  C   UNL     1     -21.433   2.620   8.950  1.00  0.00     0.000 C 
BRANCH   8   9
ATOM      9  C   UNL     1     -21.590   1.538  10.030  1.00  0.00    -0.000 C 
BRANCH   9  10
ATOM     10  C   UNL     1     -21.120   2.010  11.414  1.00  0.00    -0.003 C 
ATOM     11  C   UNL     1     -21.451   0.977  12.488  1.00  0.00     0.004 C 
ENDBRANCH   9  10
ENDBRANCH   8   9
ENDBRANCH   1   8
TORSDOF 6
ENDMDL
MODEL 6
REMARK VINA RESULT:    -3.843      3.271      5.587
REMARK INTER + INTRA:          -5.339
REMARK INTER:                  -4.857
REMARK INTRA:                  -0.482
REMARK UNBOUND:                -0.147
REMARK SMILES CCCCCCC=CC(=O)[O-]
REMARK SMILES IDX 5 1 6 2 7 3 8 4 9 5 10 6 11 7 4 8 3 9 2 10 1 11
REMARK H PARENT
REMARK Flexibility Score: inf
ROOT
ATOM      1  C   UNL     1     -20.437  -0.259   6.955  1.00  0.00     0.004 C 
ENDROOT
BRANCH   1   2
ATOM      2  C   UNL     1     -20.246  -1.725   7.377  1.00  0.00     0.027 C 
BRANCH   2   3
ATOM      3  C   UNL     1     -19.910  -1.861   8.840  1.00  0.00    -0.025 C 
ATOM      4  C   UNL     1     -19.537  -2.991   9.463  1.00  0.00     0.020 C 
BRANCH   4   5
ATOM      5  C   UNL     1     -19.335  -4.317   8.840  1.00  0.00     0.064 C 
ATOM      6  O   UNL     1     -18.334  -4.574   8.124  1.00  0.00    -0.545 OA
ATOM      7  O   UNL     1     -20.270  -5.317   9.075  1.00  0.00    -0.545 OA
ENDBRANCH   4   5
ENDBRANCH   2   3
ENDBRANCH   1   2
BRANCH   1   8
ATOM      8  C   UNL     1     -20.180   0.713   8.119  1.00  0.00     0.000 C 
BRANCH   8   9
ATOM      9  C   UNL     1     -20.987   2.014   7.992  1.00  0.00    -0.000 C 
BRANCH   9  10
ATOM     10  C   UNL     1     -21.616   2.454   9.322  1.00  0.00    -0.003 C 
ATOM     11  C   UNL     1     -21.406   1.398  10.405  1.00  0.00     0.004 C 
ENDBRANCH   9  10
ENDBRANCH   8   9
ENDBRANCH   1   8
TORSDOF 6
ENDMDL
MODEL 7
REMARK VINA RESULT:    -3.792      1.343      2.097
REMARK INTER + INTRA:          -5.269
REMARK INTER:                  -5.142
REMARK INTRA:                  -0.127
REMARK UNBOUND:                -0.147
REMARK SMILES CCCCCCC=CC(=O)[O-]
REMARK SMILES IDX 5 1 6 2 7 3 8 4 9 5 10 6 11 7 4 8 3 9 2 10 1 11
REMARK H PARENT
REMARK Flexibility Score: inf
ROOT
ATOM      1  C   UNL     1     -19.970  -1.903   7.534  1.00  0.00     0.004 C 
ENDROOT
BRANCH   1   2
ATOM      2  C   UNL     1     -20.894  -0.689   7.730  1.00  0.00     0.027 C 
BRANCH   2   3
ATOM      3  C   UNL     1     -20.300   0.579   7.175  1.00  0.00    -0.025 C 
ATOM      4  C   UNL     1     -20.469   1.815   7.673  1.00  0.00     0.020 C 
BRANCH   4   5
ATOM      5  C   UNL     1     -21.230   2.181   8.887  1.00  0.00     0.064 C 
ATOM      6  O   UNL     1     -21.248   1.450   9.910  1.00  0.00    -0.545 OA
ATOM      7  O   UNL     1     -21.925   3.382   8.905  1.00  0.00    -0.545 OA
ENDBRANCH   4   5
ENDBRANCH   2   3
ENDBRANCH   1   2
BRANCH   1   8
ATOM      8  C   UNL     1     -19.617  -2.579   8.870  1.00  0.00     0.000 C 
BRANCH   8   9
ATOM      9  C   UNL     1     -19.898  -1.677  10.082  1.00  0.00    -0.000 C 
BRANCH   9  10
ATOM     10  C   UNL     1     -20.392  -2.463  11.305  1.00  0.00    -0.003 C 
ATOM     11  C   UNL     1     -20.457  -1.572  12.542  1.00  0.00     0.004 C 
ENDBRANCH   9  10
ENDBRANCH   8   9
ENDBRANCH   1   8
TORSDOF 6
ENDMDL
MODEL 8
REMARK VINA RESULT:    -3.632      1.927      2.922
REMARK INTER + INTRA:          -5.054
REMARK INTER:                  -4.709
REMARK INTRA:                  -0.345
REMARK UNBOUND:                -0.147
REMARK SMILES CCCCCCC=CC(=O)[O-]
REMARK SMILES IDX 5 1 6 2 7 3 8 4 9 5 10 6 11 7 4 8 3 9 2 10 1 11
REMARK H PARENT
REMARK Flexibility Score: inf
ROOT
ATOM      1  C   UNL     1     -20.445   0.612   7.109  1.00  0.00     0.004 C 
ENDROOT
BRANCH   1   2
ATOM      2  C   UNL     1     -20.632   2.059   7.594  1.00  0.00     0.027 C 
BRANCH   2   3
ATOM      3  C   UNL     1     -21.392   2.134   8.893  1.00  0.00    -0.025 C 
ATOM      4  C   UNL     1     -21.859   3.253   9.471  1.00  0.00     0.020 C 
BRANCH   4   5
ATOM      5  C   UNL     1     -21.766   4.628   8.936  1.00  0.00     0.064 C 
ATOM      6  O   UNL     1     -22.461   5.015   7.962  1.00  0.00    -0.545 OA
ATOM      7  O   UNL     1     -20.900   5.526   9.545  1.00  0.00    -0.545 OA
ENDBRANCH   4   5
ENDBRANCH   2   3
ENDBRANCH   1   2
BRANCH   1   8
ATOM      8  C   UNL     1     -20.491  -0.395   8.271  1.00  0.00     0.000 C 
BRANCH   8   9
ATOM      9  C   UNL     1     -20.041  -1.803   7.852  1.00  0.00    -0.000 C 
BRANCH   9  10
ATOM     10  C   UNL     1     -19.630  -2.675   9.048  1.00  0.00    -0.003 C 
ATOM     11  C   UNL     1     -19.826  -1.927  10.365  1.00  0.00     0.004 C 
ENDBRANCH   9  10
ENDBRANCH   8   9
ENDBRANCH   1   8
TORSDOF 6
ENDMDL
MODEL 9
REMARK VINA RESULT:    -3.581      1.939      5.053
REMARK INTER + INTRA:          -4.984
REMARK INTER:                  -4.902
REMARK INTRA:                  -0.082
REMARK UNBOUND:                -0.147
REMARK SMILES CCCCCCC=CC(=O)[O-]
REMARK SMILES IDX 5 1 6 2 7 3 8 4 9 5 10 6 11 7 4 8 3 9 2 10 1 11
REMARK H PARENT
REMARK Flexibility Score: inf
ROOT
ATOM      1  C   UNL     1     -20.029   0.312   7.014  1.00  0.00     0.004 C 
ENDROOT
BRANCH   1   2
ATOM      2  C   UNL     1     -20.780  -0.971   7.407  1.00  0.00     0.027 C 
BRANCH   2   3
ATOM      3  C   UNL     1     -19.846  -2.120   7.685  1.00  0.00    -0.025 C 
ATOM      4  C   UNL     1     -19.572  -2.641   8.892  1.00  0.00     0.020 C 
BRANCH   4   5
ATOM      5  C   UNL     1     -20.160  -2.230  10.185  1.00  0.00     0.064 C 
ATOM      6  O   UNL     1     -20.795  -3.032  10.916  1.00  0.00    -0.545 OA
ATOM      7  O   UNL     1     -19.983  -0.921  10.615  1.00  0.00    -0.545 OA
ENDBRANCH   4   5
ENDBRANCH   2   3
ENDBRANCH   1   2
BRANCH   1   8
ATOM      8  C   UNL     1     -20.693   1.570   7.602  1.00  0.00     0.000 C 
BRANCH   8   9
ATOM      9  C   UNL     1     -20.998   1.431   9.101  1.00  0.00    -0.000 C 
BRANCH   9  10
ATOM     10  C   UNL     1     -21.988   2.491   9.605  1.00  0.00    -0.003 C 
ATOM     11  C   UNL     1     -21.831   3.800   8.835  1.00  0.00     0.004 C 
ENDBRANCH   9  10
ENDBRANCH   8   9
ENDBRANCH   1   8
TORSDOF 6
ENDMDL
