MODEL 1
REMARK VINA RESULT:    -4.418      0.000      0.000
REMARK INTER + INTRA:          -5.690
REMARK INTER:                  -5.452
REMARK INTRA:                  -0.239
REMARK UNBOUND:                -0.239
REMARK SMILES C=CC[C@@H](C)C(=O)CC
REMARK SMILES IDX 4 1 5 2 6 3 7 4 8 5 9 6 3 7 2 8 1 9
REMARK H PARENT
REMARK Flexibility Score: inf
ROOT
ATOM      1  C   UNL     1     117.307 164.302 120.969  1.00  0.00     0.057 C 
ATOM      2  C   UNL     1     118.443 165.097 121.628  1.00  0.00     0.016 C 
ENDROOT
BRANCH   1   3
ATOM      3  C   UNL     1     116.834 165.022 119.724  1.00  0.00     0.135 C 
ATOM      4  O   UNL     1     115.922 165.834 119.802  1.00  0.00    -0.299 OA
BRANCH   3   5
ATOM      5  C   UNL     1     117.473 164.765 118.385  1.00  0.00     0.072 C 
ATOM      6  C   UNL     1     117.410 166.011 117.508  1.00  0.00     0.012 C 
ENDBRANCH   3   5
ENDBRANCH   1   3
BRANCH   1   7
ATOM      7  C   UNL     1     117.743 162.867 120.616  1.00  0.00     0.038 C 
BRANCH   7   8
ATOM      8  C   UNL     1     118.971 162.457 121.386  1.00  0.00    -0.034 C 
ATOM      9  C   UNL     1     119.325 161.175 121.521  1.00  0.00     0.004 C 
ENDBRANCH   7   8
ENDBRANCH   1   7
TORSDOF 4
ENDMDL
MODEL 2
REMARK VINA RESULT:    -4.395      1.339      4.084
REMARK INTER + INTRA:          -5.662
REMARK INTER:                  -5.487
REMARK INTRA:                  -0.175
REMARK UNBOUND:                -0.239
REMARK SMILES C=CC[C@@H](C)C(=O)CC
REMARK SMILES IDX 4 1 5 2 6 3 7 4 8 5 9 6 3 7 2 8 1 9
REMARK H PARENT
REMARK Flexibility Score: inf
ROOT
ATOM      1  C   UNL     1     117.312 165.327 119.758  1.00  0.00     0.057 C 
ATOM      2  C   UNL     1     115.907 165.859 120.070  1.00  0.00     0.016 C 
ENDROOT
BRANCH   1   3
ATOM      3  C   UNL     1     117.741 164.351 120.834  1.00  0.00     0.135 C 
ATOM      4  O   UNL     1     118.158 164.773 121.903  1.00  0.00    -0.299 OA
BRANCH   3   5
ATOM      5  C   UNL     1     117.653 162.863 120.617  1.00  0.00     0.072 C 
ATOM      6  C   UNL     1     118.766 162.141 121.368  1.00  0.00     0.012 C 
ENDBRANCH   3   5
ENDBRANCH   1   3
BRANCH   1   7
ATOM      7  C   UNL     1     117.373 164.648 118.375  1.00  0.00     0.038 C 
BRANCH   7   8
ATOM      8  C   UNL     1     117.591 165.653 117.275  1.00  0.00    -0.034 C 
ATOM      9  C   UNL     1     118.228 165.335 116.144  1.00  0.00     0.004 C 
ENDBRANCH   7   8
ENDBRANCH   1   7
TORSDOF 4
ENDMDL
MODEL 3
REMARK VINA RESULT:    -4.359      1.166      2.343
REMARK INTER + INTRA:          -5.617
REMARK INTER:                  -5.435
REMARK INTRA:                  -0.182
REMARK UNBOUND:                -0.239
REMARK SMILES C=CC[C@@H](C)C(=O)CC
REMARK SMILES IDX 4 1 5 2 6 3 7 4 8 5 9 6 3 7 2 8 1 9
REMARK H PARENT
REMARK Flexibility Score: inf
ROOT
ATOM      1  C   UNL     1     117.721 164.645 120.640  1.00  0.00     0.057 C 
ATOM      2  C   UNL     1     117.703 163.110 120.684  1.00  0.00     0.016 C 
ENDROOT
BRANCH   1   3
ATOM      3  C   UNL     1     116.985 165.131 119.409  1.00  0.00     0.135 C 
ATOM      4  O   UNL     1     115.963 165.791 119.535  1.00  0.00    -0.299 OA
BRANCH   3   5
ATOM      5  C   UNL     1     117.494 164.824 118.025  1.00  0.00     0.072 C 
ATOM      6  C   UNL     1     117.522 166.085 117.168  1.00  0.00     0.012 C 
ENDBRANCH   3   5
ENDBRANCH   1   3
BRANCH   1   7
ATOM      7  C   UNL     1     117.095 165.261 121.907  1.00  0.00     0.038 C 
BRANCH   7   8
ATOM      8  C   UNL     1     118.151 165.759 122.859  1.00  0.00    -0.034 C 
ATOM      9  C   UNL     1     119.453 165.703 122.561  1.00  0.00     0.004 C 
ENDBRANCH   7   8
ENDBRANCH   1   7
TORSDOF 4
ENDMDL
MODEL 4
REMARK VINA RESULT:    -4.271     15.358     15.982
REMARK INTER + INTRA:          -5.508
REMARK INTER:                  -5.117
REMARK INTRA:                  -0.391
REMARK UNBOUND:                -0.239
REMARK SMILES C=CC[C@@H](C)C(=O)CC
REMARK SMILES IDX 4 1 5 2 6 3 7 4 8 5 9 6 3 7 2 8 1 9
REMARK H PARENT
REMARK Flexibility Score: inf
ROOT
ATOM      1  C   UNL     1     120.181 179.448 123.726  1.00  0.00     0.057 C 
ATOM      2  C   UNL     1     120.748 179.378 122.301  1.00  0.00     0.016 C 
ENDROOT
BRANCH   1   3
ATOM      3  C   UNL     1     118.737 178.992 123.726  1.00  0.00     0.135 C 
ATOM      4  O   UNL     1     118.170 178.777 122.664  1.00  0.00    -0.299 OA
BRANCH   3   5
ATOM      5  C   UNL     1     117.984 178.787 125.014  1.00  0.00     0.072 C 
ATOM      6  C   UNL     1     117.661 180.125 125.670  1.00  0.00     0.012 C 
ENDBRANCH   3   5
ENDBRANCH   1   3
BRANCH   1   7
ATOM      7  C   UNL     1     121.004 178.594 124.712  1.00  0.00     0.038 C 
BRANCH   7   8
ATOM      8  C   UNL     1     121.436 179.397 125.910  1.00  0.00    -0.034 C 
ATOM      9  C   UNL     1     121.151 179.011 127.159  1.00  0.00     0.004 C 
ENDBRANCH   7   8
ENDBRANCH   1   7
TORSDOF 4
ENDMDL
MODEL 5
REMARK VINA RESULT:    -4.233      1.156      3.825
REMARK INTER + INTRA:          -5.462
REMARK INTER:                  -5.357
REMARK INTRA:                  -0.105
REMARK UNBOUND:                -0.239
REMARK SMILES C=CC[C@@H](C)C(=O)CC
REMARK SMILES IDX 4 1 5 2 6 3 7 4 8 5 9 6 3 7 2 8 1 9
REMARK H PARENT
REMARK Flexibility Score: inf
ROOT
ATOM      1  C   UNL     1     117.353 163.657 120.533  1.00  0.00     0.057 C 
ATOM      2  C   UNL     1     118.110 162.429 121.060  1.00  0.00     0.016 C 
ENDROOT
BRANCH   1   3
ATOM      3  C   UNL     1     117.549 164.823 121.477  1.00  0.00     0.135 C 
ATOM      4  O   UNL     1     116.591 165.511 121.799  1.00  0.00    -0.299 OA
BRANCH   3   5
ATOM      5  C   UNL     1     118.908 165.150 122.041  1.00  0.00     0.072 C 
ATOM      6  C   UNL     1     118.781 166.030 123.280  1.00  0.00     0.012 C 
ENDBRANCH   3   5
ENDBRANCH   1   3
BRANCH   1   7
ATOM      7  C   UNL     1     117.810 164.044 119.113  1.00  0.00     0.038 C 
BRANCH   7   8
ATOM      8  C   UNL     1     117.170 165.329 118.657  1.00  0.00    -0.034 C 
ATOM      9  C   UNL     1     117.448 165.874 117.469  1.00  0.00     0.004 C 
ENDBRANCH   7   8
ENDBRANCH   1   7
TORSDOF 4
ENDMDL
MODEL 6
REMARK VINA RESULT:    -4.172     15.991     17.014
REMARK INTER + INTRA:          -5.387
REMARK INTER:                  -5.235
REMARK INTRA:                  -0.152
REMARK UNBOUND:                -0.239
REMARK SMILES C=CC[C@@H](C)C(=O)CC
REMARK SMILES IDX 4 1 5 2 6 3 7 4 8 5 9 6 3 7 2 8 1 9
REMARK H PARENT
REMARK Flexibility Score: inf
ROOT
ATOM      1  C   UNL     1     120.779 179.695 125.880  1.00  0.00     0.057 C 
ATOM      2  C   UNL     1     119.311 179.480 126.273  1.00  0.00     0.016 C 
ENDROOT
BRANCH   1   3
ATOM      3  C   UNL     1     121.682 179.265 127.017  1.00  0.00     0.135 C 
ATOM      4  O   UNL     1     121.194 178.956 128.095  1.00  0.00    -0.299 OA
BRANCH   3   5
ATOM      5  C   UNL     1     123.176 179.199 126.843  1.00  0.00     0.072 C 
ATOM      6  C   UNL     1     123.874 179.108 128.196  1.00  0.00     0.012 C 
ENDBRANCH   3   5
ENDBRANCH   1   3
BRANCH   1   7
ATOM      7  C   UNL     1     121.145 178.926 124.595  1.00  0.00     0.038 C 
BRANCH   7   8
ATOM      8  C   UNL     1     120.345 179.410 123.415  1.00  0.00    -0.034 C 
ATOM      9  C   UNL     1     120.852 179.428 122.178  1.00  0.00     0.004 C 
ENDBRANCH   7   8
ENDBRANCH   1   7
TORSDOF 4
ENDMDL
MODEL 7
REMARK VINA RESULT:    -4.156     15.108     15.746
REMARK INTER + INTRA:          -5.367
REMARK INTER:                  -5.014
REMARK INTRA:                  -0.352
REMARK UNBOUND:                -0.239
REMARK SMILES C=CC[C@@H](C)C(=O)CC
REMARK SMILES IDX 4 1 5 2 6 3 7 4 8 5 9 6 3 7 2 8 1 9
REMARK H PARENT
REMARK Flexibility Score: inf
ROOT
ATOM      1  C   UNL     1     120.304 178.546 125.689  1.00  0.00     0.057 C 
ATOM      2  C   UNL     1     120.718 178.999 127.096  1.00  0.00     0.016 C 
ENDROOT
BRANCH   1   3
ATOM      3  C   UNL     1     118.817 178.263 125.659  1.00  0.00     0.135 C 
ATOM      4  O   UNL     1     118.391 177.210 126.113  1.00  0.00    -0.299 OA
BRANCH   3   5
ATOM      5  C   UNL     1     117.845 179.261 125.086  1.00  0.00     0.072 C 
ATOM      6  C   UNL     1     117.277 178.763 123.762  1.00  0.00     0.012 C 
ENDBRANCH   3   5
ENDBRANCH   1   3
BRANCH   1   7
ATOM      7  C   UNL     1     120.663 179.598 124.621  1.00  0.00     0.038 C 
BRANCH   7   8
ATOM      8  C   UNL     1     121.076 178.952 123.325  1.00  0.00    -0.034 C 
ATOM      9  C   UNL     1     120.750 179.476 122.139  1.00  0.00     0.004 C 
ENDBRANCH   7   8
ENDBRANCH   1   7
TORSDOF 4
ENDMDL
MODEL 8
REMARK VINA RESULT:    -4.136     15.155     16.038
REMARK INTER + INTRA:          -5.342
REMARK INTER:                  -5.025
REMARK INTRA:                  -0.318
REMARK UNBOUND:                -0.239
REMARK SMILES C=CC[C@@H](C)C(=O)CC
REMARK SMILES IDX 4 1 5 2 6 3 7 4 8 5 9 6 3 7 2 8 1 9
REMARK H PARENT
REMARK Flexibility Score: inf
ROOT
ATOM      1  C   UNL     1     120.874 179.813 125.850  1.00  0.00     0.057 C 
ATOM      2  C   UNL     1     122.232 179.128 126.064  1.00  0.00     0.016 C 
ENDROOT
BRANCH   1   3
ATOM      3  C   UNL     1     120.269 179.352 124.541  1.00  0.00     0.135 C 
ATOM      4  O   UNL     1     119.058 179.409 124.379  1.00  0.00    -0.299 OA
BRANCH   3   5
ATOM      5  C   UNL     1     121.133 178.830 123.423  1.00  0.00     0.072 C 
ATOM      6  C   UNL     1     120.790 179.520 122.107  1.00  0.00     0.012 C 
ENDBRANCH   3   5
ENDBRANCH   1   3
BRANCH   1   7
ATOM      7  C   UNL     1     119.901 179.529 127.011  1.00  0.00     0.038 C 
BRANCH   7   8
ATOM      8  C   UNL     1     120.088 178.140 127.562  1.00  0.00    -0.034 C 
ATOM      9  C   UNL     1     119.158 177.192 127.416  1.00  0.00     0.004 C 
ENDBRANCH   7   8
ENDBRANCH   1   7
TORSDOF 4
ENDMDL
MODEL 9
REMARK VINA RESULT:    -4.059     14.770     15.918
REMARK INTER + INTRA:          -5.247
REMARK INTER:                  -5.003
REMARK INTRA:                  -0.244
REMARK UNBOUND:                -0.239
REMARK SMILES C=CC[C@@H](C)C(=O)CC
REMARK SMILES IDX 4 1 5 2 6 3 7 4 8 5 9 6 3 7 2 8 1 9
REMARK H PARENT
REMARK Flexibility Score: inf
ROOT
ATOM      1  C   UNL     1     120.614 179.015 123.655  1.00  0.00     0.057 C 
ATOM      2  C   UNL     1     120.746 179.590 122.237  1.00  0.00     0.016 C 
ENDROOT
BRANCH   1   3
ATOM      3  C   UNL     1     121.872 178.254 124.017  1.00  0.00     0.135 C 
ATOM      4  O   UNL     1     122.273 178.260 125.173  1.00  0.00    -0.299 OA
BRANCH   3   5
ATOM      5  C   UNL     1     122.639 177.477 122.980  1.00  0.00     0.072 C 
ATOM      6  C   UNL     1     124.037 177.134 123.485  1.00  0.00     0.012 C 
ENDBRANCH   3   5
ENDBRANCH   1   3
BRANCH   1   7
ATOM      7  C   UNL     1     120.346 180.118 124.697  1.00  0.00     0.038 C 
BRANCH   7   8
ATOM      8  C   UNL     1     119.005 179.940 125.358  1.00  0.00    -0.034 C 
ATOM      9  C   UNL     1     118.110 179.052 124.911  1.00  0.00     0.004 C 
ENDBRANCH   7   8
ENDBRANCH   1   7
TORSDOF 4
ENDMDL
