MODEL 1
REMARK VINA RESULT:    -7.189      0.000      0.000
REMARK INTER + INTRA:          -7.865
REMARK INTER:                  -7.819
REMARK INTRA:                  -0.046
REMARK UNBOUND:                -0.046
REMARK SMILES COc1cc2ccc(=O)oc2cc1O
REMARK SMILES IDX 3 1 13 2 12 3 11 4 5 5 4 6 6 7 7 8 8 9 9 10 10 11 2 12 1 13
REMARK SMILES IDX 14 14
REMARK H PARENT 14 15
REMARK Flexibility Score: inf
ROOT
ATOM      1  C   UNL     1      12.167  -4.653 -12.267  1.00  0.00     0.161 A 
ATOM      2  C   UNL     1      11.364  -4.691 -11.111  1.00  0.00     0.161 A 
ATOM      3  C   UNL     1      10.751  -5.887 -10.717  1.00  0.00     0.098 A 
ATOM      4  C   UNL     1      10.929  -7.053 -11.465  1.00  0.00     0.142 A 
ATOM      5  C   UNL     1      11.732  -7.025 -12.625  1.00  0.00     0.022 A 
ATOM      6  C   UNL     1      12.347  -5.830 -13.022  1.00  0.00     0.062 A 
ATOM      7  C   UNL     1      11.891  -8.208 -13.353  1.00  0.00     0.019 A 
ATOM      8  C   UNL     1      11.259  -9.371 -12.916  1.00  0.00     0.094 A 
ATOM      9  C   UNL     1      10.478  -9.324 -11.757  1.00  0.00     0.336 A 
ATOM     10  O   UNL     1       9.898 -10.363 -11.346  1.00  0.00    -0.246 OA
ATOM     11  O   UNL     1      10.343  -8.185 -11.082  1.00  0.00    -0.423 OA
ENDROOT
BRANCH   1  12
ATOM     12  O   UNL     1      12.768  -3.437 -12.633  1.00  0.00    -0.493 OA
ATOM     13  C   UNL     1      14.004  -3.324 -13.330  1.00  0.00     0.278 C 
ENDBRANCH   1  12
BRANCH   2  14
ATOM     14  O   UNL     1      11.162  -3.549 -10.337  1.00  0.00    -0.504 OA
ATOM     15  H   UNL     1      11.526  -2.643 -10.607  1.00  0.00     0.293 HD
ENDBRANCH   2  14
TORSDOF 2
ENDMDL
MODEL 2
REMARK VINA RESULT:    -6.855      2.278      3.677
REMARK INTER + INTRA:          -7.501
REMARK INTER:                  -7.451
REMARK INTRA:                  -0.050
REMARK UNBOUND:                -0.046
REMARK SMILES COc1cc2ccc(=O)oc2cc1O
REMARK SMILES IDX 3 1 13 2 12 3 11 4 5 5 4 6 6 7 7 8 8 9 9 10 10 11 2 12 1 13
REMARK SMILES IDX 14 14
REMARK H PARENT 14 15
REMARK Flexibility Score: inf
ROOT
ATOM      1  C   UNL     1      13.877  -4.761 -14.038  1.00  0.00     0.161 A 
ATOM      2  C   UNL     1      13.338  -5.979 -14.496  1.00  0.00     0.161 A 
ATOM      3  C   UNL     1      12.252  -6.562 -13.833  1.00  0.00     0.098 A 
ATOM      4  C   UNL     1      11.691  -5.944 -12.713  1.00  0.00     0.142 A 
ATOM      5  C   UNL     1      12.224  -4.724 -12.248  1.00  0.00     0.022 A 
ATOM      6  C   UNL     1      13.311  -4.137 -12.909  1.00  0.00     0.062 A 
ATOM      7  C   UNL     1      11.641  -4.129 -11.124  1.00  0.00     0.019 A 
ATOM      8  C   UNL     1      10.560  -4.752 -10.502  1.00  0.00     0.094 A 
ATOM      9  C   UNL     1      10.085  -5.961 -11.020  1.00  0.00     0.336 A 
ATOM     10  O   UNL     1       9.111  -6.541 -10.473  1.00  0.00    -0.246 OA
ATOM     11  O   UNL     1      10.658  -6.506 -12.090  1.00  0.00    -0.423 OA
ENDROOT
BRANCH   1  12
ATOM     12  O   UNL     1      14.967  -4.203 -14.726  1.00  0.00    -0.493 OA
ATOM     13  C   UNL     1      16.125  -3.660 -14.102  1.00  0.00     0.278 C 
ENDBRANCH   1  12
BRANCH   2  14
ATOM     14  O   UNL     1      13.869  -6.627 -15.610  1.00  0.00    -0.504 OA
ATOM     15  H   UNL     1      13.365  -7.355 -16.103  1.00  0.00     0.293 HD
ENDBRANCH   2  14
TORSDOF 2
ENDMDL
MODEL 3
REMARK VINA RESULT:    -6.563      1.604      5.103
REMARK INTER + INTRA:          -7.184
REMARK INTER:                  -7.136
REMARK INTRA:                  -0.048
REMARK UNBOUND:                -0.046
REMARK SMILES COc1cc2ccc(=O)oc2cc1O
REMARK SMILES IDX 3 1 13 2 12 3 11 4 5 5 4 6 6 7 7 8 8 9 9 10 10 11 2 12 1 13
REMARK SMILES IDX 14 14
REMARK H PARENT 14 15
REMARK Flexibility Score: inf
ROOT
ATOM      1  C   UNL     1      11.266  -5.833 -11.932  1.00  0.00     0.161 A 
ATOM      2  C   UNL     1      11.288  -4.581 -11.287  1.00  0.00     0.161 A 
ATOM      3  C   UNL     1      12.229  -3.613 -11.659  1.00  0.00     0.098 A 
ATOM      4  C   UNL     1      13.154  -3.878 -12.672  1.00  0.00     0.142 A 
ATOM      5  C   UNL     1      13.139  -5.129 -13.324  1.00  0.00     0.022 A 
ATOM      6  C   UNL     1      12.198  -6.100 -12.954  1.00  0.00     0.062 A 
ATOM      7  C   UNL     1      14.077  -5.364 -14.334  1.00  0.00     0.019 A 
ATOM      8  C   UNL     1      14.991  -4.366 -14.666  1.00  0.00     0.094 A 
ATOM      9  C   UNL     1      14.946  -3.149 -13.976  1.00  0.00     0.336 A 
ATOM     10  O   UNL     1      15.763  -2.235 -14.260  1.00  0.00    -0.246 OA
ATOM     11  O   UNL     1      14.043  -2.951 -13.019  1.00  0.00    -0.423 OA
ENDROOT
BRANCH   1  12
ATOM     12  O   UNL     1      10.309  -6.781 -11.534  1.00  0.00    -0.493 OA
ATOM     13  C   UNL     1      10.561  -8.175 -11.397  1.00  0.00     0.278 C 
ENDBRANCH   1  12
BRANCH   2  14
ATOM     14  O   UNL     1      10.382  -4.278 -10.271  1.00  0.00    -0.504 OA
ATOM     15  H   UNL     1      10.303  -3.348  -9.878  1.00  0.00     0.293 HD
ENDBRANCH   2  14
TORSDOF 2
ENDMDL
MODEL 4
REMARK VINA RESULT:    -6.459      1.626      4.990
REMARK INTER + INTRA:          -7.071
REMARK INTER:                  -7.032
REMARK INTRA:                  -0.039
REMARK UNBOUND:                -0.046
REMARK SMILES COc1cc2ccc(=O)oc2cc1O
REMARK SMILES IDX 3 1 13 2 12 3 11 4 5 5 4 6 6 7 7 8 8 9 9 10 10 11 2 12 1 13
REMARK SMILES IDX 14 14
REMARK H PARENT 14 15
REMARK Flexibility Score: inf
ROOT
ATOM      1  C   UNL     1      10.157  -6.029 -10.793  1.00  0.00     0.161 A 
ATOM      2  C   UNL     1      10.725  -7.155 -11.420  1.00  0.00     0.161 A 
ATOM      3  C   UNL     1      11.826  -7.007 -12.272  1.00  0.00     0.098 A 
ATOM      4  C   UNL     1      12.371  -5.743 -12.510  1.00  0.00     0.142 A 
ATOM      5  C   UNL     1      11.809  -4.609 -11.886  1.00  0.00     0.022 A 
ATOM      6  C   UNL     1      10.707  -4.754 -11.032  1.00  0.00     0.062 A 
ATOM      7  C   UNL     1      12.377  -3.358 -12.144  1.00  0.00     0.019 A 
ATOM      8  C   UNL     1      13.473  -3.266 -13.000  1.00  0.00     0.094 A 
ATOM      9  C   UNL     1      13.978  -4.433 -13.582  1.00  0.00     0.336 A 
ATOM     10  O   UNL     1      14.966  -4.372 -14.359  1.00  0.00    -0.246 OA
ATOM     11  O   UNL     1      13.419  -5.612 -13.321  1.00  0.00    -0.423 OA
ENDROOT
BRANCH   1  12
ATOM     12  O   UNL     1       9.053  -6.214  -9.944  1.00  0.00    -0.493 OA
ATOM     13  C   UNL     1       7.697  -6.247 -10.377  1.00  0.00     0.278 C 
ENDBRANCH   1  12
BRANCH   2  14
ATOM     14  O   UNL     1      10.209  -8.433 -11.209  1.00  0.00    -0.504 OA
ATOM     15  H   UNL     1       9.477  -8.615 -10.533  1.00  0.00     0.293 HD
ENDBRANCH   2  14
TORSDOF 2
ENDMDL
MODEL 5
REMARK VINA RESULT:    -6.116      2.078      4.587
REMARK INTER + INTRA:          -6.698
REMARK INTER:                  -6.646
REMARK INTRA:                  -0.052
REMARK UNBOUND:                -0.046
REMARK SMILES COc1cc2ccc(=O)oc2cc1O
REMARK SMILES IDX 3 1 13 2 12 3 11 4 5 5 4 6 6 7 7 8 8 9 9 10 10 11 2 12 1 13
REMARK SMILES IDX 14 14
REMARK H PARENT 14 15
REMARK Flexibility Score: inf
ROOT
ATOM      1  C   UNL     1      11.359  -4.827 -11.341  1.00  0.00     0.161 A 
ATOM      2  C   UNL     1      11.006  -6.028 -11.986  1.00  0.00     0.161 A 
ATOM      3  C   UNL     1      11.711  -6.454 -13.118  1.00  0.00     0.098 A 
ATOM      4  C   UNL     1      12.770  -5.693 -13.619  1.00  0.00     0.142 A 
ATOM      5  C   UNL     1      13.131  -4.489 -12.980  1.00  0.00     0.022 A 
ATOM      6  C   UNL     1      12.427  -4.059 -11.847  1.00  0.00     0.062 A 
ATOM      7  C   UNL     1      14.195  -3.750 -13.506  1.00  0.00     0.019 A 
ATOM      8  C   UNL     1      14.864  -4.219 -14.635  1.00  0.00     0.094 A 
ATOM      9  C   UNL     1      14.450  -5.423 -15.216  1.00  0.00     0.336 A 
ATOM     10  O   UNL     1      15.040  -5.864 -16.236  1.00  0.00    -0.246 OA
ATOM     11  O   UNL     1      13.434  -6.107 -14.696  1.00  0.00    -0.423 OA
ENDROOT
BRANCH   1  12
ATOM     12  O   UNL     1      10.631  -4.429 -10.208  1.00  0.00    -0.493 OA
ATOM     13  C   UNL     1      11.213  -4.037  -8.969  1.00  0.00     0.278 C 
ENDBRANCH   1  12
BRANCH   2  14
ATOM     14  O   UNL     1       9.955  -6.815 -11.516  1.00  0.00    -0.504 OA
ATOM     15  H   UNL     1      10.107  -7.615 -10.913  1.00  0.00     0.293 HD
ENDBRANCH   2  14
TORSDOF 2
ENDMDL
MODEL 6
REMARK VINA RESULT:    -6.007     11.490     12.933
REMARK INTER + INTRA:          -6.579
REMARK INTER:                  -6.514
REMARK INTRA:                  -0.065
REMARK UNBOUND:                -0.046
REMARK SMILES COc1cc2ccc(=O)oc2cc1O
REMARK SMILES IDX 3 1 13 2 12 3 11 4 5 5 4 6 6 7 7 8 8 9 9 10 10 11 2 12 1 13
REMARK SMILES IDX 14 14
REMARK H PARENT 14 15
REMARK Flexibility Score: inf
ROOT
ATOM      1  C   UNL     1       1.756  -5.686  -8.429  1.00  0.00     0.161 A 
ATOM      2  C   UNL     1       0.959  -6.771  -8.016  1.00  0.00     0.161 A 
ATOM      3  C   UNL     1      -0.380  -6.569  -7.664  1.00  0.00     0.098 A 
ATOM      4  C   UNL     1      -0.941  -5.290  -7.719  1.00  0.00     0.142 A 
ATOM      5  C   UNL     1      -0.151  -4.197  -8.132  1.00  0.00     0.022 A 
ATOM      6  C   UNL     1       1.191  -4.396  -8.484  1.00  0.00     0.062 A 
ATOM      7  C   UNL     1      -0.740  -2.929  -8.176  1.00  0.00     0.019 A 
ATOM      8  C   UNL     1      -2.079  -2.783  -7.816  1.00  0.00     0.094 A 
ATOM      9  C   UNL     1      -2.800  -3.913  -7.417  1.00  0.00     0.336 A 
ATOM     10  O   UNL     1      -4.010  -3.802  -7.088  1.00  0.00    -0.246 OA
ATOM     11  O   UNL     1      -2.216  -5.108  -7.384  1.00  0.00    -0.423 OA
ENDROOT
BRANCH   1  12
ATOM     12  O   UNL     1       3.096  -5.925  -8.774  1.00  0.00    -0.493 OA
ATOM     13  C   UNL     1       4.203  -5.729  -7.901  1.00  0.00     0.278 C 
ENDBRANCH   1  12
BRANCH   2  14
ATOM     14  O   UNL     1       1.481  -8.063  -7.948  1.00  0.00    -0.504 OA
ATOM     15  H   UNL     1       1.039  -8.796  -7.407  1.00  0.00     0.293 HD
ENDBRANCH   2  14
TORSDOF 2
ENDMDL
MODEL 7
REMARK VINA RESULT:    -5.834      1.277      5.407
REMARK INTER + INTRA:          -6.391
REMARK INTER:                  -6.329
REMARK INTRA:                  -0.062
REMARK UNBOUND:                -0.046
REMARK SMILES COc1cc2ccc(=O)oc2cc1O
REMARK SMILES IDX 3 1 13 2 12 3 11 4 5 5 4 6 6 7 7 8 8 9 9 10 10 11 2 12 1 13
REMARK SMILES IDX 14 14
REMARK H PARENT 14 15
REMARK Flexibility Score: inf
ROOT
ATOM      1  C   UNL     1      10.488  -8.676 -11.503  1.00  0.00     0.161 A 
ATOM      2  C   UNL     1      11.244  -8.796 -12.685  1.00  0.00     0.161 A 
ATOM      3  C   UNL     1      11.920  -7.686 -13.204  1.00  0.00     0.098 A 
ATOM      4  C   UNL     1      11.853  -6.450 -12.557  1.00  0.00     0.142 A 
ATOM      5  C   UNL     1      11.099  -6.320 -11.372  1.00  0.00     0.022 A 
ATOM      6  C   UNL     1      10.420  -7.430 -10.849  1.00  0.00     0.062 A 
ATOM      7  C   UNL     1      11.051  -5.070 -10.747  1.00  0.00     0.019 A 
ATOM      8  C   UNL     1      11.743  -3.997 -11.306  1.00  0.00     0.094 A 
ATOM      9  C   UNL     1      12.471  -4.200 -12.484  1.00  0.00     0.336 A 
ATOM     10  O   UNL     1      13.103  -3.245 -13.005  1.00  0.00    -0.246 OA
ATOM     11  O   UNL     1      12.500  -5.400 -13.058  1.00  0.00    -0.423 OA
ENDROOT
BRANCH   1  12
ATOM     12  O   UNL     1       9.822  -9.810 -11.009  1.00  0.00    -0.493 OA
ATOM     13  C   UNL     1       8.408  -9.965 -10.974  1.00  0.00     0.278 C 
ENDBRANCH   1  12
BRANCH   2  14
ATOM     14  O   UNL     1      11.336 -10.012 -13.361  1.00  0.00    -0.504 OA
ATOM     15  H   UNL     1      10.912 -10.159 -14.269  1.00  0.00     0.293 HD
ENDBRANCH   2  14
TORSDOF 2
ENDMDL
MODEL 8
REMARK VINA RESULT:    -5.708     12.338     13.651
REMARK INTER + INTRA:          -6.254
REMARK INTER:                  -6.196
REMARK INTRA:                  -0.058
REMARK UNBOUND:                -0.046
REMARK SMILES COc1cc2ccc(=O)oc2cc1O
REMARK SMILES IDX 3 1 13 2 12 3 11 4 5 5 4 6 6 7 7 8 8 9 9 10 10 11 2 12 1 13
REMARK SMILES IDX 14 14
REMARK H PARENT 14 15
REMARK Flexibility Score: inf
ROOT
ATOM      1  C   UNL     1      -2.222  -3.211  -7.343  1.00  0.00     0.161 A 
ATOM      2  C   UNL     1      -2.774  -4.503  -7.249  1.00  0.00     0.161 A 
ATOM      3  C   UNL     1      -1.974  -5.629  -7.474  1.00  0.00     0.098 A 
ATOM      4  C   UNL     1      -0.622  -5.484  -7.793  1.00  0.00     0.142 A 
ATOM      5  C   UNL     1      -0.060  -4.194  -7.889  1.00  0.00     0.022 A 
ATOM      6  C   UNL     1      -0.858  -3.064  -7.665  1.00  0.00     0.062 A 
ATOM      7  C   UNL     1       1.297  -4.082  -8.210  1.00  0.00     0.019 A 
ATOM      8  C   UNL     1       2.048  -5.236  -8.423  1.00  0.00     0.094 A 
ATOM      9  C   UNL     1       1.423  -6.482  -8.311  1.00  0.00     0.336 A 
ATOM     10  O   UNL     1       2.084  -7.537  -8.500  1.00  0.00    -0.246 OA
ATOM     11  O   UNL     1       0.131  -6.562  -8.004  1.00  0.00    -0.423 OA
ENDROOT
BRANCH   1  12
ATOM     12  O   UNL     1      -3.053  -2.102  -7.112  1.00  0.00    -0.493 OA
ATOM     13  C   UNL     1      -3.223  -1.469  -5.848  1.00  0.00     0.278 C 
ENDBRANCH   1  12
BRANCH   2  14
ATOM     14  O   UNL     1      -4.120  -4.689  -6.933  1.00  0.00    -0.504 OA
ATOM     15  H   UNL     1      -4.565  -4.207  -6.161  1.00  0.00     0.293 HD
ENDBRANCH   2  14
TORSDOF 2
ENDMDL
MODEL 9
REMARK VINA RESULT:    -5.669     13.945     14.638
REMARK INTER + INTRA:          -6.211
REMARK INTER:                  -6.148
REMARK INTRA:                  -0.063
REMARK UNBOUND:                -0.046
REMARK SMILES COc1cc2ccc(=O)oc2cc1O
REMARK SMILES IDX 3 1 13 2 12 3 11 4 5 5 4 6 6 7 7 8 8 9 9 10 10 11 2 12 1 13
REMARK SMILES IDX 14 14
REMARK H PARENT 14 15
REMARK Flexibility Score: inf
ROOT
ATOM      1  C   UNL     1      -1.918  -3.363  -6.598  1.00  0.00     0.161 A 
ATOM      2  C   UNL     1      -1.820  -3.808  -7.931  1.00  0.00     0.161 A 
ATOM      3  C   UNL     1      -1.693  -5.173  -8.210  1.00  0.00     0.098 A 
ATOM      4  C   UNL     1      -1.661  -6.108  -7.173  1.00  0.00     0.142 A 
ATOM      5  C   UNL     1      -1.758  -5.672  -5.835  1.00  0.00     0.022 A 
ATOM      6  C   UNL     1      -1.886  -4.305  -5.551  1.00  0.00     0.062 A 
ATOM      7  C   UNL     1      -1.724  -6.631  -4.818  1.00  0.00     0.019 A 
ATOM      8  C   UNL     1      -1.596  -7.979  -5.151  1.00  0.00     0.094 A 
ATOM      9  C   UNL     1      -1.505  -8.337  -6.500  1.00  0.00     0.336 A 
ATOM     10  O   UNL     1      -1.389  -9.548  -6.823  1.00  0.00    -0.246 OA
ATOM     11  O   UNL     1      -1.541  -7.405  -7.448  1.00  0.00    -0.423 OA
ENDROOT
BRANCH   1  12
ATOM     12  O   UNL     1      -2.044  -1.985  -6.353  1.00  0.00    -0.493 OA
ATOM     13  C   UNL     1      -3.238  -1.350  -5.907  1.00  0.00     0.278 C 
ENDBRANCH   1  12
BRANCH   2  14
ATOM     14  O   UNL     1      -1.848  -2.906  -8.994  1.00  0.00    -0.504 OA
ATOM     15  H   UNL     1      -1.942  -1.907  -8.853  1.00  0.00     0.293 HD
ENDBRANCH   2  14
TORSDOF 2
ENDMDL
