MODEL 1
REMARK VINA RESULT:    -6.082      0.000      0.000
REMARK INTER + INTRA:          -9.381
REMARK INTER:                  -8.216
REMARK INTRA:                  -1.165
REMARK UNBOUND:                -1.165
REMARK SMILES O=c1c(-c2ccc(O)cc2)coc2c([C@H]3O[C@H](CO)[C@@H](O)[C@@H](O)[C@H]3O)c(O)ccc12
REMARK SMILES IDX 3 1 11 2 12 3 13 4 30 5 2 6 1 7 29 8 28 9 26 10 14 11 4 12
REMARK SMILES IDX 5 13 6 14 7 15 10 16 9 17 8 18 15 20 24 21 16 22 22 23 17 24
REMARK SMILES IDX 20 25 25 26 23 28 18 30 19 31 21 33 27 35
REMARK H PARENT 8 19 25 27 23 29 19 32 21 34 27 36
REMARK Flexibility Score: inf
ROOT
ATOM      1  C   UNL     1     174.176 169.959 172.492  1.00  0.00     0.065 A 
ATOM      2  C   UNL     1     173.089 170.585 171.865  1.00  0.00     0.208 A 
ATOM      3  O   UNL     1     171.874 170.058 171.922  1.00  0.00    -0.463 OA
ATOM      4  C   UNL     1     171.601 168.923 172.560  1.00  0.00     0.147 A 
ATOM      5  C   UNL     1     172.636 168.222 173.217  1.00  0.00     0.066 A 
ATOM      6  C   UNL     1     173.938 168.759 173.189  1.00  0.00     0.200 A 
ATOM      7  O   UNL     1     174.888 168.160 173.767  1.00  0.00    -0.288 OA
ATOM      8  C   UNL     1     172.349 167.006 173.860  1.00  0.00     0.020 A 
ATOM      9  C   UNL     1     171.054 166.485 173.830  1.00  0.00     0.047 A 
ATOM     10  C   UNL     1     170.019 167.178 173.187  1.00  0.00     0.125 A 
ATOM     11  C   UNL     1     170.278 168.419 172.563  1.00  0.00     0.069 A 
ENDROOT
BRANCH   1  12
ATOM     12  C   UNL     1     175.528 170.562 172.396  1.00  0.00    -0.011 A 
ATOM     13  C   UNL     1     175.913 171.572 173.297  1.00  0.00     0.013 A 
ATOM     14  C   UNL     1     177.199 172.119 173.240  1.00  0.00     0.047 A 
ATOM     15  C   UNL     1     178.119 171.659 172.289  1.00  0.00     0.115 A 
ATOM     16  C   UNL     1     176.453 170.114 171.436  1.00  0.00     0.013 A 
ATOM     17  C   UNL     1     177.742 170.660 171.385  1.00  0.00     0.047 A 
BRANCH  15  18
ATOM     18  O   UNL     1     179.410 172.184 172.234  1.00  0.00    -0.508 OA
ATOM     19  H   UNL     1     180.207 171.675 172.605  1.00  0.00     0.293 HD
ENDBRANCH  15  18
ENDBRANCH   1  12
BRANCH  11  20
ATOM     20  C   UNL     1     169.169 169.173 171.845  1.00  0.00     0.188 C 
ATOM     21  C   UNL     1     168.257 169.959 172.841  1.00  0.00     0.179 C 
ATOM     22  O   UNL     1     168.430 168.252 171.056  1.00  0.00    -0.362 OA
ATOM     23  C   UNL     1     166.779 169.935 172.396  1.00  0.00     0.177 C 
ATOM     24  C   UNL     1     167.492 168.886 170.189  1.00  0.00     0.176 C 
ATOM     25  C   UNL     1     166.716 170.061 170.864  1.00  0.00     0.177 C 
BRANCH  21  26
ATOM     26  O   UNL     1     168.364 169.467 174.154  1.00  0.00    -0.387 OA
ATOM     27  H   UNL     1     167.729 169.986 174.713  1.00  0.00     0.211 HD
ENDBRANCH  21  26
BRANCH  23  28
ATOM     28  O   UNL     1     166.180 168.734 172.821  1.00  0.00    -0.387 OA
ATOM     29  H   UNL     1     166.819 168.298 173.444  1.00  0.00     0.211 HD
ENDBRANCH  23  28
BRANCH  24  30
ATOM     30  C   UNL     1     168.175 169.300 168.872  1.00  0.00     0.191 C 
BRANCH  30  31
ATOM     31  O   UNL     1     168.030 170.674 168.636  1.00  0.00    -0.394 OA
ATOM     32  H   UNL     1     167.059 170.852 168.554  1.00  0.00     0.210 HD
ENDBRANCH  30  31
ENDBRANCH  24  30
BRANCH  25  33
ATOM     33  O   UNL     1     165.380 170.134 170.418  1.00  0.00    -0.388 OA
ATOM     34  H   UNL     1     164.980 169.228 170.489  1.00  0.00     0.211 HD
ENDBRANCH  25  33
ENDBRANCH  11  20
BRANCH  10  35
ATOM     35  O   UNL     1     168.735 166.631 173.165  1.00  0.00    -0.507 OA
ATOM     36  H   UNL     1     168.575 165.660 172.910  1.00  0.00     0.293 HD
ENDBRANCH  10  35
TORSDOF 9
ENDMDL
MODEL 2
REMARK VINA RESULT:    -6.005      4.361      6.019
REMARK INTER + INTRA:          -9.276
REMARK INTER:                  -8.083
REMARK INTRA:                  -1.193
REMARK UNBOUND:                -1.165
REMARK SMILES O=c1c(-c2ccc(O)cc2)coc2c([C@H]3O[C@H](CO)[C@@H](O)[C@@H](O)[C@H]3O)c(O)ccc12
REMARK SMILES IDX 3 1 11 2 12 3 13 4 30 5 2 6 1 7 29 8 28 9 26 10 14 11 4 12
REMARK SMILES IDX 5 13 6 14 7 15 10 16 9 17 8 18 15 20 24 21 16 22 22 23 17 24
REMARK SMILES IDX 20 25 25 26 23 28 18 30 19 31 21 33 27 35
REMARK H PARENT 8 19 25 27 23 29 19 32 21 34 27 36
REMARK Flexibility Score: inf
ROOT
ATOM      1  C   UNL     1     175.551 168.500 172.592  1.00  0.00     0.065 A 
ATOM      2  C   UNL     1     174.650 168.258 173.638  1.00  0.00     0.208 A 
ATOM      3  O   UNL     1     174.132 167.052 173.824  1.00  0.00    -0.463 OA
ATOM      4  C   UNL     1     174.417 166.008 173.051  1.00  0.00     0.147 A 
ATOM      5  C   UNL     1     175.313 166.162 171.970  1.00  0.00     0.066 A 
ATOM      6  C   UNL     1     175.894 167.426 171.749  1.00  0.00     0.200 A 
ATOM      7  O   UNL     1     176.701 167.599 170.793  1.00  0.00    -0.288 OA
ATOM      8  C   UNL     1     175.585 165.065 171.135  1.00  0.00     0.020 A 
ATOM      9  C   UNL     1     174.957 163.839 171.361  1.00  0.00     0.047 A 
ATOM     10  C   UNL     1     174.072 163.675 172.436  1.00  0.00     0.125 A 
ATOM     11  C   UNL     1     173.810 164.755 173.308  1.00  0.00     0.069 A 
ENDROOT
BRANCH   1  12
ATOM     12  C   UNL     1     176.102 169.864 172.397  1.00  0.00    -0.011 A 
ATOM     13  C   UNL     1     175.479 170.754 171.502  1.00  0.00     0.013 A 
ATOM     14  C   UNL     1     175.968 172.054 171.342  1.00  0.00     0.047 A 
ATOM     15  C   UNL     1     177.079 172.486 172.078  1.00  0.00     0.115 A 
ATOM     16  C   UNL     1     177.225 170.301 173.124  1.00  0.00     0.013 A 
ATOM     17  C   UNL     1     177.708 171.606 172.964  1.00  0.00     0.047 A 
BRANCH  15  18
ATOM     18  O   UNL     1     177.564 173.787 171.941  1.00  0.00    -0.508 OA
ATOM     19  H   UNL     1     176.938 174.585 171.893  1.00  0.00     0.293 HD
ENDBRANCH  15  18
ENDBRANCH   1  12
BRANCH  11  20
ATOM     20  C   UNL     1     172.838 164.598 174.468  1.00  0.00     0.188 C 
ATOM     21  C   UNL     1     173.488 163.853 175.678  1.00  0.00     0.179 C 
ATOM     22  O   UNL     1     171.672 163.939 173.998  1.00  0.00    -0.362 OA
ATOM     23  C   UNL     1     172.477 162.920 176.378  1.00  0.00     0.177 C 
ATOM     24  C   UNL     1     170.616 163.919 174.957  1.00  0.00     0.176 C 
ATOM     25  C   UNL     1     171.100 163.606 176.408  1.00  0.00     0.177 C 
BRANCH  21  26
ATOM     26  O   UNL     1     174.624 163.119 175.296  1.00  0.00    -0.387 OA
ATOM     27  H   UNL     1     174.345 162.505 174.567  1.00  0.00     0.211 HD
ENDBRANCH  21  26
BRANCH  23  28
ATOM     28  O   UNL     1     172.408 161.697 175.683  1.00  0.00    -0.387 OA
ATOM     29  H   UNL     1     172.468 160.976 176.364  1.00  0.00     0.211 HD
ENDBRANCH  23  28
BRANCH  24  30
ATOM     30  C   UNL     1     169.788 165.215 174.870  1.00  0.00     0.191 C 
BRANCH  30  31
ATOM     31  O   UNL     1     169.692 165.840 176.120  1.00  0.00    -0.394 OA
ATOM     32  H   UNL     1     169.217 165.212 176.721  1.00  0.00     0.210 HD
ENDBRANCH  30  31
ENDBRANCH  24  30
BRANCH  25  33
ATOM     33  O   UNL     1     170.164 162.828 177.119  1.00  0.00    -0.388 OA
ATOM     34  H   UNL     1     169.669 162.266 176.466  1.00  0.00     0.211 HD
ENDBRANCH  25  33
ENDBRANCH  11  20
BRANCH  10  35
ATOM     35  O   UNL     1     173.452 162.441 172.634  1.00  0.00    -0.507 OA
ATOM     36  H   UNL     1     173.960 161.567 172.533  1.00  0.00     0.293 HD
ENDBRANCH  10  35
TORSDOF 9
ENDMDL
MODEL 3
REMARK VINA RESULT:    -5.963      5.626      8.298
REMARK INTER + INTRA:          -9.219
REMARK INTER:                  -8.024
REMARK INTRA:                  -1.196
REMARK UNBOUND:                -1.165
REMARK SMILES O=c1c(-c2ccc(O)cc2)coc2c([C@H]3O[C@H](CO)[C@@H](O)[C@@H](O)[C@H]3O)c(O)ccc12
REMARK SMILES IDX 3 1 11 2 12 3 13 4 30 5 2 6 1 7 29 8 28 9 26 10 14 11 4 12
REMARK SMILES IDX 5 13 6 14 7 15 10 16 9 17 8 18 15 20 24 21 16 22 22 23 17 24
REMARK SMILES IDX 20 25 25 26 23 28 18 30 19 31 21 33 27 35
REMARK H PARENT 8 19 25 27 23 29 19 32 21 34 27 36
REMARK Flexibility Score: inf
ROOT
ATOM      1  C   UNL     1     176.048 169.144 170.892  1.00  0.00     0.065 A 
ATOM      2  C   UNL     1     176.578 167.885 171.207  1.00  0.00     0.208 A 
ATOM      3  O   UNL     1     176.349 166.835 170.430  1.00  0.00    -0.463 OA
ATOM      4  C   UNL     1     175.614 166.894 169.323  1.00  0.00     0.147 A 
ATOM      5  C   UNL     1     175.037 168.123 168.930  1.00  0.00     0.066 A 
ATOM      6  C   UNL     1     175.271 169.263 169.724  1.00  0.00     0.200 A 
ATOM      7  O   UNL     1     174.772 170.377 169.402  1.00  0.00    -0.288 OA
ATOM      8  C   UNL     1     174.234 168.174 167.778  1.00  0.00     0.020 A 
ATOM      9  C   UNL     1     173.991 167.013 167.041  1.00  0.00     0.047 A 
ATOM     10  C   UNL     1     174.567 165.791 167.418  1.00  0.00     0.125 A 
ATOM     11  C   UNL     1     175.404 165.724 168.554  1.00  0.00     0.069 A 
ENDROOT
BRANCH   1  12
ATOM     12  C   UNL     1     176.308 170.296 171.789  1.00  0.00    -0.011 A 
ATOM     13  C   UNL     1     177.490 171.047 171.647  1.00  0.00     0.013 A 
ATOM     14  C   UNL     1     177.724 172.158 172.463  1.00  0.00     0.047 A 
ATOM     15  C   UNL     1     176.778 172.541 173.423  1.00  0.00     0.115 A 
ATOM     16  C   UNL     1     175.368 170.679 172.764  1.00  0.00     0.013 A 
ATOM     17  C   UNL     1     175.604 171.796 173.574  1.00  0.00     0.047 A 
BRANCH  15  18
ATOM     18  O   UNL     1     176.992 173.659 174.229  1.00  0.00    -0.508 OA
ATOM     19  H   UNL     1     176.436 173.829 175.061  1.00  0.00     0.293 HD
ENDBRANCH  15  18
ENDBRANCH   1  12
BRANCH  11  20
ATOM     20  C   UNL     1     176.020 164.403 168.986  1.00  0.00     0.188 C 
ATOM     21  C   UNL     1     177.260 164.022 168.116  1.00  0.00     0.179 C 
ATOM     22  O   UNL     1     175.015 163.400 168.952  1.00  0.00    -0.362 OA
ATOM     23  C   UNL     1     177.329 162.502 167.860  1.00  0.00     0.177 C 
ATOM     24  C   UNL     1     175.437 162.166 169.529  1.00  0.00     0.176 C 
ATOM     25  C   UNL     1     176.892 161.759 169.134  1.00  0.00     0.177 C 
BRANCH  21  26
ATOM     26  O   UNL     1     177.274 164.711 166.890  1.00  0.00    -0.387 OA
ATOM     27  H   UNL     1     176.406 165.187 166.812  1.00  0.00     0.211 HD
ENDBRANCH  21  26
BRANCH  23  28
ATOM     28  O   UNL     1     176.488 162.170 166.779  1.00  0.00    -0.387 OA
ATOM     29  H   UNL     1     175.899 162.954 166.621  1.00  0.00     0.211 HD
ENDBRANCH  23  28
BRANCH  24  30
ATOM     30  C   UNL     1     175.216 162.183 171.054  1.00  0.00     0.191 C 
BRANCH  30  31
ATOM     31  O   UNL     1     176.354 161.736 171.737  1.00  0.00    -0.394 OA
ATOM     32  H   UNL     1     176.099 161.638 172.689  1.00  0.00     0.210 HD
ENDBRANCH  30  31
ENDBRANCH  24  30
BRANCH  25  33
ATOM     33  O   UNL     1     177.024 160.364 168.976  1.00  0.00    -0.388 OA
ATOM     34  H   UNL     1     176.121 159.957 169.058  1.00  0.00     0.211 HD
ENDBRANCH  25  33
ENDBRANCH  11  20
BRANCH  10  35
ATOM     35  O   UNL     1     174.301 164.645 166.668  1.00  0.00    -0.507 OA
ATOM     36  H   UNL     1     173.577 164.632 165.954  1.00  0.00     0.293 HD
ENDBRANCH  10  35
TORSDOF 9
ENDMDL
MODEL 4
REMARK VINA RESULT:    -5.921      4.110      5.745
REMARK INTER + INTRA:          -9.163
REMARK INTER:                  -7.979
REMARK INTRA:                  -1.184
REMARK UNBOUND:                -1.165
REMARK SMILES O=c1c(-c2ccc(O)cc2)coc2c([C@H]3O[C@H](CO)[C@@H](O)[C@@H](O)[C@H]3O)c(O)ccc12
REMARK SMILES IDX 3 1 11 2 12 3 13 4 30 5 2 6 1 7 29 8 28 9 26 10 14 11 4 12
REMARK SMILES IDX 5 13 6 14 7 15 10 16 9 17 8 18 15 20 24 21 16 22 22 23 17 24
REMARK SMILES IDX 20 25 25 26 23 28 18 30 19 31 21 33 27 35
REMARK H PARENT 8 19 25 27 23 29 19 32 21 34 27 36
REMARK Flexibility Score: inf
ROOT
ATOM      1  C   UNL     1     174.696 170.535 170.848  1.00  0.00     0.065 A 
ATOM      2  C   UNL     1     175.013 170.235 169.516  1.00  0.00     0.208 A 
ATOM      3  O   UNL     1     174.076 169.837 168.667  1.00  0.00    -0.463 OA
ATOM      4  C   UNL     1     172.798 169.690 169.006  1.00  0.00     0.147 A 
ATOM      5  C   UNL     1     172.389 169.966 170.330  1.00  0.00     0.066 A 
ATOM      6  C   UNL     1     173.355 170.405 171.257  1.00  0.00     0.200 A 
ATOM      7  O   UNL     1     173.026 170.662 172.448  1.00  0.00    -0.288 OA
ATOM      8  C   UNL     1     171.045 169.777 170.694  1.00  0.00     0.020 A 
ATOM      9  C   UNL     1     170.126 169.300 169.757  1.00  0.00     0.047 A 
ATOM     10  C   UNL     1     170.521 169.032 168.439  1.00  0.00     0.125 A 
ATOM     11  C   UNL     1     171.860 169.246 168.043  1.00  0.00     0.069 A 
ENDROOT
BRANCH   1  12
ATOM     12  C   UNL     1     175.768 170.962 171.780  1.00  0.00    -0.011 A 
ATOM     13  C   UNL     1     176.357 170.028 172.653  1.00  0.00     0.013 A 
ATOM     14  C   UNL     1     177.395 170.413 173.507  1.00  0.00     0.047 A 
ATOM     15  C   UNL     1     177.865 171.733 173.495  1.00  0.00     0.115 A 
ATOM     16  C   UNL     1     176.238 172.288 171.783  1.00  0.00     0.013 A 
ATOM     17  C   UNL     1     177.282 172.669 172.635  1.00  0.00     0.047 A 
BRANCH  15  18
ATOM     18  O   UNL     1     178.913 172.124 174.328  1.00  0.00    -0.508 OA
ATOM     19  H   UNL     1     179.809 172.420 173.953  1.00  0.00     0.293 HD
ENDBRANCH  15  18
ENDBRANCH   1  12
BRANCH  11  20
ATOM     20  C   UNL     1     172.308 168.942 166.622  1.00  0.00     0.188 C 
ATOM     21  C   UNL     1     171.929 170.089 165.631  1.00  0.00     0.179 C 
ATOM     22  O   UNL     1     171.757 167.693 166.229  1.00  0.00    -0.362 OA
ATOM     23  C   UNL     1     171.511 169.534 164.253  1.00  0.00     0.177 C 
ATOM     24  C   UNL     1     172.274 167.219 164.988  1.00  0.00     0.176 C 
ATOM     25  C   UNL     1     172.409 168.335 163.903  1.00  0.00     0.177 C 
BRANCH  21  26
ATOM     26  O   UNL     1     170.908 170.910 166.141  1.00  0.00    -0.387 OA
ATOM     27  H   UNL     1     170.064 170.639 165.694  1.00  0.00     0.211 HD
ENDBRANCH  21  26
BRANCH  23  28
ATOM     28  O   UNL     1     170.157 169.146 164.295  1.00  0.00    -0.387 OA
ATOM     29  H   UNL     1     170.135 168.163 164.151  1.00  0.00     0.211 HD
ENDBRANCH  23  28
BRANCH  24  30
ATOM     30  C   UNL     1     173.587 166.446 165.214  1.00  0.00     0.191 C 
BRANCH  30  31
ATOM     31  O   UNL     1     174.557 166.805 164.268  1.00  0.00    -0.394 OA
ATOM     32  H   UNL     1     175.185 167.423 164.719  1.00  0.00     0.210 HD
ENDBRANCH  30  31
ENDBRANCH  24  30
BRANCH  25  33
ATOM     33  O   UNL     1     172.122 167.849 162.611  1.00  0.00    -0.388 OA
ATOM     34  H   UNL     1     171.229 168.192 162.343  1.00  0.00     0.211 HD
ENDBRANCH  25  33
ENDBRANCH  11  20
BRANCH  10  35
ATOM     35  O   UNL     1     169.584 168.548 167.525  1.00  0.00    -0.507 OA
ATOM     36  H   UNL     1     168.585 168.670 167.672  1.00  0.00     0.293 HD
ENDBRANCH  10  35
TORSDOF 9
ENDMDL
MODEL 5
REMARK VINA RESULT:    -5.620      3.689      5.289
REMARK INTER + INTRA:          -8.756
REMARK INTER:                  -8.304
REMARK INTRA:                  -0.452
REMARK UNBOUND:                -1.165
REMARK SMILES O=c1c(-c2ccc(O)cc2)coc2c([C@H]3O[C@H](CO)[C@@H](O)[C@@H](O)[C@H]3O)c(O)ccc12
REMARK SMILES IDX 3 1 11 2 12 3 13 4 30 5 2 6 1 7 29 8 28 9 26 10 14 11 4 12
REMARK SMILES IDX 5 13 6 14 7 15 10 16 9 17 8 18 15 20 24 21 16 22 22 23 17 24
REMARK SMILES IDX 20 25 25 26 23 28 18 30 19 31 21 33 27 35
REMARK H PARENT 8 19 25 27 23 29 19 32 21 34 27 36
REMARK Flexibility Score: inf
ROOT
ATOM      1  C   UNL     1     174.354 170.604 170.951  1.00  0.00     0.065 A 
ATOM      2  C   UNL     1     174.418 170.422 169.563  1.00  0.00     0.208 A 
ATOM      3  O   UNL     1     173.345 170.058 168.874  1.00  0.00    -0.463 OA
ATOM      4  C   UNL     1     172.158 169.841 169.434  1.00  0.00     0.147 A 
ATOM      5  C   UNL     1     172.003 169.997 170.830  1.00  0.00     0.066 A 
ATOM      6  C   UNL     1     173.118 170.396 171.592  1.00  0.00     0.200 A 
ATOM      7  O   UNL     1     173.016 170.547 172.842  1.00  0.00    -0.288 OA
ATOM      8  C   UNL     1     170.756 169.733 171.422  1.00  0.00     0.020 A 
ATOM      9  C   UNL     1     169.685 169.300 170.638  1.00  0.00     0.047 A 
ATOM     10  C   UNL     1     169.828 169.150 169.251  1.00  0.00     0.125 A 
ATOM     11  C   UNL     1     171.063 169.442 168.631  1.00  0.00     0.069 A 
ENDROOT
BRANCH   1  12
ATOM     12  C   UNL     1     175.576 170.994 171.698  1.00  0.00    -0.011 A 
ATOM     13  C   UNL     1     176.087 172.299 171.578  1.00  0.00     0.013 A 
ATOM     14  C   UNL     1     177.215 172.687 172.309  1.00  0.00     0.047 A 
ATOM     15  C   UNL     1     177.841 171.781 173.175  1.00  0.00     0.115 A 
ATOM     16  C   UNL     1     176.217 170.086 172.560  1.00  0.00     0.013 A 
ATOM     17  C   UNL     1     177.342 170.480 173.295  1.00  0.00     0.047 A 
BRANCH  15  18
ATOM     18  O   UNL     1     178.955 172.162 173.923  1.00  0.00    -0.508 OA
ATOM     19  H   UNL     1     179.099 173.126 174.207  1.00  0.00     0.293 HD
ENDBRANCH  15  18
ENDBRANCH   1  12
BRANCH  11  20
ATOM     20  C   UNL     1     171.238 169.266 167.130  1.00  0.00     0.188 C 
ATOM     21  C   UNL     1     171.736 167.832 166.763  1.00  0.00     0.179 C 
ATOM     22  O   UNL     1     172.116 170.276 166.653  1.00  0.00    -0.362 OA
ATOM     23  C   UNL     1     172.730 167.862 165.582  1.00  0.00     0.177 C 
ATOM     24  C   UNL     1     172.191 170.325 165.230  1.00  0.00     0.176 C 
ATOM     25  C   UNL     1     172.264 168.915 164.562  1.00  0.00     0.177 C 
BRANCH  21  26
ATOM     26  O   UNL     1     172.325 167.182 167.862  1.00  0.00    -0.387 OA
ATOM     27  H   UNL     1     171.826 167.466 168.672  1.00  0.00     0.211 HD
ENDBRANCH  21  26
BRANCH  23  28
ATOM     28  O   UNL     1     174.018 168.169 166.061  1.00  0.00    -0.387 OA
ATOM     29  H   UNL     1     174.486 168.658 165.333  1.00  0.00     0.211 HD
ENDBRANCH  23  28
BRANCH  24  30
ATOM     30  C   UNL     1     171.055 171.196 164.662  1.00  0.00     0.191 C 
BRANCH  30  31
ATOM     31  O   UNL     1     170.926 171.023 163.278  1.00  0.00    -0.394 OA
ATOM     32  H   UNL     1     170.587 171.878 162.911  1.00  0.00     0.210 HD
ENDBRANCH  30  31
ENDBRANCH  24  30
BRANCH  25  33
ATOM     33  O   UNL     1     173.093 168.915 163.422  1.00  0.00    -0.388 OA
ATOM     34  H   UNL     1     172.618 168.435 162.693  1.00  0.00     0.211 HD
ENDBRANCH  25  33
ENDBRANCH  11  20
BRANCH  10  35
ATOM     35  O   UNL     1     168.744 168.707 168.493  1.00  0.00    -0.507 OA
ATOM     36  H   UNL     1     167.988 169.334 168.227  1.00  0.00     0.293 HD
ENDBRANCH  10  35
TORSDOF 9
ENDMDL
MODEL 6
REMARK VINA RESULT:    -5.480      6.024      7.898
REMARK INTER + INTRA:          -8.567
REMARK INTER:                  -7.382
REMARK INTRA:                  -1.185
REMARK UNBOUND:                -1.165
REMARK SMILES O=c1c(-c2ccc(O)cc2)coc2c([C@H]3O[C@H](CO)[C@@H](O)[C@@H](O)[C@H]3O)c(O)ccc12
REMARK SMILES IDX 3 1 11 2 12 3 13 4 30 5 2 6 1 7 29 8 28 9 26 10 14 11 4 12
REMARK SMILES IDX 5 13 6 14 7 15 10 16 9 17 8 18 15 20 24 21 16 22 22 23 17 24
REMARK SMILES IDX 20 25 25 26 23 28 18 30 19 31 21 33 27 35
REMARK H PARENT 8 19 25 27 23 29 19 32 21 34 27 36
REMARK Flexibility Score: inf
ROOT
ATOM      1  C   UNL     1     175.987 165.130 168.190  1.00  0.00     0.065 A 
ATOM      2  C   UNL     1     175.149 165.482 167.123  1.00  0.00     0.208 A 
ATOM      3  O   UNL     1     174.592 166.683 167.062  1.00  0.00    -0.463 OA
ATOM      4  C   UNL     1     174.778 167.621 167.986  1.00  0.00     0.147 A 
ATOM      5  C   UNL     1     175.605 167.353 169.100  1.00  0.00     0.066 A 
ATOM      6  C   UNL     1     176.225 166.091 169.192  1.00  0.00     0.200 A 
ATOM      7  O   UNL     1     176.971 165.817 170.172  1.00  0.00    -0.288 OA
ATOM      8  C   UNL     1     175.771 168.334 170.092  1.00  0.00     0.020 A 
ATOM      9  C   UNL     1     175.106 169.557 169.986  1.00  0.00     0.047 A 
ATOM     10  C   UNL     1     174.290 169.836 168.880  1.00  0.00     0.125 A 
ATOM     11  C   UNL     1     174.135 168.876 167.855  1.00  0.00     0.069 A 
ENDROOT
BRANCH   1  12
ATOM     12  C   UNL     1     176.583 163.773 168.241  1.00  0.00    -0.011 A 
ATOM     13  C   UNL     1     177.785 163.506 167.560  1.00  0.00     0.013 A 
ATOM     14  C   UNL     1     178.375 162.240 167.634  1.00  0.00     0.047 A 
ATOM     15  C   UNL     1     177.777 161.227 168.396  1.00  0.00     0.115 A 
ATOM     16  C   UNL     1     175.983 162.748 168.994  1.00  0.00     0.013 A 
ATOM     17  C   UNL     1     176.579 161.483 169.071  1.00  0.00     0.047 A 
BRANCH  15  18
ATOM     18  O   UNL     1     178.366 159.966 168.494  1.00  0.00    -0.508 OA
ATOM     19  H   UNL     1     178.592 159.420 167.668  1.00  0.00     0.293 HD
ENDBRANCH  15  18
ENDBRANCH   1  12
BRANCH  11  20
ATOM     20  C   UNL     1     173.238 169.156 166.659  1.00  0.00     0.188 C 
ATOM     21  C   UNL     1     173.956 170.032 165.582  1.00  0.00     0.179 C 
ATOM     22  O   UNL     1     172.037 169.755 167.122  1.00  0.00    -0.362 OA
ATOM     23  C   UNL     1     172.982 171.032 164.924  1.00  0.00     0.177 C 
ATOM     24  C   UNL     1     171.045 169.877 166.105  1.00  0.00     0.176 C 
ATOM     25  C   UNL     1     171.617 170.349 164.730  1.00  0.00     0.177 C 
BRANCH  21  26
ATOM     26  O   UNL     1     175.058 170.723 166.115  1.00  0.00    -0.387 OA
ATOM     27  H   UNL     1     175.717 170.041 166.410  1.00  0.00     0.211 HD
ENDBRANCH  21  26
BRANCH  23  28
ATOM     28  O   UNL     1     172.855 172.171 165.743  1.00  0.00    -0.387 OA
ATOM     29  H   UNL     1     173.588 172.128 166.412  1.00  0.00     0.211 HD
ENDBRANCH  23  28
BRANCH  24  30
ATOM     30  C   UNL     1     170.227 168.576 165.995  1.00  0.00     0.191 C 
BRANCH  30  31
ATOM     31  O   UNL     1     169.922 168.280 164.660  1.00  0.00    -0.394 OA
ATOM     32  H   UNL     1     170.762 167.972 164.234  1.00  0.00     0.210 HD
ENDBRANCH  30  31
ENDBRANCH  24  30
BRANCH  25  33
ATOM     33  O   UNL     1     170.720 171.197 164.050  1.00  0.00    -0.388 OA
ATOM     34  H   UNL     1     171.081 172.122 164.085  1.00  0.00     0.211 HD
ENDBRANCH  25  33
ENDBRANCH  11  20
BRANCH  10  35
ATOM     35  O   UNL     1     173.630 171.063 168.804  1.00  0.00    -0.507 OA
ATOM     36  H   UNL     1     174.141 171.941 168.773  1.00  0.00     0.293 HD
ENDBRANCH  10  35
TORSDOF 9
ENDMDL
MODEL 7
REMARK VINA RESULT:    -5.444      3.711      4.750
REMARK INTER + INTRA:          -8.518
REMARK INTER:                  -7.319
REMARK INTRA:                  -1.199
REMARK UNBOUND:                -1.165
REMARK SMILES O=c1c(-c2ccc(O)cc2)coc2c([C@H]3O[C@H](CO)[C@@H](O)[C@@H](O)[C@H]3O)c(O)ccc12
REMARK SMILES IDX 3 1 11 2 12 3 13 4 30 5 2 6 1 7 29 8 28 9 26 10 14 11 4 12
REMARK SMILES IDX 5 13 6 14 7 15 10 16 9 17 8 18 15 20 24 21 16 22 22 23 17 24
REMARK SMILES IDX 20 25 25 26 23 28 18 30 19 31 21 33 27 35
REMARK H PARENT 8 19 25 27 23 29 19 32 21 34 27 36
REMARK Flexibility Score: inf
ROOT
ATOM      1  C   UNL     1     175.423 169.920 171.150  1.00  0.00     0.065 A 
ATOM      2  C   UNL     1     174.740 170.398 170.023  1.00  0.00     0.208 A 
ATOM      3  O   UNL     1     173.948 169.603 169.318  1.00  0.00    -0.463 OA
ATOM      4  C   UNL     1     173.750 168.322 169.615  1.00  0.00     0.147 A 
ATOM      5  C   UNL     1     174.402 167.753 170.732  1.00  0.00     0.066 A 
ATOM      6  C   UNL     1     175.241 168.571 171.513  1.00  0.00     0.200 A 
ATOM      7  O   UNL     1     175.838 168.098 172.519  1.00  0.00    -0.288 OA
ATOM      8  C   UNL     1     174.217 166.390 171.022  1.00  0.00     0.020 A 
ATOM      9  C   UNL     1     173.411 165.601 170.200  1.00  0.00     0.047 A 
ATOM     10  C   UNL     1     172.753 166.159 169.094  1.00  0.00     0.125 A 
ATOM     11  C   UNL     1     172.899 167.534 168.803  1.00  0.00     0.069 A 
ENDROOT
BRANCH   1  12
ATOM     12  C   UNL     1     176.316 170.829 171.910  1.00  0.00    -0.011 A 
ATOM     13  C   UNL     1     177.677 170.928 171.567  1.00  0.00     0.013 A 
ATOM     14  C   UNL     1     178.517 171.812 172.252  1.00  0.00     0.047 A 
ATOM     15  C   UNL     1     178.008 172.614 173.282  1.00  0.00     0.115 A 
ATOM     16  C   UNL     1     175.815 171.628 172.953  1.00  0.00     0.013 A 
ATOM     17  C   UNL     1     176.657 172.516 173.633  1.00  0.00     0.047 A 
BRANCH  15  18
ATOM     18  O   UNL     1     178.832 173.512 173.960  1.00  0.00    -0.508 OA
ATOM     19  H   UNL     1     179.621 173.958 173.502  1.00  0.00     0.293 HD
ENDBRANCH  15  18
ENDBRANCH   1  12
BRANCH  11  20
ATOM     20  C   UNL     1     172.207 168.149 167.596  1.00  0.00     0.188 C 
ATOM     21  C   UNL     1     170.694 168.426 167.868  1.00  0.00     0.179 C 
ATOM     22  O   UNL     1     172.402 167.297 166.477  1.00  0.00    -0.362 OA
ATOM     23  C   UNL     1     169.834 168.156 166.615  1.00  0.00     0.177 C 
ATOM     24  C   UNL     1     171.964 167.877 165.250  1.00  0.00     0.176 C 
ATOM     25  C   UNL     1     170.601 168.631 165.369  1.00  0.00     0.177 C 
BRANCH  21  26
ATOM     26  O   UNL     1     170.206 167.671 168.949  1.00  0.00    -0.387 OA
ATOM     27  H   UNL     1     170.994 167.358 169.466  1.00  0.00     0.211 HD
ENDBRANCH  21  26
BRANCH  23  28
ATOM     28  O   UNL     1     169.549 166.779 166.529  1.00  0.00    -0.387 OA
ATOM     29  H   UNL     1     169.343 166.470 167.450  1.00  0.00     0.211 HD
ENDBRANCH  23  28
BRANCH  24  30
ATOM     30  C   UNL     1     173.078 168.751 164.642  1.00  0.00     0.191 C 
BRANCH  30  31
ATOM     31  O   UNL     1     172.659 169.347 163.445  1.00  0.00    -0.394 OA
ATOM     32  H   UNL     1     171.733 169.036 163.277  1.00  0.00     0.210 HD
ENDBRANCH  30  31
ENDBRANCH  24  30
BRANCH  25  33
ATOM     33  O   UNL     1     169.817 168.486 164.207  1.00  0.00    -0.388 OA
ATOM     34  H   UNL     1     168.861 168.473 164.478  1.00  0.00     0.211 HD
ENDBRANCH  25  33
ENDBRANCH  11  20
BRANCH  10  35
ATOM     35  O   UNL     1     171.960 165.346 168.283  1.00  0.00    -0.507 OA
ATOM     36  H   UNL     1     171.066 165.666 167.921  1.00  0.00     0.293 HD
ENDBRANCH  10  35
TORSDOF 9
ENDMDL
MODEL 8
REMARK VINA RESULT:    -5.388      5.795      8.403
REMARK INTER + INTRA:          -8.442
REMARK INTER:                  -7.822
REMARK INTRA:                  -0.621
REMARK UNBOUND:                -1.165
REMARK SMILES O=c1c(-c2ccc(O)cc2)coc2c([C@H]3O[C@H](CO)[C@@H](O)[C@@H](O)[C@H]3O)c(O)ccc12
REMARK SMILES IDX 3 1 11 2 12 3 13 4 30 5 2 6 1 7 29 8 28 9 26 10 14 11 4 12
REMARK SMILES IDX 5 13 6 14 7 15 10 16 9 17 8 18 15 20 24 21 16 22 22 23 17 24
REMARK SMILES IDX 20 25 25 26 23 28 18 30 19 31 21 33 27 35
REMARK H PARENT 8 19 25 27 23 29 19 32 21 34 27 36
REMARK Flexibility Score: inf
ROOT
ATOM      1  C   UNL     1     175.714 168.578 170.209  1.00  0.00     0.065 A 
ATOM      2  C   UNL     1     176.158 167.273 170.464  1.00  0.00     0.208 A 
ATOM      3  O   UNL     1     175.982 166.308 169.572  1.00  0.00    -0.463 OA
ATOM      4  C   UNL     1     175.384 166.498 168.399  1.00  0.00     0.147 A 
ATOM      5  C   UNL     1     174.901 167.782 168.060  1.00  0.00     0.066 A 
ATOM      6  C   UNL     1     175.082 168.836 168.977  1.00  0.00     0.200 A 
ATOM      7  O   UNL     1     174.665 169.996 168.707  1.00  0.00    -0.288 OA
ATOM      8  C   UNL     1     174.239 167.971 166.835  1.00  0.00     0.020 A 
ATOM      9  C   UNL     1     174.042 166.893 165.970  1.00  0.00     0.047 A 
ATOM     10  C   UNL     1     174.525 165.617 166.295  1.00  0.00     0.125 A 
ATOM     11  C   UNL     1     175.223 165.412 167.506  1.00  0.00     0.069 A 
ENDROOT
BRANCH   1  12
ATOM     12  C   UNL     1     175.909 169.634 171.233  1.00  0.00    -0.011 A 
ATOM     13  C   UNL     1     177.113 170.361 171.274  1.00  0.00     0.013 A 
ATOM     14  C   UNL     1     177.289 171.385 172.210  1.00  0.00     0.047 A 
ATOM     15  C   UNL     1     176.264 171.702 173.111  1.00  0.00     0.115 A 
ATOM     16  C   UNL     1     174.889 169.949 172.149  1.00  0.00     0.013 A 
ATOM     17  C   UNL     1     175.067 170.979 173.081  1.00  0.00     0.047 A 
BRANCH  15  18
ATOM     18  O   UNL     1     176.422 172.733 174.037  1.00  0.00    -0.508 OA
ATOM     19  H   UNL     1     177.024 172.631 174.848  1.00  0.00     0.293 HD
ENDBRANCH  15  18
ENDBRANCH   1  12
BRANCH  11  20
ATOM     20  C   UNL     1     175.736 164.030 167.881  1.00  0.00     0.188 C 
ATOM     21  C   UNL     1     174.751 163.277 168.831  1.00  0.00     0.179 C 
ATOM     22  O   UNL     1     177.030 164.165 168.451  1.00  0.00    -0.362 OA
ATOM     23  C   UNL     1     175.507 162.439 169.884  1.00  0.00     0.177 C 
ATOM     24  C   UNL     1     177.684 162.914 168.655  1.00  0.00     0.176 C 
ATOM     25  C   UNL     1     176.744 161.805 169.225  1.00  0.00     0.177 C 
BRANCH  21  26
ATOM     26  O   UNL     1     173.863 164.158 169.474  1.00  0.00    -0.387 OA
ATOM     27  H   UNL     1     172.957 163.976 169.112  1.00  0.00     0.211 HD
ENDBRANCH  21  26
BRANCH  23  28
ATOM     28  O   UNL     1     175.885 163.267 170.959  1.00  0.00    -0.387 OA
ATOM     29  H   UNL     1     176.823 163.033 171.186  1.00  0.00     0.211 HD
ENDBRANCH  23  28
BRANCH  24  30
ATOM     30  C   UNL     1     178.414 162.475 167.371  1.00  0.00     0.191 C 
BRANCH  30  31
ATOM     31  O   UNL     1     179.331 161.449 167.634  1.00  0.00    -0.394 OA
ATOM     32  H   UNL     1     178.982 160.943 168.411  1.00  0.00     0.210 HD
ENDBRANCH  30  31
ENDBRANCH  24  30
BRANCH  25  33
ATOM     33  O   UNL     1     177.418 160.957 170.127  1.00  0.00    -0.388 OA
ATOM     34  H   UNL     1     178.079 161.502 170.629  1.00  0.00     0.211 HD
ENDBRANCH  25  33
ENDBRANCH  11  20
BRANCH  10  35
ATOM     35  O   UNL     1     174.308 164.556 165.417  1.00  0.00    -0.507 OA
ATOM     36  H   UNL     1     174.605 163.610 165.641  1.00  0.00     0.293 HD
ENDBRANCH  10  35
TORSDOF 9
ENDMDL
MODEL 9
REMARK VINA RESULT:    -5.368      2.076      2.838
REMARK INTER + INTRA:          -8.416
REMARK INTER:                  -7.211
REMARK INTRA:                  -1.205
REMARK UNBOUND:                -1.165
REMARK SMILES O=c1c(-c2ccc(O)cc2)coc2c([C@H]3O[C@H](CO)[C@@H](O)[C@@H](O)[C@H]3O)c(O)ccc12
REMARK SMILES IDX 3 1 11 2 12 3 13 4 30 5 2 6 1 7 29 8 28 9 26 10 14 11 4 12
REMARK SMILES IDX 5 13 6 14 7 15 10 16 9 17 8 18 15 20 24 21 16 22 22 23 17 24
REMARK SMILES IDX 20 25 25 26 23 28 18 30 19 31 21 33 27 35
REMARK H PARENT 8 19 25 27 23 29 19 32 21 34 27 36
REMARK Flexibility Score: inf
ROOT
ATOM      1  C   UNL     1     174.747 170.097 171.830  1.00  0.00     0.065 A 
ATOM      2  C   UNL     1     173.524 170.235 172.502  1.00  0.00     0.208 A 
ATOM      3  O   UNL     1     172.458 169.543 172.125  1.00  0.00    -0.463 OA
ATOM      4  C   UNL     1     172.466 168.690 171.105  1.00  0.00     0.147 A 
ATOM      5  C   UNL     1     173.655 168.490 170.368  1.00  0.00     0.066 A 
ATOM      6  C   UNL     1     174.812 169.198 170.748  1.00  0.00     0.200 A 
ATOM      7  O   UNL     1     175.892 169.044 170.114  1.00  0.00    -0.288 OA
ATOM      8  C   UNL     1     173.650 167.614 169.269  1.00  0.00     0.020 A 
ATOM      9  C   UNL     1     172.473 166.962 168.898  1.00  0.00     0.047 A 
ATOM     10  C   UNL     1     171.290 167.148 169.628  1.00  0.00     0.125 A 
ATOM     11  C   UNL     1     171.281 167.999 170.755  1.00  0.00     0.069 A 
ENDROOT
BRANCH   1  12
ATOM     12  C   UNL     1     175.919 170.897 172.264  1.00  0.00    -0.011 A 
ATOM     13  C   UNL     1     176.148 172.169 171.707  1.00  0.00     0.013 A 
ATOM     14  C   UNL     1     177.227 172.946 172.139  1.00  0.00     0.047 A 
ATOM     15  C   UNL     1     178.086 172.469 173.137  1.00  0.00     0.115 A 
ATOM     16  C   UNL     1     176.793 170.419 173.257  1.00  0.00     0.013 A 
ATOM     17  C   UNL     1     177.869 171.203 173.691  1.00  0.00     0.047 A 
BRANCH  15  18
ATOM     18  O   UNL     1     179.155 173.243 173.589  1.00  0.00    -0.508 OA
ATOM     19  H   UNL     1     179.058 174.241 173.747  1.00  0.00     0.293 HD
ENDBRANCH  15  18
ENDBRANCH   1  12
BRANCH  11  20
ATOM     20  C   UNL     1     170.001 168.225 171.547  1.00  0.00     0.188 C 
ATOM     21  C   UNL     1     169.688 167.032 172.506  1.00  0.00     0.179 C 
ATOM     22  O   UNL     1     168.940 168.470 170.635  1.00  0.00    -0.362 OA
ATOM     23  C   UNL     1     168.173 166.752 172.588  1.00  0.00     0.177 C 
ATOM     24  C   UNL     1     167.738 168.890 171.276  1.00  0.00     0.176 C 
ATOM     25  C   UNL     1     167.415 168.091 172.579  1.00  0.00     0.177 C 
BRANCH  21  26
ATOM     26  O   UNL     1     170.367 165.860 172.128  1.00  0.00    -0.387 OA
ATOM     27  H   UNL     1     170.538 165.923 171.151  1.00  0.00     0.211 HD
ENDBRANCH  21  26
BRANCH  23  28
ATOM     28  O   UNL     1     167.783 165.954 171.494  1.00  0.00    -0.387 OA
ATOM     29  H   UNL     1     166.790 165.957 171.475  1.00  0.00     0.211 HD
ENDBRANCH  23  28
BRANCH  24  30
ATOM     30  C   UNL     1     167.754 170.415 171.500  1.00  0.00     0.191 C 
BRANCH  30  31
ATOM     31  O   UNL     1     166.628 170.834 172.220  1.00  0.00    -0.394 OA
ATOM     32  H   UNL     1     166.233 171.594 171.722  1.00  0.00     0.210 HD
ENDBRANCH  30  31
ENDBRANCH  24  30
BRANCH  25  33
ATOM     33  O   UNL     1     166.030 167.889 172.742  1.00  0.00    -0.388 OA
ATOM     34  H   UNL     1     165.872 167.558 173.665  1.00  0.00     0.211 HD
ENDBRANCH  25  33
ENDBRANCH  11  20
BRANCH  10  35
ATOM     35  O   UNL     1     170.126 166.491 169.230  1.00  0.00    -0.507 OA
ATOM     36  H   UNL     1     169.627 165.865 169.856  1.00  0.00     0.293 HD
ENDBRANCH  10  35
TORSDOF 9
ENDMDL
