MODEL 1
REMARK VINA RESULT:    -5.087      0.000      0.000
REMARK INTER + INTRA:          -7.180
REMARK INTER:                  -6.425
REMARK INTRA:                  -0.755
REMARK UNBOUND:                -0.755
REMARK SMILES CC(C)=CCC[C@@H](C)[C@@H]1C=C[C@](C)(O)CC1
REMARK SMILES IDX 8 1 7 2 6 3 5 4 4 5 2 6 1 7 3 8 9 9 16 10 10 11 15 12 11 13
REMARK SMILES IDX 12 14 13 15 14 16
REMARK H PARENT 14 17
REMARK Flexibility Score: inf
ROOT
ATOM      1  C   UNL     1       1.343 -14.495  12.941  1.00  0.00     0.008 C 
ATOM      2  C   UNL     1       2.500 -15.483  13.199  1.00  0.00    -0.007 C 
ENDROOT
BRANCH   2   3
ATOM      3  C   UNL     1       2.836 -16.307  11.927  1.00  0.00     0.008 C 
BRANCH   3   4
ATOM      4  C   UNL     1       2.669 -15.537  10.603  1.00  0.00     0.027 C 
BRANCH   4   5
ATOM      5  C   UNL     1       1.566 -16.103   9.741  1.00  0.00    -0.028 C 
ATOM      6  C   UNL     1       0.564 -15.375   9.198  1.00  0.00    -0.080 C 
ATOM      7  C   UNL     1      -0.486 -16.093   8.390  1.00  0.00     0.039 C 
ATOM      8  C   UNL     1       0.483 -13.875   9.358  1.00  0.00     0.039 C 
ENDBRANCH   4   5
ENDBRANCH   3   4
ENDBRANCH   2   3
BRANCH   2   9
ATOM      9  C   UNL     1       2.223 -16.427  14.412  1.00  0.00     0.014 C 
ATOM     10  C   UNL     1       0.904 -16.063  15.127  1.00  0.00     0.011 C 
ATOM     11  C   UNL     1       2.274 -17.897  14.035  1.00  0.00    -0.025 C 
ATOM     12  C   UNL     1       0.607 -17.071  16.241  1.00  0.00     0.040 C 
ATOM     13  C   UNL     1       1.546 -18.836  14.661  1.00  0.00     0.003 C 
ATOM     14  C   UNL     1       0.469 -18.512  15.688  1.00  0.00     0.080 C 
ATOM     15  C   UNL     1       0.589 -19.508  16.851  1.00  0.00     0.047 C 
BRANCH  14  16
ATOM     16  O   UNL     1      -0.803 -18.685  15.110  1.00  0.00    -0.386 OA
ATOM     17  H   UNL     1      -1.276 -17.813  15.126  1.00  0.00     0.211 HD
ENDBRANCH  14  16
ENDBRANCH   2   9
TORSDOF 5
ENDMDL
MODEL 2
REMARK VINA RESULT:    -5.052      0.751      1.404
REMARK INTER + INTRA:          -7.136
REMARK INTER:                  -6.464
REMARK INTRA:                  -0.672
REMARK UNBOUND:                -0.755
REMARK SMILES CC(C)=CCC[C@@H](C)[C@@H]1C=C[C@](C)(O)CC1
REMARK SMILES IDX 8 1 7 2 6 3 5 4 4 5 2 6 1 7 3 8 9 9 16 10 10 11 15 12 11 13
REMARK SMILES IDX 12 14 13 15 14 16
REMARK H PARENT 14 17
REMARK Flexibility Score: inf
ROOT
ATOM      1  C   UNL     1       4.137 -15.996  12.403  1.00  0.00     0.008 C 
ATOM      2  C   UNL     1       2.617 -16.170  12.605  1.00  0.00    -0.007 C 
ENDROOT
BRANCH   2   3
ATOM      3  C   UNL     1       1.855 -14.843  12.339  1.00  0.00     0.008 C 
BRANCH   3   4
ATOM      4  C   UNL     1       1.990 -14.304  10.902  1.00  0.00     0.027 C 
BRANCH   4   5
ATOM      5  C   UNL     1       0.814 -14.679  10.032  1.00  0.00    -0.028 C 
ATOM      6  C   UNL     1       0.731 -15.811   9.298  1.00  0.00    -0.080 C 
ATOM      7  C   UNL     1      -0.496 -16.026   8.449  1.00  0.00     0.039 C 
ATOM      8  C   UNL     1       1.813 -16.865   9.322  1.00  0.00     0.039 C 
ENDBRANCH   4   5
ENDBRANCH   3   4
ENDBRANCH   2   3
BRANCH   2   9
ATOM      9  C   UNL     1       2.260 -16.738  14.015  1.00  0.00     0.014 C 
ATOM     10  C   UNL     1       0.912 -16.187  14.527  1.00  0.00     0.011 C 
ATOM     11  C   UNL     1       2.304 -18.255  14.064  1.00  0.00    -0.025 C 
ATOM     12  C   UNL     1       0.540 -16.845  15.858  1.00  0.00     0.040 C 
ATOM     13  C   UNL     1       1.528 -18.981  14.886  1.00  0.00     0.003 C 
ATOM     14  C   UNL     1       0.405 -18.382  15.721  1.00  0.00     0.080 C 
ATOM     15  C   UNL     1       0.447 -19.015  17.119  1.00  0.00     0.047 C 
BRANCH  14  16
ATOM     16  O   UNL     1      -0.838 -18.706  15.145  1.00  0.00    -0.386 OA
ATOM     17  H   UNL     1      -1.035 -19.659  15.340  1.00  0.00     0.211 HD
ENDBRANCH  14  16
ENDBRANCH   2   9
TORSDOF 5
ENDMDL
MODEL 3
REMARK VINA RESULT:    -4.546      1.520      2.484
REMARK INTER + INTRA:          -6.497
REMARK INTER:                  -5.468
REMARK INTRA:                  -1.028
REMARK UNBOUND:                -0.755
REMARK SMILES CC(C)=CCC[C@@H](C)[C@@H]1C=C[C@](C)(O)CC1
REMARK SMILES IDX 8 1 7 2 6 3 5 4 4 5 2 6 1 7 3 8 9 9 16 10 10 11 15 12 11 13
REMARK SMILES IDX 12 14 13 15 14 16
REMARK H PARENT 14 17
REMARK Flexibility Score: inf
ROOT
ATOM      1  C   UNL     1       3.494 -14.601  11.681  1.00  0.00     0.008 C 
ATOM      2  C   UNL     1       2.965 -16.037  11.482  1.00  0.00    -0.007 C 
ENDROOT
BRANCH   2   3
ATOM      3  C   UNL     1       2.480 -16.265  10.025  1.00  0.00     0.008 C 
BRANCH   3   4
ATOM      4  C   UNL     1       0.989 -15.952   9.790  1.00  0.00     0.027 C 
BRANCH   4   5
ATOM      5  C   UNL     1       0.780 -14.915   8.713  1.00  0.00    -0.028 C 
ATOM      6  C   UNL     1       0.550 -13.603   8.942  1.00  0.00    -0.080 C 
ATOM      7  C   UNL     1       0.324 -12.698   7.758  1.00  0.00     0.039 C 
ATOM      8  C   UNL     1       0.536 -13.021  10.336  1.00  0.00     0.039 C 
ENDBRANCH   4   5
ENDBRANCH   3   4
ENDBRANCH   2   3
BRANCH   2   9
ATOM      9  C   UNL     1       1.843 -16.410  12.503  1.00  0.00     0.014 C 
ATOM     10  C   UNL     1       2.222 -17.653  13.336  1.00  0.00     0.011 C 
ATOM     11  C   UNL     1       1.441 -15.241  13.385  1.00  0.00    -0.025 C 
ATOM     12  C   UNL     1       1.154 -17.927  14.398  1.00  0.00     0.040 C 
ATOM     13  C   UNL     1       0.987 -15.397  14.640  1.00  0.00     0.003 C 
ATOM     14  C   UNL     1       0.992 -16.733  15.371  1.00  0.00     0.080 C 
ATOM     15  C   UNL     1      -0.335 -16.879  16.128  1.00  0.00     0.047 C 
BRANCH  14  16
ATOM     16  O   UNL     1       2.029 -16.745  16.324  1.00  0.00    -0.386 OA
ATOM     17  H   UNL     1       2.858 -16.417  15.889  1.00  0.00     0.211 HD
ENDBRANCH  14  16
ENDBRANCH   2   9
TORSDOF 5
ENDMDL
MODEL 4
REMARK VINA RESULT:    -4.411      1.358      2.326
REMARK INTER + INTRA:          -6.327
REMARK INTER:                  -5.404
REMARK INTRA:                  -0.923
REMARK UNBOUND:                -0.755
REMARK SMILES CC(C)=CCC[C@@H](C)[C@@H]1C=C[C@](C)(O)CC1
REMARK SMILES IDX 8 1 7 2 6 3 5 4 4 5 2 6 1 7 3 8 9 9 16 10 10 11 15 12 11 13
REMARK SMILES IDX 12 14 13 15 14 16
REMARK H PARENT 14 17
REMARK Flexibility Score: inf
ROOT
ATOM      1  C   UNL     1       2.668 -13.188  13.977  1.00  0.00     0.008 C 
ATOM      2  C   UNL     1       2.264 -14.097  12.798  1.00  0.00    -0.007 C 
ENDROOT
BRANCH   2   3
ATOM      3  C   UNL     1       1.389 -13.332  11.767  1.00  0.00     0.008 C 
BRANCH   3   4
ATOM      4  C   UNL     1       1.770 -13.580  10.295  1.00  0.00     0.027 C 
BRANCH   4   5
ATOM      5  C   UNL     1       0.670 -14.270   9.523  1.00  0.00    -0.028 C 
ATOM      6  C   UNL     1       0.670 -15.579   9.190  1.00  0.00    -0.080 C 
ATOM      7  C   UNL     1      -0.487 -16.112   8.383  1.00  0.00     0.039 C 
ATOM      8  C   UNL     1       1.773 -16.519   9.619  1.00  0.00     0.039 C 
ENDBRANCH   4   5
ENDBRANCH   3   4
ENDBRANCH   2   3
BRANCH   2   9
ATOM      9  C   UNL     1       1.548 -15.404  13.267  1.00  0.00     0.014 C 
ATOM     10  C   UNL     1       2.469 -16.636  13.134  1.00  0.00     0.011 C 
ATOM     11  C   UNL     1       0.964 -15.285  14.663  1.00  0.00    -0.025 C 
ATOM     12  C   UNL     1       1.779 -17.880  13.701  1.00  0.00     0.040 C 
ATOM     13  C   UNL     1       0.841 -16.333  15.494  1.00  0.00     0.003 C 
ATOM     14  C   UNL     1       1.427 -17.707  15.199  1.00  0.00     0.080 C 
ATOM     15  C   UNL     1       0.396 -18.773  15.598  1.00  0.00     0.047 C 
BRANCH  14  16
ATOM     16  O   UNL     1       2.575 -17.910  15.989  1.00  0.00    -0.386 OA
ATOM     17  H   UNL     1       2.534 -17.294  16.766  1.00  0.00     0.211 HD
ENDBRANCH  14  16
ENDBRANCH   2   9
TORSDOF 5
ENDMDL
MODEL 5
REMARK VINA RESULT:    -4.402      1.473      2.204
REMARK INTER + INTRA:          -6.316
REMARK INTER:                  -5.828
REMARK INTRA:                  -0.487
REMARK UNBOUND:                -0.755
REMARK SMILES CC(C)=CCC[C@@H](C)[C@@H]1C=C[C@](C)(O)CC1
REMARK SMILES IDX 8 1 7 2 6 3 5 4 4 5 2 6 1 7 3 8 9 9 16 10 10 11 15 12 11 13
REMARK SMILES IDX 12 14 13 15 14 16
REMARK H PARENT 14 17
REMARK Flexibility Score: inf
ROOT
ATOM      1  C   UNL     1       3.712 -15.990  13.689  1.00  0.00     0.008 C 
ATOM      2  C   UNL     1       2.822 -16.926  12.844  1.00  0.00    -0.007 C 
ENDROOT
BRANCH   2   3
ATOM      3  C   UNL     1       1.723 -16.130  12.087  1.00  0.00     0.008 C 
BRANCH   3   4
ATOM      4  C   UNL     1       1.761 -16.286  10.555  1.00  0.00     0.027 C 
BRANCH   4   5
ATOM      5  C   UNL     1       1.474 -14.990   9.836  1.00  0.00    -0.028 C 
ATOM      6  C   UNL     1       0.532 -14.832   8.880  1.00  0.00    -0.080 C 
ATOM      7  C   UNL     1       0.391 -13.480   8.228  1.00  0.00     0.039 C 
ATOM      8  C   UNL     1      -0.390 -15.956   8.467  1.00  0.00     0.039 C 
ENDBRANCH   4   5
ENDBRANCH   3   4
ENDBRANCH   2   3
BRANCH   2   9
ATOM      9  C   UNL     1       2.187 -18.075  13.690  1.00  0.00     0.014 C 
ATOM     10  C   UNL     1       3.235 -18.763  14.592  1.00  0.00     0.011 C 
ATOM     11  C   UNL     1       0.974 -17.621  14.481  1.00  0.00    -0.025 C 
ATOM     12  C   UNL     1       2.563 -19.809  15.485  1.00  0.00     0.040 C 
ATOM     13  C   UNL     1       0.621 -18.170  15.655  1.00  0.00     0.003 C 
ATOM     14  C   UNL     1       1.487 -19.175  16.402  1.00  0.00     0.080 C 
ATOM     15  C   UNL     1       0.581 -20.286  16.952  1.00  0.00     0.047 C 
BRANCH  14  16
ATOM     16  O   UNL     1       2.103 -18.545  17.500  1.00  0.00    -0.386 OA
ATOM     17  H   UNL     1       2.164 -17.573  17.309  1.00  0.00     0.211 HD
ENDBRANCH  14  16
ENDBRANCH   2   9
TORSDOF 5
ENDMDL
MODEL 6
REMARK VINA RESULT:    -4.373      1.822      2.389
REMARK INTER + INTRA:          -6.278
REMARK INTER:                  -5.776
REMARK INTRA:                  -0.502
REMARK UNBOUND:                -0.755
REMARK SMILES CC(C)=CCC[C@@H](C)[C@@H]1C=C[C@](C)(O)CC1
REMARK SMILES IDX 8 1 7 2 6 3 5 4 4 5 2 6 1 7 3 8 9 9 16 10 10 11 15 12 11 13
REMARK SMILES IDX 12 14 13 15 14 16
REMARK H PARENT 14 17
REMARK Flexibility Score: inf
ROOT
ATOM      1  C   UNL     1       3.925 -15.022  12.989  1.00  0.00     0.008 C 
ATOM      2  C   UNL     1       3.215 -16.361  12.701  1.00  0.00    -0.007 C 
ENDROOT
BRANCH   2   3
ATOM      3  C   UNL     1       1.825 -16.136  12.047  1.00  0.00     0.008 C 
BRANCH   3   4
ATOM      4  C   UNL     1       1.805 -16.293  10.515  1.00  0.00     0.027 C 
BRANCH   4   5
ATOM      5  C   UNL     1       1.506 -14.993   9.806  1.00  0.00    -0.028 C 
ATOM      6  C   UNL     1       0.550 -14.833   8.864  1.00  0.00    -0.080 C 
ATOM      7  C   UNL     1       0.399 -13.478   8.221  1.00  0.00     0.039 C 
ATOM      8  C   UNL     1      -0.376 -15.956   8.460  1.00  0.00     0.039 C 
ENDBRANCH   4   5
ENDBRANCH   3   4
ENDBRANCH   2   3
BRANCH   2   9
ATOM      9  C   UNL     1       3.089 -17.259  13.973  1.00  0.00     0.014 C 
ATOM     10  C   UNL     1       1.843 -18.168  13.907  1.00  0.00     0.011 C 
ATOM     11  C   UNL     1       4.352 -18.052  14.260  1.00  0.00    -0.025 C 
ATOM     12  C   UNL     1       1.807 -19.109  15.114  1.00  0.00     0.040 C 
ATOM     13  C   UNL     1       4.338 -19.251  14.865  1.00  0.00     0.003 C 
ATOM     14  C   UNL     1       3.059 -20.019  15.169  1.00  0.00     0.080 C 
ATOM     15  C   UNL     1       3.177 -20.624  16.576  1.00  0.00     0.047 C 
BRANCH  14  16
ATOM     16  O   UNL     1       2.920 -21.085  14.259  1.00  0.00    -0.386 OA
ATOM     17  H   UNL     1       3.304 -21.902  14.671  1.00  0.00     0.211 HD
ENDBRANCH  14  16
ENDBRANCH   2   9
TORSDOF 5
ENDMDL
MODEL 7
REMARK VINA RESULT:    -4.118     12.783     14.487
REMARK INTER + INTRA:          -5.956
REMARK INTER:                  -4.931
REMARK INTRA:                  -1.025
REMARK UNBOUND:                -0.755
REMARK SMILES CC(C)=CCC[C@@H](C)[C@@H]1C=C[C@](C)(O)CC1
REMARK SMILES IDX 8 1 7 2 6 3 5 4 4 5 2 6 1 7 3 8 9 9 16 10 10 11 15 12 11 13
REMARK SMILES IDX 12 14 13 15 14 16
REMARK H PARENT 14 17
REMARK Flexibility Score: inf
ROOT
ATOM      1  C   UNL     1      -0.268 -31.189   6.661  1.00  0.00     0.008 C 
ATOM      2  C   UNL     1      -0.116 -30.654   8.101  1.00  0.00    -0.007 C 
ENDROOT
BRANCH   2   3
ATOM      3  C   UNL     1       1.075 -31.330   8.833  1.00  0.00     0.008 C 
BRANCH   3   4
ATOM      4  C   UNL     1       2.317 -30.433   8.998  1.00  0.00     0.027 C 
BRANCH   4   5
ATOM      5  C   UNL     1       1.967 -28.964   9.037  1.00  0.00    -0.028 C 
ATOM      6  C   UNL     1       1.636 -28.282  10.155  1.00  0.00    -0.080 C 
ATOM      7  C   UNL     1       1.275 -26.824  10.024  1.00  0.00     0.039 C 
ATOM      8  C   UNL     1       1.640 -28.927  11.521  1.00  0.00     0.039 C 
ENDBRANCH   4   5
ENDBRANCH   3   4
ENDBRANCH   2   3
BRANCH   2   9
ATOM      9  C   UNL     1      -1.430 -30.796   8.935  1.00  0.00     0.014 C 
ATOM     10  C   UNL     1      -1.597 -29.633   9.935  1.00  0.00     0.011 C 
ATOM     11  C   UNL     1      -2.661 -30.974   8.064  1.00  0.00    -0.025 C 
ATOM     12  C   UNL     1      -2.943 -29.743  10.658  1.00  0.00     0.040 C 
ATOM     13  C   UNL     1      -3.881 -30.548   8.431  1.00  0.00     0.003 C 
ATOM     14  C   UNL     1      -4.132 -29.695   9.667  1.00  0.00     0.080 C 
ATOM     15  C   UNL     1      -5.393 -30.216  10.371  1.00  0.00     0.047 C 
BRANCH  14  16
ATOM     16  O   UNL     1      -4.381 -28.364   9.279  1.00  0.00    -0.386 OA
ATOM     17  H   UNL     1      -3.953 -28.210   8.397  1.00  0.00     0.211 HD
ENDBRANCH  14  16
ENDBRANCH   2   9
TORSDOF 5
ENDMDL
MODEL 8
REMARK VINA RESULT:    -4.105      2.297      3.950
REMARK INTER + INTRA:          -5.940
REMARK INTER:                  -4.921
REMARK INTRA:                  -1.019
REMARK UNBOUND:                -0.755
REMARK SMILES CC(C)=CCC[C@@H](C)[C@@H]1C=C[C@](C)(O)CC1
REMARK SMILES IDX 8 1 7 2 6 3 5 4 4 5 2 6 1 7 3 8 9 9 16 10 10 11 15 12 11 13
REMARK SMILES IDX 12 14 13 15 14 16
REMARK H PARENT 14 17
REMARK Flexibility Score: inf
ROOT
ATOM      1  C   UNL     1       4.679 -16.346   8.995  1.00  0.00     0.008 C 
ATOM      2  C   UNL     1       3.744 -15.149   9.267  1.00  0.00    -0.007 C 
ENDROOT
BRANCH   2   3
ATOM      3  C   UNL     1       4.390 -13.811   8.814  1.00  0.00     0.008 C 
BRANCH   3   4
ATOM      4  C   UNL     1       3.503 -12.569   9.023  1.00  0.00     0.027 C 
BRANCH   4   5
ATOM      5  C   UNL     1       2.438 -12.435   7.960  1.00  0.00    -0.028 C 
ATOM      6  C   UNL     1       1.110 -12.398   8.203  1.00  0.00    -0.080 C 
ATOM      7  C   UNL     1       0.169 -12.299   7.029  1.00  0.00     0.039 C 
ATOM      8  C   UNL     1       0.548 -12.430   9.605  1.00  0.00     0.039 C 
ENDBRANCH   4   5
ENDBRANCH   3   4
ENDBRANCH   2   3
BRANCH   2   9
ATOM      9  C   UNL     1       3.293 -15.067  10.760  1.00  0.00     0.014 C 
ATOM     10  C   UNL     1       1.836 -15.545  10.942  1.00  0.00     0.011 C 
ATOM     11  C   UNL     1       4.244 -15.787  11.700  1.00  0.00    -0.025 C 
ATOM     12  C   UNL     1       1.461 -15.556  12.426  1.00  0.00     0.040 C 
ATOM     13  C   UNL     1       3.842 -16.358  12.848  1.00  0.00     0.003 C 
ATOM     14  C   UNL     1       2.379 -16.501  13.243  1.00  0.00     0.080 C 
ATOM     15  C   UNL     1       2.242 -16.165  14.735  1.00  0.00     0.047 C 
BRANCH  14  16
ATOM     16  O   UNL     1       1.970 -17.837  13.068  1.00  0.00    -0.386 OA
ATOM     17  H   UNL     1       2.078 -18.313  13.932  1.00  0.00     0.211 HD
ENDBRANCH  14  16
ENDBRANCH   2   9
TORSDOF 5
ENDMDL
MODEL 9
REMARK VINA RESULT:    -3.994      2.202      3.039
REMARK INTER + INTRA:          -5.800
REMARK INTER:                  -4.977
REMARK INTRA:                  -0.823
REMARK UNBOUND:                -0.755
REMARK SMILES CC(C)=CCC[C@@H](C)[C@@H]1C=C[C@](C)(O)CC1
REMARK SMILES IDX 8 1 7 2 6 3 5 4 4 5 2 6 1 7 3 8 9 9 16 10 10 11 15 12 11 13
REMARK SMILES IDX 12 14 13 15 14 16
REMARK H PARENT 14 17
REMARK Flexibility Score: inf
ROOT
ATOM      1  C   UNL     1       4.368 -15.220  12.877  1.00  0.00     0.008 C 
ATOM      2  C   UNL     1       3.506 -16.466  12.587  1.00  0.00    -0.007 C 
ENDROOT
BRANCH   2   3
ATOM      3  C   UNL     1       2.162 -16.081  11.911  1.00  0.00     0.008 C 
BRANCH   3   4
ATOM      4  C   UNL     1       2.130 -16.288  10.385  1.00  0.00     0.027 C 
BRANCH   4   5
ATOM      5  C   UNL     1       2.617 -15.076   9.628  1.00  0.00    -0.028 C 
ATOM      6  C   UNL     1       3.854 -14.945   9.100  1.00  0.00    -0.080 C 
ATOM      7  C   UNL     1       4.202 -13.655   8.402  1.00  0.00     0.039 C 
ATOM      8  C   UNL     1       4.879 -16.053   9.169  1.00  0.00     0.039 C 
ENDBRANCH   4   5
ENDBRANCH   3   4
ENDBRANCH   2   3
BRANCH   2   9
ATOM      9  C   UNL     1       3.255 -17.332  13.863  1.00  0.00     0.014 C 
ATOM     10  C   UNL     1       2.002 -18.221  13.710  1.00  0.00     0.011 C 
ATOM     11  C   UNL     1       4.473 -18.139  14.274  1.00  0.00    -0.025 C 
ATOM     12  C   UNL     1       1.846 -19.133  14.930  1.00  0.00     0.040 C 
ATOM     13  C   UNL     1       4.386 -19.323  14.902  1.00  0.00     0.003 C 
ATOM     14  C   UNL     1       3.071 -20.063  15.112  1.00  0.00     0.080 C 
ATOM     15  C   UNL     1       3.057 -20.637  16.536  1.00  0.00     0.047 C 
BRANCH  14  16
ATOM     16  O   UNL     1       2.990 -21.146  14.216  1.00  0.00    -0.386 OA
ATOM     17  H   UNL     1       2.849 -21.977  14.741  1.00  0.00     0.211 HD
ENDBRANCH  14  16
ENDBRANCH   2   9
TORSDOF 5
ENDMDL
