MODEL 1
REMARK VINA RESULT:    -6.040      0.000      0.000
REMARK INTER + INTRA:         -18.474
REMARK INTER:                 -15.220
REMARK INTRA:                  -3.253
REMARK UNBOUND:                -3.253
REMARK SMILES CCCCCCCCCCCCCCCCCCCCCCCCCCCC(=O)[O-]
REMARK SMILES IDX 15 1 16 2 17 3 18 4 19 5 20 6 21 7 22 8 23 9 24 10 25 11
REMARK SMILES IDX 26 12 27 13 28 14 29 15 30 16 14 17 13 18 12 19 11 20 10 21
REMARK SMILES IDX 9 22 8 23 7 24 6 25 5 26 4 27 3 28 2 29 1 30
REMARK H PARENT
REMARK Flexibility Score: inf
ROOT
ATOM      1  C   UNL     1      20.781  12.017  -2.834  1.00  0.00     0.000 C 
ENDROOT
BRANCH   1   2
ATOM      2  C   UNL     1      21.737  12.676  -3.844  1.00  0.00     0.000 C 
BRANCH   2   3
ATOM      3  C   UNL     1      23.213  12.532  -3.442  1.00  0.00     0.000 C 
BRANCH   3   4
ATOM      4  C   UNL     1      24.066  11.875  -4.543  1.00  0.00     0.000 C 
BRANCH   4   5
ATOM      5  C   UNL     1      23.293  11.649  -5.856  1.00  0.00     0.000 C 
BRANCH   5   6
ATOM      6  C   UNL     1      24.042  10.841  -6.937  1.00  0.00     0.000 C 
BRANCH   6   7
ATOM      7  C   UNL     1      24.267  11.584  -8.273  1.00  0.00     0.000 C 
BRANCH   7   8
ATOM      8  C   UNL     1      25.479  11.078  -9.077  1.00  0.00     0.000 C 
BRANCH   8   9
ATOM      9  C   UNL     1      26.163   9.819  -8.513  1.00  0.00     0.000 C 
BRANCH   9  10
ATOM     10  C   UNL     1      26.968   8.994  -9.535  1.00  0.00     0.000 C 
BRANCH  10  11
ATOM     11  C   UNL     1      27.715   7.812  -8.902  1.00  0.00     0.000 C 
BRANCH  11  12
ATOM     12  C   UNL     1      28.865   8.307  -8.012  1.00  0.00     0.006 C 
BRANCH  12  13
ATOM     13  C   UNL     1      29.015   7.464  -6.737  1.00  0.00     0.053 C 
BRANCH  13  14
ATOM     14  C   UNL     1      27.806   6.614  -6.492  1.00  0.00     0.041 C 
ATOM     15  O   UNL     1      27.846   5.375  -6.710  1.00  0.00    -0.550 OA
ATOM     16  O   UNL     1      26.644   7.188  -5.995  1.00  0.00    -0.550 OA
ENDBRANCH  13  14
ENDBRANCH  12  13
ENDBRANCH  11  12
ENDBRANCH  10  11
ENDBRANCH   9  10
ENDBRANCH   8   9
ENDBRANCH   7   8
ENDBRANCH   6   7
ENDBRANCH   5   6
ENDBRANCH   4   5
ENDBRANCH   3   4
ENDBRANCH   2   3
ENDBRANCH   1   2
BRANCH   1  17
ATOM     17  C   UNL     1      19.997  13.047  -2.004  1.00  0.00     0.000 C 
BRANCH  17  18
ATOM     18  C   UNL     1      19.293  12.477  -0.758  1.00  0.00     0.000 C 
BRANCH  18  19
ATOM     19  C   UNL     1      18.968  13.542   0.312  1.00  0.00     0.000 C 
BRANCH  19  20
ATOM     20  C   UNL     1      19.592  14.911  -0.016  1.00  0.00     0.000 C 
BRANCH  20  21
ATOM     21  C   UNL     1      20.361  15.506   1.178  1.00  0.00     0.000 C 
BRANCH  21  22
ATOM     22  C   UNL     1      21.685  16.163   0.753  1.00  0.00    -0.000 C 
BRANCH  22  23
ATOM     23  C   UNL     1      22.795  15.990   1.802  1.00  0.00    -0.000 C 
BRANCH  23  24
ATOM     24  C   UNL     1      22.291  15.312   3.089  1.00  0.00    -0.000 C 
BRANCH  24  25
ATOM     25  C   UNL     1      23.287  14.269   3.633  1.00  0.00    -0.000 C 
BRANCH  25  26
ATOM     26  C   UNL     1      22.684  12.854   3.761  1.00  0.00    -0.000 C 
BRANCH  26  27
ATOM     27  C   UNL     1      21.740  12.483   2.601  1.00  0.00    -0.000 C 
BRANCH  27  28
ATOM     28  C   UNL     1      22.466  11.716   1.480  1.00  0.00    -0.000 C 
BRANCH  28  29
ATOM     29  C   UNL     1      22.849  12.628   0.303  1.00  0.00    -0.003 C 
ATOM     30  C   UNL     1      24.361  12.824   0.183  1.00  0.00     0.004 C 
ENDBRANCH  28  29
ENDBRANCH  27  28
ENDBRANCH  26  27
ENDBRANCH  25  26
ENDBRANCH  24  25
ENDBRANCH  23  24
ENDBRANCH  22  23
ENDBRANCH  21  22
ENDBRANCH  20  21
ENDBRANCH  19  20
ENDBRANCH  18  19
ENDBRANCH  17  18
ENDBRANCH   1  17
TORSDOF 26
ENDMDL
MODEL 2
REMARK VINA RESULT:    -5.988      4.853      9.087
REMARK INTER + INTRA:         -18.342
REMARK INTER:                 -14.759
REMARK INTRA:                  -3.583
REMARK UNBOUND:                -3.253
REMARK SMILES CCCCCCCCCCCCCCCCCCCCCCCCCCCC(=O)[O-]
REMARK SMILES IDX 15 1 16 2 17 3 18 4 19 5 20 6 21 7 22 8 23 9 24 10 25 11
REMARK SMILES IDX 26 12 27 13 28 14 29 15 30 16 14 17 13 18 12 19 11 20 10 21
REMARK SMILES IDX 9 22 8 23 7 24 6 25 5 26 4 27 3 28 2 29 1 30
REMARK H PARENT
REMARK Flexibility Score: inf
ROOT
ATOM      1  C   UNL     1      22.120  12.103   1.630  1.00  0.00     0.000 C 
ENDROOT
BRANCH   1   2
ATOM      2  C   UNL     1      22.111  12.503   3.116  1.00  0.00     0.000 C 
BRANCH   2   3
ATOM      3  C   UNL     1      23.157  13.580   3.446  1.00  0.00     0.000 C 
BRANCH   3   4
ATOM      4  C   UNL     1      22.525  14.874   3.988  1.00  0.00     0.000 C 
BRANCH   4   5
ATOM      5  C   UNL     1      22.125  15.865   2.879  1.00  0.00     0.000 C 
BRANCH   5   6
ATOM      6  C   UNL     1      22.873  15.700   1.539  1.00  0.00     0.000 C 
BRANCH   6   7
ATOM      7  C   UNL     1      21.968  15.534   0.298  1.00  0.00     0.000 C 
BRANCH   7   8
ATOM      8  C   UNL     1      20.472  15.774   0.574  1.00  0.00     0.000 C 
BRANCH   8   9
ATOM      9  C   UNL     1      19.577  14.526   0.476  1.00  0.00     0.000 C 
BRANCH   9  10
ATOM     10  C   UNL     1      19.449  13.919  -0.934  1.00  0.00     0.000 C 
BRANCH  10  11
ATOM     11  C   UNL     1      19.710  12.406  -0.966  1.00  0.00     0.000 C 
BRANCH  11  12
ATOM     12  C   UNL     1      20.286  11.980  -2.326  1.00  0.00     0.006 C 
BRANCH  12  13
ATOM     13  C   UNL     1      21.252  13.025  -2.899  1.00  0.00     0.053 C 
BRANCH  13  14
ATOM     14  C   UNL     1      22.679  12.581  -2.782  1.00  0.00     0.041 C 
ATOM     15  O   UNL     1      23.369  12.918  -1.785  1.00  0.00    -0.550 OA
ATOM     16  O   UNL     1      23.236  11.771  -3.762  1.00  0.00    -0.550 OA
ENDBRANCH  13  14
ENDBRANCH  12  13
ENDBRANCH  11  12
ENDBRANCH  10  11
ENDBRANCH   9  10
ENDBRANCH   8   9
ENDBRANCH   7   8
ENDBRANCH   6   7
ENDBRANCH   5   6
ENDBRANCH   4   5
ENDBRANCH   3   4
ENDBRANCH   2   3
ENDBRANCH   1   2
BRANCH   1  17
ATOM     17  C   UNL     1      22.541  10.639   1.415  1.00  0.00     0.000 C 
BRANCH  17  18
ATOM     18  C   UNL     1      22.224  10.071   0.020  1.00  0.00     0.000 C 
BRANCH  18  19
ATOM     19  C   UNL     1      22.085   8.532  -0.005  1.00  0.00     0.000 C 
BRANCH  19  20
ATOM     20  C   UNL     1      22.997   7.844   1.027  1.00  0.00     0.000 C 
BRANCH  20  21
ATOM     21  C   UNL     1      23.005   6.313   0.874  1.00  0.00     0.000 C 
BRANCH  21  22
ATOM     22  C   UNL     1      21.714   5.783   0.228  1.00  0.00    -0.000 C 
BRANCH  22  23
ATOM     23  C   UNL     1      21.108   4.600   1.002  1.00  0.00    -0.000 C 
BRANCH  23  24
ATOM     24  C   UNL     1      21.744   4.415   2.391  1.00  0.00    -0.000 C 
BRANCH  24  25
ATOM     25  C   UNL     1      20.743   4.672   3.535  1.00  0.00    -0.000 C 
BRANCH  25  26
ATOM     26  C   UNL     1      21.170   5.816   4.478  1.00  0.00    -0.000 C 
BRANCH  26  27
ATOM     27  C   UNL     1      22.147   5.366   5.582  1.00  0.00    -0.000 C 
BRANCH  27  28
ATOM     28  C   UNL     1      23.352   6.315   5.719  1.00  0.00    -0.000 C 
BRANCH  28  29
ATOM     29  C   UNL     1      24.008   6.622   4.363  1.00  0.00    -0.003 C 
ATOM     30  C   UNL     1      25.530   6.738   4.463  1.00  0.00     0.004 C 
ENDBRANCH  28  29
ENDBRANCH  27  28
ENDBRANCH  26  27
ENDBRANCH  25  26
ENDBRANCH  24  25
ENDBRANCH  23  24
ENDBRANCH  22  23
ENDBRANCH  21  22
ENDBRANCH  20  21
ENDBRANCH  19  20
ENDBRANCH  18  19
ENDBRANCH  17  18
ENDBRANCH   1  17
TORSDOF 26
ENDMDL
MODEL 3
REMARK VINA RESULT:    -5.987      4.408     10.668
REMARK INTER + INTRA:         -18.341
REMARK INTER:                 -14.919
REMARK INTRA:                  -3.423
REMARK UNBOUND:                -3.253
REMARK SMILES CCCCCCCCCCCCCCCCCCCCCCCCCCCC(=O)[O-]
REMARK SMILES IDX 15 1 16 2 17 3 18 4 19 5 20 6 21 7 22 8 23 9 24 10 25 11
REMARK SMILES IDX 26 12 27 13 28 14 29 15 30 16 14 17 13 18 12 19 11 20 10 21
REMARK SMILES IDX 9 22 8 23 7 24 6 25 5 26 4 27 3 28 2 29 1 30
REMARK H PARENT
REMARK Flexibility Score: inf
ROOT
ATOM      1  C   UNL     1      21.942  15.782   2.038  1.00  0.00     0.000 C 
ENDROOT
BRANCH   1   2
ATOM      2  C   UNL     1      21.777  15.065   3.389  1.00  0.00     0.000 C 
BRANCH   2   3
ATOM      3  C   UNL     1      23.101  14.494   3.922  1.00  0.00     0.000 C 
BRANCH   3   4
ATOM      4  C   UNL     1      22.981  13.022   4.357  1.00  0.00     0.000 C 
BRANCH   4   5
ATOM      5  C   UNL     1      22.480  12.857   5.805  1.00  0.00     0.000 C 
BRANCH   5   6
ATOM      6  C   UNL     1      23.373  11.994   6.722  1.00  0.00     0.000 C 
BRANCH   6   7
ATOM      7  C   UNL     1      22.795  11.713   8.127  1.00  0.00     0.000 C 
BRANCH   7   8
ATOM      8  C   UNL     1      23.819  11.141   9.125  1.00  0.00     0.000 C 
BRANCH   8   9
ATOM      9  C   UNL     1      23.770   9.614   9.315  1.00  0.00     0.000 C 
BRANCH   9  10
ATOM     10  C   UNL     1      25.138   8.932   9.505  1.00  0.00     0.000 C 
BRANCH  10  11
ATOM     11  C   UNL     1      25.429   7.858   8.447  1.00  0.00     0.000 C 
BRANCH  11  12
ATOM     12  C   UNL     1      24.455   7.980   7.265  1.00  0.00     0.006 C 
BRANCH  12  13
ATOM     13  C   UNL     1      25.162   8.422   5.976  1.00  0.00     0.053 C 
BRANCH  13  14
ATOM     14  C   UNL     1      25.598   7.247   5.154  1.00  0.00     0.041 C 
ATOM     15  O   UNL     1      26.737   6.740   5.326  1.00  0.00    -0.550 OA
ATOM     16  O   UNL     1      24.733   6.696   4.218  1.00  0.00    -0.550 OA
ENDBRANCH  13  14
ENDBRANCH  12  13
ENDBRANCH  11  12
ENDBRANCH  10  11
ENDBRANCH   9  10
ENDBRANCH   8   9
ENDBRANCH   7   8
ENDBRANCH   6   7
ENDBRANCH   5   6
ENDBRANCH   4   5
ENDBRANCH   3   4
ENDBRANCH   2   3
ENDBRANCH   1   2
BRANCH   1  17
ATOM     17  C   UNL     1      23.255  15.409   1.328  1.00  0.00     0.000 C 
BRANCH  17  18
ATOM     18  C   UNL     1      23.104  14.408   0.169  1.00  0.00     0.000 C 
BRANCH  18  19
ATOM     19  C   UNL     1      23.832  13.067   0.410  1.00  0.00     0.000 C 
BRANCH  19  20
ATOM     20  C   UNL     1      22.866  11.867   0.407  1.00  0.00     0.000 C 
BRANCH  20  21
ATOM     21  C   UNL     1      21.572  12.155   1.187  1.00  0.00     0.000 C 
BRANCH  21  22
ATOM     22  C   UNL     1      20.316  12.010   0.312  1.00  0.00    -0.000 C 
BRANCH  22  23
ATOM     23  C   UNL     1      19.684  13.366  -0.047  1.00  0.00    -0.000 C 
BRANCH  23  24
ATOM     24  C   UNL     1      19.757  13.671  -1.554  1.00  0.00    -0.000 C 
BRANCH  24  25
ATOM     25  C   UNL     1      19.905  12.394  -2.405  1.00  0.00    -0.000 C 
BRANCH  25  26
ATOM     26  C   UNL     1      20.958  12.523  -3.526  1.00  0.00    -0.000 C 
BRANCH  26  27
ATOM     27  C   UNL     1      22.364  12.883  -3.007  1.00  0.00    -0.000 C 
BRANCH  27  28
ATOM     28  C   UNL     1      23.472  12.503  -4.007  1.00  0.00    -0.000 C 
BRANCH  28  29
ATOM     29  C   UNL     1      22.952  12.429  -5.451  1.00  0.00    -0.003 C 
ATOM     30  C   UNL     1      23.695  11.387  -6.288  1.00  0.00     0.004 C 
ENDBRANCH  28  29
ENDBRANCH  27  28
ENDBRANCH  26  27
ENDBRANCH  25  26
ENDBRANCH  24  25
ENDBRANCH  23  24
ENDBRANCH  22  23
ENDBRANCH  21  22
ENDBRANCH  20  21
ENDBRANCH  19  20
ENDBRANCH  18  19
ENDBRANCH  17  18
ENDBRANCH   1  17
TORSDOF 26
ENDMDL
MODEL 4
REMARK VINA RESULT:    -5.952      3.561     10.386
REMARK INTER + INTRA:         -18.253
REMARK INTER:                 -14.919
REMARK INTRA:                  -3.334
REMARK UNBOUND:                -3.253
REMARK SMILES CCCCCCCCCCCCCCCCCCCCCCCCCCCC(=O)[O-]
REMARK SMILES IDX 15 1 16 2 17 3 18 4 19 5 20 6 21 7 22 8 23 9 24 10 25 11
REMARK SMILES IDX 26 12 27 13 28 14 29 15 30 16 14 17 13 18 12 19 11 20 10 21
REMARK SMILES IDX 9 22 8 23 7 24 6 25 5 26 4 27 3 28 2 29 1 30
REMARK H PARENT
REMARK Flexibility Score: inf
ROOT
ATOM      1  C   UNL     1      23.992  12.846  -0.808  1.00  0.00     0.000 C 
ENDROOT
BRANCH   1   2
ATOM      2  C   UNL     1      23.051  12.161   0.199  1.00  0.00     0.000 C 
BRANCH   2   3
ATOM      3  C   UNL     1      22.130  11.123  -0.462  1.00  0.00     0.000 C 
BRANCH   3   4
ATOM      4  C   UNL     1      20.637  11.432  -0.246  1.00  0.00     0.000 C 
BRANCH   4   5
ATOM      5  C   UNL     1      19.985  12.142  -1.447  1.00  0.00     0.000 C 
BRANCH   5   6
ATOM      6  C   UNL     1      19.159  13.400  -1.106  1.00  0.00     0.000 C 
BRANCH   6   7
ATOM      7  C   UNL     1      19.139  13.787   0.390  1.00  0.00     0.000 C 
BRANCH   7   8
ATOM      8  C   UNL     1      19.473  15.266   0.661  1.00  0.00     0.000 C 
BRANCH   8   9
ATOM      9  C   UNL     1      20.805  15.759   0.067  1.00  0.00     0.000 C 
BRANCH   9  10
ATOM     10  C   UNL     1      22.054  15.461   0.918  1.00  0.00     0.000 C 
BRANCH  10  11
ATOM     11  C   UNL     1      22.074  16.227   2.248  1.00  0.00     0.000 C 
BRANCH  11  12
ATOM     12  C   UNL     1      22.041  15.255   3.438  1.00  0.00     0.006 C 
BRANCH  12  13
ATOM     13  C   UNL     1      23.194  14.244   3.393  1.00  0.00     0.053 C 
BRANCH  13  14
ATOM     14  C   UNL     1      22.753  12.882   3.835  1.00  0.00     0.041 C 
ATOM     15  O   UNL     1      21.695  12.377   3.376  1.00  0.00    -0.550 OA
ATOM     16  O   UNL     1      23.526  12.160   4.733  1.00  0.00    -0.550 OA
ENDBRANCH  13  14
ENDBRANCH  12  13
ENDBRANCH  11  12
ENDBRANCH  10  11
ENDBRANCH   9  10
ENDBRANCH   8   9
ENDBRANCH   7   8
ENDBRANCH   6   7
ENDBRANCH   5   6
ENDBRANCH   4   5
ENDBRANCH   3   4
ENDBRANCH   2   3
ENDBRANCH   1   2
BRANCH   1  17
ATOM     17  C   UNL     1      23.245  13.393  -2.036  1.00  0.00     0.000 C 
BRANCH  17  18
ATOM     18  C   UNL     1      23.624  12.732  -3.374  1.00  0.00     0.000 C 
BRANCH  18  19
ATOM     19  C   UNL     1      22.513  12.816  -4.443  1.00  0.00     0.000 C 
BRANCH  19  20
ATOM     20  C   UNL     1      23.031  12.482  -5.854  1.00  0.00     0.000 C 
BRANCH  20  21
ATOM     21  C   UNL     1      24.093  11.369  -5.841  1.00  0.00     0.000 C 
BRANCH  21  22
ATOM     22  C   UNL     1      24.127  10.577  -7.159  1.00  0.00    -0.000 C 
BRANCH  22  23
ATOM     23  C   UNL     1      24.711  11.392  -8.324  1.00  0.00    -0.000 C 
BRANCH  23  24
ATOM     24  C   UNL     1      25.867  10.663  -9.034  1.00  0.00    -0.000 C 
BRANCH  24  25
ATOM     25  C   UNL     1      27.063  11.593  -9.316  1.00  0.00    -0.000 C 
BRANCH  25  26
ATOM     26  C   UNL     1      28.386  11.096  -8.698  1.00  0.00    -0.000 C 
BRANCH  26  27
ATOM     27  C   UNL     1      28.212   9.866  -7.786  1.00  0.00    -0.000 C 
BRANCH  27  28
ATOM     28  C   UNL     1      28.760  10.107  -6.367  1.00  0.00    -0.000 C 
BRANCH  28  29
ATOM     29  C   UNL     1      27.638  10.224  -5.322  1.00  0.00    -0.003 C 
ATOM     30  C   UNL     1      28.123   9.911  -3.906  1.00  0.00     0.004 C 
ENDBRANCH  28  29
ENDBRANCH  27  28
ENDBRANCH  26  27
ENDBRANCH  25  26
ENDBRANCH  24  25
ENDBRANCH  23  24
ENDBRANCH  22  23
ENDBRANCH  21  22
ENDBRANCH  20  21
ENDBRANCH  19  20
ENDBRANCH  18  19
ENDBRANCH  17  18
ENDBRANCH   1  17
TORSDOF 26
ENDMDL
MODEL 5
REMARK VINA RESULT:    -5.940      2.292      2.923
REMARK INTER + INTRA:         -18.222
REMARK INTER:                 -14.905
REMARK INTRA:                  -3.317
REMARK UNBOUND:                -3.253
REMARK SMILES CCCCCCCCCCCCCCCCCCCCCCCCCCCC(=O)[O-]
REMARK SMILES IDX 15 1 16 2 17 3 18 4 19 5 20 6 21 7 22 8 23 9 24 10 25 11
REMARK SMILES IDX 26 12 27 13 28 14 29 15 30 16 14 17 13 18 12 19 11 20 10 21
REMARK SMILES IDX 9 22 8 23 7 24 6 25 5 26 4 27 3 28 2 29 1 30
REMARK H PARENT
REMARK Flexibility Score: inf
ROOT
ATOM      1  C   UNL     1      22.784  13.081  -2.560  1.00  0.00     0.000 C 
ENDROOT
BRANCH   1   2
ATOM      2  C   UNL     1      23.520  13.188  -3.907  1.00  0.00     0.000 C 
BRANCH   2   3
ATOM      3  C   UNL     1      22.966  12.218  -4.963  1.00  0.00     0.000 C 
BRANCH   3   4
ATOM      4  C   UNL     1      24.072  11.412  -5.666  1.00  0.00     0.000 C 
BRANCH   4   5
ATOM      5  C   UNL     1      23.660  10.904  -7.061  1.00  0.00     0.000 C 
BRANCH   5   6
ATOM      6  C   UNL     1      24.519  11.418  -8.236  1.00  0.00     0.000 C 
BRANCH   6   7
ATOM      7  C   UNL     1      25.870  10.693  -8.427  1.00  0.00     0.000 C 
BRANCH   7   8
ATOM      8  C   UNL     1      25.886   9.245  -7.902  1.00  0.00     0.000 C 
BRANCH   8   9
ATOM      9  C   UNL     1      27.264   8.559  -7.909  1.00  0.00     0.000 C 
BRANCH   9  10
ATOM     10  C   UNL     1      27.956   8.461  -6.536  1.00  0.00     0.000 C 
BRANCH  10  11
ATOM     11  C   UNL     1      27.082   8.975  -5.383  1.00  0.00     0.000 C 
BRANCH  11  12
ATOM     12  C   UNL     1      27.707  10.223  -4.739  1.00  0.00     0.006 C 
BRANCH  12  13
ATOM     13  C   UNL     1      28.550   9.877  -3.504  1.00  0.00     0.053 C 
BRANCH  13  14
ATOM     14  C   UNL     1      28.540  10.988  -2.499  1.00  0.00     0.041 C 
ATOM     15  O   UNL     1      28.759  10.746  -1.283  1.00  0.00    -0.550 OA
ATOM     16  O   UNL     1      28.316  12.294  -2.911  1.00  0.00    -0.550 OA
ENDBRANCH  13  14
ENDBRANCH  12  13
ENDBRANCH  11  12
ENDBRANCH  10  11
ENDBRANCH   9  10
ENDBRANCH   8   9
ENDBRANCH   7   8
ENDBRANCH   6   7
ENDBRANCH   5   6
ENDBRANCH   4   5
ENDBRANCH   3   4
ENDBRANCH   2   3
ENDBRANCH   1   2
BRANCH   1  17
ATOM     17  C   UNL     1      21.393  12.441  -2.696  1.00  0.00     0.000 C 
BRANCH  17  18
ATOM     18  C   UNL     1      20.237  13.268  -2.104  1.00  0.00     0.000 C 
BRANCH  18  19
ATOM     19  C   UNL     1      19.544  12.593  -0.900  1.00  0.00     0.000 C 
BRANCH  19  20
ATOM     20  C   UNL     1      19.579  13.470   0.364  1.00  0.00     0.000 C 
BRANCH  20  21
ATOM     21  C   UNL     1      19.698  14.968   0.036  1.00  0.00     0.000 C 
BRANCH  21  22
ATOM     22  C   UNL     1      20.663  15.701   0.982  1.00  0.00    -0.000 C 
BRANCH  22  23
ATOM     23  C   UNL     1      22.131  15.586   0.536  1.00  0.00    -0.000 C 
BRANCH  23  24
ATOM     24  C   UNL     1      23.077  15.247   1.702  1.00  0.00    -0.000 C 
BRANCH  24  25
ATOM     25  C   UNL     1      22.359  15.262   3.065  1.00  0.00    -0.000 C 
BRANCH  25  26
ATOM     26  C   UNL     1      22.576  13.976   3.888  1.00  0.00    -0.000 C 
BRANCH  26  27
ATOM     27  C   UNL     1      23.209  12.829   3.076  1.00  0.00    -0.000 C 
BRANCH  27  28
ATOM     28  C   UNL     1      22.161  12.024   2.286  1.00  0.00    -0.000 C 
BRANCH  28  29
ATOM     29  C   UNL     1      22.651  11.656   0.876  1.00  0.00    -0.003 C 
ATOM     30  C   UNL     1      22.440  10.177   0.551  1.00  0.00     0.004 C 
ENDBRANCH  28  29
ENDBRANCH  27  28
ENDBRANCH  26  27
ENDBRANCH  25  26
ENDBRANCH  24  25
ENDBRANCH  23  24
ENDBRANCH  22  23
ENDBRANCH  21  22
ENDBRANCH  20  21
ENDBRANCH  19  20
ENDBRANCH  18  19
ENDBRANCH  17  18
ENDBRANCH   1  17
TORSDOF 26
ENDMDL
MODEL 6
REMARK VINA RESULT:    -5.930      2.621      4.769
REMARK INTER + INTRA:         -18.198
REMARK INTER:                 -14.393
REMARK INTRA:                  -3.804
REMARK UNBOUND:                -3.253
REMARK SMILES CCCCCCCCCCCCCCCCCCCCCCCCCCCC(=O)[O-]
REMARK SMILES IDX 15 1 16 2 17 3 18 4 19 5 20 6 21 7 22 8 23 9 24 10 25 11
REMARK SMILES IDX 26 12 27 13 28 14 29 15 30 16 14 17 13 18 12 19 11 20 10 21
REMARK SMILES IDX 9 22 8 23 7 24 6 25 5 26 4 27 3 28 2 29 1 30
REMARK H PARENT
REMARK Flexibility Score: inf
ROOT
ATOM      1  C   UNL     1      24.211  11.141  -6.114  1.00  0.00     0.000 C 
ENDROOT
BRANCH   1   2
ATOM      2  C   UNL     1      23.680  10.679  -7.483  1.00  0.00     0.000 C 
BRANCH   2   3
ATOM      3  C   UNL     1      24.589  11.107  -8.646  1.00  0.00     0.000 C 
BRANCH   3   4
ATOM      4  C   UNL     1      26.032  11.396  -8.196  1.00  0.00     0.000 C 
BRANCH   4   5
ATOM      5  C   UNL     1      27.089  10.956  -9.226  1.00  0.00     0.000 C 
BRANCH   5   6
ATOM      6  C   UNL     1      26.963   9.501  -9.727  1.00  0.00     0.000 C 
BRANCH   6   7
ATOM      7  C   UNL     1      27.432   8.420  -8.728  1.00  0.00     0.000 C 
BRANCH   7   8
ATOM      8  C   UNL     1      26.302   7.833  -7.861  1.00  0.00     0.000 C 
BRANCH   8   9
ATOM      9  C   UNL     1      26.408   8.128  -6.354  1.00  0.00     0.000 C 
BRANCH   9  10
ATOM     10  C   UNL     1      27.691   8.862  -5.917  1.00  0.00     0.000 C 
BRANCH  10  11
ATOM     11  C   UNL     1      27.426   9.991  -4.911  1.00  0.00     0.000 C 
BRANCH  11  12
ATOM     12  C   UNL     1      28.729  10.418  -4.216  1.00  0.00     0.006 C 
BRANCH  12  13
ATOM     13  C   UNL     1      28.584  10.458  -2.688  1.00  0.00     0.053 C 
BRANCH  13  14
ATOM     14  C   UNL     1      28.694  11.855  -2.159  1.00  0.00     0.041 C 
ATOM     15  O   UNL     1      29.114  12.783  -2.899  1.00  0.00    -0.550 OA
ATOM     16  O   UNL     1      28.304  12.136  -0.857  1.00  0.00    -0.550 OA
ENDBRANCH  13  14
ENDBRANCH  12  13
ENDBRANCH  11  12
ENDBRANCH  10  11
ENDBRANCH   9  10
ENDBRANCH   8   9
ENDBRANCH   7   8
ENDBRANCH   6   7
ENDBRANCH   5   6
ENDBRANCH   4   5
ENDBRANCH   3   4
ENDBRANCH   2   3
ENDBRANCH   1   2
BRANCH   1  17
ATOM     17  C   UNL     1      23.233  12.079  -5.388  1.00  0.00     0.000 C 
BRANCH  17  18
ATOM     18  C   UNL     1      23.727  12.605  -4.028  1.00  0.00     0.000 C 
BRANCH  18  19
ATOM     19  C   UNL     1      22.589  13.064  -3.090  1.00  0.00     0.000 C 
BRANCH  19  20
ATOM     20  C   UNL     1      21.732  11.888  -2.589  1.00  0.00     0.000 C 
BRANCH  20  21
ATOM     21  C   UNL     1      20.224  12.162  -2.725  1.00  0.00     0.000 C 
BRANCH  21  22
ATOM     22  C   UNL     1      19.783  13.410  -1.942  1.00  0.00    -0.000 C 
BRANCH  22  23
ATOM     23  C   UNL     1      19.102  13.062  -0.608  1.00  0.00    -0.000 C 
BRANCH  23  24
ATOM     24  C   UNL     1      19.015  14.270   0.343  1.00  0.00    -0.000 C 
BRANCH  24  25
ATOM     25  C   UNL     1      20.186  15.254   0.151  1.00  0.00    -0.000 C 
BRANCH  25  26
ATOM     26  C   UNL     1      21.017  15.477   1.432  1.00  0.00    -0.000 C 
BRANCH  26  27
ATOM     27  C   UNL     1      22.529  15.264   1.224  1.00  0.00    -0.000 C 
BRANCH  27  28
ATOM     28  C   UNL     1      22.828  14.174   0.178  1.00  0.00    -0.000 C 
BRANCH  28  29
ATOM     29  C   UNL     1      23.283  12.856   0.824  1.00  0.00    -0.003 C 
ATOM     30  C   UNL     1      22.106  11.966   1.227  1.00  0.00     0.004 C 
ENDBRANCH  28  29
ENDBRANCH  27  28
ENDBRANCH  26  27
ENDBRANCH  25  26
ENDBRANCH  24  25
ENDBRANCH  23  24
ENDBRANCH  22  23
ENDBRANCH  21  22
ENDBRANCH  20  21
ENDBRANCH  19  20
ENDBRANCH  18  19
ENDBRANCH  17  18
ENDBRANCH   1  17
TORSDOF 26
ENDMDL
MODEL 7
REMARK VINA RESULT:    -5.906      1.419      2.901
REMARK INTER + INTRA:         -18.136
REMARK INTER:                 -14.755
REMARK INTRA:                  -3.381
REMARK UNBOUND:                -3.253
REMARK SMILES CCCCCCCCCCCCCCCCCCCCCCCCCCCC(=O)[O-]
REMARK SMILES IDX 15 1 16 2 17 3 18 4 19 5 20 6 21 7 22 8 23 9 24 10 25 11
REMARK SMILES IDX 26 12 27 13 28 14 29 15 30 16 14 17 13 18 12 19 11 20 10 21
REMARK SMILES IDX 9 22 8 23 7 24 6 25 5 26 4 27 3 28 2 29 1 30
REMARK H PARENT
REMARK Flexibility Score: inf
ROOT
ATOM      1  C   UNL     1      23.792  13.036  -3.768  1.00  0.00     0.000 C 
ENDROOT
BRANCH   1   2
ATOM      2  C   UNL     1      23.165  12.419  -5.031  1.00  0.00     0.000 C 
BRANCH   2   3
ATOM      3  C   UNL     1      24.087  11.391  -5.707  1.00  0.00     0.000 C 
BRANCH   3   4
ATOM      4  C   UNL     1      23.488  10.821  -7.005  1.00  0.00     0.000 C 
BRANCH   4   5
ATOM      5  C   UNL     1      24.126  11.412  -8.277  1.00  0.00     0.000 C 
BRANCH   5   6
ATOM      6  C   UNL     1      25.667  11.360  -8.333  1.00  0.00     0.000 C 
BRANCH   6   7
ATOM      7  C   UNL     1      26.256  10.589  -9.536  1.00  0.00     0.000 C 
BRANCH   7   8
ATOM      8  C   UNL     1      27.692  11.004  -9.907  1.00  0.00     0.000 C 
BRANCH   8   9
ATOM      9  C   UNL     1      28.569  11.463  -8.727  1.00  0.00     0.000 C 
BRANCH   9  10
ATOM     10  C   UNL     1      29.174  10.329  -7.879  1.00  0.00     0.000 C 
BRANCH  10  11
ATOM     11  C   UNL     1      28.659  10.317  -6.432  1.00  0.00     0.000 C 
BRANCH  11  12
ATOM     12  C   UNL     1      27.713   9.129  -6.199  1.00  0.00     0.006 C 
BRANCH  12  13
ATOM     13  C   UNL     1      27.974   7.979  -7.181  1.00  0.00     0.053 C 
BRANCH  13  14
ATOM     14  C   UNL     1      26.701   7.314  -7.605  1.00  0.00     0.041 C 
ATOM     15  O   UNL     1      26.730   6.197  -8.184  1.00  0.00    -0.550 OA
ATOM     16  O   UNL     1      25.480   7.917  -7.334  1.00  0.00    -0.550 OA
ENDBRANCH  13  14
ENDBRANCH  12  13
ENDBRANCH  11  12
ENDBRANCH  10  11
ENDBRANCH   9  10
ENDBRANCH   8   9
ENDBRANCH   7   8
ENDBRANCH   6   7
ENDBRANCH   5   6
ENDBRANCH   4   5
ENDBRANCH   3   4
ENDBRANCH   2   3
ENDBRANCH   1   2
BRANCH   1  17
ATOM     17  C   UNL     1      22.785  13.169  -2.613  1.00  0.00     0.000 C 
BRANCH  17  18
ATOM     18  C   UNL     1      22.158  11.845  -2.143  1.00  0.00     0.000 C 
BRANCH  18  19
ATOM     19  C   UNL     1      20.641  11.745  -2.417  1.00  0.00     0.000 C 
BRANCH  19  20
ATOM     20  C   UNL     1      19.945  13.118  -2.367  1.00  0.00     0.000 C 
BRANCH  20  21
ATOM     21  C   UNL     1      18.857  13.184  -1.281  1.00  0.00     0.000 C 
BRANCH  21  22
ATOM     22  C   UNL     1      19.439  13.479   0.112  1.00  0.00    -0.000 C 
BRANCH  22  23
ATOM     23  C   UNL     1      19.141  14.911   0.587  1.00  0.00    -0.000 C 
BRANCH  23  24
ATOM     24  C   UNL     1      20.333  15.863   0.375  1.00  0.00    -0.000 C 
BRANCH  24  25
ATOM     25  C   UNL     1      21.514  15.544   1.313  1.00  0.00    -0.000 C 
BRANCH  25  26
ATOM     26  C   UNL     1      22.815  15.189   0.562  1.00  0.00    -0.000 C 
BRANCH  26  27
ATOM     27  C   UNL     1      23.636  14.081   1.251  1.00  0.00    -0.000 C 
BRANCH  27  28
ATOM     28  C   UNL     1      23.252  13.903   2.732  1.00  0.00    -0.000 C 
BRANCH  28  29
ATOM     29  C   UNL     1      22.625  12.527   3.008  1.00  0.00    -0.003 C 
ATOM     30  C   UNL     1      22.259  11.782   1.724  1.00  0.00     0.004 C 
ENDBRANCH  28  29
ENDBRANCH  27  28
ENDBRANCH  26  27
ENDBRANCH  25  26
ENDBRANCH  24  25
ENDBRANCH  23  24
ENDBRANCH  22  23
ENDBRANCH  21  22
ENDBRANCH  20  21
ENDBRANCH  19  20
ENDBRANCH  18  19
ENDBRANCH  17  18
ENDBRANCH   1  17
TORSDOF 26
ENDMDL
MODEL 8
REMARK VINA RESULT:    -5.887      2.363      3.710
REMARK INTER + INTRA:         -18.088
REMARK INTER:                 -14.397
REMARK INTRA:                  -3.691
REMARK UNBOUND:                -3.253
REMARK SMILES CCCCCCCCCCCCCCCCCCCCCCCCCCCC(=O)[O-]
REMARK SMILES IDX 15 1 16 2 17 3 18 4 19 5 20 6 21 7 22 8 23 9 24 10 25 11
REMARK SMILES IDX 26 12 27 13 28 14 29 15 30 16 14 17 13 18 12 19 11 20 10 21
REMARK SMILES IDX 9 22 8 23 7 24 6 25 5 26 4 27 3 28 2 29 1 30
REMARK H PARENT
REMARK Flexibility Score: inf
ROOT
ATOM      1  C   UNL     1      23.882  12.881  -2.574  1.00  0.00     0.000 C 
ENDROOT
BRANCH   1   2
ATOM      2  C   UNL     1      23.262  13.594  -3.788  1.00  0.00     0.000 C 
BRANCH   2   3
ATOM      3  C   UNL     1      22.796  12.614  -4.876  1.00  0.00     0.000 C 
BRANCH   3   4
ATOM      4  C   UNL     1      23.912  11.656  -5.329  1.00  0.00     0.000 C 
BRANCH   4   5
ATOM      5  C   UNL     1      23.617  10.977  -6.680  1.00  0.00     0.000 C 
BRANCH   5   6
ATOM      6  C   UNL     1      24.093  11.749  -7.929  1.00  0.00     0.000 C 
BRANCH   6   7
ATOM      7  C   UNL     1      25.039  10.964  -8.865  1.00  0.00     0.000 C 
BRANCH   7   8
ATOM      8  C   UNL     1      26.527  11.328  -8.703  1.00  0.00     0.000 C 
BRANCH   8   9
ATOM      9  C   UNL     1      27.457  10.153  -8.347  1.00  0.00     0.000 C 
BRANCH   9  10
ATOM     10  C   UNL     1      27.151   9.456  -7.007  1.00  0.00     0.000 C 
BRANCH  10  11
ATOM     11  C   UNL     1      27.321  10.382  -5.794  1.00  0.00     0.000 C 
BRANCH  11  12
ATOM     12  C   UNL     1      28.669  10.130  -5.100  1.00  0.00     0.006 C 
BRANCH  12  13
ATOM     13  C   UNL     1      28.506   9.876  -3.595  1.00  0.00     0.053 C 
BRANCH  13  14
ATOM     14  C   UNL     1      28.823  11.100  -2.790  1.00  0.00     0.041 C 
ATOM     15  O   UNL     1      28.427  11.198  -1.600  1.00  0.00    -0.550 OA
ATOM     16  O   UNL     1      29.582  12.120  -3.349  1.00  0.00    -0.550 OA
ENDBRANCH  13  14
ENDBRANCH  12  13
ENDBRANCH  11  12
ENDBRANCH  10  11
ENDBRANCH   9  10
ENDBRANCH   8   9
ENDBRANCH   7   8
ENDBRANCH   6   7
ENDBRANCH   5   6
ENDBRANCH   4   5
ENDBRANCH   3   4
ENDBRANCH   2   3
ENDBRANCH   1   2
BRANCH   1  17
ATOM     17  C   UNL     1      22.886  12.716  -1.413  1.00  0.00     0.000 C 
BRANCH  17  18
ATOM     18  C   UNL     1      22.139  11.370  -1.385  1.00  0.00     0.000 C 
BRANCH  18  19
ATOM     19  C   UNL     1      21.681  10.946   0.028  1.00  0.00     0.000 C 
BRANCH  19  20
ATOM     20  C   UNL     1      22.570  11.538   1.136  1.00  0.00     0.000 C 
BRANCH  20  21
ATOM     21  C   UNL     1      21.748  12.169   2.273  1.00  0.00     0.000 C 
BRANCH  21  22
ATOM     22  C   UNL     1      22.614  13.014   3.223  1.00  0.00    -0.000 C 
BRANCH  22  23
ATOM     23  C   UNL     1      22.408  14.525   3.026  1.00  0.00    -0.000 C 
BRANCH  23  24
ATOM     24  C   UNL     1      23.229  15.084   1.850  1.00  0.00    -0.000 C 
BRANCH  24  25
ATOM     25  C   UNL     1      22.336  15.603   0.705  1.00  0.00    -0.000 C 
BRANCH  25  26
ATOM     26  C   UNL     1      20.832  15.595   1.048  1.00  0.00    -0.000 C 
BRANCH  26  27
ATOM     27  C   UNL     1      19.943  15.102  -0.110  1.00  0.00    -0.000 C 
BRANCH  27  28
ATOM     28  C   UNL     1      19.204  13.796   0.235  1.00  0.00    -0.000 C 
BRANCH  28  29
ATOM     29  C   UNL     1      18.802  13.006  -1.021  1.00  0.00    -0.003 C 
ATOM     30  C   UNL     1      19.556  13.467  -2.269  1.00  0.00     0.004 C 
ENDBRANCH  28  29
ENDBRANCH  27  28
ENDBRANCH  26  27
ENDBRANCH  25  26
ENDBRANCH  24  25
ENDBRANCH  23  24
ENDBRANCH  22  23
ENDBRANCH  21  22
ENDBRANCH  20  21
ENDBRANCH  19  20
ENDBRANCH  18  19
ENDBRANCH  17  18
ENDBRANCH   1  17
TORSDOF 26
ENDMDL
MODEL 9
REMARK VINA RESULT:    -5.835      2.440      5.101
REMARK INTER + INTRA:         -17.958
REMARK INTER:                 -14.010
REMARK INTRA:                  -3.947
REMARK UNBOUND:                -3.253
REMARK SMILES CCCCCCCCCCCCCCCCCCCCCCCCCCCC(=O)[O-]
REMARK SMILES IDX 15 1 16 2 17 3 18 4 19 5 20 6 21 7 22 8 23 9 24 10 25 11
REMARK SMILES IDX 26 12 27 13 28 14 29 15 30 16 14 17 13 18 12 19 11 20 10 21
REMARK SMILES IDX 9 22 8 23 7 24 6 25 5 26 4 27 3 28 2 29 1 30
REMARK H PARENT
REMARK Flexibility Score: inf
ROOT
ATOM      1  C   UNL     1      22.885  12.062   0.578  1.00  0.00     0.000 C 
ENDROOT
BRANCH   1   2
ATOM      2  C   UNL     1      24.121  12.786   0.015  1.00  0.00     0.000 C 
BRANCH   2   3
ATOM      3  C   UNL     1      25.087  13.251   1.115  1.00  0.00     0.000 C 
BRANCH   3   4
ATOM      4  C   UNL     1      26.556  12.923   0.793  1.00  0.00     0.000 C 
BRANCH   4   5
ATOM      5  C   UNL     1      26.726  12.112  -0.506  1.00  0.00     0.000 C 
BRANCH   5   6
ATOM      6  C   UNL     1      28.155  12.081  -1.088  1.00  0.00     0.000 C 
BRANCH   6   7
ATOM      7  C   UNL     1      28.999  10.849  -0.691  1.00  0.00     0.000 C 
BRANCH   7   8
ATOM      8  C   UNL     1      29.439   9.978  -1.883  1.00  0.00     0.000 C 
BRANCH   8   9
ATOM      9  C   UNL     1      28.536  10.063  -3.128  1.00  0.00     0.000 C 
BRANCH   9  10
ATOM     10  C   UNL     1      28.528   8.807  -4.020  1.00  0.00     0.000 C 
BRANCH  10  11
ATOM     11  C   UNL     1      27.355   8.779  -5.011  1.00  0.00     0.000 C 
BRANCH  11  12
ATOM     12  C   UNL     1      27.019  10.197  -5.498  1.00  0.00     0.006 C 
BRANCH  12  13
ATOM     13  C   UNL     1      25.509  10.471  -5.487  1.00  0.00     0.053 C 
BRANCH  13  14
ATOM     14  C   UNL     1      24.903  10.285  -6.844  1.00  0.00     0.041 C 
ATOM     15  O   UNL     1      25.481   9.571  -7.705  1.00  0.00    -0.550 OA
ATOM     16  O   UNL     1      23.685  10.878  -7.147  1.00  0.00    -0.550 OA
ENDBRANCH  13  14
ENDBRANCH  12  13
ENDBRANCH  11  12
ENDBRANCH  10  11
ENDBRANCH   9  10
ENDBRANCH   8   9
ENDBRANCH   7   8
ENDBRANCH   6   7
ENDBRANCH   5   6
ENDBRANCH   4   5
ENDBRANCH   3   4
ENDBRANCH   2   3
ENDBRANCH   1   2
BRANCH   1  17
ATOM     17  C   UNL     1      22.947  11.889   2.105  1.00  0.00     0.000 C 
BRANCH  17  18
ATOM     18  C   UNL     1      21.803  12.565   2.882  1.00  0.00     0.000 C 
BRANCH  18  19
ATOM     19  C   UNL     1      22.275  13.328   4.139  1.00  0.00     0.000 C 
BRANCH  19  20
ATOM     20  C   UNL     1      22.950  14.668   3.793  1.00  0.00     0.000 C 
BRANCH  20  21
ATOM     21  C   UNL     1      22.053  15.571   2.930  1.00  0.00     0.000 C 
BRANCH  21  22
ATOM     22  C   UNL     1      22.664  15.855   1.548  1.00  0.00    -0.000 C 
BRANCH  22  23
ATOM     23  C   UNL     1      21.635  15.743   0.411  1.00  0.00    -0.000 C 
BRANCH  23  24
ATOM     24  C   UNL     1      20.223  15.404   0.924  1.00  0.00    -0.000 C 
BRANCH  24  25
ATOM     25  C   UNL     1      19.677  14.097   0.318  1.00  0.00    -0.000 C 
BRANCH  25  26
ATOM     26  C   UNL     1      20.073  13.892  -1.160  1.00  0.00    -0.000 C 
BRANCH  26  27
ATOM     27  C   UNL     1      19.849  12.452  -1.660  1.00  0.00    -0.000 C 
BRANCH  27  28
ATOM     28  C   UNL     1      20.708  12.122  -2.895  1.00  0.00    -0.000 C 
BRANCH  28  29
ATOM     29  C   UNL     1      21.941  13.032  -3.007  1.00  0.00    -0.003 C 
ATOM     30  C   UNL     1      22.869  12.623  -4.151  1.00  0.00     0.004 C 
ENDBRANCH  28  29
ENDBRANCH  27  28
ENDBRANCH  26  27
ENDBRANCH  25  26
ENDBRANCH  24  25
ENDBRANCH  23  24
ENDBRANCH  22  23
ENDBRANCH  21  22
ENDBRANCH  20  21
ENDBRANCH  19  20
ENDBRANCH  18  19
ENDBRANCH  17  18
ENDBRANCH   1  17
TORSDOF 26
ENDMDL
