MODEL 1
REMARK VINA RESULT:     8.245      0.000      0.000
REMARK INTER + INTRA:           9.079
REMARK INTER:                   9.209
REMARK INTRA:                  -0.129
REMARK UNBOUND:                -0.129
REMARK SMILES O=C([O-])C=Cc1ccccc1
REMARK SMILES IDX 4 1 5 2 2 3 1 4 3 5 6 6 7 7 11 8 8 9 10 10 9 11
REMARK H PARENT
REMARK Flexibility Score: inf
ROOT
ATOM      1  C   UNL     1     -36.929  24.763  -6.840  1.00  0.00     0.025 C 
ATOM      2  C   UNL     1     -37.285  25.624  -5.875  1.00  0.00     0.010 C 
ENDROOT
BRANCH   1   3
ATOM      3  C   UNL     1     -37.239  23.325  -6.764  1.00  0.00     0.064 C 
ATOM      4  O   UNL     1     -38.061  22.879  -5.920  1.00  0.00    -0.545 OA
ATOM      5  O   UNL     1     -36.615  22.445  -7.637  1.00  0.00    -0.545 OA
ENDBRANCH   1   3
BRANCH   2   6
ATOM      6  C   UNL     1     -37.004  27.086  -5.893  1.00  0.00    -0.026 A 
ATOM      7  C   UNL     1     -35.698  27.625  -5.883  1.00  0.00     0.008 A 
ATOM      8  C   UNL     1     -38.097  27.972  -5.919  1.00  0.00     0.008 A 
ATOM      9  C   UNL     1     -35.504  29.010  -5.900  1.00  0.00     0.001 A 
ATOM     10  C   UNL     1     -37.895  29.354  -5.936  1.00  0.00     0.001 A 
ATOM     11  C   UNL     1     -36.600  29.873  -5.926  1.00  0.00     0.000 A 
ENDBRANCH   2   6
TORSDOF 2
ENDMDL
