MODEL 1
REMARK VINA RESULT:    -3.926      0.000      0.000
REMARK INTER + INTRA:          -4.907
REMARK INTER:                  -4.730
REMARK INTRA:                  -0.178
REMARK UNBOUND:                -0.178
REMARK SMILES OCC(O)CO
REMARK SMILES IDX 3 1 5 2 6 3 2 5 1 6 4 8
REMARK H PARENT 6 4 1 7 4 9
REMARK Flexibility Score: inf
ROOT
ATOM      1  C   UNL     1       7.079   3.824  18.396  1.00  0.00     0.165 C 
ENDROOT
BRANCH   1   2
ATOM      2  C   UNL     1       8.146   2.728  18.546  1.00  0.00     0.190 C 
BRANCH   2   3
ATOM      3  O   UNL     1       7.538   1.477  18.718  1.00  0.00    -0.394 OA
ATOM      4  H   UNL     1       6.704   1.500  18.179  1.00  0.00     0.210 HD
ENDBRANCH   2   3
ENDBRANCH   1   2
BRANCH   1   5
ATOM      5  C   UNL     1       6.845   4.579  19.716  1.00  0.00     0.190 C 
BRANCH   5   6
ATOM      6  O   UNL     1       7.341   3.853  20.809  1.00  0.00    -0.394 OA
ATOM      7  H   UNL     1       6.680   3.957  21.542  1.00  0.00     0.210 HD
ENDBRANCH   5   6
ENDBRANCH   1   5
BRANCH   1   8
ATOM      8  O   UNL     1       5.865   3.243  17.994  1.00  0.00    -0.388 OA
ATOM      9  H   UNL     1       6.061   2.298  17.762  1.00  0.00     0.211 HD
ENDBRANCH   1   8
TORSDOF 5
ENDMDL
MODEL 2
REMARK VINA RESULT:    -3.919     16.153     17.574
REMARK INTER + INTRA:          -4.899
REMARK INTER:                  -4.691
REMARK INTRA:                  -0.208
REMARK UNBOUND:                -0.178
REMARK SMILES OCC(O)CO
REMARK SMILES IDX 3 1 5 2 6 3 2 5 1 6 4 8
REMARK H PARENT 6 4 1 7 4 9
REMARK Flexibility Score: inf
ROOT
ATOM      1  C   UNL     1      16.222  13.123  30.233  1.00  0.00     0.165 C 
ENDROOT
BRANCH   1   2
ATOM      2  C   UNL     1      16.372  14.302  29.258  1.00  0.00     0.190 C 
BRANCH   2   3
ATOM      3  O   UNL     1      15.935  15.490  29.859  1.00  0.00    -0.394 OA
ATOM      4  H   UNL     1      16.114  16.212  29.201  1.00  0.00     0.210 HD
ENDBRANCH   2   3
ENDBRANCH   1   2
BRANCH   1   5
ATOM      5  C   UNL     1      14.887  12.386  30.038  1.00  0.00     0.190 C 
BRANCH   5   6
ATOM      6  O   UNL     1      13.964  13.185  29.346  1.00  0.00    -0.394 OA
ATOM      7  H   UNL     1      14.010  12.912  28.392  1.00  0.00     0.210 HD
ENDBRANCH   5   6
ENDBRANCH   1   5
BRANCH   1   8
ATOM      8  O   UNL     1      16.279  13.600  31.553  1.00  0.00    -0.388 OA
ATOM      9  H   UNL     1      15.810  14.475  31.564  1.00  0.00     0.211 HD
ENDBRANCH   1   8
TORSDOF 5
ENDMDL
MODEL 3
REMARK VINA RESULT:    -3.844     16.075     17.163
REMARK INTER + INTRA:          -4.809
REMARK INTER:                  -4.783
REMARK INTRA:                  -0.026
REMARK UNBOUND:                -0.178
REMARK SMILES OCC(O)CO
REMARK SMILES IDX 3 1 5 2 6 3 2 5 1 6 4 8
REMARK H PARENT 6 4 1 7 4 9
REMARK Flexibility Score: inf
ROOT
ATOM      1  C   UNL     1      16.115  13.466  29.153  1.00  0.00     0.165 C 
ENDROOT
BRANCH   1   2
ATOM      2  C   UNL     1      15.064  12.627  29.897  1.00  0.00     0.190 C 
BRANCH   2   3
ATOM      3  O   UNL     1      13.783  12.894  29.396  1.00  0.00    -0.394 OA
ATOM      4  H   UNL     1      13.365  13.528  30.035  1.00  0.00     0.210 HD
ENDBRANCH   2   3
ENDBRANCH   1   2
BRANCH   1   5
ATOM      5  C   UNL     1      16.756  14.522  30.068  1.00  0.00     0.190 C 
BRANCH   5   6
ATOM      6  O   UNL     1      16.056  15.736  30.009  1.00  0.00    -0.394 OA
ATOM      7  H   UNL     1      15.246  15.571  29.458  1.00  0.00     0.210 HD
ENDBRANCH   5   6
ENDBRANCH   1   5
BRANCH   1   8
ATOM      8  O   UNL     1      15.506  14.123  28.072  1.00  0.00    -0.388 OA
ATOM      9  H   UNL     1      15.857  15.052  28.063  1.00  0.00     0.211 HD
ENDBRANCH   1   8
TORSDOF 5
ENDMDL
MODEL 4
REMARK VINA RESULT:    -3.752      1.207      2.763
REMARK INTER + INTRA:          -4.698
REMARK INTER:                  -4.520
REMARK INTRA:                  -0.178
REMARK UNBOUND:                -0.178
REMARK SMILES OCC(O)CO
REMARK SMILES IDX 3 1 5 2 6 3 2 5 1 6 4 8
REMARK H PARENT 6 4 1 7 4 9
REMARK Flexibility Score: inf
ROOT
ATOM      1  C   UNL     1       7.831   3.929  18.490  1.00  0.00     0.165 C 
ENDROOT
BRANCH   1   2
ATOM      2  C   UNL     1       6.897   4.388  19.622  1.00  0.00     0.190 C 
BRANCH   2   3
ATOM      3  O   UNL     1       7.345   3.893  20.854  1.00  0.00    -0.394 OA
ATOM      4  H   UNL     1       6.533   3.601  21.345  1.00  0.00     0.210 HD
ENDBRANCH   2   3
ENDBRANCH   1   2
BRANCH   1   5
ATOM      5  C   UNL     1       7.403   2.569  17.913  1.00  0.00     0.190 C 
BRANCH   5   6
ATOM      6  O   UNL     1       7.735   1.521  18.784  1.00  0.00    -0.394 OA
ATOM      7  H   UNL     1       8.354   1.901  19.462  1.00  0.00     0.210 HD
ENDBRANCH   5   6
ENDBRANCH   1   5
BRANCH   1   8
ATOM      8  O   UNL     1       9.140   3.811  18.985  1.00  0.00    -0.388 OA
ATOM      9  H   UNL     1       9.363   2.844  18.984  1.00  0.00     0.211 HD
ENDBRANCH   1   8
TORSDOF 5
ENDMDL
MODEL 5
REMARK VINA RESULT:    -3.700     16.322     17.359
REMARK INTER + INTRA:          -4.634
REMARK INTER:                  -4.440
REMARK INTRA:                  -0.195
REMARK UNBOUND:                -0.178
REMARK SMILES OCC(O)CO
REMARK SMILES IDX 3 1 5 2 6 3 2 5 1 6 4 8
REMARK H PARENT 6 4 1 7 4 9
REMARK Flexibility Score: inf
ROOT
ATOM      1  C   UNL     1      15.457  13.013  29.299  1.00  0.00     0.165 C 
ENDROOT
BRANCH   1   2
ATOM      2  C   UNL     1      16.002  12.384  30.592  1.00  0.00     0.190 C 
BRANCH   2   3
ATOM      3  O   UNL     1      16.097  13.351  31.601  1.00  0.00    -0.394 OA
ATOM      4  H   UNL     1      16.008  14.231  31.148  1.00  0.00     0.210 HD
ENDBRANCH   2   3
ENDBRANCH   1   2
BRANCH   1   5
ATOM      5  C   UNL     1      16.230  14.285  28.912  1.00  0.00     0.190 C 
BRANCH   5   6
ATOM      6  O   UNL     1      15.890  15.359  29.747  1.00  0.00    -0.394 OA
ATOM      7  H   UNL     1      16.719  15.620  30.227  1.00  0.00     0.210 HD
ENDBRANCH   5   6
ENDBRANCH   1   5
BRANCH   1   8
ATOM      8  O   UNL     1      14.106  13.350  29.478  1.00  0.00    -0.388 OA
ATOM      9  H   UNL     1      13.790  12.858  30.280  1.00  0.00     0.211 HD
ENDBRANCH   1   8
TORSDOF 5
ENDMDL
MODEL 6
REMARK VINA RESULT:    -3.578      1.261      1.520
REMARK INTER + INTRA:          -4.488
REMARK INTER:                  -4.363
REMARK INTRA:                  -0.125
REMARK UNBOUND:                -0.178
REMARK SMILES OCC(O)CO
REMARK SMILES IDX 3 1 5 2 6 3 2 5 1 6 4 8
REMARK H PARENT 6 4 1 7 4 9
REMARK Flexibility Score: inf
ROOT
ATOM      1  C   UNL     1       7.531   3.343  18.518  1.00  0.00     0.165 C 
ENDROOT
BRANCH   1   2
ATOM      2  C   UNL     1       9.021   3.606  18.242  1.00  0.00     0.190 C 
BRANCH   2   3
ATOM      3  O   UNL     1       9.818   2.763  19.028  1.00  0.00    -0.394 OA
ATOM      4  H   UNL     1      10.616   2.548  18.477  1.00  0.00     0.210 HD
ENDBRANCH   2   3
ENDBRANCH   1   2
BRANCH   1   5
ATOM      5  C   UNL     1       6.968   4.305  19.577  1.00  0.00     0.190 C 
BRANCH   5   6
ATOM      6  O   UNL     1       7.367   3.928  20.868  1.00  0.00    -0.394 OA
ATOM      7  H   UNL     1       7.499   2.944  20.849  1.00  0.00     0.210 HD
ENDBRANCH   5   6
ENDBRANCH   1   5
BRANCH   1   8
ATOM      8  O   UNL     1       7.368   2.027  18.980  1.00  0.00    -0.388 OA
ATOM      9  H   UNL     1       6.677   1.603  18.407  1.00  0.00     0.211 HD
ENDBRANCH   1   8
TORSDOF 5
ENDMDL
MODEL 7
REMARK VINA RESULT:    -3.449      1.637      2.530
REMARK INTER + INTRA:          -4.333
REMARK INTER:                  -4.303
REMARK INTRA:                  -0.030
REMARK UNBOUND:                -0.178
REMARK SMILES OCC(O)CO
REMARK SMILES IDX 3 1 5 2 6 3 2 5 1 6 4 8
REMARK H PARENT 6 4 1 7 4 9
REMARK Flexibility Score: inf
ROOT
ATOM      1  C   UNL     1       7.755   3.273  18.769  1.00  0.00     0.165 C 
ENDROOT
BRANCH   1   2
ATOM      2  C   UNL     1       7.062   4.313  19.664  1.00  0.00     0.190 C 
BRANCH   2   3
ATOM      3  O   UNL     1       7.265   4.004  21.016  1.00  0.00    -0.394 OA
ATOM      4  H   UNL     1       8.197   4.278  21.223  1.00  0.00     0.210 HD
ENDBRANCH   2   3
ENDBRANCH   1   2
BRANCH   1   5
ATOM      5  C   UNL     1       8.829   3.915  17.875  1.00  0.00     0.190 C 
BRANCH   5   6
ATOM      6  O   UNL     1       9.965   4.265  18.620  1.00  0.00    -0.394 OA
ATOM      7  H   UNL     1      10.161   5.215  18.409  1.00  0.00     0.210 HD
ENDBRANCH   5   6
ENDBRANCH   1   5
BRANCH   1   8
ATOM      8  O   UNL     1       6.800   2.656  17.945  1.00  0.00    -0.388 OA
ATOM      9  H   UNL     1       5.920   3.054  18.175  1.00  0.00     0.211 HD
ENDBRANCH   1   8
TORSDOF 5
ENDMDL
MODEL 8
REMARK VINA RESULT:    -3.430     16.183     17.456
REMARK INTER + INTRA:          -4.310
REMARK INTER:                  -4.125
REMARK INTRA:                  -0.185
REMARK UNBOUND:                -0.178
REMARK SMILES OCC(O)CO
REMARK SMILES IDX 3 1 5 2 6 3 2 5 1 6 4 8
REMARK H PARENT 6 4 1 7 4 9
REMARK Flexibility Score: inf
ROOT
ATOM      1  C   UNL     1      16.019  13.258  30.500  1.00  0.00     0.165 C 
ENDROOT
BRANCH   1   2
ATOM      2  C   UNL     1      14.818  12.433  30.009  1.00  0.00     0.190 C 
BRANCH   2   3
ATOM      3  O   UNL     1      13.790  13.280  29.575  1.00  0.00    -0.394 OA
ATOM      4  H   UNL     1      14.237  14.078  29.187  1.00  0.00     0.210 HD
ENDBRANCH   2   3
ENDBRANCH   1   2
BRANCH   1   5
ATOM      5  C   UNL     1      16.456  14.304  29.461  1.00  0.00     0.190 C 
BRANCH   5   6
ATOM      6  O   UNL     1      15.945  15.572  29.772  1.00  0.00    -0.394 OA
ATOM      7  H   UNL     1      15.111  15.423  30.290  1.00  0.00     0.210 HD
ENDBRANCH   5   6
ENDBRANCH   1   5
BRANCH   1   8
ATOM      8  O   UNL     1      17.101  12.400  30.753  1.00  0.00    -0.388 OA
ATOM      9  H   UNL     1      16.931  11.564  30.247  1.00  0.00     0.211 HD
ENDBRANCH   1   8
TORSDOF 5
ENDMDL
MODEL 9
REMARK VINA RESULT:    -3.270     16.116     16.961
REMARK INTER + INTRA:          -4.117
REMARK INTER:                  -4.114
REMARK INTRA:                  -0.002
REMARK UNBOUND:                -0.178
REMARK SMILES OCC(O)CO
REMARK SMILES IDX 3 1 5 2 6 3 2 5 1 6 4 8
REMARK H PARENT 6 4 1 7 4 9
REMARK Flexibility Score: inf
ROOT
ATOM      1  C   UNL     1      15.276  13.394  29.611  1.00  0.00     0.165 C 
ENDROOT
BRANCH   1   2
ATOM      2  C   UNL     1      16.169  13.542  28.369  1.00  0.00     0.190 C 
BRANCH   2   3
ATOM      3  O   UNL     1      15.776  14.657  27.617  1.00  0.00    -0.394 OA
ATOM      4  H   UNL     1      14.872  14.906  27.946  1.00  0.00     0.210 HD
ENDBRANCH   2   3
ENDBRANCH   1   2
BRANCH   1   5
ATOM      5  C   UNL     1      15.955  12.552  30.705  1.00  0.00     0.190 C 
BRANCH   5   6
ATOM      6  O   UNL     1      16.260  13.332  31.830  1.00  0.00    -0.394 OA
ATOM      7  H   UNL     1      15.603  14.077  31.845  1.00  0.00     0.210 HD
ENDBRANCH   5   6
ENDBRANCH   1   5
BRANCH   1   8
ATOM      8  O   UNL     1      14.073  12.767  29.249  1.00  0.00    -0.388 OA
ATOM      9  H   UNL     1      13.347  13.427  29.401  1.00  0.00     0.211 HD
ENDBRANCH   1   8
TORSDOF 5
ENDMDL
