MODEL 1
REMARK VINA RESULT:    -5.017      0.000      0.000
REMARK INTER + INTRA:          -5.164
REMARK INTER:                  -5.164
REMARK INTRA:                   0.000
REMARK UNBOUND:                 0.000
REMARK SMILES O=c1ccc2ccc(O)cc2o1
REMARK SMILES IDX 6 1 7 2 8 3 10 4 11 5 5 6 4 7 3 8 2 9 1 10 12 11 9 12
REMARK H PARENT 9 13
REMARK Flexibility Score: inf
ROOT
ATOM      1  C   UNL     1      18.462  30.241  28.110  1.00  0.00     0.016 A 
ATOM      2  C   UNL     1      18.395  30.975  29.297  1.00  0.00     0.047 A 
ATOM      3  C   UNL     1      18.348  30.320  30.534  1.00  0.00     0.119 A 
ATOM      4  C   UNL     1      18.369  28.919  30.584  1.00  0.00     0.094 A 
ATOM      5  C   UNL     1      18.436  28.174  29.401  1.00  0.00     0.142 A 
ATOM      6  C   UNL     1      18.482  28.839  28.155  1.00  0.00     0.018 A 
ATOM      7  C   UNL     1      18.547  28.069  26.990  1.00  0.00     0.019 A 
ATOM      8  C   UNL     1      18.566  26.677  27.091  1.00  0.00     0.094 A 
ATOM      9  C   UNL     1      18.517  26.088  28.358  1.00  0.00     0.336 A 
ATOM     10  O   UNL     1      18.532  24.835  28.469  1.00  0.00    -0.246 OA
ATOM     11  O   UNL     1      18.455  26.844  29.452  1.00  0.00    -0.423 OA
ENDROOT
BRANCH   3  12
ATOM     12  O   UNL     1      18.282  31.071  31.705  1.00  0.00    -0.508 OA
ATOM     13  H   UNL     1      17.531  31.733  31.868  1.00  0.00     0.293 HD
ENDBRANCH   3  12
TORSDOF 1
ENDMDL
MODEL 2
REMARK VINA RESULT:    -4.961      1.813      4.829
REMARK INTER + INTRA:          -5.106
REMARK INTER:                  -5.106
REMARK INTRA:                   0.000
REMARK UNBOUND:                 0.000
REMARK SMILES O=c1ccc2ccc(O)cc2o1
REMARK SMILES IDX 6 1 7 2 8 3 10 4 11 5 5 6 4 7 3 8 2 9 1 10 12 11 9 12
REMARK H PARENT 9 13
REMARK Flexibility Score: inf
ROOT
ATOM      1  C   UNL     1      18.305  27.779  29.944  1.00  0.00     0.016 A 
ATOM      2  C   UNL     1      18.244  26.836  28.914  1.00  0.00     0.047 A 
ATOM      3  C   UNL     1      18.231  27.248  27.576  1.00  0.00     0.119 A 
ATOM      4  C   UNL     1      18.281  28.614  27.264  1.00  0.00     0.094 A 
ATOM      5  C   UNL     1      18.343  29.566  28.287  1.00  0.00     0.142 A 
ATOM      6  C   UNL     1      18.354  29.147  29.636  1.00  0.00     0.018 A 
ATOM      7  C   UNL     1      18.416  30.121  30.637  1.00  0.00     0.019 A 
ATOM      8  C   UNL     1      18.464  31.468  30.278  1.00  0.00     0.094 A 
ATOM      9  C   UNL     1      18.449  31.810  28.921  1.00  0.00     0.336 A 
ATOM     10  O   UNL     1      18.492  33.019  28.577  1.00  0.00    -0.246 OA
ATOM     11  O   UNL     1      18.390  30.862  27.988  1.00  0.00    -0.423 OA
ENDROOT
BRANCH   3  12
ATOM     12  O   UNL     1      18.169  26.291  26.565  1.00  0.00    -0.508 OA
ATOM     13  H   UNL     1      18.881  25.575  26.469  1.00  0.00     0.293 HD
ENDBRANCH   3  12
TORSDOF 1
ENDMDL
MODEL 3
REMARK VINA RESULT:    -4.918      1.395      4.135
REMARK INTER + INTRA:          -5.062
REMARK INTER:                  -5.062
REMARK INTRA:                   0.000
REMARK UNBOUND:                 0.000
REMARK SMILES O=c1ccc2ccc(O)cc2o1
REMARK SMILES IDX 6 1 7 2 8 3 10 4 11 5 5 6 4 7 3 8 2 9 1 10 12 11 9 12
REMARK H PARENT 9 13
REMARK Flexibility Score: inf
ROOT
ATOM      1  C   UNL     1      18.440  29.628  27.899  1.00  0.00     0.016 A 
ATOM      2  C   UNL     1      18.477  28.463  27.128  1.00  0.00     0.047 A 
ATOM      3  C   UNL     1      18.447  27.205  27.743  1.00  0.00     0.119 A 
ATOM      4  C   UNL     1      18.377  27.112  29.141  1.00  0.00     0.094 A 
ATOM      5  C   UNL     1      18.338  28.272  29.921  1.00  0.00     0.142 A 
ATOM      6  C   UNL     1      18.371  29.539  29.297  1.00  0.00     0.018 A 
ATOM      7  C   UNL     1      18.332  30.681  30.103  1.00  0.00     0.019 A 
ATOM      8  C   UNL     1      18.263  30.537  31.489  1.00  0.00     0.094 A 
ATOM      9  C   UNL     1      18.234  29.251  32.037  1.00  0.00     0.336 A 
ATOM     10  O   UNL     1      18.172  29.101  33.285  1.00  0.00    -0.246 OA
ATOM     11  O   UNL     1      18.273  28.180  31.247  1.00  0.00    -0.423 OA
ENDROOT
BRANCH   3  12
ATOM     12  O   UNL     1      18.485  26.056  26.956  1.00  0.00    -0.508 OA
ATOM     13  H   UNL     1      19.106  25.285  27.175  1.00  0.00     0.293 HD
ENDBRANCH   3  12
TORSDOF 1
ENDMDL
MODEL 4
REMARK VINA RESULT:    -4.904      2.792      5.696
REMARK INTER + INTRA:          -5.047
REMARK INTER:                  -5.047
REMARK INTRA:                   0.000
REMARK UNBOUND:                 0.000
REMARK SMILES O=c1ccc2ccc(O)cc2o1
REMARK SMILES IDX 6 1 7 2 8 3 10 4 11 5 5 6 4 7 3 8 2 9 1 10 12 11 9 12
REMARK H PARENT 9 13
REMARK Flexibility Score: inf
ROOT
ATOM      1  C   UNL     1      19.530  27.337  32.308  1.00  0.00     0.016 A 
ATOM      2  C   UNL     1      19.483  27.342  30.911  1.00  0.00     0.047 A 
ATOM      3  C   UNL     1      18.684  28.271  30.232  1.00  0.00     0.119 A 
ATOM      4  C   UNL     1      17.928  29.204  30.956  1.00  0.00     0.094 A 
ATOM      5  C   UNL     1      17.968  29.207  32.355  1.00  0.00     0.142 A 
ATOM      6  C   UNL     1      18.774  28.268  33.036  1.00  0.00     0.018 A 
ATOM      7  C   UNL     1      18.794  28.295  34.433  1.00  0.00     0.019 A 
ATOM      8  C   UNL     1      18.024  29.241  35.110  1.00  0.00     0.094 A 
ATOM      9  C   UNL     1      17.250  30.141  34.369  1.00  0.00     0.336 A 
ATOM     10  O   UNL     1      16.549  31.002  34.961  1.00  0.00    -0.246 OA
ATOM     11  O   UNL     1      17.249  30.093  33.039  1.00  0.00    -0.423 OA
ENDROOT
BRANCH   3  12
ATOM     12  O   UNL     1      18.652  28.258  28.840  1.00  0.00    -0.508 OA
ATOM     13  H   UNL     1      17.798  28.452  28.328  1.00  0.00     0.293 HD
ENDBRANCH   3  12
TORSDOF 1
ENDMDL
MODEL 5
REMARK VINA RESULT:    -4.892      4.122      4.873
REMARK INTER + INTRA:          -5.035
REMARK INTER:                  -5.035
REMARK INTRA:                   0.000
REMARK UNBOUND:                 0.000
REMARK SMILES O=c1ccc2ccc(O)cc2o1
REMARK SMILES IDX 6 1 7 2 8 3 10 4 11 5 5 6 4 7 3 8 2 9 1 10 12 11 9 12
REMARK H PARENT 9 13
REMARK Flexibility Score: inf
ROOT
ATOM      1  C   UNL     1      17.605  29.932  32.362  1.00  0.00     0.016 A 
ATOM      2  C   UNL     1      16.934  30.687  33.329  1.00  0.00     0.047 A 
ATOM      3  C   UNL     1      17.055  30.367  34.687  1.00  0.00     0.119 A 
ATOM      4  C   UNL     1      17.853  29.283  35.082  1.00  0.00     0.094 A 
ATOM      5  C   UNL     1      18.528  28.521  34.122  1.00  0.00     0.142 A 
ATOM      6  C   UNL     1      18.403  28.847  32.753  1.00  0.00     0.018 A 
ATOM      7  C   UNL     1      19.089  28.067  31.817  1.00  0.00     0.019 A 
ATOM      8  C   UNL     1      19.870  26.999  32.258  1.00  0.00     0.094 A 
ATOM      9  C   UNL     1      19.948  26.735  33.630  1.00  0.00     0.336 A 
ATOM     10  O   UNL     1      20.647  25.776  34.047  1.00  0.00    -0.246 OA
ATOM     11  O   UNL     1      19.284  27.493  34.500  1.00  0.00    -0.423 OA
ENDROOT
BRANCH   3  12
ATOM     12  O   UNL     1      16.378  31.132  35.634  1.00  0.00    -0.508 OA
ATOM     13  H   UNL     1      16.119  30.750  36.537  1.00  0.00     0.293 HD
ENDBRANCH   3  12
TORSDOF 1
ENDMDL
MODEL 6
REMARK VINA RESULT:    -4.887      2.939      4.436
REMARK INTER + INTRA:          -5.030
REMARK INTER:                  -5.030
REMARK INTRA:                   0.000
REMARK UNBOUND:                 0.000
REMARK SMILES O=c1ccc2ccc(O)cc2o1
REMARK SMILES IDX 6 1 7 2 8 3 10 4 11 5 5 6 4 7 3 8 2 9 1 10 12 11 9 12
REMARK H PARENT 9 13
REMARK Flexibility Score: inf
ROOT
ATOM      1  C   UNL     1      18.816  28.347  34.370  1.00  0.00     0.016 A 
ATOM      2  C   UNL     1      18.091  29.239  35.165  1.00  0.00     0.047 A 
ATOM      3  C   UNL     1      17.255  30.195  34.575  1.00  0.00     0.119 A 
ATOM      4  C   UNL     1      17.141  30.258  33.178  1.00  0.00     0.094 A 
ATOM      5  C   UNL     1      17.862  29.369  32.374  1.00  0.00     0.142 A 
ATOM      6  C   UNL     1      18.706  28.407  32.973  1.00  0.00     0.018 A 
ATOM      7  C   UNL     1      19.414  27.532  32.144  1.00  0.00     0.019 A 
ATOM      8  C   UNL     1      19.269  27.634  30.760  1.00  0.00     0.094 A 
ATOM      9  C   UNL     1      18.416  28.611  30.237  1.00  0.00     0.336 A 
ATOM     10  O   UNL     1      18.272  28.718  28.992  1.00  0.00    -0.246 OA
ATOM     11  O   UNL     1      17.753  29.432  31.049  1.00  0.00    -0.423 OA
ENDROOT
BRANCH   3  12
ATOM     12  O   UNL     1      16.542  31.075  35.385  1.00  0.00    -0.508 OA
ATOM     13  H   UNL     1      16.135  30.774  36.264  1.00  0.00     0.293 HD
ENDBRANCH   3  12
TORSDOF 1
ENDMDL
MODEL 7
REMARK VINA RESULT:    -4.869      4.219      6.352
REMARK INTER + INTRA:          -5.011
REMARK INTER:                  -5.011
REMARK INTRA:                   0.000
REMARK UNBOUND:                 0.000
REMARK SMILES O=c1ccc2ccc(O)cc2o1
REMARK SMILES IDX 6 1 7 2 8 3 10 4 11 5 5 6 4 7 3 8 2 9 1 10 12 11 9 12
REMARK H PARENT 9 13
REMARK Flexibility Score: inf
ROOT
ATOM      1  C   UNL     1      18.798  28.377  32.014  1.00  0.00     0.016 A 
ATOM      2  C   UNL     1      19.617  27.318  32.418  1.00  0.00     0.047 A 
ATOM      3  C   UNL     1      19.791  27.037  33.779  1.00  0.00     0.119 A 
ATOM      4  C   UNL     1      19.140  27.819  34.743  1.00  0.00     0.094 A 
ATOM      5  C   UNL     1      18.318  28.880  34.350  1.00  0.00     0.142 A 
ATOM      6  C   UNL     1      18.145  29.162  32.976  1.00  0.00     0.018 A 
ATOM      7  C   UNL     1      17.319  30.229  32.613  1.00  0.00     0.019 A 
ATOM      8  C   UNL     1      16.693  30.979  33.609  1.00  0.00     0.094 A 
ATOM      9  C   UNL     1      16.909  30.642  34.949  1.00  0.00     0.336 A 
ATOM     10  O   UNL     1      16.354  31.306  35.862  1.00  0.00    -0.246 OA
ATOM     11  O   UNL     1      17.702  29.621  35.268  1.00  0.00    -0.423 OA
ENDROOT
BRANCH   3  12
ATOM     12  O   UNL     1      20.612  25.977  34.159  1.00  0.00    -0.508 OA
ATOM     13  H   UNL     1      20.675  25.678  35.126  1.00  0.00     0.293 HD
ENDBRANCH   3  12
TORSDOF 1
ENDMDL
MODEL 8
REMARK VINA RESULT:    -4.855      1.157      1.636
REMARK INTER + INTRA:          -4.997
REMARK INTER:                  -4.997
REMARK INTRA:                   0.000
REMARK UNBOUND:                 0.000
REMARK SMILES O=c1ccc2ccc(O)cc2o1
REMARK SMILES IDX 6 1 7 2 8 3 10 4 11 5 5 6 4 7 3 8 2 9 1 10 12 11 9 12
REMARK H PARENT 9 13
REMARK Flexibility Score: inf
ROOT
ATOM      1  C   UNL     1      18.453  31.439  29.745  1.00  0.00     0.016 A 
ATOM      2  C   UNL     1      18.332  31.751  31.103  1.00  0.00     0.047 A 
ATOM      3  C   UNL     1      18.120  30.738  32.046  1.00  0.00     0.119 A 
ATOM      4  C   UNL     1      18.030  29.402  31.628  1.00  0.00     0.094 A 
ATOM      5  C   UNL     1      18.150  29.080  30.272  1.00  0.00     0.142 A 
ATOM      6  C   UNL     1      18.363  30.105  29.324  1.00  0.00     0.018 A 
ATOM      7  C   UNL     1      18.479  29.753  27.976  1.00  0.00     0.019 A 
ATOM      8  C   UNL     1      18.382  28.410  27.609  1.00  0.00     0.094 A 
ATOM      9  C   UNL     1      18.171  27.448  28.603  1.00  0.00     0.336 A 
ATOM     10  O   UNL     1      18.081  26.233  28.292  1.00  0.00    -0.246 OA
ATOM     11  O   UNL     1      18.064  27.811  29.880  1.00  0.00    -0.423 OA
ENDROOT
BRANCH   3  12
ATOM     12  O   UNL     1      18.001  31.070  33.393  1.00  0.00    -0.508 OA
ATOM     13  H   UNL     1      18.558  30.608  34.104  1.00  0.00     0.293 HD
ENDBRANCH   3  12
TORSDOF 1
ENDMDL
MODEL 9
REMARK VINA RESULT:    -4.817      3.407      4.846
REMARK INTER + INTRA:          -4.958
REMARK INTER:                  -4.958
REMARK INTRA:                   0.000
REMARK UNBOUND:                 0.000
REMARK SMILES O=c1ccc2ccc(O)cc2o1
REMARK SMILES IDX 6 1 7 2 8 3 10 4 11 5 5 6 4 7 3 8 2 9 1 10 12 11 9 12
REMARK H PARENT 9 13
REMARK Flexibility Score: inf
ROOT
ATOM      1  C   UNL     1      18.743  28.611  34.303  1.00  0.00     0.016 A 
ATOM      2  C   UNL     1      19.480  27.737  35.108  1.00  0.00     0.047 A 
ATOM      3  C   UNL     1      20.196  26.679  34.534  1.00  0.00     0.119 A 
ATOM      4  C   UNL     1      20.176  26.494  33.144  1.00  0.00     0.094 A 
ATOM      5  C   UNL     1      19.442  27.363  32.330  1.00  0.00     0.142 A 
ATOM      6  C   UNL     1      18.720  28.428  32.913  1.00  0.00     0.018 A 
ATOM      7  C   UNL     1      17.995  29.280  32.074  1.00  0.00     0.019 A 
ATOM      8  C   UNL     1      18.005  29.056  30.697  1.00  0.00     0.094 A 
ATOM      9  C   UNL     1      18.743  27.980  30.191  1.00  0.00     0.336 A 
ATOM     10  O   UNL     1      18.764  27.762  28.952  1.00  0.00    -0.246 OA
ATOM     11  O   UNL     1      19.424  27.184  31.011  1.00  0.00    -0.423 OA
ENDROOT
BRANCH   3  12
ATOM     12  O   UNL     1      20.923  25.820  35.355  1.00  0.00    -0.508 OA
ATOM     13  H   UNL     1      21.728  26.144  35.880  1.00  0.00     0.293 HD
ENDBRANCH   3  12
TORSDOF 1
ENDMDL
