MODEL 1
REMARK VINA RESULT:    -4.804      0.000      0.000
REMARK INTER + INTRA:          -8.029
REMARK INTER:                  -7.051
REMARK INTRA:                  -0.978
REMARK UNBOUND:                -0.978
REMARK SMILES Cc1cc2c(C(C)C)c(O)c(O)c(C=O)c2c(O)c1-c1c(C)cc2c(C(C)C)c(O)c(O)c(C=O)c2c1O
REMARK SMILES IDX 1 1 2 2 3 3 4 4 16 5 13 6 11 7 9 8 5 9 17 10 19 11 20 12
REMARK SMILES IDX 37 13 21 14 36 15 23 16 22 17 24 18 33 19 25 20 31 21 29 22
REMARK SMILES IDX 38 23 34 25 35 26 26 27 27 28 28 29 32 30 30 32 18 34 6 36
REMARK SMILES IDX 7 37 8 38 14 39 15 40 10 41 12 43
REMARK H PARENT 38 24 32 31 30 33 18 35 10 42 12 44
REMARK Flexibility Score: inf
ROOT
ATOM      1  C   UNL     1      41.725   4.495  51.244  1.00  0.00     0.045 C 
ATOM      2  C   UNL     1      42.744   4.094  52.284  1.00  0.00    -0.039 A 
ATOM      3  C   UNL     1      43.371   2.853  52.157  1.00  0.00     0.013 A 
ATOM      4  C   UNL     1      44.351   2.412  53.075  1.00  0.00    -0.006 A 
ATOM      5  C   UNL     1      44.656   3.238  54.197  1.00  0.00     0.039 A 
ATOM      6  C   UNL     1      45.645   2.800  55.124  1.00  0.00     0.072 A 
ATOM      7  C   UNL     1      46.127   1.483  55.064  1.00  0.00     0.169 A 
ATOM      8  C   UNL     1      45.744   0.635  54.009  1.00  0.00     0.162 A 
ATOM      9  C   UNL     1      44.997   1.145  52.922  1.00  0.00     0.008 A 
ATOM     10  C   UNL     1      43.919   4.441  54.394  1.00  0.00     0.132 A 
ATOM     11  C   UNL     1      42.997   4.884  53.421  1.00  0.00     0.031 A 
ENDROOT
BRANCH  11  12
ATOM     12  C   UNL     1      42.284   6.175  53.608  1.00  0.00     0.031 A 
ATOM     13  C   UNL     1      42.912   7.388  53.252  1.00  0.00     0.132 A 
ATOM     14  C   UNL     1      40.977   6.183  54.118  1.00  0.00    -0.039 A 
ATOM     15  C   UNL     1      42.256   8.636  53.475  1.00  0.00     0.039 A 
ATOM     16  C   UNL     1      40.314   7.399  54.295  1.00  0.00     0.013 A 
ATOM     17  C   UNL     1      40.273   4.896  54.475  1.00  0.00     0.045 C 
ATOM     18  C   UNL     1      40.938   8.637  54.026  1.00  0.00    -0.006 A 
ATOM     19  C   UNL     1      42.853   9.883  53.125  1.00  0.00     0.072 A 
ATOM     20  C   UNL     1      40.257   9.870  54.257  1.00  0.00     0.008 A 
ATOM     21  C   UNL     1      42.099  11.068  53.184  1.00  0.00     0.169 A 
ATOM     22  C   UNL     1      40.784  11.050  53.686  1.00  0.00     0.162 A 
BRANCH  13  23
ATOM     23  O   UNL     1      44.170   7.349  52.641  1.00  0.00    -0.507 OA
ATOM     24  H   UNL     1      44.773   6.537  52.636  1.00  0.00     0.293 HD
ENDBRANCH  13  23
BRANCH  19  25
ATOM     25  C   UNL     1      44.280   9.999  52.739  1.00  0.00     0.264 C 
ATOM     26  O   UNL     1      45.153  10.329  53.585  1.00  0.00    -0.298 OA
ENDBRANCH  19  25
BRANCH  20  27
ATOM     27  C   UNL     1      38.955   9.936  55.077  1.00  0.00     0.017 C 
ATOM     28  C   UNL     1      37.728  10.004  54.162  1.00  0.00     0.012 C 
ATOM     29  C   UNL     1      38.940  11.067  56.123  1.00  0.00     0.012 C 
ENDBRANCH  20  27
BRANCH  21  30
ATOM     30  O   UNL     1      42.704  12.263  52.778  1.00  0.00    -0.504 OA
ATOM     31  H   UNL     1      43.671  12.353  52.497  1.00  0.00     0.293 HD
ENDBRANCH  21  30
BRANCH  22  32
ATOM     32  O   UNL     1      39.977  12.190  53.622  1.00  0.00    -0.504 OA
ATOM     33  H   UNL     1      40.224  13.087  54.012  1.00  0.00     0.293 HD
ENDBRANCH  22  32
ENDBRANCH  11  12
BRANCH  10  34
ATOM     34  O   UNL     1      44.064   5.168  55.582  1.00  0.00    -0.507 OA
ATOM     35  H   UNL     1      43.577   6.031  55.779  1.00  0.00     0.293 HD
ENDBRANCH  10  34
BRANCH   9  36
ATOM     36  C   UNL     1      44.846   0.308  51.639  1.00  0.00     0.017 C 
ATOM     37  C   UNL     1      45.578   0.967  50.466  1.00  0.00     0.012 C 
ATOM     38  C   UNL     1      43.385  -0.016  51.274  1.00  0.00     0.012 C 
ENDBRANCH   9  36
BRANCH   6  39
ATOM     39  C   UNL     1      46.269   3.695  56.125  1.00  0.00     0.264 C 
ATOM     40  O   UNL     1      47.086   4.585  55.770  1.00  0.00    -0.298 OA
ENDBRANCH   6  39
BRANCH   8  41
ATOM     41  O   UNL     1      46.087  -0.720  54.024  1.00  0.00    -0.504 OA
ATOM     42  H   UNL     1      45.950  -1.330  54.816  1.00  0.00     0.293 HD
ENDBRANCH   8  41
BRANCH   7  43
ATOM     43  O   UNL     1      47.028   1.057  56.048  1.00  0.00    -0.504 OA
ATOM     44  H   UNL     1      47.988   1.368  56.113  1.00  0.00     0.293 HD
ENDBRANCH   7  43
TORSDOF 11
ENDMDL
MODEL 2
REMARK VINA RESULT:    -4.703     10.522     13.853
REMARK INTER + INTRA:          -7.880
REMARK INTER:                  -6.656
REMARK INTRA:                  -1.224
REMARK UNBOUND:                -0.978
REMARK SMILES Cc1cc2c(C(C)C)c(O)c(O)c(C=O)c2c(O)c1-c1c(C)cc2c(C(C)C)c(O)c(O)c(C=O)c2c1O
REMARK SMILES IDX 1 1 2 2 3 3 4 4 16 5 13 6 11 7 9 8 5 9 17 10 19 11 20 12
REMARK SMILES IDX 37 13 21 14 36 15 23 16 22 17 24 18 33 19 25 20 31 21 29 22
REMARK SMILES IDX 38 23 34 25 35 26 26 27 27 28 28 29 32 30 30 32 18 34 6 36
REMARK SMILES IDX 7 37 8 38 14 39 15 40 10 41 12 43
REMARK H PARENT 38 24 32 31 30 33 18 35 10 42 12 44
REMARK Flexibility Score: inf
ROOT
ATOM      1  C   UNL     1      32.805   9.966  51.296  1.00  0.00     0.045 C 
ATOM      2  C   UNL     1      32.147   9.023  52.275  1.00  0.00    -0.039 A 
ATOM      3  C   UNL     1      32.554   7.687  52.290  1.00  0.00     0.013 A 
ATOM      4  C   UNL     1      32.004   6.747  53.189  1.00  0.00    -0.006 A 
ATOM      5  C   UNL     1      30.956   7.167  54.060  1.00  0.00     0.039 A 
ATOM      6  C   UNL     1      30.400   6.223  54.971  1.00  0.00     0.072 A 
ATOM      7  C   UNL     1      30.708   4.861  54.842  1.00  0.00     0.169 A 
ATOM      8  C   UNL     1      31.671   4.436  53.909  1.00  0.00     0.162 A 
ATOM      9  C   UNL     1      32.444   5.386  53.203  1.00  0.00     0.008 A 
ATOM     10  C   UNL     1      30.453   8.495  53.950  1.00  0.00     0.132 A 
ATOM     11  C   UNL     1      31.073   9.427  53.090  1.00  0.00     0.031 A 
ENDROOT
BRANCH  11  12
ATOM     12  C   UNL     1      30.578  10.828  53.034  1.00  0.00     0.031 A 
ATOM     13  C   UNL     1      29.692  11.225  52.009  1.00  0.00     0.132 A 
ATOM     14  C   UNL     1      30.973  11.748  54.018  1.00  0.00    -0.039 A 
ATOM     15  C   UNL     1      29.251  12.580  51.917  1.00  0.00     0.039 A 
ATOM     16  C   UNL     1      30.506  13.062  53.958  1.00  0.00     0.013 A 
ATOM     17  C   UNL     1      31.892  11.337  55.143  1.00  0.00     0.045 C 
ATOM     18  C   UNL     1      29.685  13.517  52.903  1.00  0.00    -0.006 A 
ATOM     19  C   UNL     1      28.354  13.020  50.900  1.00  0.00     0.072 A 
ATOM     20  C   UNL     1      29.257  14.878  52.838  1.00  0.00     0.008 A 
ATOM     21  C   UNL     1      27.798  14.310  50.960  1.00  0.00     0.169 A 
ATOM     22  C   UNL     1      28.198  15.212  51.964  1.00  0.00     0.162 A 
BRANCH  13  23
ATOM     23  O   UNL     1      29.223  10.265  51.106  1.00  0.00    -0.507 OA
ATOM     24  H   UNL     1      29.726   9.423  50.861  1.00  0.00     0.293 HD
ENDBRANCH  13  23
BRANCH  19  25
ATOM     25  C   UNL     1      28.010  12.182  49.727  1.00  0.00     0.264 C 
ATOM     26  O   UNL     1      26.906  11.577  49.666  1.00  0.00    -0.298 OA
ENDBRANCH  19  25
BRANCH  20  27
ATOM     27  C   UNL     1      29.894  15.971  53.716  1.00  0.00     0.017 C 
ATOM     28  C   UNL     1      28.892  16.508  54.744  1.00  0.00     0.012 C 
ATOM     29  C   UNL     1      30.538  17.114  52.909  1.00  0.00     0.012 C 
ENDBRANCH  20  27
BRANCH  21  30
ATOM     30  O   UNL     1      26.877  14.686  49.974  1.00  0.00    -0.504 OA
ATOM     31  H   UNL     1      26.048  14.161  49.731  1.00  0.00     0.293 HD
ENDBRANCH  21  30
BRANCH  22  32
ATOM     32  O   UNL     1      27.555  16.444  52.120  1.00  0.00    -0.504 OA
ATOM     33  H   UNL     1      26.564  16.589  51.999  1.00  0.00     0.293 HD
ENDBRANCH  22  32
ENDBRANCH  11  12
BRANCH  10  34
ATOM     34  O   UNL     1      29.304   8.872  54.656  1.00  0.00    -0.507 OA
ATOM     35  H   UNL     1      29.150   8.670  55.634  1.00  0.00     0.293 HD
ENDBRANCH  10  34
BRANCH   9  36
ATOM     36  C   UNL     1      33.691   4.929  52.425  1.00  0.00     0.017 C 
ATOM     37  C   UNL     1      33.328   4.536  50.989  1.00  0.00     0.012 C 
ATOM     38  C   UNL     1      34.487   3.811  53.124  1.00  0.00     0.012 C 
ENDBRANCH   9  36
BRANCH   6  39
ATOM     39  C   UNL     1      29.556   6.612  56.124  1.00  0.00     0.264 C 
ATOM     40  O   UNL     1      28.304   6.483  56.077  1.00  0.00    -0.298 OA
ENDBRANCH   6  39
BRANCH   8  41
ATOM     41  O   UNL     1      31.870   3.075  53.659  1.00  0.00    -0.504 OA
ATOM     42  H   UNL     1      31.165   2.365  53.796  1.00  0.00     0.293 HD
ENDBRANCH   8  41
BRANCH   7  43
ATOM     43  O   UNL     1      30.071   3.949  55.694  1.00  0.00    -0.504 OA
ATOM     44  H   UNL     1      29.070   3.809  55.730  1.00  0.00     0.293 HD
ENDBRANCH   7  43
TORSDOF 11
ENDMDL
MODEL 3
REMARK VINA RESULT:    -4.523      3.380      8.404
REMARK INTER + INTRA:          -7.617
REMARK INTER:                  -7.557
REMARK INTRA:                  -0.060
REMARK UNBOUND:                -0.978
REMARK SMILES Cc1cc2c(C(C)C)c(O)c(O)c(C=O)c2c(O)c1-c1c(C)cc2c(C(C)C)c(O)c(O)c(C=O)c2c1O
REMARK SMILES IDX 1 1 2 2 3 3 4 4 16 5 13 6 11 7 9 8 5 9 17 10 19 11 20 12
REMARK SMILES IDX 37 13 21 14 36 15 23 16 22 17 24 18 33 19 25 20 31 21 29 22
REMARK SMILES IDX 38 23 34 25 35 26 26 27 27 28 28 29 32 30 30 32 18 34 6 36
REMARK SMILES IDX 7 37 8 38 14 39 15 40 10 41 12 43
REMARK H PARENT 38 24 32 31 30 33 18 35 10 42 12 44
REMARK Flexibility Score: inf
ROOT
ATOM      1  C   UNL     1      39.711  10.213  53.010  1.00  0.00     0.045 C 
ATOM      2  C   UNL     1      41.086  10.425  53.598  1.00  0.00    -0.039 A 
ATOM      3  C   UNL     1      41.663  11.692  53.504  1.00  0.00     0.013 A 
ATOM      4  C   UNL     1      42.935  11.978  54.047  1.00  0.00    -0.006 A 
ATOM      5  C   UNL     1      43.674  10.918  54.651  1.00  0.00     0.039 A 
ATOM      6  C   UNL     1      44.957  11.201  55.202  1.00  0.00     0.072 A 
ATOM      7  C   UNL     1      45.575  12.433  54.940  1.00  0.00     0.169 A 
ATOM      8  C   UNL     1      44.879  13.444  54.254  1.00  0.00     0.162 A 
ATOM      9  C   UNL     1      43.506  13.287  53.957  1.00  0.00     0.008 A 
ATOM     10  C   UNL     1      43.139   9.598  54.627  1.00  0.00     0.132 A 
ATOM     11  C   UNL     1      41.835   9.363  54.138  1.00  0.00     0.031 A 
ENDROOT
BRANCH  11  12
ATOM     12  C   UNL     1      41.265   7.990  54.180  1.00  0.00     0.031 A 
ATOM     13  C   UNL     1      41.814   6.971  53.373  1.00  0.00     0.132 A 
ATOM     14  C   UNL     1      40.195   7.705  55.043  1.00  0.00    -0.039 A 
ATOM     15  C   UNL     1      41.241   5.663  53.368  1.00  0.00     0.039 A 
ATOM     16  C   UNL     1      39.662   6.415  55.075  1.00  0.00     0.013 A 
ATOM     17  C   UNL     1      39.614   8.770  55.940  1.00  0.00     0.045 C 
ATOM     18  C   UNL     1      40.131   5.390  54.224  1.00  0.00    -0.006 A 
ATOM     19  C   UNL     1      41.769   4.605  52.570  1.00  0.00     0.072 A 
ATOM     20  C   UNL     1      39.541   4.090  54.242  1.00  0.00     0.008 A 
ATOM     21  C   UNL     1      41.297   3.291  52.740  1.00  0.00     0.169 A 
ATOM     22  C   UNL     1      40.232   3.026  53.621  1.00  0.00     0.162 A 
BRANCH  13  23
ATOM     23  O   UNL     1      42.950   7.249  52.605  1.00  0.00    -0.507 OA
ATOM     24  H   UNL     1      43.609   7.987  52.815  1.00  0.00     0.293 HD
ENDBRANCH  13  23
BRANCH  19  25
ATOM     25  C   UNL     1      42.780   4.837  51.511  1.00  0.00     0.264 C 
ATOM     26  O   UNL     1      44.010   4.718  51.754  1.00  0.00    -0.298 OA
ENDBRANCH  19  25
BRANCH  20  27
ATOM     27  C   UNL     1      38.199   3.819  54.947  1.00  0.00     0.017 C 
ATOM     28  C   UNL     1      38.373   2.832  56.106  1.00  0.00     0.012 C 
ATOM     29  C   UNL     1      37.078   3.371  53.989  1.00  0.00     0.012 C 
ENDBRANCH  20  27
BRANCH  21  30
ATOM     30  O   UNL     1      41.880   2.271  51.978  1.00  0.00    -0.504 OA
ATOM     31  H   UNL     1      41.434   1.390  51.759  1.00  0.00     0.293 HD
ENDBRANCH  21  30
BRANCH  22  32
ATOM     32  O   UNL     1      39.846   1.712  53.903  1.00  0.00    -0.504 OA
ATOM     33  H   UNL     1      40.354   0.891  53.609  1.00  0.00     0.293 HD
ENDBRANCH  22  32
ENDBRANCH  11  12
BRANCH  10  34
ATOM     34  O   UNL     1      43.923   8.514  55.039  1.00  0.00    -0.507 OA
ATOM     35  H   UNL     1      43.622   7.822  55.712  1.00  0.00     0.293 HD
ENDBRANCH  10  34
BRANCH   9  36
ATOM     36  C   UNL     1      42.681  14.500  53.491  1.00  0.00     0.017 C 
ATOM     37  C   UNL     1      43.544  15.468  52.674  1.00  0.00     0.012 C 
ATOM     38  C   UNL     1      41.951  15.233  54.632  1.00  0.00     0.012 C 
ENDBRANCH   9  36
BRANCH   6  39
ATOM     39  C   UNL     1      45.662  10.281  56.124  1.00  0.00     0.264 C 
ATOM     40  O   UNL     1      46.704   9.675  55.756  1.00  0.00    -0.298 OA
ENDBRANCH   6  39
BRANCH   8  41
ATOM     41  O   UNL     1      45.534  14.610  53.847  1.00  0.00    -0.504 OA
ATOM     42  H   UNL     1      46.043  15.220  54.470  1.00  0.00     0.293 HD
ENDBRANCH   8  41
BRANCH   7  43
ATOM     43  O   UNL     1      46.875  12.642  55.419  1.00  0.00    -0.504 OA
ATOM     44  H   UNL     1      47.227  12.268  56.290  1.00  0.00     0.293 HD
ENDBRANCH   7  43
TORSDOF 11
ENDMDL
MODEL 4
REMARK VINA RESULT:    -4.500      2.404      9.161
REMARK INTER + INTRA:          -7.583
REMARK INTER:                  -7.105
REMARK INTRA:                  -0.478
REMARK UNBOUND:                -0.978
REMARK SMILES Cc1cc2c(C(C)C)c(O)c(O)c(C=O)c2c(O)c1-c1c(C)cc2c(C(C)C)c(O)c(O)c(C=O)c2c1O
REMARK SMILES IDX 1 1 2 2 3 3 4 4 16 5 13 6 11 7 9 8 5 9 17 10 19 11 20 12
REMARK SMILES IDX 37 13 21 14 36 15 23 16 22 17 24 18 33 19 25 20 31 21 29 22
REMARK SMILES IDX 38 23 34 25 35 26 26 27 27 28 28 29 32 30 30 32 18 34 6 36
REMARK SMILES IDX 7 37 8 38 14 39 15 40 10 41 12 43
REMARK H PARENT 38 24 32 31 30 33 18 35 10 42 12 44
REMARK Flexibility Score: inf
ROOT
ATOM      1  C   UNL     1      45.483   8.266  53.488  1.00  0.00     0.045 C 
ATOM      2  C   UNL     1      44.098   8.842  53.664  1.00  0.00    -0.039 A 
ATOM      3  C   UNL     1      43.959  10.229  53.743  1.00  0.00     0.013 A 
ATOM      4  C   UNL     1      42.697  10.848  53.886  1.00  0.00    -0.006 A 
ATOM      5  C   UNL     1      41.542  10.022  54.017  1.00  0.00     0.039 A 
ATOM      6  C   UNL     1      40.266  10.641  54.158  1.00  0.00     0.072 A 
ATOM      7  C   UNL     1      40.181  12.020  54.405  1.00  0.00     0.169 A 
ATOM      8  C   UNL     1      41.338  12.819  54.376  1.00  0.00     0.162 A 
ATOM      9  C   UNL     1      42.569  12.271  53.949  1.00  0.00     0.008 A 
ATOM     10  C   UNL     1      41.703   8.607  54.069  1.00  0.00     0.132 A 
ATOM     11  C   UNL     1      42.970   8.022  53.853  1.00  0.00     0.031 A 
ENDROOT
BRANCH  11  12
ATOM     12  C   UNL     1      43.110   6.542  53.845  1.00  0.00     0.031 A 
ATOM     13  C   UNL     1      42.670   5.797  52.730  1.00  0.00     0.132 A 
ATOM     14  C   UNL     1      43.704   5.891  54.937  1.00  0.00    -0.039 A 
ATOM     15  C   UNL     1      42.753   4.371  52.733  1.00  0.00     0.039 A 
ATOM     16  C   UNL     1      43.830   4.501  54.923  1.00  0.00     0.013 A 
ATOM     17  C   UNL     1      44.212   6.671  56.125  1.00  0.00     0.045 C 
ATOM     18  C   UNL     1      43.329   3.714  53.863  1.00  0.00    -0.006 A 
ATOM     19  C   UNL     1      42.324   3.582  51.625  1.00  0.00     0.072 A 
ATOM     20  C   UNL     1      43.428   2.290  53.892  1.00  0.00     0.008 A 
ATOM     21  C   UNL     1      42.601   2.204  51.592  1.00  0.00     0.169 A 
ATOM     22  C   UNL     1      43.210   1.573  52.694  1.00  0.00     0.162 A 
BRANCH  13  23
ATOM     23  O   UNL     1      42.185   6.475  51.606  1.00  0.00    -0.507 OA
ATOM     24  H   UNL     1      42.400   7.439  51.389  1.00  0.00     0.293 HD
ENDBRANCH  13  23
BRANCH  19  25
ATOM     25  C   UNL     1      41.539   4.149  50.503  1.00  0.00     0.264 C 
ATOM     26  O   UNL     1      40.402   4.656  50.702  1.00  0.00    -0.298 OA
ENDBRANCH  19  25
BRANCH  20  27
ATOM     27  C   UNL     1      43.798   1.529  55.178  1.00  0.00     0.017 C 
ATOM     28  C   UNL     1      45.140   0.804  55.025  1.00  0.00     0.012 C 
ATOM     29  C   UNL     1      42.695   0.572  55.669  1.00  0.00     0.012 C 
ENDBRANCH  20  27
BRANCH  21  30
ATOM     30  O   UNL     1      42.213   1.473  50.462  1.00  0.00    -0.504 OA
ATOM     31  H   UNL     1      41.369   1.639  49.932  1.00  0.00     0.293 HD
ENDBRANCH  21  30
BRANCH  22  32
ATOM     32  O   UNL     1      43.615   0.237  52.621  1.00  0.00    -0.504 OA
ATOM     33  H   UNL     1      43.481  -0.358  51.817  1.00  0.00     0.293 HD
ENDBRANCH  22  32
ENDBRANCH  11  12
BRANCH  10  34
ATOM     34  O   UNL     1      40.614   7.787  54.387  1.00  0.00    -0.507 OA
ATOM     35  H   UNL     1      40.699   6.878  54.820  1.00  0.00     0.293 HD
ENDBRANCH  10  34
BRANCH   9  36
ATOM     36  C   UNL     1      43.749  13.206  53.624  1.00  0.00     0.017 C 
ATOM     37  C   UNL     1      44.572  13.507  54.881  1.00  0.00     0.012 C 
ATOM     38  C   UNL     1      43.336  14.504  52.904  1.00  0.00     0.012 C 
ENDBRANCH   9  36
BRANCH   6  39
ATOM     39  C   UNL     1      38.989   9.913  53.977  1.00  0.00     0.264 C 
ATOM     40  O   UNL     1      38.297   9.573  54.973  1.00  0.00    -0.298 OA
ENDBRANCH   6  39
BRANCH   8  41
ATOM     41  O   UNL     1      41.290  14.157  54.776  1.00  0.00    -0.504 OA
ATOM     42  H   UNL     1      41.749  14.519  55.600  1.00  0.00     0.293 HD
ENDBRANCH   8  41
BRANCH   7  43
ATOM     43  O   UNL     1      38.917  12.579  54.633  1.00  0.00    -0.504 OA
ATOM     44  H   UNL     1      38.080  12.040  54.812  1.00  0.00     0.293 HD
ENDBRANCH   7  43
TORSDOF 11
ENDMDL
MODEL 5
REMARK VINA RESULT:    -4.491     10.554     12.827
REMARK INTER + INTRA:          -7.569
REMARK INTER:                  -6.104
REMARK INTRA:                  -1.465
REMARK UNBOUND:                -0.978
REMARK SMILES Cc1cc2c(C(C)C)c(O)c(O)c(C=O)c2c(O)c1-c1c(C)cc2c(C(C)C)c(O)c(O)c(C=O)c2c1O
REMARK SMILES IDX 1 1 2 2 3 3 4 4 16 5 13 6 11 7 9 8 5 9 17 10 19 11 20 12
REMARK SMILES IDX 37 13 21 14 36 15 23 16 22 17 24 18 33 19 25 20 31 21 29 22
REMARK SMILES IDX 38 23 34 25 35 26 26 27 27 28 28 29 32 30 30 32 18 34 6 36
REMARK SMILES IDX 7 37 8 38 14 39 15 40 10 41 12 43
REMARK H PARENT 38 24 32 31 30 33 18 35 10 42 12 44
REMARK Flexibility Score: inf
ROOT
ATOM      1  C   UNL     1      29.786   8.485  56.117  1.00  0.00     0.045 C 
ATOM      2  C   UNL     1      30.565   7.937  54.945  1.00  0.00    -0.039 A 
ATOM      3  C   UNL     1      31.037   6.625  55.013  1.00  0.00     0.013 A 
ATOM      4  C   UNL     1      31.754   6.031  53.951  1.00  0.00    -0.006 A 
ATOM      5  C   UNL     1      32.058   6.824  52.804  1.00  0.00     0.039 A 
ATOM      6  C   UNL     1      32.779   6.229  51.729  1.00  0.00     0.072 A 
ATOM      7  C   UNL     1      33.382   4.974  51.901  1.00  0.00     0.169 A 
ATOM      8  C   UNL     1      33.164   4.236  53.078  1.00  0.00     0.162 A 
ATOM      9  C   UNL     1      32.217   4.680  54.029  1.00  0.00     0.008 A 
ATOM     10  C   UNL     1      31.690   8.200  52.795  1.00  0.00     0.132 A 
ATOM     11  C   UNL     1      30.913   8.741  53.843  1.00  0.00     0.031 A 
ENDROOT
BRANCH  11  12
ATOM     12  C   UNL     1      30.481  10.162  53.787  1.00  0.00     0.031 A 
ATOM     13  C   UNL     1      31.231  11.156  54.453  1.00  0.00     0.132 A 
ATOM     14  C   UNL     1      29.340  10.517  53.051  1.00  0.00    -0.039 A 
ATOM     15  C   UNL     1      30.797  12.516  54.448  1.00  0.00     0.039 A 
ATOM     16  C   UNL     1      28.938  11.853  53.006  1.00  0.00     0.013 A 
ATOM     17  C   UNL     1      28.542   9.476  52.304  1.00  0.00     0.045 C 
ATOM     18  C   UNL     1      29.615  12.863  53.724  1.00  0.00    -0.006 A 
ATOM     19  C   UNL     1      31.527  13.550  55.104  1.00  0.00     0.072 A 
ATOM     20  C   UNL     1      29.159  14.216  53.699  1.00  0.00     0.008 A 
ATOM     21  C   UNL     1      31.170  14.897  54.913  1.00  0.00     0.169 A 
ATOM     22  C   UNL     1      30.029  15.230  54.159  1.00  0.00     0.162 A 
BRANCH  13  23
ATOM     23  O   UNL     1      32.426  10.797  55.086  1.00  0.00    -0.507 OA
ATOM     24  H   UNL     1      32.475  10.280  55.954  1.00  0.00     0.293 HD
ENDBRANCH  13  23
BRANCH  19  25
ATOM     25  C   UNL     1      32.642  13.265  56.039  1.00  0.00     0.264 C 
ATOM     26  O   UNL     1      33.835  13.512  55.717  1.00  0.00    -0.298 OA
ENDBRANCH  19  25
BRANCH  20  27
ATOM     27  C   UNL     1      27.769  14.593  53.155  1.00  0.00     0.017 C 
ATOM     28  C   UNL     1      27.874  15.232  51.766  1.00  0.00     0.012 C 
ATOM     29  C   UNL     1      26.946  15.471  54.117  1.00  0.00     0.012 C 
ENDBRANCH  20  27
BRANCH  21  30
ATOM     30  O   UNL     1      31.946  15.886  55.529  1.00  0.00    -0.504 OA
ATOM     31  H   UNL     1      32.600  16.488  55.047  1.00  0.00     0.293 HD
ENDBRANCH  21  30
BRANCH  22  32
ATOM     32  O   UNL     1      29.741  16.562  53.846  1.00  0.00    -0.504 OA
ATOM     33  H   UNL     1      29.719  17.315  54.518  1.00  0.00     0.293 HD
ENDBRANCH  22  32
ENDBRANCH  11  12
BRANCH  10  34
ATOM     34  O   UNL     1      32.142   9.041  51.772  1.00  0.00    -0.507 OA
ATOM     35  H   UNL     1      31.961  10.035  51.736  1.00  0.00     0.293 HD
ENDBRANCH  10  34
BRANCH   9  36
ATOM     36  C   UNL     1      31.758   3.730  55.150  1.00  0.00     0.017 C 
ATOM     37  C   UNL     1      32.903   3.438  56.125  1.00  0.00     0.012 C 
ATOM     38  C   UNL     1      31.116   2.427  54.638  1.00  0.00     0.012 C 
ENDBRANCH   9  36
BRANCH   6  39
ATOM     39  C   UNL     1      32.867   6.836  50.381  1.00  0.00     0.264 C 
ATOM     40  O   UNL     1      33.969   7.251  49.934  1.00  0.00    -0.298 OA
ENDBRANCH   6  39
BRANCH   8  41
ATOM     41  O   UNL     1      33.883   3.064  53.328  1.00  0.00    -0.504 OA
ATOM     42  H   UNL     1      34.808   3.043  53.733  1.00  0.00     0.293 HD
ENDBRANCH   8  41
BRANCH   7  43
ATOM     43  O   UNL     1      34.163   4.461  50.856  1.00  0.00    -0.504 OA
ATOM     44  H   UNL     1      35.173   4.492  50.833  1.00  0.00     0.293 HD
ENDBRANCH   7  43
TORSDOF 11
ENDMDL
MODEL 6
REMARK VINA RESULT:    -4.483     10.497     15.228
REMARK INTER + INTRA:          -7.558
REMARK INTER:                  -6.911
REMARK INTRA:                  -0.647
REMARK UNBOUND:                -0.978
REMARK SMILES Cc1cc2c(C(C)C)c(O)c(O)c(C=O)c2c(O)c1-c1c(C)cc2c(C(C)C)c(O)c(O)c(C=O)c2c1O
REMARK SMILES IDX 1 1 2 2 3 3 4 4 16 5 13 6 11 7 9 8 5 9 17 10 19 11 20 12
REMARK SMILES IDX 37 13 21 14 36 15 23 16 22 17 24 18 33 19 25 20 31 21 29 22
REMARK SMILES IDX 38 23 34 25 35 26 26 27 27 28 28 29 32 30 30 32 18 34 6 36
REMARK SMILES IDX 7 37 8 38 14 39 15 40 10 41 12 43
REMARK H PARENT 38 24 32 31 30 33 18 35 10 42 12 44
REMARK Flexibility Score: inf
ROOT
ATOM      1  C   UNL     1      28.504   9.258  52.097  1.00  0.00     0.045 C 
ATOM      2  C   UNL     1      29.242  10.346  52.841  1.00  0.00    -0.039 A 
ATOM      3  C   UNL     1      28.823  11.667  52.678  1.00  0.00     0.013 A 
ATOM      4  C   UNL     1      29.445  12.740  53.354  1.00  0.00    -0.006 A 
ATOM      5  C   UNL     1      30.578  12.463  54.177  1.00  0.00     0.039 A 
ATOM      6  C   UNL     1      31.208  13.540  54.864  1.00  0.00     0.072 A 
ATOM      7  C   UNL     1      30.872  14.865  54.546  1.00  0.00     0.169 A 
ATOM      8  C   UNL     1      29.819  15.136  53.654  1.00  0.00     0.162 A 
ATOM      9  C   UNL     1      28.993  14.087  53.190  1.00  0.00     0.008 A 
ATOM     10  C   UNL     1      31.084  11.132  54.236  1.00  0.00     0.132 A 
ATOM     11  C   UNL     1      30.395  10.075  53.602  1.00  0.00     0.031 A 
ENDROOT
BRANCH  11  12
ATOM     12  C   UNL     1      30.899   8.682  53.728  1.00  0.00     0.031 A 
ATOM     13  C   UNL     1      31.711   8.131  52.714  1.00  0.00     0.132 A 
ATOM     14  C   UNL     1      30.586   7.926  54.868  1.00  0.00    -0.039 A 
ATOM     15  C   UNL     1      32.158   6.777  52.800  1.00  0.00     0.039 A 
ATOM     16  C   UNL     1      31.060   6.618  54.978  1.00  0.00     0.013 A 
ATOM     17  C   UNL     1      29.747   8.507  55.980  1.00  0.00     0.045 C 
ATOM     18  C   UNL     1      31.807   6.004  53.948  1.00  0.00    -0.006 A 
ATOM     19  C   UNL     1      32.984   6.184  51.800  1.00  0.00     0.072 A 
ATOM     20  C   UNL     1      32.243   4.649  54.063  1.00  0.00     0.008 A 
ATOM     21  C   UNL     1      33.556   4.918  52.018  1.00  0.00     0.169 A 
ATOM     22  C   UNL     1      33.239   4.183  53.175  1.00  0.00     0.162 A 
BRANCH  13  23
ATOM     23  O   UNL     1      32.104   8.939  51.641  1.00  0.00    -0.507 OA
ATOM     24  H   UNL     1      31.507   9.173  50.859  1.00  0.00     0.293 HD
ENDBRANCH  13  23
BRANCH  19  25
ATOM     25  C   UNL     1      33.233   6.831  50.489  1.00  0.00     0.264 C 
ATOM     26  O   UNL     1      34.161   6.430  49.737  1.00  0.00    -0.298 OA
ENDBRANCH  19  25
BRANCH  20  27
ATOM     27  C   UNL     1      31.683   3.706  55.143  1.00  0.00     0.017 C 
ATOM     28  C   UNL     1      32.780   3.274  56.122  1.00  0.00     0.012 C 
ATOM     29  C   UNL     1      30.929   2.490  54.571  1.00  0.00     0.012 C 
ENDBRANCH  20  27
BRANCH  21  30
ATOM     30  O   UNL     1      34.406   4.394  51.036  1.00  0.00    -0.504 OA
ATOM     31  H   UNL     1      35.281   4.811  50.749  1.00  0.00     0.293 HD
ENDBRANCH  21  30
BRANCH  22  32
ATOM     32  O   UNL     1      33.905   2.989  53.471  1.00  0.00    -0.504 OA
ATOM     33  H   UNL     1      33.760   2.448  54.310  1.00  0.00     0.293 HD
ENDBRANCH  22  32
ENDBRANCH  11  12
BRANCH  10  34
ATOM     34  O   UNL     1      32.300  10.871  54.879  1.00  0.00    -0.507 OA
ATOM     35  H   UNL     1      32.573  11.284  55.760  1.00  0.00     0.293 HD
ENDBRANCH  10  34
BRANCH   9  36
ATOM     36  C   UNL     1      27.671  14.415  52.473  1.00  0.00     0.017 C 
ATOM     37  C   UNL     1      27.894  14.598  50.968  1.00  0.00     0.012 C 
ATOM     38  C   UNL     1      26.918  15.617  53.074  1.00  0.00     0.012 C 
ENDBRANCH   9  36
BRANCH   6  39
ATOM     39  C   UNL     1      32.164  13.341  55.977  1.00  0.00     0.264 C 
ATOM     40  O   UNL     1      33.399  13.517  55.803  1.00  0.00    -0.298 OA
ENDBRANCH   6  39
BRANCH   8  41
ATOM     41  O   UNL     1      29.581  16.438  53.207  1.00  0.00    -0.504 OA
ATOM     42  H   UNL     1      30.141  16.910  52.511  1.00  0.00     0.293 HD
ENDBRANCH   8  41
BRANCH   7  43
ATOM     43  O   UNL     1      31.578  15.900  55.172  1.00  0.00    -0.504 OA
ATOM     44  H   UNL     1      31.695  16.826  54.782  1.00  0.00     0.293 HD
ENDBRANCH   7  43
TORSDOF 11
ENDMDL
MODEL 7
REMARK VINA RESULT:    -3.766      0.572      8.961
REMARK INTER + INTRA:          -6.505
REMARK INTER:                  -5.339
REMARK INTRA:                  -1.166
REMARK UNBOUND:                -0.978
REMARK SMILES Cc1cc2c(C(C)C)c(O)c(O)c(C=O)c2c(O)c1-c1c(C)cc2c(C(C)C)c(O)c(O)c(C=O)c2c1O
REMARK SMILES IDX 1 1 2 2 3 3 4 4 16 5 13 6 11 7 9 8 5 9 17 10 19 11 20 12
REMARK SMILES IDX 37 13 21 14 36 15 23 16 22 17 24 18 33 19 25 20 31 21 29 22
REMARK SMILES IDX 38 23 34 25 35 26 26 27 27 28 28 29 32 30 30 32 18 34 6 36
REMARK SMILES IDX 7 37 8 38 14 39 15 40 10 41 12 43
REMARK H PARENT 38 24 32 31 30 33 18 35 10 42 12 44
REMARK Flexibility Score: inf
ROOT
ATOM      1  C   UNL     1      39.887   5.177  54.472  1.00  0.00     0.045 C 
ATOM      2  C   UNL     1      40.643   6.454  54.192  1.00  0.00    -0.039 A 
ATOM      3  C   UNL     1      39.986   7.672  54.377  1.00  0.00     0.013 A 
ATOM      4  C   UNL     1      40.629   8.910  54.158  1.00  0.00    -0.006 A 
ATOM      5  C   UNL     1      41.970   8.907  53.671  1.00  0.00     0.039 A 
ATOM      6  C   UNL     1      42.624  10.153  53.451  1.00  0.00     0.072 A 
ATOM      7  C   UNL     1      41.886  11.346  53.481  1.00  0.00     0.169 A 
ATOM      8  C   UNL     1      40.533  11.334  53.865  1.00  0.00     0.162 A 
ATOM      9  C   UNL     1      39.948  10.150  54.368  1.00  0.00     0.008 A 
ATOM     10  C   UNL     1      42.591   7.664  53.357  1.00  0.00     0.132 A 
ATOM     11  C   UNL     1      41.944   6.445  53.654  1.00  0.00     0.031 A 
ENDROOT
BRANCH  11  12
ATOM     12  C   UNL     1      42.632   5.155  53.382  1.00  0.00     0.031 A 
ATOM     13  C   UNL     1      43.562   4.640  54.311  1.00  0.00     0.132 A 
ATOM     14  C   UNL     1      42.337   4.439  52.212  1.00  0.00    -0.039 A 
ATOM     15  C   UNL     1      44.266   3.429  54.036  1.00  0.00     0.039 A 
ATOM     16  C   UNL     1      42.989   3.231  51.961  1.00  0.00     0.013 A 
ATOM     17  C   UNL     1      41.321   4.954  51.221  1.00  0.00     0.045 C 
ATOM     18  C   UNL     1      43.984   2.724  52.826  1.00  0.00    -0.006 A 
ATOM     19  C   UNL     1      45.210   2.873  54.950  1.00  0.00     0.072 A 
ATOM     20  C   UNL     1      44.670   1.508  52.527  1.00  0.00     0.008 A 
ATOM     21  C   UNL     1      45.734   1.587  54.727  1.00  0.00     0.169 A 
ATOM     22  C   UNL     1      45.413   0.882  53.552  1.00  0.00     0.162 A 
BRANCH  13  23
ATOM     23  O   UNL     1      43.758   5.313  55.522  1.00  0.00    -0.507 OA
ATOM     24  H   UNL     1      43.017   5.751  56.054  1.00  0.00     0.293 HD
ENDBRANCH  13  23
BRANCH  19  25
ATOM     25  C   UNL     1      45.714   3.623  56.124  1.00  0.00     0.264 C 
ATOM     26  O   UNL     1      46.635   4.475  56.000  1.00  0.00    -0.298 OA
ENDBRANCH  19  25
BRANCH  20  27
ATOM     27  C   UNL     1      44.591   0.854  51.135  1.00  0.00     0.017 C 
ATOM     28  C   UNL     1      43.890  -0.507  51.203  1.00  0.00     0.012 C 
ATOM     29  C   UNL     1      45.953   0.751  50.422  1.00  0.00     0.012 C 
ENDBRANCH  20  27
BRANCH  21  30
ATOM     30  O   UNL     1      46.614   1.054  55.676  1.00  0.00    -0.504 OA
ATOM     31  H   UNL     1      46.454   0.200  56.194  1.00  0.00     0.293 HD
ENDBRANCH  21  30
BRANCH  22  32
ATOM     32  O   UNL     1      45.813  -0.448  53.383  1.00  0.00    -0.504 OA
ATOM     33  H   UNL     1      46.756  -0.781  53.514  1.00  0.00     0.293 HD
ENDBRANCH  22  32
ENDBRANCH  11  12
BRANCH  10  34
ATOM     34  O   UNL     1      43.828   7.642  52.702  1.00  0.00    -0.507 OA
ATOM     35  H   UNL     1      44.519   8.376  52.775  1.00  0.00     0.293 HD
ENDBRANCH  10  34
BRANCH   9  36
ATOM     36  C   UNL     1      38.578  10.213  55.068  1.00  0.00     0.017 C 
ATOM     37  C   UNL     1      37.442  10.309  54.043  1.00  0.00     0.012 C 
ATOM     38  C   UNL     1      38.469  11.328  56.125  1.00  0.00     0.012 C 
ENDBRANCH   9  36
BRANCH   6  39
ATOM     39  C   UNL     1      44.088  10.277  53.265  1.00  0.00     0.264 C 
ATOM     40  O   UNL     1      44.585  10.359  52.110  1.00  0.00    -0.298 OA
ENDBRANCH   6  39
BRANCH   8  41
ATOM     41  O   UNL     1      39.748  12.484  53.745  1.00  0.00    -0.504 OA
ATOM     42  H   UNL     1      39.588  13.141  54.494  1.00  0.00     0.293 HD
ENDBRANCH   8  41
BRANCH   7  43
ATOM     43  O   UNL     1      42.542  12.544  53.168  1.00  0.00    -0.504 OA
ATOM     44  H   UNL     1      42.948  13.166  53.853  1.00  0.00     0.293 HD
ENDBRANCH   7  43
TORSDOF 11
ENDMDL
MODEL 8
REMARK VINA RESULT:    -3.170      1.631      9.046
REMARK INTER + INTRA:          -5.630
REMARK INTER:                  -4.873
REMARK INTRA:                  -0.758
REMARK UNBOUND:                -0.978
REMARK SMILES Cc1cc2c(C(C)C)c(O)c(O)c(C=O)c2c(O)c1-c1c(C)cc2c(C(C)C)c(O)c(O)c(C=O)c2c1O
REMARK SMILES IDX 1 1 2 2 3 3 4 4 16 5 13 6 11 7 9 8 5 9 17 10 19 11 20 12
REMARK SMILES IDX 37 13 21 14 36 15 23 16 22 17 24 18 33 19 25 20 31 21 29 22
REMARK SMILES IDX 38 23 34 25 35 26 26 27 27 28 28 29 32 30 30 32 18 34 6 36
REMARK SMILES IDX 7 37 8 38 14 39 15 40 10 41 12 43
REMARK H PARENT 38 24 32 31 30 33 18 35 10 42 12 44
REMARK Flexibility Score: inf
ROOT
ATOM      1  C   UNL     1      40.594   4.845  55.431  1.00  0.00     0.045 C 
ATOM      2  C   UNL     1      41.222   6.086  54.842  1.00  0.00    -0.039 A 
ATOM      3  C   UNL     1      40.504   7.282  54.886  1.00  0.00     0.013 A 
ATOM      4  C   UNL     1      41.029   8.490  54.377  1.00  0.00    -0.006 A 
ATOM      5  C   UNL     1      42.306   8.466  53.742  1.00  0.00     0.039 A 
ATOM      6  C   UNL     1      42.842   9.683  53.229  1.00  0.00     0.072 A 
ATOM      7  C   UNL     1      42.028  10.821  53.136  1.00  0.00     0.169 A 
ATOM      8  C   UNL     1      40.728  10.811  53.675  1.00  0.00     0.162 A 
ATOM      9  C   UNL     1      40.287   9.711  54.445  1.00  0.00     0.008 A 
ATOM     10  C   UNL     1      42.977   7.220  53.581  1.00  0.00     0.132 A 
ATOM     11  C   UNL     1      42.454   6.044  54.164  1.00  0.00     0.031 A 
ENDROOT
BRANCH  11  12
ATOM     12  C   UNL     1      43.200   4.764  54.043  1.00  0.00     0.031 A 
ATOM     13  C   UNL     1      42.812   3.808  53.080  1.00  0.00     0.132 A 
ATOM     14  C   UNL     1      44.304   4.518  54.873  1.00  0.00    -0.039 A 
ATOM     15  C   UNL     1      43.489   2.554  52.990  1.00  0.00     0.039 A 
ATOM     16  C   UNL     1      44.998   3.312  54.757  1.00  0.00     0.013 A 
ATOM     17  C   UNL     1      44.758   5.539  55.888  1.00  0.00     0.045 C 
ATOM     18  C   UNL     1      44.591   2.298  53.862  1.00  0.00    -0.006 A 
ATOM     19  C   UNL     1      43.131   1.564  52.028  1.00  0.00     0.072 A 
ATOM     20  C   UNL     1      45.288   1.054  53.792  1.00  0.00     0.008 A 
ATOM     21  C   UNL     1      43.943   0.430  51.848  1.00  0.00     0.169 A 
ATOM     22  C   UNL     1      45.054   0.210  52.683  1.00  0.00     0.162 A 
BRANCH  13  23
ATOM     23  O   UNL     1      41.780   4.121  52.188  1.00  0.00    -0.507 OA
ATOM     24  H   UNL     1      41.926   4.402  51.228  1.00  0.00     0.293 HD
ENDBRANCH  13  23
BRANCH  19  25
ATOM     25  C   UNL     1      41.889   1.650  51.223  1.00  0.00     0.264 C 
ATOM     26  O   UNL     1      41.936   1.873  49.984  1.00  0.00    -0.298 OA
ENDBRANCH  19  25
BRANCH  20  27
ATOM     27  C   UNL     1      46.305   0.633  54.869  1.00  0.00     0.017 C 
ATOM     28  C   UNL     1      45.627  -0.170  55.985  1.00  0.00     0.012 C 
ATOM     29  C   UNL     1      47.123   1.807  55.439  1.00  0.00     0.012 C 
ENDBRANCH  20  27
BRANCH  21  30
ATOM     30  O   UNL     1      43.589  -0.492  50.855  1.00  0.00    -0.504 OA
ATOM     31  H   UNL     1      42.671  -0.565  50.437  1.00  0.00     0.293 HD
ENDBRANCH  21  30
BRANCH  22  32
ATOM     32  O   UNL     1      45.947  -0.836  52.428  1.00  0.00    -0.504 OA
ATOM     33  H   UNL     1      46.429  -1.362  53.142  1.00  0.00     0.293 HD
ENDBRANCH  22  32
ENDBRANCH  11  12
BRANCH  10  34
ATOM     34  O   UNL     1      44.134   7.141  52.797  1.00  0.00    -0.507 OA
ATOM     35  H   UNL     1      45.065   7.323  53.145  1.00  0.00     0.293 HD
ENDBRANCH  10  34
BRANCH   9  36
ATOM     36  C   UNL     1      39.000   9.832  55.281  1.00  0.00     0.017 C 
ATOM     37  C   UNL     1      37.757   9.673  54.400  1.00  0.00     0.012 C 
ATOM     38  C   UNL     1      38.923  11.119  56.125  1.00  0.00     0.012 C 
ENDBRANCH   9  36
BRANCH   6  39
ATOM     39  C   UNL     1      44.264   9.844  52.851  1.00  0.00     0.264 C 
ATOM     40  O   UNL     1      45.031  10.578  53.529  1.00  0.00    -0.298 OA
ENDBRANCH   6  39
BRANCH   8  41
ATOM     41  O   UNL     1      39.855  11.878  53.448  1.00  0.00    -0.504 OA
ATOM     42  H   UNL     1      40.146  12.792  53.131  1.00  0.00     0.293 HD
ENDBRANCH   8  41
BRANCH   7  43
ATOM     43  O   UNL     1      42.558  11.973  52.540  1.00  0.00    -0.504 OA
ATOM     44  H   UNL     1      43.376  11.981  51.946  1.00  0.00     0.293 HD
ENDBRANCH   7  43
TORSDOF 11
ENDMDL
