MODEL 1
REMARK VINA RESULT:    -2.690      0.000      0.000
REMARK INTER + INTRA:          -2.926
REMARK INTER:                  -2.926
REMARK INTRA:                   0.000
REMARK UNBOUND:                 0.000
REMARK SMILES [NH3+]CC(=O)[O-]
REMARK SMILES IDX 2 1 1 2 3 6 4 7 5 8
REMARK H PARENT 1 3 1 4 1 5
REMARK Flexibility Score: inf
ROOT
ATOM      1  C   UNL     1      49.170  13.797  18.436  1.00  0.00     0.312 C 
ENDROOT
BRANCH   1   2
ATOM      2  N   UNL     1      47.808  13.656  18.946  1.00  0.00    -0.353 N 
ATOM      3  H   UNL     1      47.826  13.073  19.814  1.00  0.00     0.344 HD
ATOM      4  H   UNL     1      47.204  13.185  18.233  1.00  0.00     0.344 HD
ATOM      5  H   UNL     1      47.412  14.597  19.179  1.00  0.00     0.344 HD
ENDBRANCH   1   2
BRANCH   1   6
ATOM      6  C   UNL     1      49.617  15.224  18.512  1.00  0.00     0.096 C 
ATOM      7  O   UNL     1      49.989  15.714  19.610  1.00  0.00    -0.544 OA
ATOM      8  O   UNL     1      49.672  15.998  17.359  1.00  0.00    -0.544 OA
ENDBRANCH   1   6
TORSDOF 2
ENDMDL
MODEL 2
REMARK VINA RESULT:    -2.672      2.155      2.608
REMARK INTER + INTRA:          -2.906
REMARK INTER:                  -2.906
REMARK INTRA:                   0.000
REMARK UNBOUND:                 0.000
REMARK SMILES [NH3+]CC(=O)[O-]
REMARK SMILES IDX 2 1 1 2 3 6 4 7 5 8
REMARK H PARENT 1 3 1 4 1 5
REMARK Flexibility Score: inf
ROOT
ATOM      1  C   UNL     1      49.667  15.242  18.816  1.00  0.00     0.312 C 
ENDROOT
BRANCH   1   2
ATOM      2  N   UNL     1      48.514  16.005  19.292  1.00  0.00    -0.353 N 
ATOM      3  H   UNL     1      48.481  15.958  20.336  1.00  0.00     0.344 HD
ATOM      4  H   UNL     1      47.631  15.599  18.905  1.00  0.00     0.344 HD
ATOM      5  H   UNL     1      48.602  17.006  19.001  1.00  0.00     0.344 HD
ENDBRANCH   1   2
BRANCH   1   6
ATOM      6  C   UNL     1      49.252  13.869  18.390  1.00  0.00     0.096 C 
ATOM      7  O   UNL     1      49.842  13.295  17.438  1.00  0.00    -0.544 OA
ATOM      8  O   UNL     1      48.246  13.201  19.078  1.00  0.00    -0.544 OA
ENDBRANCH   1   6
TORSDOF 2
ENDMDL
MODEL 3
REMARK VINA RESULT:    -2.650      2.426      2.911
REMARK INTER + INTRA:          -2.882
REMARK INTER:                  -2.882
REMARK INTRA:                   0.000
REMARK UNBOUND:                 0.000
REMARK SMILES [NH3+]CC(=O)[O-]
REMARK SMILES IDX 2 1 1 2 3 6 4 7 5 8
REMARK H PARENT 1 3 1 4 1 5
REMARK Flexibility Score: inf
ROOT
ATOM      1  C   UNL     1      49.129  14.068  18.542  1.00  0.00     0.312 C 
ENDROOT
BRANCH   1   2
ATOM      2  N   UNL     1      47.799  13.825  19.097  1.00  0.00    -0.353 N 
ATOM      3  H   UNL     1      47.761  12.852  19.478  1.00  0.00     0.344 HD
ATOM      4  H   UNL     1      47.074  13.925  18.348  1.00  0.00     0.344 HD
ATOM      5  H   UNL     1      47.604  14.501  19.871  1.00  0.00     0.344 HD
ENDBRANCH   1   2
BRANCH   1   6
ATOM      6  C   UNL     1      49.564  12.918  17.688  1.00  0.00     0.096 C 
ATOM      7  O   UNL     1      49.923  13.114  16.497  1.00  0.00    -0.544 OA
ATOM      8  O   UNL     1      49.621  11.637  18.222  1.00  0.00    -0.544 OA
ENDBRANCH   1   6
TORSDOF 2
ENDMDL
MODEL 4
REMARK VINA RESULT:    -2.636     18.137     18.408
REMARK INTER + INTRA:          -2.867
REMARK INTER:                  -2.867
REMARK INTRA:                   0.000
REMARK UNBOUND:                 0.000
REMARK SMILES [NH3+]CC(=O)[O-]
REMARK SMILES IDX 2 1 1 2 3 6 4 7 5 8
REMARK H PARENT 1 3 1 4 1 5
REMARK Flexibility Score: inf
ROOT
ATOM      1  C   UNL     1      54.116  -1.935  19.542  1.00  0.00     0.312 C 
ENDROOT
BRANCH   1   2
ATOM      2  N   UNL     1      54.128  -0.718  18.733  1.00  0.00    -0.353 N 
ATOM      3  H   UNL     1      54.022   0.111  19.362  1.00  0.00     0.344 HD
ATOM      4  H   UNL     1      53.334  -0.731  18.052  1.00  0.00     0.344 HD
ATOM      5  H   UNL     1      55.036  -0.639  18.218  1.00  0.00     0.344 HD
ENDBRANCH   1   2
BRANCH   1   6
ATOM      6  C   UNL     1      54.594  -3.106  18.742  1.00  0.00     0.096 C 
ATOM      7  O   UNL     1      53.767  -3.920  18.253  1.00  0.00    -0.544 OA
ATOM      8  O   UNL     1      55.951  -3.271  18.492  1.00  0.00    -0.544 OA
ENDBRANCH   1   6
TORSDOF 2
ENDMDL
MODEL 5
REMARK VINA RESULT:    -2.636     17.802     18.146
REMARK INTER + INTRA:          -2.867
REMARK INTER:                  -2.867
REMARK INTRA:                   0.000
REMARK UNBOUND:                 0.000
REMARK SMILES [NH3+]CC(=O)[O-]
REMARK SMILES IDX 2 1 1 2 3 6 4 7 5 8
REMARK H PARENT 1 3 1 4 1 5
REMARK Flexibility Score: inf
ROOT
ATOM      1  C   UNL     1      54.428  -2.982  19.002  1.00  0.00     0.312 C 
ENDROOT
BRANCH   1   2
ATOM      2  N   UNL     1      53.759  -3.220  20.280  1.00  0.00    -0.353 N 
ATOM      3  H   UNL     1      54.077  -2.502  20.970  1.00  0.00     0.344 HD
ATOM      4  H   UNL     1      54.004  -4.170  20.642  1.00  0.00     0.344 HD
ATOM      5  H   UNL     1      52.722  -3.141  20.163  1.00  0.00     0.344 HD
ENDBRANCH   1   2
BRANCH   1   6
ATOM      6  C   UNL     1      55.475  -1.922  19.143  1.00  0.00     0.096 C 
ATOM      7  O   UNL     1      55.250  -0.751  18.739  1.00  0.00    -0.544 OA
ATOM      8  O   UNL     1      56.681  -2.215  19.767  1.00  0.00    -0.544 OA
ENDBRANCH   1   6
TORSDOF 2
ENDMDL
MODEL 6
REMARK VINA RESULT:    -2.620     17.999     18.312
REMARK INTER + INTRA:          -2.850
REMARK INTER:                  -2.850
REMARK INTRA:                   0.000
REMARK UNBOUND:                 0.000
REMARK SMILES [NH3+]CC(=O)[O-]
REMARK SMILES IDX 2 1 1 2 3 6 4 7 5 8
REMARK H PARENT 1 3 1 4 1 5
REMARK Flexibility Score: inf
ROOT
ATOM      1  C   UNL     1      55.981  -1.867  19.094  1.00  0.00     0.312 C 
ENDROOT
BRANCH   1   2
ATOM      2  N   UNL     1      56.782  -2.244  20.257  1.00  0.00    -0.353 N 
ATOM      3  H   UNL     1      57.307  -1.406  20.597  1.00  0.00     0.344 HD
ATOM      4  H   UNL     1      57.468  -2.990  19.994  1.00  0.00     0.344 HD
ATOM      5  H   UNL     1      56.161  -2.590  21.024  1.00  0.00     0.344 HD
ENDBRANCH   1   2
BRANCH   1   6
ATOM      6  C   UNL     1      54.567  -2.334  19.253  1.00  0.00     0.096 C 
ATOM      7  O   UNL     1      53.795  -1.755  20.061  1.00  0.00    -0.544 OA
ATOM      8  O   UNL     1      54.087  -3.377  18.470  1.00  0.00    -0.544 OA
ENDBRANCH   1   6
TORSDOF 2
ENDMDL
MODEL 7
REMARK VINA RESULT:    -2.608      2.248      2.457
REMARK INTER + INTRA:          -2.836
REMARK INTER:                  -2.836
REMARK INTRA:                   0.000
REMARK UNBOUND:                 0.000
REMARK SMILES [NH3+]CC(=O)[O-]
REMARK SMILES IDX 2 1 1 2 3 6 4 7 5 8
REMARK H PARENT 1 3 1 4 1 5
REMARK Flexibility Score: inf
ROOT
ATOM      1  C   UNL     1      49.275  13.690  16.671  1.00  0.00     0.312 C 
ENDROOT
BRANCH   1   2
ATOM      2  N   UNL     1      47.966  13.884  16.050  1.00  0.00    -0.353 N 
ATOM      3  H   UNL     1      48.085  13.936  15.013  1.00  0.00     0.344 HD
ATOM      4  H   UNL     1      47.537  14.776  16.389  1.00  0.00     0.344 HD
ATOM      5  H   UNL     1      47.338  13.079  16.280  1.00  0.00     0.344 HD
ENDBRANCH   1   2
BRANCH   1   6
ATOM      6  C   UNL     1      49.164  13.730  18.163  1.00  0.00     0.096 C 
ATOM      7  O   UNL     1      49.691  14.671  18.813  1.00  0.00    -0.544 OA
ATOM      8  O   UNL     1      48.433  12.757  18.833  1.00  0.00    -0.544 OA
ENDBRANCH   1   6
TORSDOF 2
ENDMDL
MODEL 8
REMARK VINA RESULT:    -2.562     18.170     18.504
REMARK INTER + INTRA:          -2.787
REMARK INTER:                  -2.787
REMARK INTRA:                   0.000
REMARK UNBOUND:                 0.000
REMARK SMILES [NH3+]CC(=O)[O-]
REMARK SMILES IDX 2 1 1 2 3 6 4 7 5 8
REMARK H PARENT 1 3 1 4 1 5
REMARK Flexibility Score: inf
ROOT
ATOM      1  C   UNL     1      54.736  -1.906  19.247  1.00  0.00     0.312 C 
ENDROOT
BRANCH   1   2
ATOM      2  N   UNL     1      54.107  -2.658  20.330  1.00  0.00    -0.353 N 
ATOM      3  H   UNL     1      53.611  -3.486  19.928  1.00  0.00     0.344 HD
ATOM      4  H   UNL     1      53.412  -2.056  20.829  1.00  0.00     0.344 HD
ATOM      5  H   UNL     1      54.834  -2.993  21.004  1.00  0.00     0.344 HD
ENDBRANCH   1   2
BRANCH   1   6
ATOM      6  C   UNL     1      56.166  -2.316  19.080  1.00  0.00     0.096 C 
ATOM      7  O   UNL     1      56.454  -3.369  18.453  1.00  0.00    -0.544 OA
ATOM      8  O   UNL     1      57.184  -1.508  19.572  1.00  0.00    -0.544 OA
ENDBRANCH   1   6
TORSDOF 2
ENDMDL
MODEL 9
REMARK VINA RESULT:    -2.505     13.063     13.312
REMARK INTER + INTRA:          -2.724
REMARK INTER:                  -2.724
REMARK INTRA:                   0.000
REMARK UNBOUND:                 0.000
REMARK SMILES [NH3+]CC(=O)[O-]
REMARK SMILES IDX 2 1 1 2 3 6 4 7 5 8
REMARK H PARENT 1 3 1 4 1 5
REMARK Flexibility Score: inf
ROOT
ATOM      1  C   UNL     1      52.192   1.459  21.324  1.00  0.00     0.312 C 
ENDROOT
BRANCH   1   2
ATOM      2  N   UNL     1      52.199   2.198  22.585  1.00  0.00    -0.353 N 
ATOM      3  H   UNL     1      52.175   1.517  23.379  1.00  0.00     0.344 HD
ATOM      4  H   UNL     1      51.357   2.816  22.643  1.00  0.00     0.344 HD
ATOM      5  H   UNL     1      53.068   2.775  22.658  1.00  0.00     0.344 HD
ENDBRANCH   1   2
BRANCH   1   6
ATOM      6  C   UNL     1      52.741   2.303  20.215  1.00  0.00     0.096 C 
ATOM      7  O   UNL     1      53.945   2.671  20.235  1.00  0.00    -0.544 OA
ATOM      8  O   UNL     1      51.937   2.639  19.133  1.00  0.00    -0.544 OA
ENDBRANCH   1   6
TORSDOF 2
ENDMDL
