MODEL 1
REMARK VINA RESULT:    -5.026      0.000      0.000
REMARK INTER + INTRA:          -8.987
REMARK INTER:                  -7.964
REMARK INTRA:                  -1.023
REMARK UNBOUND:                -1.023
REMARK SMILES CCCCCCCCCCCC(=O)[O-]
REMARK SMILES IDX 7 1 8 2 9 3 10 4 11 5 12 6 13 7 14 8 6 9 5 10 4 11 3 12 2 13
REMARK SMILES IDX 1 14
REMARK H PARENT
REMARK Flexibility Score: inf
ROOT
ATOM      1  C   UNL     1      12.972   5.665 -11.665  1.00  0.00     0.000 C 
ENDROOT
BRANCH   1   2
ATOM      2  C   UNL     1      11.779   6.623 -11.530  1.00  0.00     0.000 C 
BRANCH   2   3
ATOM      3  C   UNL     1      10.692   6.022 -10.629  1.00  0.00     0.000 C 
BRANCH   3   4
ATOM      4  C   UNL     1       9.346   5.959 -11.359  1.00  0.00     0.006 C 
BRANCH   4   5
ATOM      5  C   UNL     1       9.219   7.093 -12.380  1.00  0.00     0.053 C 
BRANCH   5   6
ATOM      6  C   UNL     1       7.806   7.580 -12.451  1.00  0.00     0.041 C 
ATOM      7  O   UNL     1       6.852   6.759 -12.441  1.00  0.00    -0.550 OA
ATOM      8  O   UNL     1       7.541   8.944 -12.477  1.00  0.00    -0.550 OA
ENDBRANCH   5   6
ENDBRANCH   4   5
ENDBRANCH   3   4
ENDBRANCH   2   3
ENDBRANCH   1   2
BRANCH   1   9
ATOM      9  C   UNL     1      13.243   5.262 -13.123  1.00  0.00     0.000 C 
BRANCH   9  10
ATOM     10  C   UNL     1      11.956   5.190 -13.966  1.00  0.00    -0.000 C 
BRANCH  10  11
ATOM     11  C   UNL     1      12.113   5.838 -15.353  1.00  0.00    -0.000 C 
BRANCH  11  12
ATOM     12  C   UNL     1      11.227   7.074 -15.595  1.00  0.00    -0.000 C 
BRANCH  12  13
ATOM     13  C   UNL     1      11.977   8.221 -16.286  1.00  0.00    -0.003 C 
ATOM     14  C   UNL     1      13.487   8.009 -16.220  1.00  0.00     0.004 C 
ENDBRANCH  12  13
ENDBRANCH  11  12
ENDBRANCH  10  11
ENDBRANCH   9  10
ENDBRANCH   1   9
TORSDOF 10
ENDMDL
MODEL 2
REMARK VINA RESULT:    -4.962      2.883      4.039
REMARK INTER + INTRA:          -8.886
REMARK INTER:                  -7.311
REMARK INTRA:                  -1.576
REMARK UNBOUND:                -1.023
REMARK SMILES CCCCCCCCCCCC(=O)[O-]
REMARK SMILES IDX 7 1 8 2 9 3 10 4 11 5 12 6 13 7 14 8 6 9 5 10 4 11 3 12 2 13
REMARK SMILES IDX 1 14
REMARK H PARENT
REMARK Flexibility Score: inf
ROOT
ATOM      1  C   UNL     1      10.660   5.152 -14.635  1.00  0.00     0.000 C 
ENDROOT
BRANCH   1   2
ATOM      2  C   UNL     1      12.174   4.905 -14.568  1.00  0.00     0.000 C 
BRANCH   2   3
ATOM      3  C   UNL     1      12.719   5.211 -13.168  1.00  0.00     0.000 C 
BRANCH   3   4
ATOM      4  C   UNL     1      11.681   5.963 -12.326  1.00  0.00     0.006 C 
BRANCH   4   5
ATOM      5  C   UNL     1      12.304   7.190 -11.653  1.00  0.00     0.053 C 
BRANCH   5   6
ATOM      6  C   UNL     1      12.968   6.805 -10.370  1.00  0.00     0.041 C 
ATOM      7  O   UNL     1      14.157   7.154 -10.142  1.00  0.00    -0.550 OA
ATOM      8  O   UNL     1      12.259   6.104  -9.402  1.00  0.00    -0.550 OA
ENDBRANCH   5   6
ENDBRANCH   4   5
ENDBRANCH   3   4
ENDBRANCH   2   3
ENDBRANCH   1   2
BRANCH   1   9
ATOM      9  C   UNL     1      10.257   6.032 -15.829  1.00  0.00     0.000 C 
BRANCH   9  10
ATOM     10  C   UNL     1       9.879   7.463 -15.409  1.00  0.00    -0.000 C 
BRANCH  10  11
ATOM     11  C   UNL     1      11.095   8.403 -15.325  1.00  0.00    -0.000 C 
BRANCH  11  12
ATOM     12  C   UNL     1      12.017   8.382 -16.558  1.00  0.00    -0.000 C 
BRANCH  12  13
ATOM     13  C   UNL     1      13.461   7.989 -16.218  1.00  0.00    -0.003 C 
ATOM     14  C   UNL     1      13.870   8.527 -14.850  1.00  0.00     0.004 C 
ENDBRANCH  12  13
ENDBRANCH  11  12
ENDBRANCH  10  11
ENDBRANCH   9  10
ENDBRANCH   1   9
TORSDOF 10
ENDMDL
MODEL 3
REMARK VINA RESULT:    -4.947      2.249      3.757
REMARK INTER + INTRA:          -8.862
REMARK INTER:                  -7.858
REMARK INTRA:                  -1.003
REMARK UNBOUND:                -1.023
REMARK SMILES CCCCCCCCCCCC(=O)[O-]
REMARK SMILES IDX 7 1 8 2 9 3 10 4 11 5 12 6 13 7 14 8 6 9 5 10 4 11 3 12 2 13
REMARK SMILES IDX 1 14
REMARK H PARENT
REMARK Flexibility Score: inf
ROOT
ATOM      1  C   UNL     1       9.225   5.814 -11.397  1.00  0.00     0.000 C 
ENDROOT
BRANCH   1   2
ATOM      2  C   UNL     1       9.099   6.843 -12.532  1.00  0.00     0.000 C 
BRANCH   2   3
ATOM      3  C   UNL     1       7.742   7.553 -12.479  1.00  0.00     0.000 C 
BRANCH   3   4
ATOM      4  C   UNL     1       7.876   9.028 -12.874  1.00  0.00     0.006 C 
BRANCH   4   5
ATOM      5  C   UNL     1       9.292   9.338 -13.369  1.00  0.00     0.053 C 
BRANCH   5   6
ATOM      6  C   UNL     1       9.734  10.684 -12.889  1.00  0.00     0.041 C 
ATOM      7  O   UNL     1       8.968  11.679 -12.998  1.00  0.00    -0.550 OA
ATOM      8  O   UNL     1      10.970  10.832 -12.273  1.00  0.00    -0.550 OA
ENDBRANCH   5   6
ENDBRANCH   4   5
ENDBRANCH   3   4
ENDBRANCH   2   3
ENDBRANCH   1   2
BRANCH   1   9
ATOM      9  C   UNL     1      10.462   6.055 -10.518  1.00  0.00     0.000 C 
BRANCH   9  10
ATOM     10  C   UNL     1      11.565   6.842 -11.249  1.00  0.00    -0.000 C 
BRANCH  10  11
ATOM     11  C   UNL     1      12.876   6.048 -11.384  1.00  0.00    -0.000 C 
BRANCH  11  12
ATOM     12  C   UNL     1      12.971   5.161 -12.638  1.00  0.00    -0.000 C 
BRANCH  12  13
ATOM     13  C   UNL     1      12.321   5.801 -13.873  1.00  0.00    -0.003 C 
ATOM     14  C   UNL     1      12.113   4.772 -14.980  1.00  0.00     0.004 C 
ENDBRANCH  12  13
ENDBRANCH  11  12
ENDBRANCH  10  11
ENDBRANCH   9  10
ENDBRANCH   1   9
TORSDOF 10
ENDMDL
MODEL 4
REMARK VINA RESULT:    -4.920      2.698      4.854
REMARK INTER + INTRA:          -8.819
REMARK INTER:                  -7.507
REMARK INTRA:                  -1.312
REMARK UNBOUND:                -1.023
REMARK SMILES CCCCCCCCCCCC(=O)[O-]
REMARK SMILES IDX 7 1 8 2 9 3 10 4 11 5 12 6 13 7 14 8 6 9 5 10 4 11 3 12 2 13
REMARK SMILES IDX 1 14
REMARK H PARENT
REMARK Flexibility Score: inf
ROOT
ATOM      1  C   UNL     1      11.255   4.675 -14.319  1.00  0.00     0.000 C 
ENDROOT
BRANCH   1   2
ATOM      2  C   UNL     1      10.487   5.648 -15.225  1.00  0.00     0.000 C 
BRANCH   2   3
ATOM      3  C   UNL     1      11.143   7.034 -15.221  1.00  0.00     0.000 C 
BRANCH   3   4
ATOM      4  C   UNL     1      10.093   8.140 -15.378  1.00  0.00     0.006 C 
BRANCH   4   5
ATOM      5  C   UNL     1       9.125   7.822 -16.521  1.00  0.00     0.053 C 
BRANCH   5   6
ATOM      6  C   UNL     1       9.504   8.577 -17.756  1.00  0.00     0.041 C 
ATOM      7  O   UNL     1       8.728   8.600 -18.748  1.00  0.00    -0.550 OA
ATOM      8  O   UNL     1      10.691   9.298 -17.794  1.00  0.00    -0.550 OA
ENDBRANCH   5   6
ENDBRANCH   4   5
ENDBRANCH   3   4
ENDBRANCH   2   3
ENDBRANCH   1   2
BRANCH   1   9
ATOM      9  C   UNL     1      12.480   5.327 -13.657  1.00  0.00     0.000 C 
BRANCH   9  10
ATOM     10  C   UNL     1      12.396   5.320 -12.120  1.00  0.00    -0.000 C 
BRANCH  10  11
ATOM     11  C   UNL     1      11.612   6.519 -11.559  1.00  0.00    -0.000 C 
BRANCH  11  12
ATOM     12  C   UNL     1      10.426   6.150 -10.650  1.00  0.00    -0.000 C 
BRANCH  12  13
ATOM     13  C   UNL     1       9.170   5.751 -11.438  1.00  0.00    -0.003 C 
ATOM     14  C   UNL     1       8.604   6.940 -12.209  1.00  0.00     0.004 C 
ENDBRANCH  12  13
ENDBRANCH  11  12
ENDBRANCH  10  11
ENDBRANCH   9  10
ENDBRANCH   1   9
TORSDOF 10
ENDMDL
MODEL 5
REMARK VINA RESULT:    -4.865      2.367      4.386
REMARK INTER + INTRA:          -8.732
REMARK INTER:                  -7.270
REMARK INTRA:                  -1.462
REMARK UNBOUND:                -1.023
REMARK SMILES CCCCCCCCCCCC(=O)[O-]
REMARK SMILES IDX 7 1 8 2 9 3 10 4 11 5 12 6 13 7 14 8 6 9 5 10 4 11 3 12 2 13
REMARK SMILES IDX 1 14
REMARK H PARENT
REMARK Flexibility Score: inf
ROOT
ATOM      1  C   UNL     1      10.731   5.254 -12.850  1.00  0.00     0.000 C 
ENDROOT
BRANCH   1   2
ATOM      2  C   UNL     1      10.065   6.629 -13.001  1.00  0.00     0.000 C 
BRANCH   2   3
ATOM      3  C   UNL     1      10.401   7.255 -14.360  1.00  0.00     0.000 C 
BRANCH   3   4
ATOM      4  C   UNL     1      10.922   8.687 -14.194  1.00  0.00     0.006 C 
BRANCH   4   5
ATOM      5  C   UNL     1      11.306   8.967 -12.738  1.00  0.00     0.053 C 
BRANCH   5   6
ATOM      6  C   UNL     1      10.979  10.380 -12.372  1.00  0.00     0.041 C 
ATOM      7  O   UNL     1       9.893  10.897 -12.747  1.00  0.00    -0.550 OA
ATOM      8  O   UNL     1      11.849  11.110 -11.573  1.00  0.00    -0.550 OA
ENDBRANCH   5   6
ENDBRANCH   4   5
ENDBRANCH   3   4
ENDBRANCH   2   3
ENDBRANCH   1   2
BRANCH   1   9
ATOM      9  C   UNL     1      12.114   5.191 -13.519  1.00  0.00     0.000 C 
BRANCH   9  10
ATOM     10  C   UNL     1      13.263   5.117 -12.498  1.00  0.00    -0.000 C 
BRANCH  10  11
ATOM     11  C   UNL     1      13.890   6.492 -12.204  1.00  0.00    -0.000 C 
BRANCH  11  12
ATOM     12  C   UNL     1      13.778   6.956 -10.740  1.00  0.00    -0.000 C 
BRANCH  12  13
ATOM     13  C   UNL     1      13.029   5.953  -9.851  1.00  0.00    -0.003 C 
ATOM     14  C   UNL     1      11.642   6.473  -9.483  1.00  0.00     0.004 C 
ENDBRANCH  12  13
ENDBRANCH  11  12
ENDBRANCH  10  11
ENDBRANCH   9  10
ENDBRANCH   1   9
TORSDOF 10
ENDMDL
MODEL 6
REMARK VINA RESULT:    -4.860      2.241      5.001
REMARK INTER + INTRA:          -8.724
REMARK INTER:                  -7.810
REMARK INTRA:                  -0.914
REMARK UNBOUND:                -1.023
REMARK SMILES CCCCCCCCCCCC(=O)[O-]
REMARK SMILES IDX 7 1 8 2 9 3 10 4 11 5 12 6 13 7 14 8 6 9 5 10 4 11 3 12 2 13
REMARK SMILES IDX 1 14
REMARK H PARENT
REMARK Flexibility Score: inf
ROOT
ATOM      1  C   UNL     1      10.876   4.979 -13.268  1.00  0.00     0.000 C 
ENDROOT
BRANCH   1   2
ATOM      2  C   UNL     1      12.192   5.275 -14.004  1.00  0.00     0.000 C 
BRANCH   2   3
ATOM      3  C   UNL     1      11.935   5.591 -15.482  1.00  0.00     0.000 C 
BRANCH   3   4
ATOM      4  C   UNL     1      12.623   6.898 -15.893  1.00  0.00     0.006 C 
BRANCH   4   5
ATOM      5  C   UNL     1      11.875   8.112 -15.336  1.00  0.00     0.053 C 
BRANCH   5   6
ATOM      6  C   UNL     1      10.651   8.393 -16.149  1.00  0.00     0.041 C 
ATOM      7  O   UNL     1       9.510   8.119 -15.692  1.00  0.00    -0.550 OA
ATOM      8  O   UNL     1      10.767   9.005 -17.391  1.00  0.00    -0.550 OA
ENDBRANCH   5   6
ENDBRANCH   4   5
ENDBRANCH   3   4
ENDBRANCH   2   3
ENDBRANCH   1   2
BRANCH   1   9
ATOM      9  C   UNL     1      10.255   6.239 -12.643  1.00  0.00     0.000 C 
BRANCH   9  10
ATOM     10  C   UNL     1       9.625   5.966 -11.265  1.00  0.00    -0.000 C 
BRANCH  10  11
ATOM     11  C   UNL     1      10.648   6.032 -10.117  1.00  0.00    -0.000 C 
BRANCH  11  12
ATOM     12  C   UNL     1      11.830   6.989 -10.357  1.00  0.00    -0.000 C 
BRANCH  12  13
ATOM     13  C   UNL     1      13.195   6.311 -10.175  1.00  0.00    -0.003 C 
ATOM     14  C   UNL     1      13.283   5.607  -8.824  1.00  0.00     0.004 C 
ENDBRANCH  12  13
ENDBRANCH  11  12
ENDBRANCH  10  11
ENDBRANCH   9  10
ENDBRANCH   1   9
TORSDOF 10
ENDMDL
MODEL 7
REMARK VINA RESULT:    -4.857      2.938      4.543
REMARK INTER + INTRA:          -8.719
REMARK INTER:                  -7.064
REMARK INTRA:                  -1.656
REMARK UNBOUND:                -1.023
REMARK SMILES CCCCCCCCCCCC(=O)[O-]
REMARK SMILES IDX 7 1 8 2 9 3 10 4 11 5 12 6 13 7 14 8 6 9 5 10 4 11 3 12 2 13
REMARK SMILES IDX 1 14
REMARK H PARENT
REMARK Flexibility Score: inf
ROOT
ATOM      1  C   UNL     1       7.996   6.790 -12.482  1.00  0.00     0.000 C 
ENDROOT
BRANCH   1   2
ATOM      2  C   UNL     1       9.128   6.373 -11.532  1.00  0.00     0.000 C 
BRANCH   2   3
ATOM      3  C   UNL     1      10.092   5.400 -12.221  1.00  0.00     0.000 C 
BRANCH   3   4
ATOM      4  C   UNL     1      11.504   5.990 -12.305  1.00  0.00     0.006 C 
BRANCH   4   5
ATOM      5  C   UNL     1      11.681   7.137 -11.307  1.00  0.00     0.053 C 
BRANCH   5   6
ATOM      6  C   UNL     1      12.636   6.748 -10.223  1.00  0.00     0.041 C 
ATOM      7  O   UNL     1      13.836   7.128 -10.268  1.00  0.00    -0.550 OA
ATOM      8  O   UNL     1      12.189   6.008  -9.135  1.00  0.00    -0.550 OA
ENDBRANCH   5   6
ENDBRANCH   4   5
ENDBRANCH   3   4
ENDBRANCH   2   3
ENDBRANCH   1   2
BRANCH   1   9
ATOM      9  C   UNL     1       7.771   8.311 -12.500  1.00  0.00     0.000 C 
BRANCH   9  10
ATOM     10  C   UNL     1       8.208   8.958 -13.827  1.00  0.00    -0.000 C 
BRANCH  10  11
ATOM     11  C   UNL     1       9.735   9.111 -13.942  1.00  0.00    -0.000 C 
BRANCH  11  12
ATOM     12  C   UNL     1      10.389   8.269 -15.053  1.00  0.00    -0.000 C 
BRANCH  12  13
ATOM     13  C   UNL     1       9.366   7.499 -15.900  1.00  0.00    -0.003 C 
ATOM     14  C   UNL     1       9.640   5.998 -15.863  1.00  0.00     0.004 C 
ENDBRANCH  12  13
ENDBRANCH  11  12
ENDBRANCH  10  11
ENDBRANCH   9  10
ENDBRANCH   1   9
TORSDOF 10
ENDMDL
MODEL 8
REMARK VINA RESULT:    -4.828      1.187      2.005
REMARK INTER + INTRA:          -8.674
REMARK INTER:                  -7.567
REMARK INTRA:                  -1.107
REMARK UNBOUND:                -1.023
REMARK SMILES CCCCCCCCCCCC(=O)[O-]
REMARK SMILES IDX 7 1 8 2 9 3 10 4 11 5 12 6 13 7 14 8 6 9 5 10 4 11 3 12 2 13
REMARK SMILES IDX 1 14
REMARK H PARENT
REMARK Flexibility Score: inf
ROOT
ATOM      1  C   UNL     1      11.349   6.702 -11.516  1.00  0.00     0.000 C 
ENDROOT
BRANCH   1   2
ATOM      2  C   UNL     1      10.166   6.021 -10.811  1.00  0.00     0.000 C 
BRANCH   2   3
ATOM      3  C   UNL     1       8.966   5.891 -11.757  1.00  0.00     0.000 C 
BRANCH   3   4
ATOM      4  C   UNL     1       8.949   7.028 -12.785  1.00  0.00     0.006 C 
BRANCH   4   5
ATOM      5  C   UNL     1       7.797   7.999 -12.512  1.00  0.00     0.053 C 
BRANCH   5   6
ATOM      6  C   UNL     1       8.165   9.384 -12.942  1.00  0.00     0.041 C 
ATOM      7  O   UNL     1       9.298   9.855 -12.659  1.00  0.00    -0.550 OA
ATOM      8  O   UNL     1       7.276  10.136 -13.700  1.00  0.00    -0.550 OA
ENDBRANCH   5   6
ENDBRANCH   4   5
ENDBRANCH   3   4
ENDBRANCH   2   3
ENDBRANCH   1   2
BRANCH   1   9
ATOM      9  C   UNL     1      12.641   5.874 -11.433  1.00  0.00     0.000 C 
BRANCH   9  10
ATOM     10  C   UNL     1      13.153   5.436 -12.817  1.00  0.00    -0.000 C 
BRANCH  10  11
ATOM     11  C   UNL     1      12.022   4.978 -13.755  1.00  0.00    -0.000 C 
BRANCH  11  12
ATOM     12  C   UNL     1      12.123   5.505 -15.198  1.00  0.00    -0.000 C 
BRANCH  12  13
ATOM     13  C   UNL     1      11.651   6.960 -15.337  1.00  0.00    -0.003 C 
ATOM     14  C   UNL     1      12.743   7.836 -15.944  1.00  0.00     0.004 C 
ENDBRANCH  12  13
ENDBRANCH  11  12
ENDBRANCH  10  11
ENDBRANCH   9  10
ENDBRANCH   1   9
TORSDOF 10
ENDMDL
MODEL 9
REMARK VINA RESULT:    -4.763      2.893      4.576
REMARK INTER + INTRA:          -8.571
REMARK INTER:                  -7.039
REMARK INTRA:                  -1.531
REMARK UNBOUND:                -1.023
REMARK SMILES CCCCCCCCCCCC(=O)[O-]
REMARK SMILES IDX 7 1 8 2 9 3 10 4 11 5 12 6 13 7 14 8 6 9 5 10 4 11 3 12 2 13
REMARK SMILES IDX 1 14
REMARK H PARENT
REMARK Flexibility Score: inf
ROOT
ATOM      1  C   UNL     1      10.337   5.988 -10.502  1.00  0.00     0.000 C 
ENDROOT
BRANCH   1   2
ATOM      2  C   UNL     1      10.107   6.621 -11.882  1.00  0.00     0.000 C 
BRANCH   2   3
ATOM      3  C   UNL     1      10.757   5.780 -12.987  1.00  0.00     0.000 C 
BRANCH   3   4
ATOM      4  C   UNL     1      10.756   6.532 -14.323  1.00  0.00     0.006 C 
BRANCH   4   5
ATOM      5  C   UNL     1      12.092   6.358 -15.053  1.00  0.00     0.053 C 
BRANCH   5   6
ATOM      6  C   UNL     1      12.412   7.577 -15.859  1.00  0.00     0.041 C 
ATOM      7  O   UNL     1      13.609   7.940 -16.011  1.00  0.00    -0.550 OA
ATOM      8  O   UNL     1      11.394   8.284 -16.485  1.00  0.00    -0.550 OA
ENDBRANCH   5   6
ENDBRANCH   4   5
ENDBRANCH   3   4
ENDBRANCH   2   3
ENDBRANCH   1   2
BRANCH   1   9
ATOM      9  C   UNL     1      11.409   6.728  -9.685  1.00  0.00     0.000 C 
BRANCH   9  10
ATOM     10  C   UNL     1      12.756   5.984  -9.665  1.00  0.00    -0.000 C 
BRANCH  10  11
ATOM     11  C   UNL     1      13.904   6.811 -10.271  1.00  0.00    -0.000 C 
BRANCH  11  12
ATOM     12  C   UNL     1      13.996   6.762 -11.808  1.00  0.00    -0.000 C 
BRANCH  12  13
ATOM     13  C   UNL     1      14.178   8.149 -12.440  1.00  0.00    -0.003 C 
ATOM     14  C   UNL     1      12.899   8.974 -12.334  1.00  0.00     0.004 C 
ENDBRANCH  12  13
ENDBRANCH  11  12
ENDBRANCH  10  11
ENDBRANCH   9  10
ENDBRANCH   1   9
TORSDOF 10
ENDMDL
