MODEL 1
REMARK VINA RESULT:    -5.368      0.000      0.000
REMARK INTER + INTRA:         -10.496
REMARK INTER:                  -9.290
REMARK INTRA:                  -1.206
REMARK UNBOUND:                -1.206
REMARK SMILES CCCCCCCCCCCCCCO
REMARK SMILES IDX 8 1 7 2 6 3 5 4 4 5 3 6 2 7 1 8 9 9 10 10 11 11 12 12 13 13
REMARK SMILES IDX 14 14 15 15
REMARK H PARENT 15 16
REMARK Flexibility Score: inf
ROOT
ATOM      1  C   UNL     1      19.898  -7.127  17.069  1.00  0.00     0.000 C 
ENDROOT
BRANCH   1   2
ATOM      2  C   UNL     1      21.180  -6.507  16.484  1.00  0.00    -0.000 C 
BRANCH   2   3
ATOM      3  C   UNL     1      21.038  -6.162  14.991  1.00  0.00    -0.000 C 
BRANCH   3   4
ATOM      4  C   UNL     1      21.512  -4.735  14.669  1.00  0.00    -0.000 C 
BRANCH   4   5
ATOM      5  C   UNL     1      20.425  -3.886  13.989  1.00  0.00    -0.000 C 
BRANCH   5   6
ATOM      6  C   UNL     1      19.130  -3.756  14.817  1.00  0.00    -0.000 C 
BRANCH   6   7
ATOM      7  C   UNL     1      19.377  -3.091  16.179  1.00  0.00    -0.003 C 
ATOM      8  C   UNL     1      18.643  -3.828  17.296  1.00  0.00     0.004 C 
ENDBRANCH   6   7
ENDBRANCH   5   6
ENDBRANCH   4   5
ENDBRANCH   3   4
ENDBRANCH   2   3
ENDBRANCH   1   2
BRANCH   1   9
ATOM      9  C   UNL     1      18.919  -7.598  15.981  1.00  0.00     0.000 C 
BRANCH   9  10
ATOM     10  C   UNL     1      18.164  -8.878  16.379  1.00  0.00     0.000 C 
BRANCH  10  11
ATOM     11  C   UNL     1      17.136  -9.310  15.320  1.00  0.00     0.000 C 
BRANCH  11  12
ATOM     12  C   UNL     1      16.480  -8.116  14.608  1.00  0.00     0.002 C 
BRANCH  12  13
ATOM     13  C   UNL     1      15.148  -8.527  13.965  1.00  0.00     0.028 C 
BRANCH  13  14
ATOM     14  C   UNL     1      14.075  -7.447  14.141  1.00  0.00     0.156 C 
BRANCH  14  15
ATOM     15  O   UNL     1      14.397  -6.295  13.409  1.00  0.00    -0.396 OA
ATOM     16  H   UNL     1      14.166  -6.487  12.462  1.00  0.00     0.210 HD
ENDBRANCH  14  15
ENDBRANCH  13  14
ENDBRANCH  12  13
ENDBRANCH  11  12
ENDBRANCH  10  11
ENDBRANCH   9  10
ENDBRANCH   1   9
TORSDOF 13
ENDMDL
MODEL 2
REMARK VINA RESULT:    -5.211      4.358      7.460
REMARK INTER + INTRA:         -10.225
REMARK INTER:                  -8.810
REMARK INTRA:                  -1.415
REMARK UNBOUND:                -1.206
REMARK SMILES CCCCCCCCCCCCCCO
REMARK SMILES IDX 8 1 7 2 6 3 5 4 4 5 3 6 2 7 1 8 9 9 10 10 11 11 12 12 13 13
REMARK SMILES IDX 14 14 15 15
REMARK H PARENT 15 16
REMARK Flexibility Score: inf
ROOT
ATOM      1  C   UNL     1      22.560  -5.317  14.783  1.00  0.00     0.000 C 
ENDROOT
BRANCH   1   2
ATOM      2  C   UNL     1      21.203  -6.023  14.616  1.00  0.00    -0.000 C 
BRANCH   2   3
ATOM      3  C   UNL     1      20.769  -6.773  15.887  1.00  0.00    -0.000 C 
BRANCH   3   4
ATOM      4  C   UNL     1      19.409  -6.292  16.420  1.00  0.00    -0.000 C 
BRANCH   4   5
ATOM      5  C   UNL     1      19.540  -5.169  17.463  1.00  0.00    -0.000 C 
BRANCH   5   6
ATOM      6  C   UNL     1      18.734  -3.901  17.114  1.00  0.00    -0.000 C 
BRANCH   6   7
ATOM      7  C   UNL     1      19.018  -3.407  15.688  1.00  0.00    -0.003 C 
ATOM      8  C   UNL     1      20.246  -2.502  15.652  1.00  0.00     0.004 C 
ENDBRANCH   6   7
ENDBRANCH   5   6
ENDBRANCH   4   5
ENDBRANCH   3   4
ENDBRANCH   2   3
ENDBRANCH   1   2
BRANCH   1   9
ATOM      9  C   UNL     1      23.017  -5.254  16.250  1.00  0.00     0.000 C 
BRANCH   9  10
ATOM     10  C   UNL     1      23.435  -3.837  16.679  1.00  0.00     0.000 C 
BRANCH  10  11
ATOM     11  C   UNL     1      24.840  -3.799  17.302  1.00  0.00     0.000 C 
BRANCH  11  12
ATOM     12  C   UNL     1      25.745  -2.735  16.663  1.00  0.00     0.002 C 
BRANCH  12  13
ATOM     13  C   UNL     1      25.005  -1.397  16.527  1.00  0.00     0.028 C 
BRANCH  13  14
ATOM     14  C   UNL     1      25.115  -0.554  17.802  1.00  0.00     0.156 C 
BRANCH  14  15
ATOM     15  O   UNL     1      23.861  -0.060  18.187  1.00  0.00    -0.396 OA
ATOM     16  H   UNL     1      23.960   0.273  19.118  1.00  0.00     0.210 HD
ENDBRANCH  14  15
ENDBRANCH  13  14
ENDBRANCH  12  13
ENDBRANCH  11  12
ENDBRANCH  10  11
ENDBRANCH   9  10
ENDBRANCH   1   9
TORSDOF 13
ENDMDL
MODEL 3
REMARK VINA RESULT:    -5.064      1.014      2.142
REMARK INTER + INTRA:          -9.970
REMARK INTER:                  -9.018
REMARK INTRA:                  -0.952
REMARK UNBOUND:                -1.206
REMARK SMILES CCCCCCCCCCCCCCO
REMARK SMILES IDX 8 1 7 2 6 3 5 4 4 5 3 6 2 7 1 8 9 9 10 10 11 11 12 12 13 13
REMARK SMILES IDX 14 14 15 15
REMARK H PARENT 15 16
REMARK Flexibility Score: inf
ROOT
ATOM      1  C   UNL     1      18.773  -9.074  16.002  1.00  0.00     0.000 C 
ENDROOT
BRANCH   1   2
ATOM      2  C   UNL     1      18.785  -7.542  16.156  1.00  0.00    -0.000 C 
BRANCH   2   3
ATOM      3  C   UNL     1      20.164  -6.931  15.852  1.00  0.00    -0.000 C 
BRANCH   3   4
ATOM      4  C   UNL     1      20.546  -5.818  16.842  1.00  0.00    -0.000 C 
BRANCH   4   5
ATOM      5  C   UNL     1      19.354  -4.922  17.219  1.00  0.00    -0.000 C 
BRANCH   5   6
ATOM      6  C   UNL     1      19.110  -3.765  16.228  1.00  0.00    -0.000 C 
BRANCH   6   7
ATOM      7  C   UNL     1      20.406  -3.300  15.548  1.00  0.00    -0.003 C 
ATOM      8  C   UNL     1      20.398  -3.632  14.059  1.00  0.00     0.004 C 
ENDBRANCH   6   7
ENDBRANCH   5   6
ENDBRANCH   4   5
ENDBRANCH   3   4
ENDBRANCH   2   3
ENDBRANCH   1   2
BRANCH   1   9
ATOM      9  C   UNL     1      17.638  -9.739  16.796  1.00  0.00     0.000 C 
BRANCH   9  10
ATOM     10  C   UNL     1      16.505 -10.253  15.891  1.00  0.00     0.000 C 
BRANCH  10  11
ATOM     11  C   UNL     1      16.844 -10.134  14.396  1.00  0.00     0.000 C 
BRANCH  11  12
ATOM     12  C   UNL     1      15.838  -9.265  13.625  1.00  0.00     0.002 C 
BRANCH  12  13
ATOM     13  C   UNL     1      15.701  -7.881  14.274  1.00  0.00     0.028 C 
BRANCH  13  14
ATOM     14  C   UNL     1      14.285  -7.317  14.117  1.00  0.00     0.156 C 
BRANCH  14  15
ATOM     15  O   UNL     1      14.259  -6.283  13.170  1.00  0.00    -0.396 OA
ATOM     16  H   UNL     1      13.365  -6.317  12.737  1.00  0.00     0.210 HD
ENDBRANCH  14  15
ENDBRANCH  13  14
ENDBRANCH  12  13
ENDBRANCH  11  12
ENDBRANCH  10  11
ENDBRANCH   9  10
ENDBRANCH   1   9
TORSDOF 13
ENDMDL
MODEL 4
REMARK VINA RESULT:    -5.053      2.057      5.932
REMARK INTER + INTRA:          -9.951
REMARK INTER:                  -9.082
REMARK INTRA:                  -0.869
REMARK UNBOUND:                -1.206
REMARK SMILES CCCCCCCCCCCCCCO
REMARK SMILES IDX 8 1 7 2 6 3 5 4 4 5 3 6 2 7 1 8 9 9 10 10 11 11 12 12 13 13
REMARK SMILES IDX 14 14 15 15
REMARK H PARENT 15 16
REMARK Flexibility Score: inf
ROOT
ATOM      1  C   UNL     1      18.816  -7.378  15.900  1.00  0.00     0.000 C 
ENDROOT
BRANCH   1   2
ATOM      2  C   UNL     1      18.574  -8.897  15.847  1.00  0.00    -0.000 C 
BRANCH   2   3
ATOM      3  C   UNL     1      17.078  -9.253  15.798  1.00  0.00    -0.000 C 
BRANCH   3   4
ATOM      4  C   UNL     1      16.672  -9.913  14.470  1.00  0.00    -0.000 C 
BRANCH   4   5
ATOM      5  C   UNL     1      15.985  -8.933  13.503  1.00  0.00    -0.000 C 
BRANCH   5   6
ATOM      6  C   UNL     1      15.388  -7.692  14.199  1.00  0.00    -0.000 C 
BRANCH   6   7
ATOM      7  C   UNL     1      13.886  -7.536  13.918  1.00  0.00    -0.003 C 
ATOM      8  C   UNL     1      13.061  -8.475  14.794  1.00  0.00     0.004 C 
ENDBRANCH   6   7
ENDBRANCH   5   6
ENDBRANCH   4   5
ENDBRANCH   3   4
ENDBRANCH   2   3
ENDBRANCH   1   2
BRANCH   1   9
ATOM      9  C   UNL     1      19.453  -6.926  17.224  1.00  0.00     0.000 C 
BRANCH   9  10
ATOM     10  C   UNL     1      20.038  -5.505  17.145  1.00  0.00     0.000 C 
BRANCH  10  11
ATOM     11  C   UNL     1      18.950  -4.425  17.034  1.00  0.00     0.000 C 
BRANCH  11  12
ATOM     12  C   UNL     1      19.453  -3.143  16.352  1.00  0.00     0.002 C 
BRANCH  12  13
ATOM     13  C   UNL     1      20.775  -3.398  15.615  1.00  0.00     0.028 C 
BRANCH  13  14
ATOM     14  C   UNL     1      20.548  -3.710  14.131  1.00  0.00     0.156 C 
BRANCH  14  15
ATOM     15  O   UNL     1      21.026  -4.988  13.809  1.00  0.00    -0.396 OA
ATOM     16  H   UNL     1      22.017  -4.937  13.841  1.00  0.00     0.210 HD
ENDBRANCH  14  15
ENDBRANCH  13  14
ENDBRANCH  12  13
ENDBRANCH  11  12
ENDBRANCH  10  11
ENDBRANCH   9  10
ENDBRANCH   1   9
TORSDOF 13
ENDMDL
MODEL 5
REMARK VINA RESULT:    -5.049      3.973      7.261
REMARK INTER + INTRA:          -9.944
REMARK INTER:                  -8.817
REMARK INTRA:                  -1.126
REMARK UNBOUND:                -1.206
REMARK SMILES CCCCCCCCCCCCCCO
REMARK SMILES IDX 8 1 7 2 6 3 5 4 4 5 3 6 2 7 1 8 9 9 10 10 11 11 12 12 13 13
REMARK SMILES IDX 14 14 15 15
REMARK H PARENT 15 16
REMARK Flexibility Score: inf
ROOT
ATOM      1  C   UNL     1      20.897  -3.935  14.268  1.00  0.00     0.000 C 
ENDROOT
BRANCH   1   2
ATOM      2  C   UNL     1      20.381  -3.120  15.468  1.00  0.00    -0.000 C 
BRANCH   2   3
ATOM      3  C   UNL     1      18.957  -3.526  15.886  1.00  0.00    -0.000 C 
BRANCH   3   4
ATOM      4  C   UNL     1      18.930  -4.292  17.219  1.00  0.00    -0.000 C 
BRANCH   4   5
ATOM      5  C   UNL     1      19.486  -5.721  17.095  1.00  0.00    -0.000 C 
BRANCH   5   6
ATOM      6  C   UNL     1      18.964  -6.485  15.861  1.00  0.00    -0.000 C 
BRANCH   6   7
ATOM      7  C   UNL     1      18.693  -7.965  16.167  1.00  0.00    -0.003 C 
ATOM      8  C   UNL     1      18.800  -8.249  17.663  1.00  0.00     0.004 C 
ENDBRANCH   6   7
ENDBRANCH   5   6
ENDBRANCH   4   5
ENDBRANCH   3   4
ENDBRANCH   2   3
ENDBRANCH   1   2
BRANCH   1   9
ATOM      9  C   UNL     1      22.089  -4.834  14.633  1.00  0.00     0.000 C 
BRANCH   9  10
ATOM     10  C   UNL     1      22.661  -4.521  16.027  1.00  0.00     0.000 C 
BRANCH  10  11
ATOM     11  C   UNL     1      24.174  -4.782  16.116  1.00  0.00     0.000 C 
BRANCH  11  12
ATOM     12  C   UNL     1      24.971  -3.529  16.514  1.00  0.00     0.002 C 
BRANCH  12  13
ATOM     13  C   UNL     1      24.042  -2.449  17.086  1.00  0.00     0.028 C 
BRANCH  13  14
ATOM     14  C   UNL     1      24.764  -1.106  17.248  1.00  0.00     0.156 C 
BRANCH  14  15
ATOM     15  O   UNL     1      24.009  -0.223  18.033  1.00  0.00    -0.396 OA
ATOM     16  H   UNL     1      24.629   0.155  18.711  1.00  0.00     0.210 HD
ENDBRANCH  14  15
ENDBRANCH  13  14
ENDBRANCH  12  13
ENDBRANCH  11  12
ENDBRANCH  10  11
ENDBRANCH   9  10
ENDBRANCH   1   9
TORSDOF 13
ENDMDL
MODEL 6
REMARK VINA RESULT:    -5.000      4.549      7.700
REMARK INTER + INTRA:          -9.860
REMARK INTER:                  -8.681
REMARK INTRA:                  -1.179
REMARK UNBOUND:                -1.206
REMARK SMILES CCCCCCCCCCCCCCO
REMARK SMILES IDX 8 1 7 2 6 3 5 4 4 5 3 6 2 7 1 8 9 9 10 10 11 11 12 12 13 13
REMARK SMILES IDX 14 14 15 15
REMARK H PARENT 15 16
REMARK Flexibility Score: inf
ROOT
ATOM      1  C   UNL     1      22.754  -4.979  15.708  1.00  0.00     0.000 C 
ENDROOT
BRANCH   1   2
ATOM      2  C   UNL     1      22.078  -3.754  16.349  1.00  0.00    -0.000 C 
BRANCH   2   3
ATOM      3  C   UNL     1      21.004  -3.132  15.440  1.00  0.00    -0.000 C 
BRANCH   3   4
ATOM      4  C   UNL     1      19.749  -2.703  16.218  1.00  0.00    -0.000 C 
BRANCH   4   5
ATOM      5  C   UNL     1      18.787  -3.872  16.487  1.00  0.00    -0.000 C 
BRANCH   5   6
ATOM      6  C   UNL     1      18.580  -4.798  15.271  1.00  0.00    -0.000 C 
BRANCH   6   7
ATOM      7  C   UNL     1      19.133  -6.210  15.516  1.00  0.00    -0.003 C 
ATOM      8  C   UNL     1      19.479  -6.420  16.988  1.00  0.00     0.004 C 
ENDBRANCH   6   7
ENDBRANCH   5   6
ENDBRANCH   4   5
ENDBRANCH   3   4
ENDBRANCH   2   3
ENDBRANCH   1   2
BRANCH   1   9
ATOM      9  C   UNL     1      24.073  -5.357  16.400  1.00  0.00     0.000 C 
BRANCH   9  10
ATOM     10  C   UNL     1      25.310  -4.934  15.588  1.00  0.00     0.000 C 
BRANCH  10  11
ATOM     11  C   UNL     1      26.186  -3.915  16.335  1.00  0.00     0.000 C 
BRANCH  11  12
ATOM     12  C   UNL     1      25.369  -2.981  17.242  1.00  0.00     0.002 C 
BRANCH  12  13
ATOM     13  C   UNL     1      25.312  -1.563  16.659  1.00  0.00     0.028 C 
BRANCH  13  14
ATOM     14  C   UNL     1      25.260  -0.497  17.758  1.00  0.00     0.156 C 
BRANCH  14  15
ATOM     15  O   UNL     1      23.934  -0.194  18.102  1.00  0.00    -0.396 OA
ATOM     16  H   UNL     1      23.362  -0.863  17.641  1.00  0.00     0.210 HD
ENDBRANCH  14  15
ENDBRANCH  13  14
ENDBRANCH  12  13
ENDBRANCH  11  12
ENDBRANCH  10  11
ENDBRANCH   9  10
ENDBRANCH   1   9
TORSDOF 13
ENDMDL
MODEL 7
REMARK VINA RESULT:    -4.982      3.835      5.667
REMARK INTER + INTRA:          -9.829
REMARK INTER:                  -8.932
REMARK INTRA:                  -0.897
REMARK UNBOUND:                -1.206
REMARK SMILES CCCCCCCCCCCCCCO
REMARK SMILES IDX 8 1 7 2 6 3 5 4 4 5 3 6 2 7 1 8 9 9 10 10 11 11 12 12 13 13
REMARK SMILES IDX 14 14 15 15
REMARK H PARENT 15 16
REMARK Flexibility Score: inf
ROOT
ATOM      1  C   UNL     1      21.938  -5.032  14.583  1.00  0.00     0.000 C 
ENDROOT
BRANCH   1   2
ATOM      2  C   UNL     1      22.675  -4.637  15.875  1.00  0.00    -0.000 C 
BRANCH   2   3
ATOM      3  C   UNL     1      24.070  -5.278  15.975  1.00  0.00    -0.000 C 
BRANCH   3   4
ATOM      4  C   UNL     1      25.187  -4.235  16.141  1.00  0.00    -0.000 C 
BRANCH   4   5
ATOM      5  C   UNL     1      24.844  -3.155  17.181  1.00  0.00    -0.000 C 
BRANCH   5   6
ATOM      6  C   UNL     1      25.250  -1.730  16.753  1.00  0.00    -0.000 C 
BRANCH   6   7
ATOM      7  C   UNL     1      25.459  -0.799  17.957  1.00  0.00    -0.003 C 
ATOM      8  C   UNL     1      26.256  -1.493  19.059  1.00  0.00     0.004 C 
ENDBRANCH   6   7
ENDBRANCH   5   6
ENDBRANCH   4   5
ENDBRANCH   3   4
ENDBRANCH   2   3
ENDBRANCH   1   2
BRANCH   1   9
ATOM      9  C   UNL     1      20.813  -4.050  14.220  1.00  0.00     0.000 C 
BRANCH   9  10
ATOM     10  C   UNL     1      20.541  -3.024  15.334  1.00  0.00     0.000 C 
BRANCH  10  11
ATOM     11  C   UNL     1      19.128  -3.156  15.926  1.00  0.00     0.000 C 
BRANCH  11  12
ATOM     12  C   UNL     1      18.694  -4.619  16.107  1.00  0.00     0.002 C 
BRANCH  12  13
ATOM     13  C   UNL     1      19.441  -5.270  17.278  1.00  0.00     0.028 C 
BRANCH  13  14
ATOM     14  C   UNL     1      19.695  -6.761  17.032  1.00  0.00     0.156 C 
BRANCH  14  15
ATOM     15  O   UNL     1      19.046  -7.547  17.995  1.00  0.00    -0.396 OA
ATOM     16  H   UNL     1      19.726  -8.178  18.352  1.00  0.00     0.210 HD
ENDBRANCH  14  15
ENDBRANCH  13  14
ENDBRANCH  12  13
ENDBRANCH  11  12
ENDBRANCH  10  11
ENDBRANCH   9  10
ENDBRANCH   1   9
TORSDOF 13
ENDMDL
MODEL 8
REMARK VINA RESULT:    -4.868      3.778      7.059
REMARK INTER + INTRA:          -9.631
REMARK INTER:                  -8.344
REMARK INTRA:                  -1.287
REMARK UNBOUND:                -1.206
REMARK SMILES CCCCCCCCCCCCCCO
REMARK SMILES IDX 8 1 7 2 6 3 5 4 4 5 3 6 2 7 1 8 9 9 10 10 11 11 12 12 13 13
REMARK SMILES IDX 14 14 15 15
REMARK H PARENT 15 16
REMARK Flexibility Score: inf
ROOT
ATOM      1  C   UNL     1      21.807  -4.905  14.498  1.00  0.00     0.000 C 
ENDROOT
BRANCH   1   2
ATOM      2  C   UNL     1      20.927  -3.665  14.735  1.00  0.00    -0.000 C 
BRANCH   2   3
ATOM      3  C   UNL     1      19.465  -3.893  14.315  1.00  0.00    -0.000 C 
BRANCH   3   4
ATOM      4  C   UNL     1      18.511  -3.971  15.518  1.00  0.00    -0.000 C 
BRANCH   4   5
ATOM      5  C   UNL     1      19.254  -4.015  16.865  1.00  0.00    -0.000 C 
BRANCH   5   6
ATOM      6  C   UNL     1      19.620  -5.441  17.326  1.00  0.00    -0.000 C 
BRANCH   6   7
ATOM      7  C   UNL     1      18.991  -6.519  16.430  1.00  0.00    -0.003 C 
ATOM      8  C   UNL     1      20.003  -7.609  16.086  1.00  0.00     0.004 C 
ENDBRANCH   6   7
ENDBRANCH   5   6
ENDBRANCH   4   5
ENDBRANCH   3   4
ENDBRANCH   2   3
ENDBRANCH   1   2
BRANCH   1   9
ATOM      9  C   UNL     1      23.002  -4.976  15.463  1.00  0.00     0.000 C 
BRANCH   9  10
ATOM     10  C   UNL     1      22.958  -3.879  16.541  1.00  0.00     0.000 C 
BRANCH  10  11
ATOM     11  C   UNL     1      24.326  -3.649  17.204  1.00  0.00     0.000 C 
BRANCH  11  12
ATOM     12  C   UNL     1      25.422  -4.567  16.640  1.00  0.00     0.002 C 
BRANCH  12  13
ATOM     13  C   UNL     1      25.909  -5.557  17.707  1.00  0.00     0.028 C 
BRANCH  13  14
ATOM     14  C   UNL     1      25.616  -7.009  17.312  1.00  0.00     0.156 C 
BRANCH  14  15
ATOM     15  O   UNL     1      24.282  -7.343  17.586  1.00  0.00    -0.396 OA
ATOM     16  H   UNL     1      23.954  -6.682  18.251  1.00  0.00     0.210 HD
ENDBRANCH  14  15
ENDBRANCH  13  14
ENDBRANCH  12  13
ENDBRANCH  11  12
ENDBRANCH  10  11
ENDBRANCH   9  10
ENDBRANCH   1   9
TORSDOF 13
ENDMDL
MODEL 9
REMARK VINA RESULT:    -4.848      4.518      7.510
REMARK INTER + INTRA:          -9.596
REMARK INTER:                  -8.389
REMARK INTRA:                  -1.207
REMARK UNBOUND:                -1.206
REMARK SMILES CCCCCCCCCCCCCCO
REMARK SMILES IDX 8 1 7 2 6 3 5 4 4 5 3 6 2 7 1 8 9 9 10 10 11 11 12 12 13 13
REMARK SMILES IDX 14 14 15 15
REMARK H PARENT 15 16
REMARK Flexibility Score: inf
ROOT
ATOM      1  C   UNL     1      23.163  -5.389  14.920  1.00  0.00     0.000 C 
ENDROOT
BRANCH   1   2
ATOM      2  C   UNL     1      22.429  -5.120  16.246  1.00  0.00    -0.000 C 
BRANCH   2   3
ATOM      3  C   UNL     1      21.600  -6.329  16.715  1.00  0.00    -0.000 C 
BRANCH   3   4
ATOM      4  C   UNL     1      20.644  -6.844  15.627  1.00  0.00    -0.000 C 
BRANCH   4   5
ATOM      5  C   UNL     1      19.224  -6.266  15.759  1.00  0.00    -0.000 C 
BRANCH   5   6
ATOM      6  C   UNL     1      18.966  -5.045  14.852  1.00  0.00    -0.000 C 
BRANCH   6   7
ATOM      7  C   UNL     1      18.315  -3.882  15.616  1.00  0.00    -0.003 C 
ATOM      8  C   UNL     1      18.868  -3.776  17.035  1.00  0.00     0.004 C 
ENDBRANCH   6   7
ENDBRANCH   5   6
ENDBRANCH   4   5
ENDBRANCH   3   4
ENDBRANCH   2   3
ENDBRANCH   1   2
BRANCH   1   9
ATOM      9  C   UNL     1      24.692  -5.322  15.066  1.00  0.00     0.000 C 
BRANCH   9  10
ATOM     10  C   UNL     1      25.144  -5.263  16.535  1.00  0.00     0.000 C 
BRANCH  10  11
ATOM     11  C   UNL     1      26.039  -4.048  16.828  1.00  0.00     0.000 C 
BRANCH  11  12
ATOM     12  C   UNL     1      25.363  -3.019  17.748  1.00  0.00     0.002 C 
BRANCH  12  13
ATOM     13  C   UNL     1      24.780  -1.856  16.933  1.00  0.00     0.028 C 
BRANCH  13  14
ATOM     14  C   UNL     1      24.988  -0.510  17.635  1.00  0.00     0.156 C 
BRANCH  14  15
ATOM     15  O   UNL     1      23.780  -0.026  18.159  1.00  0.00    -0.396 OA
ATOM     16  H   UNL     1      23.583  -0.571  18.967  1.00  0.00     0.210 HD
ENDBRANCH  14  15
ENDBRANCH  13  14
ENDBRANCH  12  13
ENDBRANCH  11  12
ENDBRANCH  10  11
ENDBRANCH   9  10
ENDBRANCH   1   9
TORSDOF 13
ENDMDL
