MODEL 1
REMARK VINA RESULT:    -6.913      0.000      0.000
REMARK INTER + INTRA:          -8.544
REMARK INTER:                  -8.530
REMARK INTRA:                  -0.014
REMARK UNBOUND:                -0.014
REMARK SMILES O=c1c(O)c(-c2cc(O)c(O)c(O)c2)oc2cc(O)cc(O)c12
REMARK SMILES IDX 5 1 3 2 2 3 1 4 23 5 21 6 20 7 18 8 17 9 16 10 15 11 6 12
REMARK SMILES IDX 7 13 8 14 14 15 10 16 12 17 9 18 11 20 13 22 4 24 22 26
REMARK SMILES IDX 19 28
REMARK H PARENT 9 19 11 21 13 23 4 25 22 27 19 29
REMARK Flexibility Score: inf
ROOT
ATOM      1  C   UNL     1      52.971  34.185  48.552  1.00  0.00     0.180 A 
ATOM      2  C   UNL     1      53.728  33.865  49.693  1.00  0.00     0.208 A 
ATOM      3  C   UNL     1      53.707  32.548  50.176  1.00  0.00     0.238 A 
ATOM      4  O   UNL     1      54.429  32.255  51.165  1.00  0.00    -0.285 OA
ATOM      5  C   UNL     1      52.916  31.570  49.525  1.00  0.00     0.111 A 
ATOM      6  C   UNL     1      52.788  30.215  49.953  1.00  0.00     0.134 A 
ATOM      7  C   UNL     1      52.083  29.303  49.158  1.00  0.00     0.093 A 
ATOM      8  C   UNL     1      51.445  29.714  47.984  1.00  0.00     0.123 A 
ATOM      9  C   UNL     1      51.515  31.047  47.590  1.00  0.00     0.094 A 
ATOM     10  C   UNL     1      52.242  31.973  48.343  1.00  0.00     0.146 A 
ATOM     11  O   UNL     1      52.291  33.231  47.925  1.00  0.00    -0.452 OA
ENDROOT
BRANCH   1  12
ATOM     12  C   UNL     1      52.923  35.557  47.997  1.00  0.00     0.029 A 
ATOM     13  C   UNL     1      53.038  35.747  46.613  1.00  0.00     0.062 A 
ATOM     14  C   UNL     1      52.976  37.027  46.053  1.00  0.00     0.162 A 
ATOM     15  C   UNL     1      52.706  36.671  48.823  1.00  0.00     0.062 A 
ATOM     16  C   UNL     1      52.781  38.150  46.893  1.00  0.00     0.200 A 
ATOM     17  C   UNL     1      52.641  37.957  48.280  1.00  0.00     0.162 A 
BRANCH  14  18
ATOM     18  O   UNL     1      53.111  37.136  44.667  1.00  0.00    -0.504 OA
ATOM     19  H   UNL     1      53.135  38.012  44.166  1.00  0.00     0.293 HD
ENDBRANCH  14  18
BRANCH  16  20
ATOM     20  O   UNL     1      52.718  39.454  46.394  1.00  0.00    -0.502 OA
ATOM     21  H   UNL     1      53.374  40.184  46.630  1.00  0.00     0.293 HD
ENDBRANCH  16  20
BRANCH  17  22
ATOM     22  O   UNL     1      52.431  39.037  49.139  1.00  0.00    -0.504 OA
ATOM     23  H   UNL     1      53.162  39.405  49.735  1.00  0.00     0.293 HD
ENDBRANCH  17  22
ENDBRANCH   1  12
BRANCH   2  24
ATOM     24  O   UNL     1      54.519  34.840  50.307  1.00  0.00    -0.502 OA
ATOM     25  H   UNL     1      55.308  35.272  49.844  1.00  0.00     0.293 HD
ENDBRANCH   2  24
BRANCH   6  26
ATOM     26  O   UNL     1      53.307  29.724  51.155  1.00  0.00    -0.507 OA
ATOM     27  H   UNL     1      52.820  29.101  51.781  1.00  0.00     0.293 HD
ENDBRANCH   6  26
BRANCH   8  28
ATOM     28  O   UNL     1      50.732  28.803  47.207  1.00  0.00    -0.508 OA
ATOM     29  H   UNL     1      49.908  29.081  46.687  1.00  0.00     0.293 HD
ENDBRANCH   8  28
TORSDOF 7
ENDMDL
MODEL 2
REMARK VINA RESULT:    -6.751      2.946      6.839
REMARK INTER + INTRA:          -8.345
REMARK INTER:                  -7.997
REMARK INTRA:                  -0.347
REMARK UNBOUND:                -0.014
REMARK SMILES O=c1c(O)c(-c2cc(O)c(O)c(O)c2)oc2cc(O)cc(O)c12
REMARK SMILES IDX 5 1 3 2 2 3 1 4 23 5 21 6 20 7 18 8 17 9 16 10 15 11 6 12
REMARK SMILES IDX 7 13 8 14 14 15 10 16 12 17 9 18 11 20 13 22 4 24 22 26
REMARK SMILES IDX 19 28
REMARK H PARENT 9 19 11 21 13 23 4 25 22 27 19 29
REMARK Flexibility Score: inf
ROOT
ATOM      1  C   UNL     1      51.977  31.508  49.217  1.00  0.00     0.180 A 
ATOM      2  C   UNL     1      52.301  32.686  48.522  1.00  0.00     0.208 A 
ATOM      3  C   UNL     1      53.473  33.378  48.866  1.00  0.00     0.238 A 
ATOM      4  O   UNL     1      53.786  34.402  48.203  1.00  0.00    -0.285 OA
ATOM      5  C   UNL     1      54.297  32.895  49.911  1.00  0.00     0.111 A 
ATOM      6  C   UNL     1      55.485  33.538  50.369  1.00  0.00     0.134 A 
ATOM      7  C   UNL     1      56.292  32.902  51.320  1.00  0.00     0.093 A 
ATOM      8  C   UNL     1      55.918  31.676  51.877  1.00  0.00     0.123 A 
ATOM      9  C   UNL     1      54.730  31.069  51.480  1.00  0.00     0.094 A 
ATOM     10  C   UNL     1      53.922  31.662  50.505  1.00  0.00     0.146 A 
ATOM     11  O   UNL     1      52.804  31.044  50.148  1.00  0.00    -0.452 OA
ENDROOT
BRANCH   1  12
ATOM     12  C   UNL     1      50.746  30.736  48.929  1.00  0.00     0.029 A 
ATOM     13  C   UNL     1      49.533  31.129  49.512  1.00  0.00     0.062 A 
ATOM     14  C   UNL     1      48.347  30.436  49.246  1.00  0.00     0.162 A 
ATOM     15  C   UNL     1      50.755  29.653  48.037  1.00  0.00     0.062 A 
ATOM     16  C   UNL     1      48.366  29.329  48.364  1.00  0.00     0.200 A 
ATOM     17  C   UNL     1      49.580  28.950  47.759  1.00  0.00     0.162 A 
BRANCH  14  18
ATOM     18  O   UNL     1      47.181  30.880  49.875  1.00  0.00    -0.504 OA
ATOM     19  H   UNL     1      46.893  31.846  49.919  1.00  0.00     0.293 HD
ENDBRANCH  14  18
BRANCH  16  20
ATOM     20  O   UNL     1      47.217  28.593  48.064  1.00  0.00    -0.502 OA
ATOM     21  H   UNL     1      46.370  28.993  47.685  1.00  0.00     0.293 HD
ENDBRANCH  16  20
BRANCH  17  22
ATOM     22  O   UNL     1      49.636  27.875  46.870  1.00  0.00    -0.504 OA
ATOM     23  H   UNL     1      49.242  26.969  47.092  1.00  0.00     0.293 HD
ENDBRANCH  17  22
ENDBRANCH   1  12
BRANCH   2  24
ATOM     24  O   UNL     1      51.485  33.134  47.480  1.00  0.00    -0.502 OA
ATOM     25  H   UNL     1      51.127  34.080  47.437  1.00  0.00     0.293 HD
ENDBRANCH   2  24
BRANCH   6  26
ATOM     26  O   UNL     1      55.900  34.804  49.945  1.00  0.00    -0.507 OA
ATOM     27  H   UNL     1      56.425  35.456  50.508  1.00  0.00     0.293 HD
ENDBRANCH   6  26
BRANCH   8  28
ATOM     28  O   UNL     1      56.719  31.057  52.835  1.00  0.00    -0.508 OA
ATOM     29  H   UNL     1      56.977  30.080  52.760  1.00  0.00     0.293 HD
ENDBRANCH   8  28
TORSDOF 7
ENDMDL
MODEL 3
REMARK VINA RESULT:    -6.725      3.746      5.484
REMARK INTER + INTRA:          -8.312
REMARK INTER:                  -8.372
REMARK INTRA:                   0.060
REMARK UNBOUND:                -0.014
REMARK SMILES O=c1c(O)c(-c2cc(O)c(O)c(O)c2)oc2cc(O)cc(O)c12
REMARK SMILES IDX 5 1 3 2 2 3 1 4 23 5 21 6 20 7 18 8 17 9 16 10 15 11 6 12
REMARK SMILES IDX 7 13 8 14 14 15 10 16 12 17 9 18 11 20 13 22 4 24 22 26
REMARK SMILES IDX 19 28
REMARK H PARENT 9 19 11 21 13 23 4 25 22 27 19 29
REMARK Flexibility Score: inf
ROOT
ATOM      1  C   UNL     1      52.676  31.020  49.469  1.00  0.00     0.180 A 
ATOM      2  C   UNL     1      52.393  29.650  49.610  1.00  0.00     0.208 A 
ATOM      3  C   UNL     1      51.283  29.112  48.940  1.00  0.00     0.238 A 
ATOM      4  O   UNL     1      51.067  27.875  49.025  1.00  0.00    -0.285 OA
ATOM      5  C   UNL     1      50.460  29.952  48.152  1.00  0.00     0.111 A 
ATOM      6  C   UNL     1      49.287  29.522  47.462  1.00  0.00     0.134 A 
ATOM      7  C   UNL     1      48.623  30.410  46.607  1.00  0.00     0.093 A 
ATOM      8  C   UNL     1      49.053  31.732  46.468  1.00  0.00     0.123 A 
ATOM      9  C   UNL     1      50.161  32.178  47.183  1.00  0.00     0.094 A 
ATOM     10  C   UNL     1      50.866  31.305  48.017  1.00  0.00     0.146 A 
ATOM     11  O   UNL     1      51.923  31.769  48.671  1.00  0.00    -0.452 OA
ENDROOT
BRANCH   1  12
ATOM     12  C   UNL     1      53.813  31.665  50.164  1.00  0.00     0.029 A 
ATOM     13  C   UNL     1      54.561  32.647  49.500  1.00  0.00     0.062 A 
ATOM     14  C   UNL     1      55.629  33.292  50.133  1.00  0.00     0.162 A 
ATOM     15  C   UNL     1      54.125  31.356  51.498  1.00  0.00     0.062 A 
ATOM     16  C   UNL     1      55.954  32.959  51.470  1.00  0.00     0.200 A 
ATOM     17  C   UNL     1      55.188  31.991  52.145  1.00  0.00     0.162 A 
BRANCH  14  18
ATOM     18  O   UNL     1      56.335  34.250  49.401  1.00  0.00    -0.504 OA
ATOM     19  H   UNL     1      57.009  34.886  49.801  1.00  0.00     0.293 HD
ENDBRANCH  14  18
BRANCH  16  20
ATOM     20  O   UNL     1      57.013  33.563  52.154  1.00  0.00    -0.502 OA
ATOM     21  H   UNL     1      56.928  33.999  53.061  1.00  0.00     0.293 HD
ENDBRANCH  16  20
BRANCH  17  22
ATOM     22  O   UNL     1      55.466  31.647  53.470  1.00  0.00    -0.504 OA
ATOM     23  H   UNL     1      54.745  31.598  54.179  1.00  0.00     0.293 HD
ENDBRANCH  17  22
ENDBRANCH   1  12
BRANCH   2  24
ATOM     24  O   UNL     1      53.231  28.834  50.375  1.00  0.00    -0.502 OA
ATOM     25  H   UNL     1      53.344  28.955  51.374  1.00  0.00     0.293 HD
ENDBRANCH   2  24
BRANCH   6  26
ATOM     26  O   UNL     1      48.722  28.251  47.603  1.00  0.00    -0.507 OA
ATOM     27  H   UNL     1      49.246  27.394  47.691  1.00  0.00     0.293 HD
ENDBRANCH   6  26
BRANCH   8  28
ATOM     28  O   UNL     1      48.377  32.614  45.628  1.00  0.00    -0.508 OA
ATOM     29  H   UNL     1      48.277  33.596  45.859  1.00  0.00     0.293 HD
ENDBRANCH   8  28
TORSDOF 7
ENDMDL
MODEL 4
REMARK VINA RESULT:    -6.526      2.194      6.962
REMARK INTER + INTRA:          -8.067
REMARK INTER:                  -7.837
REMARK INTRA:                  -0.230
REMARK UNBOUND:                -0.014
REMARK SMILES O=c1c(O)c(-c2cc(O)c(O)c(O)c2)oc2cc(O)cc(O)c12
REMARK SMILES IDX 5 1 3 2 2 3 1 4 23 5 21 6 20 7 18 8 17 9 16 10 15 11 6 12
REMARK SMILES IDX 7 13 8 14 14 15 10 16 12 17 9 18 11 20 13 22 4 24 22 26
REMARK SMILES IDX 19 28
REMARK H PARENT 9 19 11 21 13 23 4 25 22 27 19 29
REMARK Flexibility Score: inf
ROOT
ATOM      1  C   UNL     1      52.489  34.513  48.943  1.00  0.00     0.180 A 
ATOM      2  C   UNL     1      51.102  34.709  49.072  1.00  0.00     0.208 A 
ATOM      3  C   UNL     1      50.463  35.626  48.222  1.00  0.00     0.238 A 
ATOM      4  O   UNL     1      49.215  35.757  48.306  1.00  0.00    -0.285 OA
ATOM      5  C   UNL     1      51.219  36.347  47.266  1.00  0.00     0.111 A 
ATOM      6  C   UNL     1      50.682  37.329  46.382  1.00  0.00     0.134 A 
ATOM      7  C   UNL     1      51.497  37.884  45.388  1.00  0.00     0.093 A 
ATOM      8  C   UNL     1      52.848  37.540  45.290  1.00  0.00     0.123 A 
ATOM      9  C   UNL     1      53.396  36.627  46.187  1.00  0.00     0.094 A 
ATOM     10  C   UNL     1      52.599  36.028  47.166  1.00  0.00     0.146 A 
ATOM     11  O   UNL     1      53.159  35.155  47.993  1.00  0.00    -0.452 OA
ENDROOT
BRANCH   1  12
ATOM     12  C   UNL     1      53.237  33.582  49.819  1.00  0.00     0.029 A 
ATOM     13  C   UNL     1      54.116  34.097  50.782  1.00  0.00     0.062 A 
ATOM     14  C   UNL     1      54.824  33.248  51.640  1.00  0.00     0.162 A 
ATOM     15  C   UNL     1      53.042  32.194  49.746  1.00  0.00     0.062 A 
ATOM     16  C   UNL     1      54.641  31.848  51.546  1.00  0.00     0.200 A 
ATOM     17  C   UNL     1      53.740  31.332  50.596  1.00  0.00     0.162 A 
BRANCH  14  18
ATOM     18  O   UNL     1      55.690  33.836  52.565  1.00  0.00    -0.504 OA
ATOM     19  H   UNL     1      55.427  34.095  53.504  1.00  0.00     0.293 HD
ENDBRANCH  14  18
BRANCH  16  20
ATOM     20  O   UNL     1      55.324  30.949  52.370  1.00  0.00    -0.502 OA
ATOM     21  H   UNL     1      55.742  30.088  52.046  1.00  0.00     0.293 HD
ENDBRANCH  16  20
BRANCH  17  22
ATOM     22  O   UNL     1      53.520  29.958  50.483  1.00  0.00    -0.504 OA
ATOM     23  H   UNL     1      52.688  29.577  50.051  1.00  0.00     0.293 HD
ENDBRANCH  17  22
ENDBRANCH   1  12
BRANCH   2  24
ATOM     24  O   UNL     1      50.372  33.972  50.008  1.00  0.00    -0.502 OA
ATOM     25  H   UNL     1      50.091  34.354  50.902  1.00  0.00     0.293 HD
ENDBRANCH   2  24
BRANCH   6  26
ATOM     26  O   UNL     1      49.371  37.810  46.455  1.00  0.00    -0.507 OA
ATOM     27  H   UNL     1      48.669  37.474  47.096  1.00  0.00     0.293 HD
ENDBRANCH   6  26
BRANCH   8  28
ATOM     28  O   UNL     1      53.656  38.110  44.309  1.00  0.00    -0.508 OA
ATOM     29  H   UNL     1      54.523  37.674  44.017  1.00  0.00     0.293 HD
ENDBRANCH   8  28
TORSDOF 7
ENDMDL
MODEL 5
REMARK VINA RESULT:    -6.482      1.628      3.775
REMARK INTER + INTRA:          -8.013
REMARK INTER:                  -7.726
REMARK INTRA:                  -0.287
REMARK UNBOUND:                -0.014
REMARK SMILES O=c1c(O)c(-c2cc(O)c(O)c(O)c2)oc2cc(O)cc(O)c12
REMARK SMILES IDX 5 1 3 2 2 3 1 4 23 5 21 6 20 7 18 8 17 9 16 10 15 11 6 12
REMARK SMILES IDX 7 13 8 14 14 15 10 16 12 17 9 18 11 20 13 22 4 24 22 26
REMARK SMILES IDX 19 28
REMARK H PARENT 9 19 11 21 13 23 4 25 22 27 19 29
REMARK Flexibility Score: inf
ROOT
ATOM      1  C   UNL     1      53.073  34.739  48.790  1.00  0.00     0.180 A 
ATOM      2  C   UNL     1      52.227  33.617  48.730  1.00  0.00     0.208 A 
ATOM      3  C   UNL     1      52.557  32.476  49.477  1.00  0.00     0.238 A 
ATOM      4  O   UNL     1      51.769  31.495  49.462  1.00  0.00    -0.285 OA
ATOM      5  C   UNL     1      53.736  32.462  50.262  1.00  0.00     0.111 A 
ATOM      6  C   UNL     1      54.188  31.346  51.026  1.00  0.00     0.134 A 
ATOM      7  C   UNL     1      55.297  31.489  51.869  1.00  0.00     0.093 A 
ATOM      8  C   UNL     1      56.010  32.690  51.922  1.00  0.00     0.123 A 
ATOM      9  C   UNL     1      55.612  33.766  51.135  1.00  0.00     0.094 A 
ATOM     10  C   UNL     1      54.487  33.666  50.312  1.00  0.00     0.146 A 
ATOM     11  O   UNL     1      54.136  34.719  49.586  1.00  0.00    -0.452 OA
ENDROOT
BRANCH   1  12
ATOM     12  C   UNL     1      52.806  35.970  48.011  1.00  0.00     0.029 A 
ATOM     13  C   UNL     1      52.441  37.146  48.682  1.00  0.00     0.062 A 
ATOM     14  C   UNL     1      52.202  38.332  47.980  1.00  0.00     0.162 A 
ATOM     15  C   UNL     1      52.966  36.001  46.617  1.00  0.00     0.062 A 
ATOM     16  C   UNL     1      52.341  38.352  46.571  1.00  0.00     0.200 A 
ATOM     17  C   UNL     1      52.731  37.177  45.900  1.00  0.00     0.162 A 
BRANCH  14  18
ATOM     18  O   UNL     1      51.830  39.459  48.718  1.00  0.00    -0.504 OA
ATOM     19  H   UNL     1      51.177  39.443  49.487  1.00  0.00     0.293 HD
ENDBRANCH  14  18
BRANCH  16  20
ATOM     20  O   UNL     1      52.109  39.503  45.814  1.00  0.00    -0.502 OA
ATOM     21  H   UNL     1      51.524  39.533  44.991  1.00  0.00     0.293 HD
ENDBRANCH  16  20
BRANCH  17  22
ATOM     22  O   UNL     1      52.896  37.161  44.514  1.00  0.00    -0.504 OA
ATOM     23  H   UNL     1      53.168  37.985  43.992  1.00  0.00     0.293 HD
ENDBRANCH  17  22
ENDBRANCH   1  12
BRANCH   2  24
ATOM     24  O   UNL     1      51.058  33.659  47.966  1.00  0.00    -0.502 OA
ATOM     25  H   UNL     1      50.136  33.652  48.382  1.00  0.00     0.293 HD
ENDBRANCH   2  24
BRANCH   6  26
ATOM     26  O   UNL     1      53.603  30.077  50.975  1.00  0.00    -0.507 OA
ATOM     27  H   UNL     1      52.786  29.842  50.433  1.00  0.00     0.293 HD
ENDBRANCH   6  26
BRANCH   8  28
ATOM     28  O   UNL     1      57.123  32.818  52.751  1.00  0.00    -0.508 OA
ATOM     29  H   UNL     1      57.991  33.219  52.414  1.00  0.00     0.293 HD
ENDBRANCH   8  28
TORSDOF 7
ENDMDL
MODEL 6
REMARK VINA RESULT:    -6.409      1.639      7.189
REMARK INTER + INTRA:          -7.922
REMARK INTER:                  -7.576
REMARK INTRA:                  -0.346
REMARK UNBOUND:                -0.014
REMARK SMILES O=c1c(O)c(-c2cc(O)c(O)c(O)c2)oc2cc(O)cc(O)c12
REMARK SMILES IDX 5 1 3 2 2 3 1 4 23 5 21 6 20 7 18 8 17 9 16 10 15 11 6 12
REMARK SMILES IDX 7 13 8 14 14 15 10 16 12 17 9 18 11 20 13 22 4 24 22 26
REMARK SMILES IDX 19 28
REMARK H PARENT 9 19 11 21 13 23 4 25 22 27 19 29
REMARK Flexibility Score: inf
ROOT
ATOM      1  C   UNL     1      51.942  33.813  48.585  1.00  0.00     0.180 A 
ATOM      2  C   UNL     1      50.846  34.522  49.107  1.00  0.00     0.208 A 
ATOM      3  C   UNL     1      50.617  35.836  48.670  1.00  0.00     0.238 A 
ATOM      4  O   UNL     1      49.604  36.447  49.100  1.00  0.00    -0.285 OA
ATOM      5  C   UNL     1      51.493  36.431  47.731  1.00  0.00     0.111 A 
ATOM      6  C   UNL     1      51.379  37.769  47.249  1.00  0.00     0.134 A 
ATOM      7  C   UNL     1      52.224  38.209  46.223  1.00  0.00     0.093 A 
ATOM      8  C   UNL     1      53.223  37.378  45.707  1.00  0.00     0.123 A 
ATOM      9  C   UNL     1      53.381  36.091  46.212  1.00  0.00     0.094 A 
ATOM     10  C   UNL     1      52.529  35.611  47.211  1.00  0.00     0.146 A 
ATOM     11  O   UNL     1      52.708  34.374  47.656  1.00  0.00    -0.452 OA
ENDROOT
BRANCH   1  12
ATOM     12  C   UNL     1      52.263  32.432  49.015  1.00  0.00     0.029 A 
ATOM     13  C   UNL     1      53.174  32.230  50.061  1.00  0.00     0.062 A 
ATOM     14  C   UNL     1      53.486  30.941  50.508  1.00  0.00     0.162 A 
ATOM     15  C   UNL     1      51.631  31.321  48.437  1.00  0.00     0.062 A 
ATOM     16  C   UNL     1      52.863  29.822  49.904  1.00  0.00     0.200 A 
ATOM     17  C   UNL     1      51.930  30.027  48.870  1.00  0.00     0.162 A 
BRANCH  14  18
ATOM     18  O   UNL     1      54.412  30.820  51.546  1.00  0.00    -0.504 OA
ATOM     19  H   UNL     1      54.488  30.013  52.147  1.00  0.00     0.293 HD
ENDBRANCH  14  18
BRANCH  16  20
ATOM     20  O   UNL     1      53.137  28.511  50.301  1.00  0.00    -0.502 OA
ATOM     21  H   UNL     1      52.778  27.690  49.834  1.00  0.00     0.293 HD
ENDBRANCH  16  20
BRANCH  17  22
ATOM     22  O   UNL     1      51.282  28.950  48.262  1.00  0.00    -0.504 OA
ATOM     23  H   UNL     1      51.788  28.208  47.794  1.00  0.00     0.293 HD
ENDBRANCH  17  22
ENDBRANCH   1  12
BRANCH   2  24
ATOM     24  O   UNL     1      49.981  33.909  50.017  1.00  0.00    -0.502 OA
ATOM     25  H   UNL     1      49.808  32.912  50.017  1.00  0.00     0.293 HD
ENDBRANCH   2  24
BRANCH   6  26
ATOM     26  O   UNL     1      50.477  38.708  47.760  1.00  0.00    -0.507 OA
ATOM     27  H   UNL     1      50.730  39.622  48.103  1.00  0.00     0.293 HD
ENDBRANCH   6  26
BRANCH   8  28
ATOM     28  O   UNL     1      54.070  37.830  44.698  1.00  0.00    -0.508 OA
ATOM     29  H   UNL     1      54.035  37.440  43.763  1.00  0.00     0.293 HD
ENDBRANCH   8  28
TORSDOF 7
ENDMDL
MODEL 7
REMARK VINA RESULT:    -6.403      1.636      3.251
REMARK INTER + INTRA:          -7.914
REMARK INTER:                  -7.600
REMARK INTRA:                  -0.314
REMARK UNBOUND:                -0.014
REMARK SMILES O=c1c(O)c(-c2cc(O)c(O)c(O)c2)oc2cc(O)cc(O)c12
REMARK SMILES IDX 5 1 3 2 2 3 1 4 23 5 21 6 20 7 18 8 17 9 16 10 15 11 6 12
REMARK SMILES IDX 7 13 8 14 14 15 10 16 12 17 9 18 11 20 13 22 4 24 22 26
REMARK SMILES IDX 19 28
REMARK H PARENT 9 19 11 21 13 23 4 25 22 27 19 29
REMARK Flexibility Score: inf
ROOT
ATOM      1  C   UNL     1      52.991  34.771  48.742  1.00  0.00     0.180 A 
ATOM      2  C   UNL     1      52.083  33.699  48.697  1.00  0.00     0.208 A 
ATOM      3  C   UNL     1      52.386  32.520  49.396  1.00  0.00     0.238 A 
ATOM      4  O   UNL     1      51.545  31.585  49.396  1.00  0.00    -0.285 OA
ATOM      5  C   UNL     1      53.601  32.421  50.117  1.00  0.00     0.111 A 
ATOM      6  C   UNL     1      54.029  31.260  50.827  1.00  0.00     0.134 A 
ATOM      7  C   UNL     1      55.186  31.318  51.614  1.00  0.00     0.093 A 
ATOM      8  C   UNL     1      55.966  32.476  51.661  1.00  0.00     0.123 A 
ATOM      9  C   UNL     1      55.589  33.595  50.924  1.00  0.00     0.094 A 
ATOM     10  C   UNL     1      54.419  33.580  50.159  1.00  0.00     0.146 A 
ATOM     11  O   UNL     1      54.091  34.671  49.481  1.00  0.00    -0.452 OA
ENDROOT
BRANCH   1  12
ATOM     12  C   UNL     1      52.753  36.037  48.011  1.00  0.00     0.029 A 
ATOM     13  C   UNL     1      52.954  36.082  46.624  1.00  0.00     0.062 A 
ATOM     14  C   UNL     1      52.719  37.255  45.899  1.00  0.00     0.162 A 
ATOM     15  C   UNL     1      52.273  37.181  48.668  1.00  0.00     0.062 A 
ATOM     16  C   UNL     1      52.257  38.412  46.570  1.00  0.00     0.200 A 
ATOM     17  C   UNL     1      52.032  38.360  47.959  1.00  0.00     0.162 A 
BRANCH  14  18
ATOM     18  O   UNL     1      52.954  37.224  44.522  1.00  0.00    -0.504 OA
ATOM     19  H   UNL     1      52.474  36.613  43.878  1.00  0.00     0.293 HD
ENDBRANCH  14  18
BRANCH  16  20
ATOM     20  O   UNL     1      52.011  39.615  45.902  1.00  0.00    -0.502 OA
ATOM     21  H   UNL     1      52.410  39.858  45.007  1.00  0.00     0.293 HD
ENDBRANCH  16  20
BRANCH  17  22
ATOM     22  O   UNL     1      51.562  39.476  48.654  1.00  0.00    -0.504 OA
ATOM     23  H   UNL     1      50.978  40.179  48.218  1.00  0.00     0.293 HD
ENDBRANCH  17  22
ENDBRANCH   1  12
BRANCH   2  24
ATOM     24  O   UNL     1      50.880  33.826  47.997  1.00  0.00    -0.502 OA
ATOM     25  H   UNL     1      50.538  34.718  47.660  1.00  0.00     0.293 HD
ENDBRANCH   2  24
BRANCH   6  26
ATOM     26  O   UNL     1      53.373  30.026  50.773  1.00  0.00    -0.507 OA
ATOM     27  H   UNL     1      53.735  29.164  51.151  1.00  0.00     0.293 HD
ENDBRANCH   6  26
BRANCH   8  28
ATOM     28  O   UNL     1      57.125  32.521  52.433  1.00  0.00    -0.508 OA
ATOM     29  H   UNL     1      57.850  31.818  52.343  1.00  0.00     0.293 HD
ENDBRANCH   8  28
TORSDOF 7
ENDMDL
MODEL 8
REMARK VINA RESULT:    -6.356      3.515      5.513
REMARK INTER + INTRA:          -7.857
REMARK INTER:                  -8.265
REMARK INTRA:                   0.408
REMARK UNBOUND:                -0.014
REMARK SMILES O=c1c(O)c(-c2cc(O)c(O)c(O)c2)oc2cc(O)cc(O)c12
REMARK SMILES IDX 5 1 3 2 2 3 1 4 23 5 21 6 20 7 18 8 17 9 16 10 15 11 6 12
REMARK SMILES IDX 7 13 8 14 14 15 10 16 12 17 9 18 11 20 13 22 4 24 22 26
REMARK SMILES IDX 19 28
REMARK H PARENT 9 19 11 21 13 23 4 25 22 27 19 29
REMARK Flexibility Score: inf
ROOT
ATOM      1  C   UNL     1      52.506  31.483  49.244  1.00  0.00     0.180 A 
ATOM      2  C   UNL     1      52.296  31.888  47.914  1.00  0.00     0.208 A 
ATOM      3  C   UNL     1      51.158  31.426  47.235  1.00  0.00     0.238 A 
ATOM      4  O   UNL     1      50.946  31.835  46.064  1.00  0.00    -0.285 OA
ATOM      5  C   UNL     1      50.254  30.552  47.886  1.00  0.00     0.111 A 
ATOM      6  C   UNL     1      49.090  29.990  47.279  1.00  0.00     0.134 A 
ATOM      7  C   UNL     1      48.198  29.243  48.057  1.00  0.00     0.093 A 
ATOM      8  C   UNL     1      48.462  28.982  49.405  1.00  0.00     0.123 A 
ATOM      9  C   UNL     1      49.624  29.475  49.990  1.00  0.00     0.094 A 
ATOM     10  C   UNL     1      50.516  30.256  49.249  1.00  0.00     0.146 A 
ATOM     11  O   UNL     1      51.607  30.715  49.848  1.00  0.00    -0.452 OA
ENDROOT
BRANCH   1  12
ATOM     12  C   UNL     1      53.696  31.907  50.018  1.00  0.00     0.029 A 
ATOM     13  C   UNL     1      54.401  33.054  49.626  1.00  0.00     0.062 A 
ATOM     14  C   UNL     1      55.516  33.496  50.346  1.00  0.00     0.162 A 
ATOM     15  C   UNL     1      54.100  31.220  51.173  1.00  0.00     0.062 A 
ATOM     16  C   UNL     1      55.933  32.785  51.496  1.00  0.00     0.200 A 
ATOM     17  C   UNL     1      55.210  31.648  51.904  1.00  0.00     0.162 A 
BRANCH  14  18
ATOM     18  O   UNL     1      56.174  34.639  49.885  1.00  0.00    -0.504 OA
ATOM     19  H   UNL     1      56.984  35.045  50.330  1.00  0.00     0.293 HD
ENDBRANCH  14  18
BRANCH  16  20
ATOM     20  O   UNL     1      57.043  33.173  52.252  1.00  0.00    -0.502 OA
ATOM     21  H   UNL     1      57.198  34.111  52.592  1.00  0.00     0.293 HD
ENDBRANCH  16  20
BRANCH  17  22
ATOM     22  O   UNL     1      55.580  30.930  53.043  1.00  0.00    -0.504 OA
ATOM     23  H   UNL     1      56.352  31.213  53.634  1.00  0.00     0.293 HD
ENDBRANCH  17  22
ENDBRANCH   1  12
BRANCH   2  24
ATOM     24  O   UNL     1      53.189  32.768  47.298  1.00  0.00    -0.502 OA
ATOM     25  H   UNL     1      53.661  32.546  46.430  1.00  0.00     0.293 HD
ENDBRANCH   2  24
BRANCH   6  26
ATOM     26  O   UNL     1      48.782  30.114  45.921  1.00  0.00    -0.507 OA
ATOM     27  H   UNL     1      48.866  30.965  45.387  1.00  0.00     0.293 HD
ENDBRANCH   6  26
BRANCH   8  28
ATOM     28  O   UNL     1      47.577  28.224  50.168  1.00  0.00    -0.508 OA
ATOM     29  H   UNL     1      47.872  27.764  51.021  1.00  0.00     0.293 HD
ENDBRANCH   8  28
TORSDOF 7
ENDMDL
MODEL 9
REMARK VINA RESULT:    -6.291      1.349      3.376
REMARK INTER + INTRA:          -7.777
REMARK INTER:                  -7.481
REMARK INTRA:                  -0.295
REMARK UNBOUND:                -0.014
REMARK SMILES O=c1c(O)c(-c2cc(O)c(O)c(O)c2)oc2cc(O)cc(O)c12
REMARK SMILES IDX 5 1 3 2 2 3 1 4 23 5 21 6 20 7 18 8 17 9 16 10 15 11 6 12
REMARK SMILES IDX 7 13 8 14 14 15 10 16 12 17 9 18 11 20 13 22 4 24 22 26
REMARK SMILES IDX 19 28
REMARK H PARENT 9 19 11 21 13 23 4 25 22 27 19 29
REMARK Flexibility Score: inf
ROOT
ATOM      1  C   UNL     1      52.449  34.891  47.867  1.00  0.00     0.180 A 
ATOM      2  C   UNL     1      51.325  34.164  47.436  1.00  0.00     0.208 A 
ATOM      3  C   UNL     1      51.151  32.847  47.891  1.00  0.00     0.238 A 
ATOM      4  O   UNL     1      50.116  32.221  47.546  1.00  0.00    -0.285 OA
ATOM      5  C   UNL     1      52.111  32.268  48.757  1.00  0.00     0.111 A 
ATOM      6  C   UNL     1      52.056  30.929  49.247  1.00  0.00     0.134 A 
ATOM      7  C   UNL     1      52.987  30.504  50.202  1.00  0.00     0.093 A 
ATOM      8  C   UNL     1      54.012  31.350  50.634  1.00  0.00     0.123 A 
ATOM      9  C   UNL     1      54.110  32.639  50.117  1.00  0.00     0.094 A 
ATOM     10  C   UNL     1      53.173  33.104  49.190  1.00  0.00     0.146 A 
ATOM     11  O   UNL     1      53.296  34.342  48.730  1.00  0.00    -0.452 OA
ENDROOT
BRANCH   1  12
ATOM     12  C   UNL     1      52.714  36.274  47.410  1.00  0.00     0.029 A 
ATOM     13  C   UNL     1      52.593  37.336  48.318  1.00  0.00     0.062 A 
ATOM     14  C   UNL     1      52.856  38.653  47.927  1.00  0.00     0.162 A 
ATOM     15  C   UNL     1      53.143  36.543  46.101  1.00  0.00     0.062 A 
ATOM     16  C   UNL     1      53.264  38.921  46.598  1.00  0.00     0.200 A 
ATOM     17  C   UNL     1      53.410  37.852  45.694  1.00  0.00     0.162 A 
BRANCH  14  18
ATOM     18  O   UNL     1      52.700  39.658  48.885  1.00  0.00    -0.504 OA
ATOM     19  H   UNL     1      53.333  39.809  49.656  1.00  0.00     0.293 HD
ENDBRANCH  14  18
BRANCH  16  20
ATOM     20  O   UNL     1      53.535  40.215  46.146  1.00  0.00    -0.502 OA
ATOM     21  H   UNL     1      54.229  40.438  45.447  1.00  0.00     0.293 HD
ENDBRANCH  16  20
BRANCH  17  22
ATOM     22  O   UNL     1      53.828  38.073  44.380  1.00  0.00    -0.504 OA
ATOM     23  H   UNL     1      53.618  38.930  43.882  1.00  0.00     0.293 HD
ENDBRANCH  17  22
ENDBRANCH   1  12
BRANCH   2  24
ATOM     24  O   UNL     1      50.380  34.762  46.598  1.00  0.00    -0.502 OA
ATOM     25  H   UNL     1      50.610  35.100  45.673  1.00  0.00     0.293 HD
ENDBRANCH   2  24
BRANCH   6  26
ATOM     26  O   UNL     1      51.129  29.976  48.812  1.00  0.00    -0.507 OA
ATOM     27  H   UNL     1      50.396  30.151  48.142  1.00  0.00     0.293 HD
ENDBRANCH   6  26
BRANCH   8  28
ATOM     28  O   UNL     1      54.946  30.914  51.572  1.00  0.00    -0.508 OA
ATOM     29  H   UNL     1      54.840  31.118  52.559  1.00  0.00     0.293 HD
ENDBRANCH   8  28
TORSDOF 7
ENDMDL
