MODEL 1
REMARK VINA RESULT:    -2.666      0.000      0.000
REMARK INTER + INTRA:          -4.255
REMARK INTER:                  -4.069
REMARK INTRA:                  -0.185
REMARK UNBOUND:                -0.185
REMARK SMILES CC1=CCC[C@@H](C)C(=O)C[C@H](C(C)C)C(=O)C1
REMARK SMILES IDX 8 1 9 2 6 3 7 4 5 5 4 6 3 7 2 8 1 9 10 11 11 12 15 13 16 14
REMARK SMILES IDX 17 15 12 17 13 18 14 19
REMARK H PARENT
REMARK Flexibility Score: 70.00
ROOT
ATOM      1  C   UNL     1     188.846 181.496 226.666  1.00  0.00     0.136 C 
ATOM      2  O   UNL     1     188.096 180.811 227.348  1.00  0.00    -0.299 OA
ENDROOT
BRANCH   1   3
ATOM      3  C   UNL     1     189.785 182.496 227.323  1.00  0.00     0.053 C 
ATOM      4  C   UNL     1     190.547 181.911 228.525  1.00  0.00     0.016 C 
BRANCH   3   5
ATOM      5  C   UNL     1     189.099 183.843 227.664  1.00  0.00     0.015 C 
BRANCH   5   6
ATOM      6  C   UNL     1     189.236 185.006 226.655  1.00  0.00     0.028 C 
BRANCH   6   7
ATOM      7  C   UNL     1     190.617 185.305 226.119  1.00  0.00    -0.028 C 
ATOM      8  C   UNL     1     191.056 185.087 224.858  1.00  0.00    -0.070 CG0
ATOM      9  C   UNL     1     192.541 185.214 224.614  1.00  0.00     0.039 C 
ATOM     10  G   UNL     1     190.148 184.671 223.712  1.00  0.00     0.000 G0
ENDBRANCH   6   7
ENDBRANCH   5   6
ENDBRANCH   3   5
ENDBRANCH   1   3
BRANCH   1  11
ATOM     11  C   UNL     1     188.919 181.261 225.173  1.00  0.00     0.087 C 
BRANCH  11  12
ATOM     12  C   UNL     1     188.650 182.517 224.302  1.00  0.00     0.066 C 
BRANCH  12  13
ATOM     13  C   UNL     1     189.883 183.174 223.682  1.00  0.00     0.140 C 
ATOM     14  O   UNL     1     190.710 182.445 223.153  1.00  0.00    -0.299 OA
BRANCH  13  15
ATOM     15  C   UNL     1     190.150 184.666 223.673  1.00  0.00     0.106 CG0
ATOM     16  G   UNL     1     191.043 185.069 224.835  1.00  0.00     0.000 G0
ENDBRANCH  13  15
ENDBRANCH  12  13
BRANCH  12  17
ATOM     17  C   UNL     1     187.554 182.206 223.230  1.00  0.00    -0.006 C 
ATOM     18  C   UNL     1     187.023 180.768 223.339  1.00  0.00     0.008 C 
ATOM     19  C   UNL     1     186.381 183.204 223.256  1.00  0.00     0.008 C 
ENDBRANCH  12  17
ENDBRANCH  11  12
ENDBRANCH   1  11
TORSDOF 1
ENDMDL
MODEL 2
REMARK VINA RESULT:    -2.593      2.000      4.312
REMARK INTER + INTRA:          -4.142
REMARK INTER:                  -4.285
REMARK INTRA:                   0.142
REMARK UNBOUND:                -0.185
REMARK SMILES CC1=CCC[C@@H](C)C(=O)C[C@H](C(C)C)C(=O)C1
REMARK SMILES IDX 8 1 9 2 6 3 7 4 5 5 4 6 3 7 2 8 1 9 10 11 11 12 15 13 16 14
REMARK SMILES IDX 17 15 12 17 13 18 14 19
REMARK H PARENT
REMARK Flexibility Score: 70.00
ROOT
ATOM      1  C   UNL     1     188.449 181.553 224.490  1.00  0.00     0.136 C 
ATOM      2  O   UNL     1     189.312 181.164 223.716  1.00  0.00    -0.299 OA
ENDROOT
BRANCH   1   3
ATOM      3  C   UNL     1     186.979 181.463 224.110  1.00  0.00     0.053 C 
ATOM      4  C   UNL     1     186.649 180.231 223.249  1.00  0.00     0.016 C 
BRANCH   3   5
ATOM      5  C   UNL     1     186.428 182.773 223.491  1.00  0.00     0.015 C 
BRANCH   5   6
ATOM      6  C   UNL     1     185.980 183.899 224.450  1.00  0.00     0.028 C 
BRANCH   6   7
ATOM      7  C   UNL     1     186.481 185.296 224.166  1.00  0.00    -0.028 C 
ATOM      8  C   UNL     1     187.418 185.974 224.868  1.00  0.00    -0.070 CG0
ATOM      9  C   UNL     1     187.573 187.446 224.567  1.00  0.00     0.039 C 
ATOM     10  G   UNL     1     188.263 185.347 225.964  1.00  0.00     0.000 G0
ENDBRANCH   6   7
ENDBRANCH   5   6
ENDBRANCH   3   5
ENDBRANCH   1   3
BRANCH   1  11
ATOM     11  C   UNL     1     188.842 182.014 225.876  1.00  0.00     0.087 C 
BRANCH  11  12
ATOM     12  C   UNL     1     189.881 183.167 225.909  1.00  0.00     0.066 C 
BRANCH  12  13
ATOM     13  C   UNL     1     189.402 184.509 225.356  1.00  0.00     0.140 C 
ATOM     14  O   UNL     1     189.949 184.936 224.350  1.00  0.00    -0.299 OA
BRANCH  13  15
ATOM     15  C   UNL     1     188.294 185.345 225.965  1.00  0.00     0.106 CG0
ATOM     16  G   UNL     1     187.424 185.969 224.887  1.00  0.00     0.000 G0
ENDBRANCH  13  15
ENDBRANCH  12  13
BRANCH  12  17
ATOM     17  C   UNL     1     190.486 183.309 227.344  1.00  0.00    -0.006 C 
ATOM     18  C   UNL     1     190.297 182.036 228.184  1.00  0.00     0.008 C 
ATOM     19  C   UNL     1     191.969 183.720 227.337  1.00  0.00     0.008 C 
ENDBRANCH  12  17
ENDBRANCH  11  12
ENDBRANCH   1  11
TORSDOF 1
ENDMDL
MODEL 3
REMARK VINA RESULT:    -2.581     13.624     15.395
REMARK INTER + INTRA:          -4.124
REMARK INTER:                  -3.795
REMARK INTRA:                  -0.330
REMARK UNBOUND:                -0.185
REMARK SMILES CC1=CCC[C@@H](C)C(=O)C[C@H](C(C)C)C(=O)C1
REMARK SMILES IDX 8 1 9 2 6 3 7 4 5 5 4 6 3 7 2 8 1 9 10 11 11 12 15 13 16 14
REMARK SMILES IDX 17 15 12 17 13 18 14 19
REMARK H PARENT
REMARK Flexibility Score: 70.00
ROOT
ATOM      1  C   UNL     1     179.049 179.754 234.170  1.00  0.00     0.136 C 
ATOM      2  O   UNL     1     178.177 179.498 233.351  1.00  0.00    -0.299 OA
ENDROOT
BRANCH   1   3
ATOM      3  C   UNL     1     180.346 178.960 234.185  1.00  0.00     0.053 C 
ATOM      4  C   UNL     1     180.273 177.695 235.057  1.00  0.00     0.016 C 
BRANCH   3   5
ATOM      5  C   UNL     1     181.588 179.827 234.515  1.00  0.00     0.015 C 
BRANCH   5   6
ATOM      6  C   UNL     1     182.141 179.788 235.958  1.00  0.00     0.028 C 
BRANCH   6   7
ATOM      7  C   UNL     1     182.530 181.104 236.590  1.00  0.00    -0.028 C 
ATOM      8  C   UNL     1     181.849 181.768 237.552  1.00  0.00    -0.070 CG0
ATOM      9  C   UNL     1     182.280 183.185 237.847  1.00  0.00     0.039 C 
ATOM     10  G   UNL     1     180.656 181.185 238.291  1.00  0.00     0.000 G0
ENDBRANCH   6   7
ENDBRANCH   5   6
ENDBRANCH   3   5
ENDBRANCH   1   3
BRANCH   1  11
ATOM     11  C   UNL     1     178.880 180.941 235.092  1.00  0.00     0.087 C 
BRANCH  11  12
ATOM     12  C   UNL     1     178.662 180.580 236.586  1.00  0.00     0.066 C 
BRANCH  12  13
ATOM     13  C   UNL     1     179.339 181.503 237.599  1.00  0.00     0.140 C 
ATOM     14  O   UNL     1     178.787 182.561 237.862  1.00  0.00    -0.299 OA
BRANCH  13  15
ATOM     15  C   UNL     1     180.645 181.195 238.305  1.00  0.00     0.106 CG0
ATOM     16  G   UNL     1     181.826 181.783 237.552  1.00  0.00     0.000 G0
ENDBRANCH  13  15
ENDBRANCH  12  13
BRANCH  12  17
ATOM     17  C   UNL     1     177.136 180.408 236.883  1.00  0.00    -0.006 C 
ATOM     18  C   UNL     1     176.260 181.231 235.926  1.00  0.00     0.008 C 
ATOM     19  C   UNL     1     176.681 178.937 236.880  1.00  0.00     0.008 C 
ENDBRANCH  12  17
ENDBRANCH  11  12
ENDBRANCH   1  11
TORSDOF 1
ENDMDL
MODEL 4
REMARK VINA RESULT:    -2.572      8.176      9.442
REMARK INTER + INTRA:          -4.111
REMARK INTER:                  -3.810
REMARK INTRA:                  -0.301
REMARK UNBOUND:                -0.185
REMARK SMILES CC1=CCC[C@@H](C)C(=O)C[C@H](C(C)C)C(=O)C1
REMARK SMILES IDX 8 1 9 2 6 3 7 4 5 5 4 6 3 7 2 8 1 9 10 11 11 12 15 13 16 14
REMARK SMILES IDX 17 15 12 17 13 18 14 19
REMARK H PARENT
REMARK Flexibility Score: 70.00
ROOT
ATOM      1  C   UNL     1     181.649 189.389 227.602  1.00  0.00     0.136 C 
ATOM      2  O   UNL     1     180.884 189.767 228.478  1.00  0.00    -0.299 OA
ENDROOT
BRANCH   1   3
ATOM      3  C   UNL     1     183.106 189.827 227.611  1.00  0.00     0.053 C 
ATOM      4  C   UNL     1     183.793 189.618 228.971  1.00  0.00     0.016 C 
BRANCH   3   5
ATOM      5  C   UNL     1     183.314 191.262 227.064  1.00  0.00     0.015 C 
BRANCH   5   6
ATOM      6  C   UNL     1     183.843 191.423 225.621  1.00  0.00     0.028 C 
BRANCH   6   7
ATOM      7  C   UNL     1     184.873 190.427 225.141  1.00  0.00    -0.028 C 
ATOM      8  C   UNL     1     184.664 189.404 224.280  1.00  0.00    -0.070 CG0
ATOM      9  C   UNL     1     185.767 188.381 224.147  1.00  0.00     0.039 C 
ATOM     10  G   UNL     1     183.374 189.211 223.502  1.00  0.00     0.000 G0
ENDBRANCH   6   7
ENDBRANCH   5   6
ENDBRANCH   3   5
ENDBRANCH   1   3
BRANCH   1  11
ATOM     11  C   UNL     1     181.169 188.389 226.574  1.00  0.00     0.087 C 
BRANCH  11  12
ATOM     12  C   UNL     1     181.218 188.888 225.105  1.00  0.00     0.066 C 
BRANCH  12  13
ATOM     13  C   UNL     1     182.365 188.342 224.255  1.00  0.00     0.140 C 
ATOM     14  O   UNL     1     182.487 187.128 224.179  1.00  0.00    -0.299 OA
BRANCH  13  15
ATOM     15  C   UNL     1     183.358 189.200 223.495  1.00  0.00     0.106 CG0
ATOM     16  G   UNL     1     184.635 189.396 224.294  1.00  0.00     0.000 G0
ENDBRANCH  13  15
ENDBRANCH  12  13
BRANCH  12  17
ATOM     17  C   UNL     1     179.830 188.680 224.416  1.00  0.00    -0.006 C 
ATOM     18  C   UNL     1     178.663 188.793 225.410  1.00  0.00     0.008 C 
ATOM     19  C   UNL     1     179.598 189.624 223.223  1.00  0.00     0.008 C 
ENDBRANCH  12  17
ENDBRANCH  11  12
ENDBRANCH   1  11
TORSDOF 1
ENDMDL
MODEL 5
REMARK VINA RESULT:    -2.571      8.223      9.315
REMARK INTER + INTRA:          -4.109
REMARK INTER:                  -3.926
REMARK INTRA:                  -0.183
REMARK UNBOUND:                -0.185
REMARK SMILES CC1=CCC[C@@H](C)C(=O)C[C@H](C(C)C)C(=O)C1
REMARK SMILES IDX 8 1 9 2 6 3 7 4 5 5 4 6 3 7 2 8 1 9 10 11 11 12 15 13 16 14
REMARK SMILES IDX 17 15 12 17 13 18 14 19
REMARK H PARENT
REMARK Flexibility Score: 70.00
ROOT
ATOM      1  C   UNL     1     181.899 189.477 227.213  1.00  0.00     0.136 C 
ATOM      2  O   UNL     1     180.679 189.460 227.308  1.00  0.00    -0.299 OA
ENDROOT
BRANCH   1   3
ATOM      3  C   UNL     1     182.749 190.049 228.337  1.00  0.00     0.053 C 
ATOM      4  C   UNL     1     182.524 189.344 229.686  1.00  0.00     0.016 C 
BRANCH   3   5
ATOM      5  C   UNL     1     182.645 191.590 228.457  1.00  0.00     0.015 C 
BRANCH   5   6
ATOM      6  C   UNL     1     183.787 192.446 227.864  1.00  0.00     0.028 C 
BRANCH   6   7
ATOM      7  C   UNL     1     185.161 191.821 227.790  1.00  0.00    -0.028 C 
ATOM      8  C   UNL     1     185.735 191.266 226.698  1.00  0.00    -0.070 CG0
ATOM      9  C   UNL     1     187.000 190.470 226.914  1.00  0.00     0.039 C 
ATOM     10  G   UNL     1     185.144 191.356 225.300  1.00  0.00     0.000 G0
ENDBRANCH   6   7
ENDBRANCH   5   6
ENDBRANCH   3   5
ENDBRANCH   1   3
BRANCH   1  11
ATOM     11  C   UNL     1     182.563 188.820 226.024  1.00  0.00     0.087 C 
BRANCH  11  12
ATOM     12  C   UNL     1     183.015 189.798 224.906  1.00  0.00     0.066 C 
BRANCH  12  13
ATOM     13  C   UNL     1     184.515 190.083 224.839  1.00  0.00     0.140 C 
ATOM     14  O   UNL     1     185.240 189.211 224.382  1.00  0.00    -0.299 OA
BRANCH  13  15
ATOM     15  C   UNL     1     185.167 191.374 225.293  1.00  0.00     0.106 CG0
ATOM     16  G   UNL     1     185.721 191.242 226.702  1.00  0.00     0.000 G0
ENDBRANCH  13  15
ENDBRANCH  12  13
BRANCH  12  17
ATOM     17  C   UNL     1     182.446 189.340 223.524  1.00  0.00    -0.006 C 
ATOM     18  C   UNL     1     182.023 187.862 223.529  1.00  0.00     0.008 C 
ATOM     19  C   UNL     1     181.284 190.218 223.026  1.00  0.00     0.008 C 
ENDBRANCH  12  17
ENDBRANCH  11  12
ENDBRANCH   1  11
TORSDOF 1
ENDMDL
MODEL 6
REMARK VINA RESULT:    -2.534     13.178     15.243
REMARK INTER + INTRA:          -4.053
REMARK INTER:                  -3.858
REMARK INTRA:                  -0.194
REMARK UNBOUND:                -0.185
REMARK SMILES CC1=CCC[C@@H](C)C(=O)C[C@H](C(C)C)C(=O)C1
REMARK SMILES IDX 8 1 9 2 6 3 7 4 5 5 4 6 3 7 2 8 1 9 10 11 11 12 15 13 16 14
REMARK SMILES IDX 17 15 12 17 13 18 14 19
REMARK H PARENT
REMARK Flexibility Score: 70.00
ROOT
ATOM      1  C   UNL     1     192.215 192.192 237.392  1.00  0.00     0.136 C 
ATOM      2  O   UNL     1     191.066 192.220 237.810  1.00  0.00    -0.299 OA
ENDROOT
BRANCH   1   3
ATOM      3  C   UNL     1     192.774 190.926 236.762  1.00  0.00     0.053 C 
ATOM      4  C   UNL     1     194.221 190.625 237.187  1.00  0.00     0.016 C 
BRANCH   3   5
ATOM      5  C   UNL     1     192.595 190.880 235.223  1.00  0.00     0.015 C 
BRANCH   5   6
ATOM      6  C   UNL     1     191.256 191.374 234.631  1.00  0.00     0.028 C 
BRANCH   6   7
ATOM      7  C   UNL     1     191.321 192.328 233.461  1.00  0.00    -0.028 C 
ATOM      8  C   UNL     1     191.170 193.672 233.509  1.00  0.00    -0.070 CG0
ATOM      9  C   UNL     1     191.012 194.394 232.191  1.00  0.00     0.039 C 
ATOM     10  G   UNL     1     191.094 194.464 234.803  1.00  0.00     0.000 G0
ENDBRANCH   6   7
ENDBRANCH   5   6
ENDBRANCH   3   5
ENDBRANCH   1   3
BRANCH   1  11
ATOM     11  C   UNL     1     193.041 193.460 237.398  1.00  0.00     0.087 C 
BRANCH  11  12
ATOM     12  C   UNL     1     193.451 193.977 235.993  1.00  0.00     0.066 C 
BRANCH  12  13
ATOM     13  C   UNL     1     192.450 194.908 235.309  1.00  0.00     0.140 C 
ATOM     14  O   UNL     1     192.778 196.075 235.148  1.00  0.00    -0.299 OA
BRANCH  13  15
ATOM     15  C   UNL     1     191.083 194.484 234.810  1.00  0.00     0.106 CG0
ATOM     16  G   UNL     1     191.195 193.668 233.532  1.00  0.00     0.000 G0
ENDBRANCH  13  15
ENDBRANCH  12  13
BRANCH  12  17
ATOM     17  C   UNL     1     194.885 194.597 236.042  1.00  0.00    -0.006 C 
ATOM     18  C   UNL     1     195.743 193.994 237.166  1.00  0.00     0.008 C 
ATOM     19  C   UNL     1     195.633 194.502 234.700  1.00  0.00     0.008 C 
ENDBRANCH  12  17
ENDBRANCH  11  12
ENDBRANCH   1  11
TORSDOF 1
ENDMDL
MODEL 7
REMARK VINA RESULT:    -2.464      7.667      9.254
REMARK INTER + INTRA:          -3.946
REMARK INTER:                  -3.704
REMARK INTRA:                  -0.241
REMARK UNBOUND:                -0.185
REMARK SMILES CC1=CCC[C@@H](C)C(=O)C[C@H](C(C)C)C(=O)C1
REMARK SMILES IDX 8 1 9 2 6 3 7 4 5 5 4 6 3 7 2 8 1 9 10 11 11 12 15 13 16 14
REMARK SMILES IDX 17 15 12 17 13 18 14 19
REMARK H PARENT
REMARK Flexibility Score: 70.00
ROOT
ATOM      1  C   UNL     1     185.742 190.376 227.303  1.00  0.00     0.136 C 
ATOM      2  O   UNL     1     185.268 190.773 228.359  1.00  0.00    -0.299 OA
ENDROOT
BRANCH   1   3
ATOM      3  C   UNL     1     186.472 189.043 227.242  1.00  0.00     0.053 C 
ATOM      4  C   UNL     1     187.755 189.093 226.394  1.00  0.00     0.016 C 
BRANCH   3   5
ATOM      5  C   UNL     1     185.552 187.862 226.842  1.00  0.00     0.015 C 
BRANCH   5   6
ATOM      6  C   UNL     1     184.125 187.816 227.434  1.00  0.00     0.028 C 
BRANCH   6   7
ATOM      7  C   UNL     1     182.986 187.527 226.485  1.00  0.00    -0.028 C 
ATOM      8  C   UNL     1     182.157 188.435 225.921  1.00  0.00    -0.070 CG0
ATOM      9  C   UNL     1     180.931 187.905 225.216  1.00  0.00     0.039 C 
ATOM     10  G   UNL     1     182.370 189.937 226.012  1.00  0.00     0.000 G0
ENDBRANCH   6   7
ENDBRANCH   5   6
ENDBRANCH   3   5
ENDBRANCH   1   3
BRANCH   1  11
ATOM     11  C   UNL     1     185.496 191.160 226.033  1.00  0.00     0.087 C 
BRANCH  11  12
ATOM     12  C   UNL     1     184.785 190.367 224.904  1.00  0.00     0.066 C 
BRANCH  12  13
ATOM     13  C   UNL     1     183.259 190.451 224.893  1.00  0.00     0.140 C 
ATOM     14  O   UNL     1     182.724 190.955 223.916  1.00  0.00    -0.299 OA
BRANCH  13  15
ATOM     15  C   UNL     1     182.361 189.946 226.006  1.00  0.00     0.106 CG0
ATOM     16  G   UNL     1     182.159 188.444 225.908  1.00  0.00     0.000 G0
ENDBRANCH  13  15
ENDBRANCH  12  13
BRANCH  12  17
ATOM     17  C   UNL     1     185.399 190.735 223.515  1.00  0.00    -0.006 C 
ATOM     18  C   UNL     1     186.053 192.126 223.517  1.00  0.00     0.008 C 
ATOM     19  C   UNL     1     186.399 189.685 222.997  1.00  0.00     0.008 C 
ENDBRANCH  12  17
ENDBRANCH  11  12
ENDBRANCH   1  11
TORSDOF 1
ENDMDL
MODEL 8
REMARK VINA RESULT:    -2.310      8.052      9.853
REMARK INTER + INTRA:          -3.710
REMARK INTER:                  -3.425
REMARK INTRA:                  -0.285
REMARK UNBOUND:                -0.185
REMARK SMILES CC1=CCC[C@@H](C)C(=O)C[C@H](C(C)C)C(=O)C1
REMARK SMILES IDX 8 1 9 2 6 3 7 4 5 5 4 6 3 7 2 8 1 9 10 11 11 12 15 13 16 14
REMARK SMILES IDX 17 15 12 17 13 18 14 19
REMARK H PARENT
REMARK Flexibility Score: 70.00
ROOT
ATOM      1  C   UNL     1     182.605 189.503 227.675  1.00  0.00     0.136 C 
ATOM      2  O   UNL     1     182.875 189.570 228.866  1.00  0.00    -0.299 OA
ENDROOT
BRANCH   1   3
ATOM      3  C   UNL     1     181.790 188.337 227.136  1.00  0.00     0.053 C 
ATOM      4  C   UNL     1     180.613 187.948 228.048  1.00  0.00     0.016 C 
BRANCH   3   5
ATOM      5  C   UNL     1     182.658 187.114 226.748  1.00  0.00     0.015 C 
BRANCH   5   6
ATOM      6  C   UNL     1     182.737 186.721 225.255  1.00  0.00     0.028 C 
BRANCH   6   7
ATOM      7  C   UNL     1     181.721 187.332 224.319  1.00  0.00    -0.028 C 
ATOM      8  C   UNL     1     181.902 188.416 223.531  1.00  0.00    -0.070 CG0
ATOM      9  C   UNL     1     180.674 189.006 222.878  1.00  0.00     0.039 C 
ATOM     10  G   UNL     1     183.248 189.089 223.324  1.00  0.00     0.000 G0
ENDBRANCH   6   7
ENDBRANCH   5   6
ENDBRANCH   3   5
ENDBRANCH   1   3
BRANCH   1  11
ATOM     11  C   UNL     1     182.983 190.646 226.759  1.00  0.00     0.087 C 
BRANCH  11  12
ATOM     12  C   UNL     1     183.983 190.274 225.631  1.00  0.00     0.066 C 
BRANCH  12  13
ATOM     13  C   UNL     1     183.424 190.306 224.209  1.00  0.00     0.140 C 
ATOM     14  O   UNL     1     183.090 191.391 223.754  1.00  0.00    -0.299 OA
BRANCH  13  15
ATOM     15  C   UNL     1     183.259 189.088 223.321  1.00  0.00     0.106 CG0
ATOM     16  G   UNL     1     181.913 188.421 223.550  1.00  0.00     0.000 G0
ENDBRANCH  13  15
ENDBRANCH  12  13
BRANCH  12  17
ATOM     17  C   UNL     1     185.288 191.124 225.764  1.00  0.00    -0.006 C 
ATOM     18  C   UNL     1     185.346 191.900 227.089  1.00  0.00     0.008 C 
ATOM     19  C   UNL     1     186.573 190.293 225.585  1.00  0.00     0.008 C 
ENDBRANCH  12  17
ENDBRANCH  11  12
ENDBRANCH   1  11
TORSDOF 1
ENDMDL
MODEL 9
REMARK VINA RESULT:    -2.215      2.516      3.626
REMARK INTER + INTRA:          -3.566
REMARK INTER:                  -3.546
REMARK INTRA:                  -0.019
REMARK UNBOUND:                -0.185
REMARK SMILES CC1=CCC[C@@H](C)C(=O)C[C@H](C(C)C)C(=O)C1
REMARK SMILES IDX 8 1 9 2 6 3 7 4 5 5 4 6 3 7 2 8 1 9 10 11 11 12 15 13 16 14
REMARK SMILES IDX 17 15 12 17 13 18 14 19
REMARK H PARENT
REMARK Flexibility Score: 70.00
ROOT
ATOM      1  C   UNL     1     188.264 183.084 223.694  1.00  0.00     0.136 C 
ATOM      2  O   UNL     1     187.605 182.098 223.394  1.00  0.00    -0.299 OA
ENDROOT
BRANCH   1   3
ATOM      3  C   UNL     1     189.773 182.979 223.860  1.00  0.00     0.053 C 
ATOM      4  C   UNL     1     190.408 181.906 222.960  1.00  0.00     0.016 C 
BRANCH   3   5
ATOM      5  C   UNL     1     190.215 182.839 225.339  1.00  0.00     0.015 C 
BRANCH   5   6
ATOM      6  C   UNL     1     191.168 183.909 225.919  1.00  0.00     0.028 C 
BRANCH   6   7
ATOM      7  C   UNL     1     191.214 185.251 225.225  1.00  0.00    -0.028 C 
ATOM      8  C   UNL     1     190.318 186.256 225.357  1.00  0.00    -0.070 CG0
ATOM      9  C   UNL     1     190.417 187.399 224.375  1.00  0.00     0.039 C 
ATOM     10  G   UNL     1     189.204 186.259 226.390  1.00  0.00     0.000 G0
ENDBRANCH   6   7
ENDBRANCH   5   6
ENDBRANCH   3   5
ENDBRANCH   1   3
BRANCH   1  11
ATOM     11  C   UNL     1     187.588 184.434 223.785  1.00  0.00     0.087 C 
BRANCH  11  12
ATOM     12  C   UNL     1     187.201 184.874 225.223  1.00  0.00     0.066 C 
BRANCH  12  13
ATOM     13  C   UNL     1     187.843 186.170 225.717  1.00  0.00     0.140 C 
ATOM     14  O   UNL     1     187.219 187.210 225.558  1.00  0.00    -0.299 OA
BRANCH  13  15
ATOM     15  C   UNL     1     189.196 186.257 226.395  1.00  0.00     0.106 CG0
ATOM     16  G   UNL     1     190.322 186.246 225.374  1.00  0.00     0.000 G0
ENDBRANCH  13  15
ENDBRANCH  12  13
BRANCH  12  17
ATOM     17  C   UNL     1     185.646 184.895 225.382  1.00  0.00    -0.006 C 
ATOM     18  C   UNL     1     184.979 183.661 224.754  1.00  0.00     0.008 C 
ATOM     19  C   UNL     1     185.189 185.055 226.843  1.00  0.00     0.008 C 
ENDBRANCH  12  17
ENDBRANCH  11  12
ENDBRANCH   1  11
TORSDOF 1
ENDMDL
